MODEL 1
REMARK VINA RESULT:    -4.202      0.000      0.000
REMARK INTER + INTRA:          -6.097
REMARK INTER:                  -5.676
REMARK INTRA:                  -0.420
REMARK UNBOUND:                -0.420
REMARK SMILES CCCCCCC=CC(=O)[O-]
REMARK SMILES IDX 5 1 6 2 7 3 8 4 9 5 10 6 11 7 4 8 3 9 2 10 1 11
REMARK H PARENT
REMARK Flexibility Score: inf
ROOT
ATOM      1  C   UNL     1     131.997 131.349 125.671  1.00  0.00     0.004 C 
ENDROOT
BRANCH   1   2
ATOM      2  C   UNL     1     131.195 132.331 126.534  1.00  0.00     0.027 C 
BRANCH   2   3
ATOM      3  C   UNL     1     129.933 132.764 125.837  1.00  0.00    -0.025 C 
ATOM      4  C   UNL     1     129.417 134.005 125.842  1.00  0.00     0.020 C 
BRANCH   4   5
ATOM      5  C   UNL     1     129.993 135.199 126.494  1.00  0.00     0.064 C 
ATOM      6  O   UNL     1     130.868 135.911 125.935  1.00  0.00    -0.545 OA
ATOM      7  O   UNL     1     129.538 135.559 127.756  1.00  0.00    -0.545 OA
ENDBRANCH   4   5
ENDBRANCH   2   3
ENDBRANCH   1   2
BRANCH   1   8
ATOM      8  C   UNL     1     133.481 131.733 125.637  1.00  0.00     0.000 C 
BRANCH   8   9
ATOM      9  C   UNL     1     133.680 133.100 124.966  1.00  0.00    -0.000 C 
BRANCH   9  10
ATOM     10  C   UNL     1     135.027 133.746 125.329  1.00  0.00    -0.003 C 
ATOM     11  C   UNL     1     135.902 132.841 126.197  1.00  0.00     0.004 C 
ENDBRANCH   9  10
ENDBRANCH   8   9
ENDBRANCH   1   8
TORSDOF 6
ENDMDL
MODEL 2
REMARK VINA RESULT:    -4.180     18.272     19.327
REMARK INTER + INTRA:          -6.067
REMARK INTER:                  -5.515
REMARK INTRA:                  -0.552
REMARK UNBOUND:                -0.420
REMARK SMILES CCCCCCC=CC(=O)[O-]
REMARK SMILES IDX 5 1 6 2 7 3 8 4 9 5 10 6 11 7 4 8 3 9 2 10 1 11
REMARK H PARENT
REMARK Flexibility Score: inf
ROOT
ATOM      1  C   UNL     1     130.279 121.494 138.322  1.00  0.00     0.004 C 
ENDROOT
BRANCH   1   2
ATOM      2  C   UNL     1     129.784 120.044 138.262  1.00  0.00     0.027 C 
BRANCH   2   3
ATOM      3  C   UNL     1     130.654 119.136 139.090  1.00  0.00    -0.025 C 
ATOM      4  C   UNL     1     130.254 118.416 140.151  1.00  0.00     0.020 C 
BRANCH   4   5
ATOM      5  C   UNL     1     128.884 118.334 140.698  1.00  0.00     0.064 C 
ATOM      6  O   UNL     1     128.187 117.290 140.605  1.00  0.00    -0.545 OA
ATOM      7  O   UNL     1     128.358 119.438 141.356  1.00  0.00    -0.545 OA
ENDBRANCH   4   5
ENDBRANCH   2   3
ENDBRANCH   1   2
BRANCH   1   8
ATOM      8  C   UNL     1     129.973 122.122 139.688  1.00  0.00     0.000 C 
BRANCH   8   9
ATOM      9  C   UNL     1     131.266 122.551 140.397  1.00  0.00    -0.000 C 
BRANCH   9  10
ATOM     10  C   UNL     1     132.372 122.964 139.413  1.00  0.00    -0.003 C 
ATOM     11  C   UNL     1     133.028 124.294 139.785  1.00  0.00     0.004 C 
ENDBRANCH   9  10
ENDBRANCH   8   9
ENDBRANCH   1   8
TORSDOF 6
ENDMDL
MODEL 3
REMARK VINA RESULT:    -4.141     17.724     18.869
REMARK INTER + INTRA:          -6.014
REMARK INTER:                  -5.333
REMARK INTRA:                  -0.681
REMARK UNBOUND:                -0.420
REMARK SMILES CCCCCCC=CC(=O)[O-]
REMARK SMILES IDX 5 1 6 2 7 3 8 4 9 5 10 6 11 7 4 8 3 9 2 10 1 11
REMARK H PARENT
REMARK Flexibility Score: inf
ROOT
ATOM      1  C   UNL     1     128.141 121.066 139.573  1.00  0.00     0.004 C 
ENDROOT
BRANCH   1   2
ATOM      2  C   UNL     1     128.853 122.385 139.898  1.00  0.00     0.027 C 
BRANCH   2   3
ATOM      3  C   UNL     1     129.864 122.202 140.998  1.00  0.00    -0.025 C 
ATOM      4  C   UNL     1     131.197 122.314 140.869  1.00  0.00     0.020 C 
BRANCH   4   5
ATOM      5  C   UNL     1     131.939 122.675 139.642  1.00  0.00     0.064 C 
ATOM      6  O   UNL     1     132.005 121.905 138.650  1.00  0.00    -0.545 OA
ATOM      7  O   UNL     1     132.564 123.914 139.577  1.00  0.00    -0.545 OA
ENDBRANCH   4   5
ENDBRANCH   2   3
ENDBRANCH   1   2
BRANCH   1   8
ATOM      8  C   UNL     1     128.835 120.337 138.416  1.00  0.00     0.000 C 
BRANCH   8   9
ATOM      9  C   UNL     1     129.201 118.899 138.813  1.00  0.00    -0.000 C 
BRANCH   9  10
ATOM     10  C   UNL     1     130.545 118.815 139.553  1.00  0.00    -0.003 C 
ATOM     11  C   UNL     1     130.716 117.505 140.322  1.00  0.00     0.004 C 
ENDBRANCH   9  10
ENDBRANCH   8   9
ENDBRANCH   1   8
TORSDOF 6
ENDMDL
MODEL 4
REMARK VINA RESULT:    -4.055      2.223      4.754
REMARK INTER + INTRA:          -5.898
REMARK INTER:                  -5.565
REMARK INTRA:                  -0.333
REMARK UNBOUND:                -0.420
REMARK SMILES CCCCCCC=CC(=O)[O-]
REMARK SMILES IDX 5 1 6 2 7 3 8 4 9 5 10 6 11 7 4 8 3 9 2 10 1 11
REMARK H PARENT
REMARK Flexibility Score: inf
ROOT
ATOM      1  C   UNL     1     130.002 132.611 125.664  1.00  0.00     0.004 C 
ENDROOT
BRANCH   1   2
ATOM      2  C   UNL     1     131.186 132.348 126.603  1.00  0.00     0.027 C 
BRANCH   2   3
ATOM      3  C   UNL     1     132.011 131.183 126.127  1.00  0.00    -0.025 C 
ATOM      4  C   UNL     1     133.270 131.247 125.661  1.00  0.00     0.020 C 
BRANCH   4   5
ATOM      5  C   UNL     1     134.112 132.457 125.555  1.00  0.00     0.064 C 
ATOM      6  O   UNL     1     135.201 132.571 126.176  1.00  0.00    -0.545 OA
ATOM      7  O   UNL     1     133.699 133.491 124.725  1.00  0.00    -0.545 OA
ENDBRANCH   4   5
ENDBRANCH   2   3
ENDBRANCH   1   2
BRANCH   1   8
ATOM      8  C   UNL     1     129.360 133.973 125.956  1.00  0.00     0.000 C 
BRANCH   8   9
ATOM      9  C   UNL     1     130.425 135.076 126.043  1.00  0.00    -0.000 C 
BRANCH   9  10
ATOM     10  C   UNL     1     129.846 136.421 126.510  1.00  0.00    -0.003 C 
ATOM     11  C   UNL     1     129.801 136.548 128.032  1.00  0.00     0.004 C 
ENDBRANCH   9  10
ENDBRANCH   8   9
ENDBRANCH   1   8
TORSDOF 6
ENDMDL
MODEL 5
REMARK VINA RESULT:    -4.042     17.838     19.000
REMARK INTER + INTRA:          -5.880
REMARK INTER:                  -5.388
REMARK INTRA:                  -0.492
REMARK UNBOUND:                -0.420
REMARK SMILES CCCCCCC=CC(=O)[O-]
REMARK SMILES IDX 5 1 6 2 7 3 8 4 9 5 10 6 11 7 4 8 3 9 2 10 1 11
REMARK H PARENT
REMARK Flexibility Score: inf
ROOT
ATOM      1  C   UNL     1     128.449 120.381 138.461  1.00  0.00     0.004 C 
ENDROOT
BRANCH   1   2
ATOM      2  C   UNL     1     129.397 121.585 138.377  1.00  0.00     0.027 C 
BRANCH   2   3
ATOM      3  C   UNL     1     130.820 121.144 138.162  1.00  0.00    -0.025 C 
ATOM      4  C   UNL     1     131.905 121.666 138.758  1.00  0.00     0.020 C 
BRANCH   4   5
ATOM      5  C   UNL     1     131.925 122.745 139.768  1.00  0.00     0.064 C 
ATOM      6  O   UNL     1     132.474 123.856 139.550  1.00  0.00    -0.545 OA
ATOM      7  O   UNL     1     131.297 122.532 140.989  1.00  0.00    -0.545 OA
ENDBRANCH   4   5
ENDBRANCH   2   3
ENDBRANCH   1   2
BRANCH   1   8
ATOM      8  C   UNL     1     129.227 119.088 138.733  1.00  0.00     0.000 C 
BRANCH   8   9
ATOM      9  C   UNL     1     128.728 118.405 140.015  1.00  0.00    -0.000 C 
BRANCH   9  10
ATOM     10  C   UNL     1     129.809 117.541 140.683  1.00  0.00    -0.003 C 
ATOM     11  C   UNL     1     131.143 117.582 139.937  1.00  0.00     0.004 C 
ENDBRANCH   9  10
ENDBRANCH   8   9
ENDBRANCH   1   8
TORSDOF 6
ENDMDL
MODEL 6
REMARK VINA RESULT:    -3.975     17.548     18.508
REMARK INTER + INTRA:          -5.790
REMARK INTER:                  -5.353
REMARK INTRA:                  -0.437
REMARK UNBOUND:                -0.420
REMARK SMILES CCCCCCC=CC(=O)[O-]
REMARK SMILES IDX 5 1 6 2 7 3 8 4 9 5 10 6 11 7 4 8 3 9 2 10 1 11
REMARK H PARENT
REMARK Flexibility Score: inf
ROOT
ATOM      1  C   UNL     1     130.858 120.077 138.643  1.00  0.00     0.004 C 
ENDROOT
BRANCH   1   2
ATOM      2  C   UNL     1     129.397 119.612 138.658  1.00  0.00     0.027 C 
BRANCH   2   3
ATOM      3  C   UNL     1     128.966 119.214 140.045  1.00  0.00    -0.025 C 
ATOM      4  C   UNL     1     128.478 120.040 140.986  1.00  0.00     0.020 C 
BRANCH   4   5
ATOM      5  C   UNL     1     128.228 121.490 140.845  1.00  0.00     0.064 C 
ATOM      6  O   UNL     1     127.202 121.940 140.272  1.00  0.00    -0.545 OA
ATOM      7  O   UNL     1     129.145 122.383 141.384  1.00  0.00    -0.545 OA
ENDBRANCH   4   5
ENDBRANCH   2   3
ENDBRANCH   1   2
BRANCH   1   8
ATOM      8  C   UNL     1     130.956 121.571 138.313  1.00  0.00     0.000 C 
BRANCH   8   9
ATOM      9  C   UNL     1     132.288 122.157 138.804  1.00  0.00    -0.000 C 
BRANCH   9  10
ATOM     10  C   UNL     1     132.095 123.267 139.849  1.00  0.00    -0.003 C 
ATOM     11  C   UNL     1     133.187 124.336 139.785  1.00  0.00     0.004 C 
ENDBRANCH   9  10
ENDBRANCH   8   9
ENDBRANCH   1   8
TORSDOF 6
ENDMDL
MODEL 7
REMARK VINA RESULT:    -3.954     17.992     18.994
REMARK INTER + INTRA:          -5.761
REMARK INTER:                  -5.187
REMARK INTRA:                  -0.574
REMARK UNBOUND:                -0.420
REMARK SMILES CCCCCCC=CC(=O)[O-]
REMARK SMILES IDX 5 1 6 2 7 3 8 4 9 5 10 6 11 7 4 8 3 9 2 10 1 11
REMARK H PARENT
REMARK Flexibility Score: inf
ROOT
ATOM      1  C   UNL     1     129.034 122.042 141.132  1.00  0.00     0.004 C 
ENDROOT
BRANCH   1   2
ATOM      2  C   UNL     1     128.602 120.577 140.992  1.00  0.00     0.027 C 
BRANCH   2   3
ATOM      3  C   UNL     1     128.322 120.226 139.555  1.00  0.00    -0.025 C 
ATOM      4  C   UNL     1     129.162 119.590 138.721  1.00  0.00     0.020 C 
BRANCH   4   5
ATOM      5  C   UNL     1     130.508 119.074 139.048  1.00  0.00     0.064 C 
ATOM      6  O   UNL     1     131.558 119.630 138.631  1.00  0.00    -0.545 OA
ATOM      7  O   UNL     1     130.617 117.952 139.860  1.00  0.00    -0.545 OA
ENDBRANCH   4   5
ENDBRANCH   2   3
ENDBRANCH   1   2
BRANCH   1   8
ATOM      8  C   UNL     1     130.559 122.177 141.035  1.00  0.00     0.000 C 
BRANCH   8   9
ATOM      9  C   UNL     1     130.968 122.883 139.734  1.00  0.00    -0.000 C 
BRANCH   9  10
ATOM     10  C   UNL     1     132.492 122.949 139.552  1.00  0.00    -0.003 C 
ATOM     11  C   UNL     1     133.053 124.356 139.762  1.00  0.00     0.004 C 
ENDBRANCH   9  10
ENDBRANCH   8   9
ENDBRANCH   1   8
TORSDOF 6
ENDMDL
MODEL 8
REMARK VINA RESULT:    -3.904     18.668     19.863
REMARK INTER + INTRA:          -5.694
REMARK INTER:                  -5.032
REMARK INTRA:                  -0.661
REMARK UNBOUND:                -0.420
REMARK SMILES CCCCCCC=CC(=O)[O-]
REMARK SMILES IDX 5 1 6 2 7 3 8 4 9 5 10 6 11 7 4 8 3 9 2 10 1 11
REMARK H PARENT
REMARK Flexibility Score: inf
ROOT
ATOM      1  C   UNL     1     131.096 121.725 138.479  1.00  0.00     0.004 C 
ENDROOT
BRANCH   1   2
ATOM      2  C   UNL     1     131.135 120.203 138.662  1.00  0.00     0.027 C 
BRANCH   2   3
ATOM      3  C   UNL     1     129.786 119.588 138.400  1.00  0.00    -0.025 C 
ATOM      4  C   UNL     1     129.275 118.513 139.024  1.00  0.00     0.020 C 
BRANCH   4   5
ATOM      5  C   UNL     1     129.908 117.741 140.114  1.00  0.00     0.064 C 
ATOM      6  O   UNL     1     129.432 117.714 141.279  1.00  0.00    -0.545 OA
ATOM      7  O   UNL     1     131.053 117.004 139.837  1.00  0.00    -0.545 OA
ENDBRANCH   4   5
ENDBRANCH   2   3
ENDBRANCH   1   2
BRANCH   1   8
ATOM      8  C   UNL     1     131.606 122.442 139.735  1.00  0.00     0.000 C 
BRANCH   8   9
ATOM      9  C   UNL     1     130.765 122.064 140.963  1.00  0.00    -0.000 C 
BRANCH   9  10
ATOM     10  C   UNL     1     129.284 122.441 140.804  1.00  0.00    -0.003 C 
ATOM     11  C   UNL     1     128.339 121.326 141.251  1.00  0.00     0.004 C 
ENDBRANCH   9  10
ENDBRANCH   8   9
ENDBRANCH   1   8
TORSDOF 6
ENDMDL
MODEL 9
REMARK VINA RESULT:    -3.834     18.073     19.295
REMARK INTER + INTRA:          -5.599
REMARK INTER:                  -4.731
REMARK INTRA:                  -0.868
REMARK UNBOUND:                -0.420
REMARK SMILES CCCCCCC=CC(=O)[O-]
REMARK SMILES IDX 5 1 6 2 7 3 8 4 9 5 10 6 11 7 4 8 3 9 2 10 1 11
REMARK H PARENT
REMARK Flexibility Score: inf
ROOT
ATOM      1  C   UNL     1     130.205 118.779 139.732  1.00  0.00     0.004 C 
ENDROOT
BRANCH   1   2
ATOM      2  C   UNL     1     131.082 119.609 138.786  1.00  0.00     0.027 C 
BRANCH   2   3
ATOM      3  C   UNL     1     130.350 120.829 138.295  1.00  0.00    -0.025 C 
ATOM      4  C   UNL     1     130.473 122.073 138.788  1.00  0.00     0.020 C 
BRANCH   4   5
ATOM      5  C   UNL     1     131.371 122.507 139.878  1.00  0.00     0.064 C 
ATOM      6  O   UNL     1     132.371 123.241 139.669  1.00  0.00    -0.545 OA
ATOM      7  O   UNL     1     131.088 122.108 141.178  1.00  0.00    -0.545 OA
ENDBRANCH   4   5
ENDBRANCH   2   3
ENDBRANCH   1   2
BRANCH   1   8
ATOM      8  C   UNL     1     128.824 118.521 139.118  1.00  0.00     0.000 C 
BRANCH   8   9
ATOM      9  C   UNL     1     127.706 118.936 140.084  1.00  0.00    -0.000 C 
BRANCH   9  10
ATOM     10  C   UNL     1     128.205 119.866 141.201  1.00  0.00    -0.003 C 
ATOM     11  C   UNL     1     127.624 121.277 141.101  1.00  0.00     0.004 C 
ENDBRANCH   9  10
ENDBRANCH   8   9
ENDBRANCH   1   8
TORSDOF 6
ENDMDL
