MODEL 1
REMARK VINA RESULT:    -5.757      0.000      0.000
REMARK INTER + INTRA:          -6.183
REMARK INTER:                  -6.093
REMARK INTRA:                  -0.090
REMARK UNBOUND:                -0.090
REMARK SMILES C=C(C)[C@H]1CC=C(C)C(=O)C1
REMARK SMILES IDX 8 1 7 2 6 3 5 4 4 5 11 6 9 7 10 8 2 9 1 10 3 11
REMARK H PARENT
REMARK Flexibility Score: inf
ROOT
ATOM      1  C   UNL     1     -12.559 -20.056  31.933  1.00  0.00     0.048 C 
ATOM      2  C   UNL     1     -12.505 -19.337  30.613  1.00  0.00    -0.012 C 
ATOM      3  C   UNL     1     -13.534 -19.440  29.754  1.00  0.00    -0.019 C 
ATOM      4  C   UNL     1     -13.526 -18.756  28.413  1.00  0.00     0.036 C 
ATOM      5  C   UNL     1     -12.748 -17.428  28.471  1.00  0.00     0.025 C 
ATOM      6  C   UNL     1     -11.327 -17.665  29.015  1.00  0.00     0.089 C 
ATOM      7  C   UNL     1     -11.377 -18.422  30.314  1.00  0.00     0.158 C 
ATOM      8  O   UNL     1     -10.428 -18.296  31.134  1.00  0.00    -0.295 OA
ENDROOT
BRANCH   5   9
ATOM      9  C   UNL     1     -12.723 -16.730  27.118  1.00  0.00    -0.077 C 
ATOM     10  C   UNL     1     -13.743 -15.952  26.714  1.00  0.00     0.008 C 
ATOM     11  C   UNL     1     -11.540 -16.901  26.201  1.00  0.00     0.039 C 
ENDBRANCH   5   9
TORSDOF 1
ENDMDL
MODEL 2
REMARK VINA RESULT:    -5.407      1.808      2.406
REMARK INTER + INTRA:          -5.813
REMARK INTER:                  -5.715
REMARK INTRA:                  -0.098
REMARK UNBOUND:                -0.090
REMARK SMILES C=C(C)[C@H]1CC=C(C)C(=O)C1
REMARK SMILES IDX 8 1 7 2 6 3 5 4 4 5 11 6 9 7 10 8 2 9 1 10 3 11
REMARK H PARENT
REMARK Flexibility Score: inf
ROOT
ATOM      1  C   UNL     1     -12.550 -20.301  31.536  1.00  0.00     0.048 C 
ATOM      2  C   UNL     1     -12.947 -19.132  30.675  1.00  0.00    -0.012 C 
ATOM      3  C   UNL     1     -12.845 -17.882  31.159  1.00  0.00    -0.019 C 
ATOM      4  C   UNL     1     -13.244 -16.677  30.348  1.00  0.00     0.036 C 
ATOM      5  C   UNL     1     -12.984 -16.908  28.847  1.00  0.00     0.025 C 
ATOM      6  C   UNL     1     -13.691 -18.191  28.373  1.00  0.00     0.089 C 
ATOM      7  C   UNL     1     -13.330 -19.353  29.259  1.00  0.00     0.158 C 
ATOM      8  O   UNL     1     -13.391 -20.522  28.794  1.00  0.00    -0.295 OA
ENDROOT
BRANCH   5   9
ATOM      9  C   UNL     1     -13.392 -15.701  28.013  1.00  0.00    -0.077 C 
ATOM     10  C   UNL     1     -13.726 -15.828  26.717  1.00  0.00     0.008 C 
ATOM     11  C   UNL     1     -13.429 -14.329  28.636  1.00  0.00     0.039 C 
ENDBRANCH   5   9
TORSDOF 1
ENDMDL
MODEL 3
REMARK VINA RESULT:    -5.255      2.565      4.805
REMARK INTER + INTRA:          -5.652
REMARK INTER:                  -5.559
REMARK INTRA:                  -0.093
REMARK UNBOUND:                -0.090
REMARK SMILES C=C(C)[C@H]1CC=C(C)C(=O)C1
REMARK SMILES IDX 8 1 7 2 6 3 5 4 4 5 11 6 9 7 10 8 2 9 1 10 3 11
REMARK H PARENT
REMARK Flexibility Score: inf
ROOT
ATOM      1  C   UNL     1     -14.338 -13.603  28.299  1.00  0.00     0.048 C 
ATOM      2  C   UNL     1     -13.620 -14.799  28.863  1.00  0.00    -0.012 C 
ATOM      3  C   UNL     1     -13.385 -14.876  30.184  1.00  0.00    -0.019 C 
ATOM      4  C   UNL     1     -12.656 -16.041  30.799  1.00  0.00     0.036 C 
ATOM      5  C   UNL     1     -12.940 -17.343  30.027  1.00  0.00     0.025 C 
ATOM      6  C   UNL     1     -12.601 -17.165  28.535  1.00  0.00     0.089 C 
ATOM      7  C   UNL     1     -13.284 -15.944  27.980  1.00  0.00     0.158 C 
ATOM      8  O   UNL     1     -13.537 -15.889  26.747  1.00  0.00    -0.295 OA
ENDROOT
BRANCH   5   9
ATOM      9  C   UNL     1     -12.201 -18.529  30.632  1.00  0.00    -0.077 C 
ATOM     10  C   UNL     1     -10.858 -18.590  30.632  1.00  0.00     0.008 C 
ATOM     11  C   UNL     1     -12.973 -19.666  31.249  1.00  0.00     0.039 C 
ENDBRANCH   5   9
TORSDOF 1
ENDMDL
MODEL 4
REMARK VINA RESULT:    -5.183      3.111      4.882
REMARK INTER + INTRA:          -5.575
REMARK INTER:                  -5.485
REMARK INTRA:                  -0.090
REMARK UNBOUND:                -0.090
REMARK SMILES C=C(C)[C@H]1CC=C(C)C(=O)C1
REMARK SMILES IDX 8 1 7 2 6 3 5 4 4 5 11 6 9 7 10 8 2 9 1 10 3 11
REMARK H PARENT
REMARK Flexibility Score: inf
ROOT
ATOM      1  C   UNL     1     -15.287 -12.845  29.383  1.00  0.00     0.048 C 
ATOM      2  C   UNL     1     -14.353 -14.021  29.467  1.00  0.00    -0.012 C 
ATOM      3  C   UNL     1     -13.626 -14.375  28.393  1.00  0.00    -0.019 C 
ATOM      4  C   UNL     1     -12.689 -15.554  28.416  1.00  0.00     0.036 C 
ATOM      5  C   UNL     1     -12.074 -15.746  29.816  1.00  0.00     0.025 C 
ATOM      6  C   UNL     1     -13.185 -15.862  30.876  1.00  0.00     0.089 C 
ATOM      7  C   UNL     1     -14.145 -14.709  30.765  1.00  0.00     0.158 C 
ATOM      8  O   UNL     1     -14.799 -14.354  31.782  1.00  0.00    -0.295 OA
ENDROOT
BRANCH   5   9
ATOM      9  C   UNL     1     -11.132 -16.941  29.857  1.00  0.00    -0.077 C 
ATOM     10  C   UNL     1      -9.879 -16.860  29.374  1.00  0.00     0.008 C 
ATOM     11  C   UNL     1     -11.593 -18.248  30.448  1.00  0.00     0.039 C 
ENDBRANCH   5   9
TORSDOF 1
ENDMDL
MODEL 5
REMARK VINA RESULT:    -5.179      3.552      4.154
REMARK INTER + INTRA:          -5.571
REMARK INTER:                  -5.476
REMARK INTRA:                  -0.095
REMARK UNBOUND:                -0.090
REMARK SMILES C=C(C)[C@H]1CC=C(C)C(=O)C1
REMARK SMILES IDX 8 1 7 2 6 3 5 4 4 5 11 6 9 7 10 8 2 9 1 10 3 11
REMARK H PARENT
REMARK Flexibility Score: inf
ROOT
ATOM      1  C   UNL     1     -15.080 -14.356  32.377  1.00  0.00     0.048 C 
ATOM      2  C   UNL     1     -14.232 -14.778  31.208  1.00  0.00    -0.012 C 
ATOM      3  C   UNL     1     -13.458 -15.873  31.305  1.00  0.00    -0.019 C 
ATOM      4  C   UNL     1     -12.578 -16.331  30.173  1.00  0.00     0.036 C 
ATOM      5  C   UNL     1     -13.209 -15.995  28.808  1.00  0.00     0.025 C 
ATOM      6  C   UNL     1     -13.534 -14.492  28.724  1.00  0.00     0.089 C 
ATOM      7  C   UNL     1     -14.345 -14.060  29.916  1.00  0.00     0.158 C 
ATOM      8  O   UNL     1     -15.099 -13.054  29.812  1.00  0.00    -0.295 OA
ENDROOT
BRANCH   5   9
ATOM      9  C   UNL     1     -12.324 -16.444  27.653  1.00  0.00    -0.077 C 
ATOM     10  C   UNL     1     -12.752 -16.383  26.380  1.00  0.00     0.008 C 
ATOM     11  C   UNL     1     -10.936 -16.967  27.922  1.00  0.00     0.039 C 
ENDBRANCH   5   9
TORSDOF 1
ENDMDL
MODEL 6
REMARK VINA RESULT:    -5.113      2.773      4.271
REMARK INTER + INTRA:          -5.501
REMARK INTER:                  -5.406
REMARK INTRA:                  -0.095
REMARK UNBOUND:                -0.090
REMARK SMILES C=C(C)[C@H]1CC=C(C)C(=O)C1
REMARK SMILES IDX 8 1 7 2 6 3 5 4 4 5 11 6 9 7 10 8 2 9 1 10 3 11
REMARK H PARENT
REMARK Flexibility Score: inf
ROOT
ATOM      1  C   UNL     1     -11.066 -17.347  26.309  1.00  0.00     0.048 C 
ATOM      2  C   UNL     1     -11.742 -16.519  27.367  1.00  0.00    -0.012 C 
ATOM      3  C   UNL     1     -12.966 -16.012  27.139  1.00  0.00    -0.019 C 
ATOM      4  C   UNL     1     -13.681 -15.162  28.155  1.00  0.00     0.036 C 
ATOM      5  C   UNL     1     -13.319 -15.591  29.590  1.00  0.00     0.025 C 
ATOM      6  C   UNL     1     -11.792 -15.574  29.785  1.00  0.00     0.089 C 
ATOM      7  C   UNL     1     -11.112 -16.366  28.701  1.00  0.00     0.158 C 
ATOM      8  O   UNL     1      -9.980 -16.872  28.929  1.00  0.00    -0.295 OA
ENDROOT
BRANCH   5   9
ATOM      9  C   UNL     1     -14.028 -14.734  30.630  1.00  0.00    -0.077 C 
ATOM     10  C   UNL     1     -13.969 -15.032  31.939  1.00  0.00     0.008 C 
ATOM     11  C   UNL     1     -14.814 -13.521  30.202  1.00  0.00     0.039 C 
ENDBRANCH   5   9
TORSDOF 1
ENDMDL
MODEL 7
REMARK VINA RESULT:    -5.071      3.369      4.880
REMARK INTER + INTRA:          -5.457
REMARK INTER:                  -5.361
REMARK INTRA:                  -0.096
REMARK UNBOUND:                -0.090
REMARK SMILES C=C(C)[C@H]1CC=C(C)C(=O)C1
REMARK SMILES IDX 8 1 7 2 6 3 5 4 4 5 11 6 9 7 10 8 2 9 1 10 3 11
REMARK H PARENT
REMARK Flexibility Score: inf
ROOT
ATOM      1  C   UNL     1     -11.036 -17.252  26.657  1.00  0.00     0.048 C 
ATOM      2  C   UNL     1     -12.026 -16.461  27.468  1.00  0.00    -0.012 C 
ATOM      3  C   UNL     1     -11.705 -16.064  28.712  1.00  0.00    -0.019 C 
ATOM      4  C   UNL     1     -12.663 -15.285  29.573  1.00  0.00     0.036 C 
ATOM      5  C   UNL     1     -13.560 -14.369  28.719  1.00  0.00     0.025 C 
ATOM      6  C   UNL     1     -14.284 -15.190  27.635  1.00  0.00     0.089 C 
ATOM      7  C   UNL     1     -13.300 -16.016  26.851  1.00  0.00     0.158 C 
ATOM      8  O   UNL     1     -13.586 -16.357  25.672  1.00  0.00    -0.295 OA
ENDROOT
BRANCH   5   9
ATOM      9  C   UNL     1     -14.541 -13.583  29.576  1.00  0.00    -0.077 C 
ATOM     10  C   UNL     1     -14.753 -13.901  30.865  1.00  0.00     0.008 C 
ATOM     11  C   UNL     1     -15.297 -12.420  28.988  1.00  0.00     0.039 C 
ENDBRANCH   5   9
TORSDOF 1
ENDMDL
MODEL 8
REMARK VINA RESULT:    -5.044      1.936      3.311
REMARK INTER + INTRA:          -5.429
REMARK INTER:                  -5.332
REMARK INTRA:                  -0.096
REMARK UNBOUND:                -0.090
REMARK SMILES C=C(C)[C@H]1CC=C(C)C(=O)C1
REMARK SMILES IDX 8 1 7 2 6 3 5 4 4 5 11 6 9 7 10 8 2 9 1 10 3 11
REMARK H PARENT
REMARK Flexibility Score: inf
ROOT
ATOM      1  C   UNL     1     -14.100 -19.998  28.643  1.00  0.00     0.048 C 
ATOM      2  C   UNL     1     -13.016 -19.021  29.009  1.00  0.00    -0.012 C 
ATOM      3  C   UNL     1     -12.813 -17.932  28.247  1.00  0.00    -0.019 C 
ATOM      4  C   UNL     1     -11.732 -16.931  28.557  1.00  0.00     0.036 C 
ATOM      5  C   UNL     1     -11.497 -16.819  30.075  1.00  0.00     0.025 C 
ATOM      6  C   UNL     1     -11.197 -18.207  30.673  1.00  0.00     0.089 C 
ATOM      7  C   UNL     1     -12.258 -19.196  30.272  1.00  0.00     0.158 C 
ATOM      8  O   UNL     1     -12.471 -20.198  31.006  1.00  0.00    -0.295 OA
ENDROOT
BRANCH   5   9
ATOM      9  C   UNL     1     -10.399 -15.817  30.403  1.00  0.00    -0.077 C 
ATOM     10  C   UNL     1      -9.875 -15.020  29.455  1.00  0.00     0.008 C 
ATOM     11  C   UNL     1      -9.876 -15.701  31.811  1.00  0.00     0.039 C 
ENDBRANCH   5   9
TORSDOF 1
ENDMDL
MODEL 9
REMARK VINA RESULT:    -4.979      2.587      4.648
REMARK INTER + INTRA:          -5.359
REMARK INTER:                  -5.262
REMARK INTRA:                  -0.097
REMARK UNBOUND:                -0.090
REMARK SMILES C=C(C)[C@H]1CC=C(C)C(=O)C1
REMARK SMILES IDX 8 1 7 2 6 3 5 4 4 5 11 6 9 7 10 8 2 9 1 10 3 11
REMARK H PARENT
REMARK Flexibility Score: inf
ROOT
ATOM      1  C   UNL     1     -14.008 -15.799  26.380  1.00  0.00     0.048 C 
ATOM      2  C   UNL     1     -13.191 -16.105  27.605  1.00  0.00    -0.012 C 
ATOM      3  C   UNL     1     -12.453 -17.228  27.653  1.00  0.00    -0.019 C 
ATOM      4  C   UNL     1     -11.630 -17.592  28.860  1.00  0.00     0.036 C 
ATOM      5  C   UNL     1     -11.098 -16.332  29.570  1.00  0.00     0.025 C 
ATOM      6  C   UNL     1     -12.261 -15.384  29.919  1.00  0.00     0.089 C 
ATOM      7  C   UNL     1     -13.104 -15.112  28.703  1.00  0.00     0.158 C 
ATOM      8  O   UNL     1     -13.768 -14.041  28.644  1.00  0.00    -0.295 OA
ENDROOT
BRANCH   5   9
ATOM      9  C   UNL     1     -10.273 -16.685  30.799  1.00  0.00    -0.077 C 
ATOM     10  C   UNL     1      -9.883 -15.741  31.674  1.00  0.00     0.008 C 
ATOM     11  C   UNL     1      -9.875 -18.115  31.059  1.00  0.00     0.039 C 
ENDBRANCH   5   9
TORSDOF 1
ENDMDL
