MODEL 1
REMARK VINA RESULT:    12.382      0.000      0.000
REMARK INTER + INTRA:          27.294
REMARK INTER:                  28.306
REMARK INTRA:                  -1.012
REMARK UNBOUND:                -1.012
REMARK SMILES CCCCCCCCCCCCCCCCCCCCCCCC(=O)[O-]
REMARK SMILES IDX 13 1 14 2 15 3 16 4 17 5 18 6 19 7 20 8 21 9 22 10 23 11
REMARK SMILES IDX 24 12 25 13 26 14 12 15 11 16 10 17 9 18 8 19 7 20 6 21 5 22
REMARK SMILES IDX 4 23 3 24 2 25 1 26
REMARK H PARENT
REMARK Flexibility Score: inf
ROOT
ATOM      1  C   UNL     1      10.013 -29.908 -10.382  1.00  0.00     0.000 C 
ENDROOT
BRANCH   1   2
ATOM      2  C   UNL     1       9.128 -28.869  -9.676  1.00  0.00     0.000 C 
BRANCH   2   3
ATOM      3  C   UNL     1       9.954 -27.663  -9.215  1.00  0.00     0.000 C 
BRANCH   3   4
ATOM      4  C   UNL     1       9.082 -26.401  -9.131  1.00  0.00     0.000 C 
BRANCH   4   5
ATOM      5  C   UNL     1       8.818 -25.957  -7.684  1.00  0.00     0.000 C 
BRANCH   5   6
ATOM      6  C   UNL     1       8.288 -24.517  -7.590  1.00  0.00     0.000 C 
BRANCH   6   7
ATOM      7  C   UNL     1       7.720 -24.234  -6.194  1.00  0.00     0.000 C 
BRANCH   7   8
ATOM      8  C   UNL     1       8.019 -25.389  -5.229  1.00  0.00     0.000 C 
BRANCH   8   9
ATOM      9  C   UNL     1       9.311 -25.123  -4.441  1.00  0.00     0.000 C 
BRANCH   9  10
ATOM     10  C   UNL     1      10.374 -26.211  -4.660  1.00  0.00     0.006 C 
BRANCH  10  11
ATOM     11  C   UNL     1      11.737 -25.633  -5.066  1.00  0.00     0.053 C 
BRANCH  11  12
ATOM     12  C   UNL     1      12.792 -26.693  -5.021  1.00  0.00     0.041 C 
ATOM     13  O   UNL     1      12.657 -27.692  -4.266  1.00  0.00    -0.550 OA
ATOM     14  O   UNL     1      13.921 -26.585  -5.825  1.00  0.00    -0.550 OA
ENDBRANCH  11  12
ENDBRANCH  10  11
ENDBRANCH   9  10
ENDBRANCH   8   9
ENDBRANCH   7   8
ENDBRANCH   6   7
ENDBRANCH   5   6
ENDBRANCH   4   5
ENDBRANCH   3   4
ENDBRANCH   2   3
ENDBRANCH   1   2
BRANCH   1  15
ATOM     15  C   UNL     1      10.061 -29.704 -11.905  1.00  0.00     0.000 C 
BRANCH  15  16
ATOM     16  C   UNL     1       8.854 -30.335 -12.623  1.00  0.00     0.000 C 
BRANCH  16  17
ATOM     17  C   UNL     1       8.833 -30.021 -14.128  1.00  0.00     0.000 C 
BRANCH  17  18
ATOM     18  C   UNL     1       9.792 -30.920 -14.929  1.00  0.00    -0.000 C 
BRANCH  18  19
ATOM     19  C   UNL     1       9.311 -31.156 -16.378  1.00  0.00    -0.000 C 
BRANCH  19  20
ATOM     20  C   UNL     1       9.656 -30.003 -17.340  1.00  0.00    -0.000 C 
BRANCH  20  21
ATOM     21  C   UNL     1       8.648 -29.791 -18.485  1.00  0.00    -0.000 C 
BRANCH  21  22
ATOM     22  C   UNL     1       7.518 -28.783 -18.185  1.00  0.00    -0.000 C 
BRANCH  22  23
ATOM     23  C   UNL     1       6.473 -28.623 -19.304  1.00  0.00    -0.000 C 
BRANCH  23  24
ATOM     24  C   UNL     1       6.925 -29.249 -20.634  1.00  0.00    -0.000 C 
BRANCH  24  25
ATOM     25  C   UNL     1       6.118 -28.729 -21.834  1.00  0.00    -0.003 C 
ATOM     26  C   UNL     1       6.927 -27.786 -22.724  1.00  0.00     0.004 C 
ENDBRANCH  24  25
ENDBRANCH  23  24
ENDBRANCH  22  23
ENDBRANCH  21  22
ENDBRANCH  20  21
ENDBRANCH  19  20
ENDBRANCH  18  19
ENDBRANCH  17  18
ENDBRANCH  16  17
ENDBRANCH  15  16
ENDBRANCH   1  15
TORSDOF 22
ENDMDL
MODEL 2
REMARK VINA RESULT:    12.932      5.053     12.628
REMARK INTER + INTRA:          28.553
REMARK INTER:                  29.730
REMARK INTRA:                  -1.177
REMARK UNBOUND:                -1.012
REMARK SMILES CCCCCCCCCCCCCCCCCCCCCCCC(=O)[O-]
REMARK SMILES IDX 13 1 14 2 15 3 16 4 17 5 18 6 19 7 20 8 21 9 22 10 23 11
REMARK SMILES IDX 24 12 25 13 26 14 12 15 11 16 10 17 9 18 8 19 7 20 6 21 5 22
REMARK SMILES IDX 4 23 3 24 2 25 1 26
REMARK H PARENT
REMARK Flexibility Score: inf
ROOT
ATOM      1  C   UNL     1       8.983 -29.642 -12.137  1.00  0.00     0.000 C 
ENDROOT
BRANCH   1   2
ATOM      2  C   UNL     1       8.351 -29.998 -13.492  1.00  0.00     0.000 C 
BRANCH   2   3
ATOM      3  C   UNL     1       9.428 -30.325 -14.533  1.00  0.00     0.000 C 
BRANCH   3   4
ATOM      4  C   UNL     1       9.204 -31.722 -15.131  1.00  0.00     0.000 C 
BRANCH   4   5
ATOM      5  C   UNL     1       9.486 -31.774 -16.641  1.00  0.00     0.000 C 
BRANCH   5   6
ATOM      6  C   UNL     1       9.780 -30.389 -17.239  1.00  0.00     0.000 C 
BRANCH   6   7
ATOM      7  C   UNL     1       8.544 -29.831 -17.956  1.00  0.00     0.000 C 
BRANCH   7   8
ATOM      8  C   UNL     1       7.820 -28.794 -17.088  1.00  0.00     0.000 C 
BRANCH   8   9
ATOM      9  C   UNL     1       6.443 -28.453 -17.676  1.00  0.00     0.000 C 
BRANCH   9  10
ATOM     10  C   UNL     1       6.267 -28.969 -19.113  1.00  0.00     0.006 C 
BRANCH  10  11
ATOM     11  C   UNL     1       6.923 -28.054 -20.155  1.00  0.00     0.053 C 
BRANCH  11  12
ATOM     12  C   UNL     1       6.869 -28.680 -21.514  1.00  0.00     0.041 C 
ATOM     13  O   UNL     1       6.458 -28.017 -22.502  1.00  0.00    -0.550 OA
ATOM     14  O   UNL     1       7.286 -29.994 -21.691  1.00  0.00    -0.550 OA
ENDBRANCH  11  12
ENDBRANCH  10  11
ENDBRANCH   9  10
ENDBRANCH   8   9
ENDBRANCH   7   8
ENDBRANCH   6   7
ENDBRANCH   5   6
ENDBRANCH   4   5
ENDBRANCH   3   4
ENDBRANCH   2   3
ENDBRANCH   1   2
BRANCH   1  15
ATOM     15  C   UNL     1       7.959 -29.647 -10.990  1.00  0.00     0.000 C 
BRANCH  15  16
ATOM     16  C   UNL     1       8.599 -29.335  -9.625  1.00  0.00     0.000 C 
BRANCH  16  17
ATOM     17  C   UNL     1       9.767 -28.341  -9.735  1.00  0.00     0.000 C 
BRANCH  17  18
ATOM     18  C   UNL     1       9.695 -27.231  -8.671  1.00  0.00    -0.000 C 
BRANCH  18  19
ATOM     19  C   UNL     1       8.853 -26.021  -9.132  1.00  0.00    -0.000 C 
BRANCH  19  20
ATOM     20  C   UNL     1       8.711 -24.922  -8.061  1.00  0.00    -0.000 C 
BRANCH  20  21
ATOM     21  C   UNL     1       7.779 -25.279  -6.886  1.00  0.00    -0.000 C 
BRANCH  21  22
ATOM     22  C   UNL     1       7.915 -24.372  -5.645  1.00  0.00    -0.000 C 
BRANCH  22  23
ATOM     23  C   UNL     1       8.752 -24.962  -4.496  1.00  0.00    -0.000 C 
BRANCH  23  24
ATOM     24  C   UNL     1       9.758 -26.022  -4.976  1.00  0.00    -0.000 C 
BRANCH  24  25
ATOM     25  C   UNL     1      11.211 -25.529  -4.906  1.00  0.00    -0.003 C 
ATOM     26  C   UNL     1      12.225 -26.672  -4.967  1.00  0.00     0.004 C 
ENDBRANCH  24  25
ENDBRANCH  23  24
ENDBRANCH  22  23
ENDBRANCH  21  22
ENDBRANCH  20  21
ENDBRANCH  19  20
ENDBRANCH  18  19
ENDBRANCH  17  18
ENDBRANCH  16  17
ENDBRANCH  15  16
ENDBRANCH   1  15
TORSDOF 22
ENDMDL
MODEL 3
REMARK VINA RESULT:    13.061      5.287     12.550
REMARK INTER + INTRA:          28.846
REMARK INTER:                  28.788
REMARK INTRA:                   0.058
REMARK UNBOUND:                -1.012
REMARK SMILES CCCCCCCCCCCCCCCCCCCCCCCC(=O)[O-]
REMARK SMILES IDX 13 1 14 2 15 3 16 4 17 5 18 6 19 7 20 8 21 9 22 10 23 11
REMARK SMILES IDX 24 12 25 13 26 14 12 15 11 16 10 17 9 18 8 19 7 20 6 21 5 22
REMARK SMILES IDX 4 23 3 24 2 25 1 26
REMARK H PARENT
REMARK Flexibility Score: inf
ROOT
ATOM      1  C   UNL     1       8.734 -29.751 -11.967  1.00  0.00     0.000 C 
ENDROOT
BRANCH   1   2
ATOM      2  C   UNL     1       7.831 -29.843 -13.207  1.00  0.00     0.000 C 
BRANCH   2   3
ATOM      3  C   UNL     1       8.661 -29.824 -14.496  1.00  0.00     0.000 C 
BRANCH   3   4
ATOM      4  C   UNL     1       9.310 -31.193 -14.750  1.00  0.00     0.000 C 
BRANCH   4   5
ATOM      5  C   UNL     1       9.451 -31.515 -16.246  1.00  0.00     0.000 C 
BRANCH   5   6
ATOM      6  C   UNL     1       9.996 -30.331 -17.061  1.00  0.00     0.000 C 
BRANCH   6   7
ATOM      7  C   UNL     1       8.905 -29.738 -17.960  1.00  0.00     0.000 C 
BRANCH   7   8
ATOM      8  C   UNL     1       7.750 -29.166 -17.127  1.00  0.00     0.000 C 
BRANCH   8   9
ATOM      9  C   UNL     1       6.575 -28.759 -18.028  1.00  0.00     0.000 C 
BRANCH   9  10
ATOM     10  C   UNL     1       6.801 -29.128 -19.503  1.00  0.00     0.006 C 
BRANCH  10  11
ATOM     11  C   UNL     1       6.092 -28.169 -20.469  1.00  0.00     0.053 C 
BRANCH  11  12
ATOM     12  C   UNL     1       6.502 -28.447 -21.881  1.00  0.00     0.041 C 
ATOM     13  O   UNL     1       6.355 -27.566 -22.769  1.00  0.00    -0.550 OA
ATOM     14  O   UNL     1       7.060 -29.676 -22.214  1.00  0.00    -0.550 OA
ENDBRANCH  11  12
ENDBRANCH  10  11
ENDBRANCH   9  10
ENDBRANCH   8   9
ENDBRANCH   7   8
ENDBRANCH   6   7
ENDBRANCH   5   6
ENDBRANCH   4   5
ENDBRANCH   3   4
ENDBRANCH   2   3
ENDBRANCH   1   2
BRANCH   1  15
ATOM     15  C   UNL     1       7.978 -29.248 -10.725  1.00  0.00     0.000 C 
BRANCH  15  16
ATOM     16  C   UNL     1       8.803 -29.395  -9.434  1.00  0.00     0.000 C 
BRANCH  16  17
ATOM     17  C   UNL     1      10.256 -28.923  -9.606  1.00  0.00     0.000 C 
BRANCH  17  18
ATOM     18  C   UNL     1      10.399 -27.397  -9.472  1.00  0.00    -0.000 C 
BRANCH  18  19
ATOM     19  C   UNL     1       9.041 -26.691  -9.264  1.00  0.00    -0.000 C 
BRANCH  19  20
ATOM     20  C   UNL     1       9.000 -25.782  -8.020  1.00  0.00    -0.000 C 
BRANCH  20  21
ATOM     21  C   UNL     1       9.223 -26.508  -6.680  1.00  0.00    -0.000 C 
BRANCH  21  22
ATOM     22  C   UNL     1       8.673 -25.774  -5.438  1.00  0.00    -0.000 C 
BRANCH  22  23
ATOM     23  C   UNL     1       9.132 -24.313  -5.288  1.00  0.00    -0.000 C 
BRANCH  23  24
ATOM     24  C   UNL     1       8.011 -23.303  -5.587  1.00  0.00    -0.000 C 
BRANCH  24  25
ATOM     25  C   UNL     1       6.699 -23.987  -6.004  1.00  0.00    -0.003 C 
ATOM     26  C   UNL     1       5.927 -24.554  -4.814  1.00  0.00     0.004 C 
ENDBRANCH  24  25
ENDBRANCH  23  24
ENDBRANCH  22  23
ENDBRANCH  21  22
ENDBRANCH  20  21
ENDBRANCH  19  20
ENDBRANCH  18  19
ENDBRANCH  17  18
ENDBRANCH  16  17
ENDBRANCH  15  16
ENDBRANCH   1  15
TORSDOF 22
ENDMDL
MODEL 4
REMARK VINA RESULT:    13.364      0.799      1.347
REMARK INTER + INTRA:          29.539
REMARK INTER:                  30.314
REMARK INTRA:                  -0.775
REMARK UNBOUND:                -1.012
REMARK SMILES CCCCCCCCCCCCCCCCCCCCCCCC(=O)[O-]
REMARK SMILES IDX 13 1 14 2 15 3 16 4 17 5 18 6 19 7 20 8 21 9 22 10 23 11
REMARK SMILES IDX 24 12 25 13 26 14 12 15 11 16 10 17 9 18 8 19 7 20 6 21 5 22
REMARK SMILES IDX 4 23 3 24 2 25 1 26
REMARK H PARENT
REMARK Flexibility Score: inf
ROOT
ATOM      1  C   UNL     1      10.440 -29.529 -11.338  1.00  0.00     0.000 C 
ENDROOT
BRANCH   1   2
ATOM      2  C   UNL     1      10.092 -30.074  -9.944  1.00  0.00     0.000 C 
BRANCH   2   3
ATOM      3  C   UNL     1       9.081 -29.166  -9.234  1.00  0.00     0.000 C 
BRANCH   3   4
ATOM      4  C   UNL     1       9.743 -27.853  -8.789  1.00  0.00     0.000 C 
BRANCH   4   5
ATOM      5  C   UNL     1       9.175 -26.625  -9.518  1.00  0.00     0.000 C 
BRANCH   5   6
ATOM      6  C   UNL     1       8.592 -25.578  -8.557  1.00  0.00     0.000 C 
BRANCH   6   7
ATOM      7  C   UNL     1       9.006 -25.875  -7.110  1.00  0.00     0.000 C 
BRANCH   7   8
ATOM      8  C   UNL     1       8.179 -25.048  -6.116  1.00  0.00     0.000 C 
BRANCH   8   9
ATOM      9  C   UNL     1       8.798 -25.102  -4.711  1.00  0.00     0.000 C 
BRANCH   9  10
ATOM     10  C   UNL     1      10.331 -25.216  -4.742  1.00  0.00     0.006 C 
BRANCH  10  11
ATOM     11  C   UNL     1      10.821 -26.658  -4.554  1.00  0.00     0.053 C 
BRANCH  11  12
ATOM     12  C   UNL     1      12.296 -26.748  -4.791  1.00  0.00     0.041 C 
ATOM     13  O   UNL     1      12.905 -25.804  -5.362  1.00  0.00    -0.550 OA
ATOM     14  O   UNL     1      13.002 -27.868  -4.370  1.00  0.00    -0.550 OA
ENDBRANCH  11  12
ENDBRANCH  10  11
ENDBRANCH   9  10
ENDBRANCH   8   9
ENDBRANCH   7   8
ENDBRANCH   6   7
ENDBRANCH   5   6
ENDBRANCH   4   5
ENDBRANCH   3   4
ENDBRANCH   2   3
ENDBRANCH   1   2
BRANCH   1  15
ATOM     15  C   UNL     1       9.933 -30.438 -12.469  1.00  0.00     0.000 C 
BRANCH  15  16
ATOM     16  C   UNL     1       8.648 -29.902 -13.126  1.00  0.00     0.000 C 
BRANCH  16  17
ATOM     17  C   UNL     1       8.680 -30.012 -14.659  1.00  0.00     0.000 C 
BRANCH  17  18
ATOM     18  C   UNL     1       9.929 -30.753 -15.170  1.00  0.00    -0.000 C 
BRANCH  18  19
ATOM     19  C   UNL     1       9.578 -31.955 -16.073  1.00  0.00    -0.000 C 
BRANCH  19  20
ATOM     20  C   UNL     1       9.169 -31.557 -17.503  1.00  0.00    -0.000 C 
BRANCH  20  21
ATOM     21  C   UNL     1       9.166 -30.041 -17.779  1.00  0.00    -0.000 C 
BRANCH  21  22
ATOM     22  C   UNL     1       8.416 -29.608 -19.056  1.00  0.00    -0.000 C 
BRANCH  22  23
ATOM     23  C   UNL     1       7.054 -28.933 -18.815  1.00  0.00    -0.000 C 
BRANCH  23  24
ATOM     24  C   UNL     1       6.578 -28.106 -20.022  1.00  0.00    -0.000 C 
BRANCH  24  25
ATOM     25  C   UNL     1       6.698 -28.876 -21.347  1.00  0.00    -0.003 C 
ATOM     26  C   UNL     1       6.048 -28.138 -22.517  1.00  0.00     0.004 C 
ENDBRANCH  24  25
ENDBRANCH  23  24
ENDBRANCH  22  23
ENDBRANCH  21  22
ENDBRANCH  20  21
ENDBRANCH  19  20
ENDBRANCH  18  19
ENDBRANCH  17  18
ENDBRANCH  16  17
ENDBRANCH  15  16
ENDBRANCH   1  15
TORSDOF 22
ENDMDL
MODEL 5
REMARK VINA RESULT:    13.605      0.794      1.478
REMARK INTER + INTRA:          30.090
REMARK INTER:                  31.576
REMARK INTRA:                  -1.486
REMARK UNBOUND:                -1.012
REMARK SMILES CCCCCCCCCCCCCCCCCCCCCCCC(=O)[O-]
REMARK SMILES IDX 13 1 14 2 15 3 16 4 17 5 18 6 19 7 20 8 21 9 22 10 23 11
REMARK SMILES IDX 24 12 25 13 26 14 12 15 11 16 10 17 9 18 8 19 7 20 6 21 5 22
REMARK SMILES IDX 4 23 3 24 2 25 1 26
REMARK H PARENT
REMARK Flexibility Score: inf
ROOT
ATOM      1  C   UNL     1      10.002 -29.285  -9.979  1.00  0.00     0.000 C 
ENDROOT
BRANCH   1   2
ATOM      2  C   UNL     1      10.501 -27.878  -9.612  1.00  0.00     0.000 C 
BRANCH   2   3
ATOM      3  C   UNL     1       9.473 -27.136  -8.750  1.00  0.00     0.000 C 
BRANCH   3   4
ATOM      4  C   UNL     1       8.925 -25.905  -9.490  1.00  0.00     0.000 C 
BRANCH   4   5
ATOM      5  C   UNL     1       8.560 -24.755  -8.539  1.00  0.00     0.000 C 
BRANCH   5   6
ATOM      6  C   UNL     1       7.918 -25.245  -7.231  1.00  0.00     0.000 C 
BRANCH   6   7
ATOM      7  C   UNL     1       7.846 -24.111  -6.200  1.00  0.00     0.000 C 
BRANCH   7   8
ATOM      8  C   UNL     1       8.188 -24.619  -4.793  1.00  0.00     0.000 C 
BRANCH   8   9
ATOM      9  C   UNL     1       8.991 -25.927  -4.864  1.00  0.00     0.000 C 
BRANCH   9  10
ATOM     10  C   UNL     1      10.508 -25.697  -4.774  1.00  0.00     0.006 C 
BRANCH  10  11
ATOM     11  C   UNL     1      11.275 -26.960  -4.358  1.00  0.00     0.053 C 
BRANCH  11  12
ATOM     12  C   UNL     1      12.692 -26.896  -4.834  1.00  0.00     0.041 C 
ATOM     13  O   UNL     1      13.114 -25.872  -5.434  1.00  0.00    -0.550 OA
ATOM     14  O   UNL     1      13.552 -27.963  -4.604  1.00  0.00    -0.550 OA
ENDBRANCH  11  12
ENDBRANCH  10  11
ENDBRANCH   9  10
ENDBRANCH   8   9
ENDBRANCH   7   8
ENDBRANCH   6   7
ENDBRANCH   5   6
ENDBRANCH   4   5
ENDBRANCH   3   4
ENDBRANCH   2   3
ENDBRANCH   1   2
BRANCH   1  15
ATOM     15  C   UNL     1       8.468 -29.366 -10.046  1.00  0.00     0.000 C 
BRANCH  15  16
ATOM     16  C   UNL     1       7.943 -29.437 -11.491  1.00  0.00     0.000 C 
BRANCH  16  17
ATOM     17  C   UNL     1       8.964 -30.059 -12.459  1.00  0.00     0.000 C 
BRANCH  17  18
ATOM     18  C   UNL     1       8.406 -30.208 -13.886  1.00  0.00    -0.000 C 
BRANCH  18  19
ATOM     19  C   UNL     1       9.514 -30.456 -14.933  1.00  0.00    -0.000 C 
BRANCH  19  20
ATOM     20  C   UNL     1       8.996 -31.066 -16.249  1.00  0.00    -0.000 C 
BRANCH  20  21
ATOM     21  C   UNL     1       9.696 -30.552 -17.522  1.00  0.00    -0.000 C 
BRANCH  21  22
ATOM     22  C   UNL     1       8.989 -29.376 -18.229  1.00  0.00    -0.000 C 
BRANCH  22  23
ATOM     23  C   UNL     1       7.470 -29.294 -17.997  1.00  0.00    -0.000 C 
BRANCH  23  24
ATOM     24  C   UNL     1       6.740 -28.513 -19.102  1.00  0.00    -0.000 C 
BRANCH  24  25
ATOM     25  C   UNL     1       6.632 -29.308 -20.412  1.00  0.00    -0.003 C 
ATOM     26  C   UNL     1       6.702 -28.415 -21.651  1.00  0.00     0.004 C 
ENDBRANCH  24  25
ENDBRANCH  23  24
ENDBRANCH  22  23
ENDBRANCH  21  22
ENDBRANCH  20  21
ENDBRANCH  19  20
ENDBRANCH  18  19
ENDBRANCH  17  18
ENDBRANCH  16  17
ENDBRANCH  15  16
ENDBRANCH   1  15
TORSDOF 22
ENDMDL
MODEL 6
REMARK VINA RESULT:    14.717      3.505     11.940
REMARK INTER + INTRA:          32.633
REMARK INTER:                  32.385
REMARK INTRA:                   0.249
REMARK UNBOUND:                -1.012
REMARK SMILES CCCCCCCCCCCCCCCCCCCCCCCC(=O)[O-]
REMARK SMILES IDX 13 1 14 2 15 3 16 4 17 5 18 6 19 7 20 8 21 9 22 10 23 11
REMARK SMILES IDX 24 12 25 13 26 14 12 15 11 16 10 17 9 18 8 19 7 20 6 21 5 22
REMARK SMILES IDX 4 23 3 24 2 25 1 26
REMARK H PARENT
REMARK Flexibility Score: inf
ROOT
ATOM      1  C   UNL     1       8.533 -29.815 -13.198  1.00  0.00     0.000 C 
ENDROOT
BRANCH   1   2
ATOM      2  C   UNL     1       7.766 -28.849 -14.115  1.00  0.00     0.000 C 
BRANCH   2   3
ATOM      3  C   UNL     1       8.002 -29.186 -15.591  1.00  0.00     0.000 C 
BRANCH   3   4
ATOM      4  C   UNL     1       7.083 -28.351 -16.497  1.00  0.00     0.000 C 
BRANCH   4   5
ATOM      5  C   UNL     1       6.629 -29.117 -17.750  1.00  0.00     0.000 C 
BRANCH   5   6
ATOM      6  C   UNL     1       6.658 -28.251 -19.019  1.00  0.00     0.000 C 
BRANCH   6   7
ATOM      7  C   UNL     1       7.251 -29.032 -20.199  1.00  0.00     0.000 C 
BRANCH   7   8
ATOM      8  C   UNL     1       8.220 -30.118 -19.714  1.00  0.00     0.000 C 
BRANCH   8   9
ATOM      9  C   UNL     1       9.472 -29.491 -19.082  1.00  0.00     0.000 C 
BRANCH   9  10
ATOM     10  C   UNL     1       9.834 -30.125 -17.729  1.00  0.00     0.006 C 
BRANCH  10  11
ATOM     11  C   UNL     1       9.446 -31.608 -17.647  1.00  0.00     0.053 C 
BRANCH  11  12
ATOM     12  C   UNL     1       9.441 -32.072 -16.224  1.00  0.00     0.041 C 
ATOM     13  O   UNL     1       8.877 -33.154 -15.911  1.00  0.00    -0.550 OA
ATOM     14  O   UNL     1      10.073 -31.316 -15.243  1.00  0.00    -0.550 OA
ENDBRANCH  11  12
ENDBRANCH  10  11
ENDBRANCH   9  10
ENDBRANCH   8   9
ENDBRANCH   7   8
ENDBRANCH   6   7
ENDBRANCH   5   6
ENDBRANCH   4   5
ENDBRANCH   3   4
ENDBRANCH   2   3
ENDBRANCH   1   2
BRANCH   1  15
ATOM     15  C   UNL     1       8.146 -29.654 -11.718  1.00  0.00     0.000 C 
BRANCH  15  16
ATOM     16  C   UNL     1       9.362 -29.739 -10.778  1.00  0.00     0.000 C 
BRANCH  16  17
ATOM     17  C   UNL     1       9.152 -28.956  -9.471  1.00  0.00     0.000 C 
BRANCH  17  18
ATOM     18  C   UNL     1      10.003 -27.675  -9.410  1.00  0.00    -0.000 C 
BRANCH  18  19
ATOM     19  C   UNL     1       9.160 -26.417  -9.110  1.00  0.00    -0.000 C 
BRANCH  19  20
ATOM     20  C   UNL     1       8.864 -26.213  -7.612  1.00  0.00    -0.000 C 
BRANCH  20  21
ATOM     21  C   UNL     1       8.417 -24.789  -7.227  1.00  0.00    -0.000 C 
BRANCH  21  22
ATOM     22  C   UNL     1       7.994 -24.611  -5.753  1.00  0.00    -0.000 C 
BRANCH  22  23
ATOM     23  C   UNL     1       8.691 -25.555  -4.757  1.00  0.00    -0.000 C 
BRANCH  23  24
ATOM     24  C   UNL     1      10.175 -25.211  -4.550  1.00  0.00    -0.000 C 
BRANCH  24  25
ATOM     25  C   UNL     1      11.082 -26.450  -4.619  1.00  0.00    -0.003 C 
ATOM     26  C   UNL     1      12.481 -26.127  -5.144  1.00  0.00     0.004 C 
ENDBRANCH  24  25
ENDBRANCH  23  24
ENDBRANCH  22  23
ENDBRANCH  21  22
ENDBRANCH  20  21
ENDBRANCH  19  20
ENDBRANCH  18  19
ENDBRANCH  17  18
ENDBRANCH  16  17
ENDBRANCH  15  16
ENDBRANCH   1  15
TORSDOF 22
ENDMDL
