MODEL 1
REMARK VINA RESULT:    -3.269      0.000      0.000
REMARK INTER + INTRA:          -7.546
REMARK INTER:                  -5.562
REMARK INTRA:                  -1.984
REMARK UNBOUND:                -1.984
REMARK SMILES CCCCCCCCCCCCCC(=O)[O-]
REMARK SMILES IDX 8 1 9 2 10 3 11 4 12 5 13 6 14 7 15 8 16 9 7 10 6 11 5 12
REMARK SMILES IDX 4 13 3 14 2 15 1 16
REMARK H PARENT
REMARK Flexibility Score: inf
ROOT
ATOM      1  C   UNL     1       3.986 -17.032  15.944  1.00  0.00     0.000 C 
ENDROOT
BRANCH   1   2
ATOM      2  C   UNL     1       3.428 -16.181  14.789  1.00  0.00     0.000 C 
BRANCH   2   3
ATOM      3  C   UNL     1       2.321 -15.217  15.240  1.00  0.00     0.000 C 
BRANCH   3   4
ATOM      4  C   UNL     1       2.765 -13.758  15.085  1.00  0.00     0.000 C 
BRANCH   4   5
ATOM      5  C   UNL     1       4.127 -13.668  14.379  1.00  0.00     0.006 C 
BRANCH   5   6
ATOM      6  C   UNL     1       5.041 -12.612  15.013  1.00  0.00     0.053 C 
BRANCH   6   7
ATOM      7  C   UNL     1       5.429 -11.549  14.031  1.00  0.00     0.041 C 
ATOM      8  O   UNL     1       4.584 -10.697  13.653  1.00  0.00    -0.550 OA
ATOM      9  O   UNL     1       6.715 -11.523  13.506  1.00  0.00    -0.550 OA
ENDBRANCH   6   7
ENDBRANCH   5   6
ENDBRANCH   4   5
ENDBRANCH   3   4
ENDBRANCH   2   3
ENDBRANCH   1   2
BRANCH   1  10
ATOM     10  C   UNL     1       4.238 -16.265  17.257  1.00  0.00     0.000 C 
BRANCH  10  11
ATOM     11  C   UNL     1       5.688 -15.785  17.470  1.00  0.00    -0.000 C 
BRANCH  11  12
ATOM     12  C   UNL     1       6.733 -16.449  16.555  1.00  0.00    -0.000 C 
BRANCH  12  13
ATOM     13  C   UNL     1       7.345 -15.519  15.490  1.00  0.00    -0.000 C 
BRANCH  13  14
ATOM     14  C   UNL     1       7.067 -15.968  14.040  1.00  0.00    -0.000 C 
BRANCH  14  15
ATOM     15  C   UNL     1       7.447 -17.435  13.794  1.00  0.00    -0.003 C 
ATOM     16  C   UNL     1       6.264 -18.226  13.245  1.00  0.00     0.004 C 
ENDBRANCH  14  15
ENDBRANCH  13  14
ENDBRANCH  12  13
ENDBRANCH  11  12
ENDBRANCH  10  11
ENDBRANCH   1  10
TORSDOF 12
ENDMDL
MODEL 2
REMARK VINA RESULT:    -3.254      1.014      2.205
REMARK INTER + INTRA:          -7.520
REMARK INTER:                  -5.771
REMARK INTRA:                  -1.750
REMARK UNBOUND:                -1.984
REMARK SMILES CCCCCCCCCCCCCC(=O)[O-]
REMARK SMILES IDX 8 1 9 2 10 3 11 4 12 5 13 6 14 7 15 8 16 9 7 10 6 11 5 12
REMARK SMILES IDX 4 13 3 14 2 15 1 16
REMARK H PARENT
REMARK Flexibility Score: inf
ROOT
ATOM      1  C   UNL     1       4.298 -17.035  16.863  1.00  0.00     0.000 C 
ENDROOT
BRANCH   1   2
ATOM      2  C   UNL     1       3.893 -15.608  16.453  1.00  0.00     0.000 C 
BRANCH   2   3
ATOM      3  C   UNL     1       3.214 -15.553  15.076  1.00  0.00     0.000 C 
BRANCH   3   4
ATOM      4  C   UNL     1       3.480 -14.210  14.385  1.00  0.00     0.000 C 
BRANCH   4   5
ATOM      5  C   UNL     1       4.260 -13.260  15.307  1.00  0.00     0.006 C 
BRANCH   5   6
ATOM      6  C   UNL     1       4.232 -11.811  14.804  1.00  0.00     0.053 C 
BRANCH   6   7
ATOM      7  C   UNL     1       5.308 -11.551  13.794  1.00  0.00     0.041 C 
ATOM      8  O   UNL     1       5.100 -10.761  12.837  1.00  0.00    -0.550 OA
ATOM      9  O   UNL     1       6.528 -12.210  13.890  1.00  0.00    -0.550 OA
ENDBRANCH   6   7
ENDBRANCH   5   6
ENDBRANCH   4   5
ENDBRANCH   3   4
ENDBRANCH   2   3
ENDBRANCH   1   2
BRANCH   1  10
ATOM     10  C   UNL     1       4.080 -18.112  15.782  1.00  0.00     0.000 C 
BRANCH  10  11
ATOM     11  C   UNL     1       5.359 -18.597  15.071  1.00  0.00    -0.000 C 
BRANCH  11  12
ATOM     12  C   UNL     1       5.443 -18.247  13.574  1.00  0.00    -0.000 C 
BRANCH  12  13
ATOM     13  C   UNL     1       6.853 -17.881  13.073  1.00  0.00    -0.000 C 
BRANCH  13  14
ATOM     14  C   UNL     1       7.657 -17.008  14.061  1.00  0.00    -0.000 C 
BRANCH  14  15
ATOM     15  C   UNL     1       6.991 -15.649  14.321  1.00  0.00    -0.003 C 
ATOM     16  C   UNL     1       7.498 -15.027  15.619  1.00  0.00     0.004 C 
ENDBRANCH  14  15
ENDBRANCH  13  14
ENDBRANCH  12  13
ENDBRANCH  11  12
ENDBRANCH  10  11
ENDBRANCH   1  10
TORSDOF 12
ENDMDL
MODEL 3
REMARK VINA RESULT:    -3.201      5.668      7.653
REMARK INTER + INTRA:          -7.430
REMARK INTER:                  -6.284
REMARK INTRA:                  -1.146
REMARK UNBOUND:                -1.984
REMARK SMILES CCCCCCCCCCCCCC(=O)[O-]
REMARK SMILES IDX 8 1 9 2 10 3 11 4 12 5 13 6 14 7 15 8 16 9 7 10 6 11 5 12
REMARK SMILES IDX 4 13 3 14 2 15 1 16
REMARK H PARENT
REMARK Flexibility Score: inf
ROOT
ATOM      1  C   UNL     1       4.915 -17.804  17.101  1.00  0.00     0.000 C 
ENDROOT
BRANCH   1   2
ATOM      2  C   UNL     1       4.132 -17.466  18.382  1.00  0.00     0.000 C 
BRANCH   2   3
ATOM      3  C   UNL     1       4.056 -18.645  19.363  1.00  0.00     0.000 C 
BRANCH   3   4
ATOM      4  C   UNL     1       3.044 -19.693  18.886  1.00  0.00     0.000 C 
BRANCH   4   5
ATOM      5  C   UNL     1       1.928 -19.894  19.923  1.00  0.00     0.006 C 
BRANCH   5   6
ATOM      6  C   UNL     1       1.516 -21.366  20.054  1.00  0.00     0.053 C 
BRANCH   6   7
ATOM      7  C   UNL     1       0.215 -21.644  19.364  1.00  0.00     0.041 C 
ATOM      8  O   UNL     1       0.101 -21.452  18.126  1.00  0.00    -0.550 OA
ATOM      9  O   UNL     1      -0.882 -22.080  20.097  1.00  0.00    -0.550 OA
ENDBRANCH   6   7
ENDBRANCH   5   6
ENDBRANCH   4   5
ENDBRANCH   3   4
ENDBRANCH   2   3
ENDBRANCH   1   2
BRANCH   1  10
ATOM     10  C   UNL     1       4.071 -17.843  15.811  1.00  0.00     0.000 C 
BRANCH  10  11
ATOM     11  C   UNL     1       4.693 -17.125  14.597  1.00  0.00    -0.000 C 
BRANCH  11  12
ATOM     12  C   UNL     1       5.377 -15.783  14.916  1.00  0.00    -0.000 C 
BRANCH  12  13
ATOM     13  C   UNL     1       4.487 -14.540  14.722  1.00  0.00    -0.000 C 
BRANCH  13  14
ATOM     14  C   UNL     1       3.813 -14.050  16.022  1.00  0.00    -0.000 C 
BRANCH  14  15
ATOM     15  C   UNL     1       2.359 -14.527  16.147  1.00  0.00    -0.003 C 
ATOM     16  C   UNL     1       1.747 -14.794  14.776  1.00  0.00     0.004 C 
ENDBRANCH  14  15
ENDBRANCH  13  14
ENDBRANCH  12  13
ENDBRANCH  11  12
ENDBRANCH  10  11
ENDBRANCH   1  10
TORSDOF 12
ENDMDL
MODEL 4
REMARK VINA RESULT:    -3.191      1.072      2.615
REMARK INTER + INTRA:          -7.414
REMARK INTER:                  -5.331
REMARK INTRA:                  -2.083
REMARK UNBOUND:                -1.984
REMARK SMILES CCCCCCCCCCCCCC(=O)[O-]
REMARK SMILES IDX 8 1 9 2 10 3 11 4 12 5 13 6 14 7 15 8 16 9 7 10 6 11 5 12
REMARK SMILES IDX 4 13 3 14 2 15 1 16
REMARK H PARENT
REMARK Flexibility Score: inf
ROOT
ATOM      1  C   UNL     1       3.745 -16.634  15.166  1.00  0.00     0.000 C 
ENDROOT
BRANCH   1   2
ATOM      2  C   UNL     1       2.958 -15.518  14.457  1.00  0.00     0.000 C 
BRANCH   2   3
ATOM      3  C   UNL     1       2.080 -14.704  15.417  1.00  0.00     0.000 C 
BRANCH   3   4
ATOM      4  C   UNL     1       2.646 -13.294  15.621  1.00  0.00     0.000 C 
BRANCH   4   5
ATOM      5  C   UNL     1       3.809 -13.022  14.654  1.00  0.00     0.006 C 
BRANCH   5   6
ATOM      6  C   UNL     1       4.560 -11.730  14.999  1.00  0.00     0.053 C 
BRANCH   6   7
ATOM      7  C   UNL     1       5.368 -11.229  13.841  1.00  0.00     0.041 C 
ATOM      8  O   UNL     1       4.985 -10.220  13.191  1.00  0.00    -0.550 OA
ATOM      9  O   UNL     1       6.523 -11.897  13.456  1.00  0.00    -0.550 OA
ENDBRANCH   6   7
ENDBRANCH   5   6
ENDBRANCH   4   5
ENDBRANCH   3   4
ENDBRANCH   2   3
ENDBRANCH   1   2
BRANCH   1  10
ATOM     10  C   UNL     1       4.851 -17.294  14.319  1.00  0.00     0.000 C 
BRANCH  10  11
ATOM     11  C   UNL     1       6.289 -16.859  14.663  1.00  0.00    -0.000 C 
BRANCH  11  12
ATOM     12  C   UNL     1       6.577 -15.357  14.477  1.00  0.00    -0.000 C 
BRANCH  12  13
ATOM     13  C   UNL     1       7.090 -14.635  15.737  1.00  0.00    -0.000 C 
BRANCH  13  14
ATOM     14  C   UNL     1       6.538 -15.218  17.056  1.00  0.00    -0.000 C 
BRANCH  14  15
ATOM     15  C   UNL     1       5.450 -14.333  17.680  1.00  0.00    -0.003 C 
ATOM     16  C   UNL     1       4.441 -15.169  18.463  1.00  0.00     0.004 C 
ENDBRANCH  14  15
ENDBRANCH  13  14
ENDBRANCH  12  13
ENDBRANCH  11  12
ENDBRANCH  10  11
ENDBRANCH   1  10
TORSDOF 12
ENDMDL
MODEL 5
REMARK VINA RESULT:    -3.178      1.146      3.859
REMARK INTER + INTRA:          -7.391
REMARK INTER:                  -5.851
REMARK INTRA:                  -1.540
REMARK UNBOUND:                -1.984
REMARK SMILES CCCCCCCCCCCCCC(=O)[O-]
REMARK SMILES IDX 8 1 9 2 10 3 11 4 12 5 13 6 14 7 15 8 16 9 7 10 6 11 5 12
REMARK SMILES IDX 4 13 3 14 2 15 1 16
REMARK H PARENT
REMARK Flexibility Score: inf
ROOT
ATOM      1  C   UNL     1       7.834 -17.251  14.149  1.00  0.00     0.000 C 
ENDROOT
BRANCH   1   2
ATOM      2  C   UNL     1       7.291 -15.811  14.135  1.00  0.00     0.000 C 
BRANCH   2   3
ATOM      3  C   UNL     1       7.087 -15.236  15.543  1.00  0.00     0.000 C 
BRANCH   3   4
ATOM      4  C   UNL     1       6.926 -13.712  15.497  1.00  0.00     0.000 C 
BRANCH   4   5
ATOM      5  C   UNL     1       5.783 -13.306  14.555  1.00  0.00     0.006 C 
BRANCH   5   6
ATOM      6  C   UNL     1       5.332 -11.857  14.779  1.00  0.00     0.053 C 
BRANCH   6   7
ATOM      7  C   UNL     1       5.686 -10.977  13.619  1.00  0.00     0.041 C 
ATOM      8  O   UNL     1       6.710 -11.221  12.929  1.00  0.00    -0.550 OA
ATOM      9  O   UNL     1       4.903  -9.868  13.321  1.00  0.00    -0.550 OA
ENDBRANCH   6   7
ENDBRANCH   5   6
ENDBRANCH   4   5
ENDBRANCH   3   4
ENDBRANCH   2   3
ENDBRANCH   1   2
BRANCH   1  10
ATOM     10  C   UNL     1       6.943 -18.291  13.442  1.00  0.00     0.000 C 
BRANCH  10  11
ATOM     11  C   UNL     1       5.428 -18.125  13.673  1.00  0.00    -0.000 C 
BRANCH  11  12
ATOM     12  C   UNL     1       4.958 -18.387  15.116  1.00  0.00    -0.000 C 
BRANCH  12  13
ATOM     13  C   UNL     1       3.970 -17.346  15.675  1.00  0.00    -0.000 C 
BRANCH  13  14
ATOM     14  C   UNL     1       3.643 -16.206  14.685  1.00  0.00    -0.000 C 
BRANCH  14  15
ATOM     15  C   UNL     1       2.411 -15.394  15.110  1.00  0.00    -0.003 C 
ATOM     16  C   UNL     1       2.746 -14.441  16.253  1.00  0.00     0.004 C 
ENDBRANCH  14  15
ENDBRANCH  13  14
ENDBRANCH  12  13
ENDBRANCH  11  12
ENDBRANCH  10  11
ENDBRANCH   1  10
TORSDOF 12
ENDMDL
MODEL 6
REMARK VINA RESULT:    -3.152      1.599      3.936
REMARK INTER + INTRA:          -7.347
REMARK INTER:                  -5.328
REMARK INTRA:                  -2.018
REMARK UNBOUND:                -1.984
REMARK SMILES CCCCCCCCCCCCCC(=O)[O-]
REMARK SMILES IDX 8 1 9 2 10 3 11 4 12 5 13 6 14 7 15 8 16 9 7 10 6 11 5 12
REMARK SMILES IDX 4 13 3 14 2 15 1 16
REMARK H PARENT
REMARK Flexibility Score: inf
ROOT
ATOM      1  C   UNL     1       6.261 -16.310  16.089  1.00  0.00     0.000 C 
ENDROOT
BRANCH   1   2
ATOM      2  C   UNL     1       6.861 -15.304  17.088  1.00  0.00     0.000 C 
BRANCH   2   3
ATOM      3  C   UNL     1       7.377 -14.027  16.411  1.00  0.00     0.000 C 
BRANCH   3   4
ATOM      4  C   UNL     1       6.217 -13.100  16.029  1.00  0.00     0.000 C 
BRANCH   4   5
ATOM      5  C   UNL     1       5.998 -13.087  14.509  1.00  0.00     0.006 C 
BRANCH   5   6
ATOM      6  C   UNL     1       5.004 -12.003  14.074  1.00  0.00     0.053 C 
BRANCH   6   7
ATOM      7  C   UNL     1       5.654 -10.962  13.216  1.00  0.00     0.041 C 
ATOM      8  O   UNL     1       6.616 -11.271  12.465  1.00  0.00    -0.550 OA
ATOM      9  O   UNL     1       5.221  -9.643  13.272  1.00  0.00    -0.550 OA
ENDBRANCH   6   7
ENDBRANCH   5   6
ENDBRANCH   4   5
ENDBRANCH   3   4
ENDBRANCH   2   3
ENDBRANCH   1   2
BRANCH   1  10
ATOM     10  C   UNL     1       5.037 -17.092  16.606  1.00  0.00     0.000 C 
BRANCH  10  11
ATOM     11  C   UNL     1       3.814 -17.095  15.668  1.00  0.00    -0.000 C 
BRANCH  11  12
ATOM     12  C   UNL     1       3.935 -16.172  14.440  1.00  0.00    -0.000 C 
BRANCH  12  13
ATOM     13  C   UNL     1       2.870 -15.062  14.358  1.00  0.00    -0.000 C 
BRANCH  13  14
ATOM     14  C   UNL     1       2.115 -14.826  15.683  1.00  0.00    -0.000 C 
BRANCH  14  15
ATOM     15  C   UNL     1       2.715 -13.677  16.507  1.00  0.00    -0.003 C 
ATOM     16  C   UNL     1       3.106 -14.148  17.904  1.00  0.00     0.004 C 
ENDBRANCH  14  15
ENDBRANCH  13  14
ENDBRANCH  12  13
ENDBRANCH  11  12
ENDBRANCH  10  11
ENDBRANCH   1  10
TORSDOF 12
ENDMDL
MODEL 7
REMARK VINA RESULT:    -3.129      3.385      5.143
REMARK INTER + INTRA:          -7.308
REMARK INTER:                  -5.552
REMARK INTRA:                  -1.756
REMARK UNBOUND:                -1.984
REMARK SMILES CCCCCCCCCCCCCC(=O)[O-]
REMARK SMILES IDX 8 1 9 2 10 3 11 4 12 5 13 6 14 7 15 8 16 9 7 10 6 11 5 12
REMARK SMILES IDX 4 13 3 14 2 15 1 16
REMARK H PARENT
REMARK Flexibility Score: inf
ROOT
ATOM      1  C   UNL     1       3.313 -13.254  17.227  1.00  0.00     0.000 C 
ENDROOT
BRANCH   1   2
ATOM      2  C   UNL     1       2.454 -14.419  16.703  1.00  0.00     0.000 C 
BRANCH   2   3
ATOM      3  C   UNL     1       2.093 -14.273  15.218  1.00  0.00     0.000 C 
BRANCH   3   4
ATOM      4  C   UNL     1       2.932 -15.219  14.352  1.00  0.00     0.000 C 
BRANCH   4   5
ATOM      5  C   UNL     1       3.544 -16.346  15.199  1.00  0.00     0.006 C 
BRANCH   5   6
ATOM      6  C   UNL     1       4.825 -16.912  14.574  1.00  0.00     0.053 C 
BRANCH   6   7
ATOM      7  C   UNL     1       5.019 -18.358  14.913  1.00  0.00     0.041 C 
ATOM      8  O   UNL     1       4.994 -18.735  16.114  1.00  0.00    -0.550 OA
ATOM      9  O   UNL     1       5.263 -19.283  13.906  1.00  0.00    -0.550 OA
ENDBRANCH   6   7
ENDBRANCH   5   6
ENDBRANCH   4   5
ENDBRANCH   3   4
ENDBRANCH   2   3
ENDBRANCH   1   2
BRANCH   1  10
ATOM     10  C   UNL     1       4.809 -13.578  17.413  1.00  0.00     0.000 C 
BRANCH  10  11
ATOM     11  C   UNL     1       5.778 -12.693  16.605  1.00  0.00    -0.000 C 
BRANCH  11  12
ATOM     12  C   UNL     1       6.222 -13.282  15.253  1.00  0.00    -0.000 C 
BRANCH  12  13
ATOM     13  C   UNL     1       5.509 -12.689  14.023  1.00  0.00    -0.000 C 
BRANCH  13  14
ATOM     14  C   UNL     1       4.738 -11.385  14.321  1.00  0.00    -0.000 C 
BRANCH  14  15
ATOM     15  C   UNL     1       5.510 -10.132  13.885  1.00  0.00    -0.003 C 
ATOM     16  C   UNL     1       6.454 -10.441  12.727  1.00  0.00     0.004 C 
ENDBRANCH  14  15
ENDBRANCH  13  14
ENDBRANCH  12  13
ENDBRANCH  11  12
ENDBRANCH  10  11
ENDBRANCH   1  10
TORSDOF 12
ENDMDL
MODEL 8
REMARK VINA RESULT:    -3.122      3.096      4.833
REMARK INTER + INTRA:          -7.295
REMARK INTER:                  -5.466
REMARK INTRA:                  -1.830
REMARK UNBOUND:                -1.984
REMARK SMILES CCCCCCCCCCCCCC(=O)[O-]
REMARK SMILES IDX 8 1 9 2 10 3 11 4 12 5 13 6 14 7 15 8 16 9 7 10 6 11 5 12
REMARK SMILES IDX 4 13 3 14 2 15 1 16
REMARK H PARENT
REMARK Flexibility Score: inf
ROOT
ATOM      1  C   UNL     1       2.806 -13.693  16.441  1.00  0.00     0.000 C 
ENDROOT
BRANCH   1   2
ATOM      2  C   UNL     1       1.915 -14.427  15.423  1.00  0.00     0.000 C 
BRANCH   2   3
ATOM      3  C   UNL     1       2.715 -15.316  14.461  1.00  0.00     0.000 C 
BRANCH   3   4
ATOM      4  C   UNL     1       3.611 -16.293  15.232  1.00  0.00     0.000 C 
BRANCH   4   5
ATOM      5  C   UNL     1       4.513 -17.087  14.275  1.00  0.00     0.006 C 
BRANCH   5   6
ATOM      6  C   UNL     1       4.905 -18.455  14.847  1.00  0.00     0.053 C 
BRANCH   6   7
ATOM      7  C   UNL     1       5.826 -19.200  13.930  1.00  0.00     0.041 C 
ATOM      8  O   UNL     1       6.093 -20.411  14.147  1.00  0.00    -0.550 OA
ATOM      9  O   UNL     1       6.417 -18.547  12.855  1.00  0.00    -0.550 OA
ENDBRANCH   6   7
ENDBRANCH   5   6
ENDBRANCH   4   5
ENDBRANCH   3   4
ENDBRANCH   2   3
ENDBRANCH   1   2
BRANCH   1  10
ATOM     10  C   UNL     1       3.124 -12.226  16.091  1.00  0.00     0.000 C 
BRANCH  10  11
ATOM     11  C   UNL     1       4.587 -11.948  15.694  1.00  0.00    -0.000 C 
BRANCH  11  12
ATOM     12  C   UNL     1       5.024 -12.558  14.349  1.00  0.00    -0.000 C 
BRANCH  12  13
ATOM     13  C   UNL     1       6.098 -13.657  14.455  1.00  0.00    -0.000 C 
BRANCH  13  14
ATOM     14  C   UNL     1       6.562 -13.935  15.901  1.00  0.00    -0.000 C 
BRANCH  14  15
ATOM     15  C   UNL     1       7.166 -15.337  16.066  1.00  0.00    -0.003 C 
ATOM     16  C   UNL     1       7.918 -15.764  14.809  1.00  0.00     0.004 C 
ENDBRANCH  14  15
ENDBRANCH  13  14
ENDBRANCH  12  13
ENDBRANCH  11  12
ENDBRANCH  10  11
ENDBRANCH   1  10
TORSDOF 12
ENDMDL
MODEL 9
REMARK VINA RESULT:    -3.078      3.099      5.448
REMARK INTER + INTRA:          -7.222
REMARK INTER:                  -5.654
REMARK INTRA:                  -1.567
REMARK UNBOUND:                -1.984
REMARK SMILES CCCCCCCCCCCCCC(=O)[O-]
REMARK SMILES IDX 8 1 9 2 10 3 11 4 12 5 13 6 14 7 15 8 16 9 7 10 6 11 5 12
REMARK SMILES IDX 4 13 3 14 2 15 1 16
REMARK H PARENT
REMARK Flexibility Score: inf
ROOT
ATOM      1  C   UNL     1       3.559 -16.063  14.730  1.00  0.00     0.000 C 
ENDROOT
BRANCH   1   2
ATOM      2  C   UNL     1       4.307 -16.497  16.003  1.00  0.00     0.000 C 
BRANCH   2   3
ATOM      3  C   UNL     1       5.810 -16.192  15.946  1.00  0.00     0.000 C 
BRANCH   3   4
ATOM      4  C   UNL     1       6.218 -15.697  14.554  1.00  0.00     0.000 C 
BRANCH   4   5
ATOM      5  C   UNL     1       7.369 -16.540  13.984  1.00  0.00     0.006 C 
BRANCH   5   6
ATOM      6  C   UNL     1       6.865 -17.685  13.096  1.00  0.00     0.053 C 
BRANCH   6   7
ATOM      7  C   UNL     1       6.517 -18.901  13.899  1.00  0.00     0.041 C 
ATOM      8  O   UNL     1       7.415 -19.526  14.523  1.00  0.00    -0.550 OA
ATOM      9  O   UNL     1       5.208 -19.365  13.930  1.00  0.00    -0.550 OA
ENDBRANCH   6   7
ENDBRANCH   5   6
ENDBRANCH   4   5
ENDBRANCH   3   4
ENDBRANCH   2   3
ENDBRANCH   1   2
BRANCH   1  10
ATOM     10  C   UNL     1       2.280 -15.237  14.973  1.00  0.00     0.000 C 
BRANCH  10  11
ATOM     11  C   UNL     1       2.450 -14.022  15.905  1.00  0.00    -0.000 C 
BRANCH  11  12
ATOM     12  C   UNL     1       3.272 -12.861  15.316  1.00  0.00    -0.000 C 
BRANCH  12  13
ATOM     13  C   UNL     1       4.638 -12.627  15.990  1.00  0.00    -0.000 C 
BRANCH  13  14
ATOM     14  C   UNL     1       5.719 -12.083  15.031  1.00  0.00    -0.000 C 
BRANCH  14  15
ATOM     15  C   UNL     1       5.133 -11.597  13.698  1.00  0.00    -0.003 C 
ATOM     16  C   UNL     1       6.113 -10.686  12.965  1.00  0.00     0.004 C 
ENDBRANCH  14  15
ENDBRANCH  13  14
ENDBRANCH  12  13
ENDBRANCH  11  12
ENDBRANCH  10  11
ENDBRANCH   1  10
TORSDOF 12
ENDMDL
