MODEL 1
REMARK VINA RESULT:    -6.359      0.000      0.000
REMARK INTER + INTRA:          -7.781
REMARK INTER:                  -7.660
REMARK INTRA:                  -0.121
REMARK UNBOUND:                -0.121
REMARK SMILES Oc1cc(O)c2cc(O)c(-c3ccc(O)c(O)c3)[o+]c2c1.[Cl-]
REMARK SMILES IDX 10 1 19 2 20 3 21 4 2 5 3 6 4 7 6 8 7 9 8 10 11 11 12 12
REMARK SMILES IDX 13 13 14 14 18 15 16 16 15 17 17 19 9 21 1 23 5 25
REMARK H PARENT 15 18 17 20 9 22 1 24 5 26
REMARK Flexibility Score: inf
ROOT
ATOM      1  C   UNL     1      -3.277 -32.135 -33.158  1.00  0.00     0.402 A 
ATOM      2  O   UNL     1      -2.308 -31.455 -32.548  1.00  0.00    -0.202 OA
ATOM      3  C   UNL     1      -2.188 -30.133 -32.621  1.00  0.00     0.368 A 
ATOM      4  C   UNL     1      -1.143 -29.495 -31.947  1.00  0.00     0.162 A 
ATOM      5  C   UNL     1      -1.008 -28.104 -32.011  1.00  0.00     0.128 A 
ATOM      6  C   UNL     1      -1.924 -27.347 -32.756  1.00  0.00     0.093 A 
ATOM      7  C   UNL     1      -2.976 -27.975 -33.439  1.00  0.00     0.136 A 
ATOM      8  C   UNL     1      -3.112 -29.374 -33.372  1.00  0.00     0.125 A 
ATOM      9  C   UNL     1      -4.137 -30.054 -34.039  1.00  0.00     0.078 A 
ATOM     10  C   UNL     1      -4.223 -31.446 -33.946  1.00  0.00     0.223 A 
ENDROOT
BRANCH   1  11
ATOM     11  C   UNL     1      -3.311 -33.605 -32.996  1.00  0.00     0.087 A 
ATOM     12  C   UNL     1      -3.409 -34.201 -31.726  1.00  0.00     0.022 A 
ATOM     13  C   UNL     1      -3.414 -35.593 -31.596  1.00  0.00     0.051 A 
ATOM     14  C   UNL     1      -3.309 -36.409 -32.730  1.00  0.00     0.157 A 
ATOM     15  C   UNL     1      -3.184 -34.429 -34.127  1.00  0.00     0.068 A 
ATOM     16  C   UNL     1      -3.191 -35.825 -33.998  1.00  0.00     0.158 A 
BRANCH  14  17
ATOM     17  O   UNL     1      -3.316 -37.796 -32.605  1.00  0.00    -0.504 OA
ATOM     18  H   UNL     1      -2.454 -38.328 -32.558  1.00  0.00     0.293 HD
ENDBRANCH  14  17
BRANCH  16  19
ATOM     19  O   UNL     1      -3.078 -36.639 -35.124  1.00  0.00    -0.504 OA
ATOM     20  H   UNL     1      -2.764 -36.272 -36.015  1.00  0.00     0.293 HD
ENDBRANCH  16  19
ENDBRANCH   1  11
BRANCH  10  21
ATOM     21  O   UNL     1      -5.210 -32.134 -34.649  1.00  0.00    -0.500 OA
ATOM     22  H   UNL     1      -5.157 -33.136 -34.796  1.00  0.00     0.294 HD
ENDBRANCH  10  21
BRANCH   5  23
ATOM     23  O   UNL     1       0.038 -27.485 -31.332  1.00  0.00    -0.507 OA
ATOM     24  H   UNL     1       0.260 -27.723 -30.372  1.00  0.00     0.293 HD
ENDBRANCH   5  23
BRANCH   7  25
ATOM     25  O   UNL     1      -3.880 -27.211 -34.177  1.00  0.00    -0.507 OA
ATOM     26  H   UNL     1      -4.547 -26.594 -33.728  1.00  0.00     0.293 HD
ENDBRANCH   7  25
TORSDOF 6
ENDMDL
MODEL 2
REMARK VINA RESULT:    -6.210     12.763     15.917
REMARK INTER + INTRA:          -7.602
REMARK INTER:                  -7.282
REMARK INTRA:                  -0.320
REMARK UNBOUND:                -0.121
REMARK SMILES Oc1cc(O)c2cc(O)c(-c3ccc(O)c(O)c3)[o+]c2c1.[Cl-]
REMARK SMILES IDX 10 1 19 2 20 3 21 4 2 5 3 6 4 7 6 8 7 9 8 10 11 11 12 12
REMARK SMILES IDX 13 13 14 14 18 15 16 16 15 17 17 19 9 21 1 23 5 25
REMARK H PARENT 15 18 17 20 9 22 1 24 5 26
REMARK Flexibility Score: inf
ROOT
ATOM      1  C   UNL     1       6.856 -43.109 -33.557  1.00  0.00     0.402 A 
ATOM      2  O   UNL     1       7.846 -42.288 -33.905  1.00  0.00    -0.202 OA
ATOM      3  C   UNL     1       9.087 -42.704 -34.141  1.00  0.00     0.368 A 
ATOM      4  C   UNL     1      10.069 -41.778 -34.506  1.00  0.00     0.162 A 
ATOM      5  C   UNL     1      11.377 -42.202 -34.761  1.00  0.00     0.128 A 
ATOM      6  C   UNL     1      11.706 -43.560 -34.649  1.00  0.00     0.093 A 
ATOM      7  C   UNL     1      10.731 -44.500 -34.282  1.00  0.00     0.136 A 
ATOM      8  C   UNL     1       9.415 -44.073 -34.027  1.00  0.00     0.125 A 
ATOM      9  C   UNL     1       8.403 -44.964 -33.650  1.00  0.00     0.078 A 
ATOM     10  C   UNL     1       7.114 -44.487 -33.401  1.00  0.00     0.223 A 
ENDROOT
BRANCH   1  11
ATOM     11  C   UNL     1       5.514 -42.529 -33.329  1.00  0.00     0.087 A 
ATOM     12  C   UNL     1       5.184 -41.899 -32.116  1.00  0.00     0.022 A 
ATOM     13  C   UNL     1       3.902 -41.379 -31.914  1.00  0.00     0.051 A 
ATOM     14  C   UNL     1       2.928 -41.493 -32.915  1.00  0.00     0.157 A 
ATOM     15  C   UNL     1       4.526 -42.658 -34.320  1.00  0.00     0.068 A 
ATOM     16  C   UNL     1       3.241 -42.136 -34.119  1.00  0.00     0.158 A 
BRANCH  14  17
ATOM     17  O   UNL     1       1.650 -40.975 -32.719  1.00  0.00    -0.504 OA
ATOM     18  H   UNL     1       1.373 -40.569 -31.833  1.00  0.00     0.293 HD
ENDBRANCH  14  17
BRANCH  16  19
ATOM     19  O   UNL     1       2.268 -42.255 -35.111  1.00  0.00    -0.504 OA
ATOM     20  H   UNL     1       2.477 -42.668 -36.012  1.00  0.00     0.293 HD
ENDBRANCH  16  19
ENDBRANCH   1  11
BRANCH  10  21
ATOM     21  O   UNL     1       6.114 -45.361 -32.975  1.00  0.00    -0.500 OA
ATOM     22  H   UNL     1       5.402 -45.703 -33.611  1.00  0.00     0.294 HD
ENDBRANCH  10  21
BRANCH   5  23
ATOM     23  O   UNL     1      12.342 -41.266 -35.124  1.00  0.00    -0.507 OA
ATOM     24  H   UNL     1      12.152 -40.554 -35.821  1.00  0.00     0.293 HD
ENDBRANCH   5  23
BRANCH   7  25
ATOM     25  O   UNL     1      11.070 -45.849 -34.173  1.00  0.00    -0.507 OA
ATOM     26  H   UNL     1      10.391 -46.583 -34.336  1.00  0.00     0.293 HD
ENDBRANCH   7  25
TORSDOF 6
ENDMDL
MODEL 3
REMARK VINA RESULT:    -6.105      6.238      7.594
REMARK INTER + INTRA:          -7.475
REMARK INTER:                  -7.138
REMARK INTRA:                  -0.337
REMARK UNBOUND:                -0.121
REMARK SMILES Oc1cc(O)c2cc(O)c(-c3ccc(O)c(O)c3)[o+]c2c1.[Cl-]
REMARK SMILES IDX 10 1 19 2 20 3 21 4 2 5 3 6 4 7 6 8 7 9 8 10 11 11 12 12
REMARK SMILES IDX 13 13 14 14 18 15 16 16 15 17 17 19 9 21 1 23 5 25
REMARK H PARENT 15 18 17 20 9 22 1 24 5 26
REMARK Flexibility Score: inf
ROOT
ATOM      1  C   UNL     1       3.015 -32.916 -31.561  1.00  0.00     0.402 A 
ATOM      2  O   UNL     1       2.531 -32.098 -32.494  1.00  0.00    -0.202 OA
ATOM      3  C   UNL     1       1.332 -31.528 -32.411  1.00  0.00     0.368 A 
ATOM      4  C   UNL     1       0.899 -30.677 -33.432  1.00  0.00     0.162 A 
ATOM      5  C   UNL     1      -0.358 -30.067 -33.355  1.00  0.00     0.128 A 
ATOM      6  C   UNL     1      -1.186 -30.310 -32.251  1.00  0.00     0.093 A 
ATOM      7  C   UNL     1      -0.764 -31.163 -31.219  1.00  0.00     0.136 A 
ATOM      8  C   UNL     1       0.500 -31.775 -31.297  1.00  0.00     0.125 A 
ATOM      9  C   UNL     1       0.970 -32.641 -30.303  1.00  0.00     0.078 A 
ATOM     10  C   UNL     1       2.231 -33.229 -30.431  1.00  0.00     0.223 A 
ENDROOT
BRANCH   1  11
ATOM     11  C   UNL     1       4.367 -33.484 -31.762  1.00  0.00     0.087 A 
ATOM     12  C   UNL     1       4.568 -34.641 -32.535  1.00  0.00     0.022 A 
ATOM     13  C   UNL     1       5.852 -35.173 -32.691  1.00  0.00     0.051 A 
ATOM     14  C   UNL     1       6.949 -34.565 -32.067  1.00  0.00     0.157 A 
ATOM     15  C   UNL     1       5.469 -32.892 -31.121  1.00  0.00     0.068 A 
ATOM     16  C   UNL     1       6.756 -33.424 -31.278  1.00  0.00     0.158 A 
BRANCH  14  17
ATOM     17  O   UNL     1       8.230 -35.091 -32.221  1.00  0.00    -0.504 OA
ATOM     18  H   UNL     1       8.760 -34.952 -33.073  1.00  0.00     0.293 HD
ENDBRANCH  14  17
BRANCH  16  19
ATOM     19  O   UNL     1       7.848 -32.826 -30.652  1.00  0.00    -0.504 OA
ATOM     20  H   UNL     1       7.769 -31.925 -30.193  1.00  0.00     0.293 HD
ENDBRANCH  16  19
ENDBRANCH   1  11
BRANCH  10  21
ATOM     21  O   UNL     1       2.683 -34.132 -29.470  1.00  0.00    -0.500 OA
ATOM     22  H   UNL     1       2.041 -34.627 -28.862  1.00  0.00     0.294 HD
ENDBRANCH  10  21
BRANCH   5  23
ATOM     23  O   UNL     1      -0.772 -29.221 -34.381  1.00  0.00    -0.507 OA
ATOM     24  H   UNL     1      -1.358 -28.414 -34.197  1.00  0.00     0.293 HD
ENDBRANCH   5  23
BRANCH   7  25
ATOM     25  O   UNL     1      -1.598 -31.398 -30.126  1.00  0.00    -0.507 OA
ATOM     26  H   UNL     1      -2.605 -31.303 -30.195  1.00  0.00     0.293 HD
ENDBRANCH   7  25
TORSDOF 6
ENDMDL
MODEL 4
REMARK VINA RESULT:    -6.067     10.683     14.640
REMARK INTER + INTRA:          -7.430
REMARK INTER:                  -7.092
REMARK INTRA:                  -0.338
REMARK UNBOUND:                -0.121
REMARK SMILES Oc1cc(O)c2cc(O)c(-c3ccc(O)c(O)c3)[o+]c2c1.[Cl-]
REMARK SMILES IDX 10 1 19 2 20 3 21 4 2 5 3 6 4 7 6 8 7 9 8 10 11 11 12 12
REMARK SMILES IDX 13 13 14 14 18 15 16 16 15 17 17 19 9 21 1 23 5 25
REMARK H PARENT 15 18 17 20 9 22 1 24 5 26
REMARK Flexibility Score: inf
ROOT
ATOM      1  C   UNL     1       4.587 -42.226 -32.508  1.00  0.00     0.402 A 
ATOM      2  O   UNL     1       5.008 -43.325 -31.885  1.00  0.00    -0.202 OA
ATOM      3  C   UNL     1       6.019 -44.069 -32.324  1.00  0.00     0.368 A 
ATOM      4  C   UNL     1       6.403 -45.206 -31.608  1.00  0.00     0.162 A 
ATOM      5  C   UNL     1       7.467 -45.996 -32.056  1.00  0.00     0.128 A 
ATOM      6  C   UNL     1       8.151 -45.646 -33.229  1.00  0.00     0.093 A 
ATOM      7  C   UNL     1       7.776 -44.508 -33.958  1.00  0.00     0.136 A 
ATOM      8  C   UNL     1       6.706 -43.714 -33.506  1.00  0.00     0.125 A 
ATOM      9  C   UNL     1       6.282 -42.573 -34.197  1.00  0.00     0.078 A 
ATOM     10  C   UNL     1       5.209 -41.823 -33.708  1.00  0.00     0.223 A 
ENDROOT
BRANCH   1  11
ATOM     11  C   UNL     1       3.456 -41.476 -31.918  1.00  0.00     0.087 A 
ATOM     12  C   UNL     1       2.136 -41.674 -32.357  1.00  0.00     0.022 A 
ATOM     13  C   UNL     1       1.087 -40.936 -31.800  1.00  0.00     0.051 A 
ATOM     14  C   UNL     1       1.343 -39.982 -30.808  1.00  0.00     0.157 A 
ATOM     15  C   UNL     1       3.709 -40.502 -30.937  1.00  0.00     0.068 A 
ATOM     16  C   UNL     1       2.657 -39.763 -30.377  1.00  0.00     0.158 A 
BRANCH  14  17
ATOM     17  O   UNL     1       0.301 -39.246 -30.249  1.00  0.00    -0.504 OA
ATOM     18  H   UNL     1       0.326 -38.234 -30.216  1.00  0.00     0.293 HD
ENDBRANCH  14  17
BRANCH  16  19
ATOM     19  O   UNL     1       2.911 -38.808 -29.394  1.00  0.00    -0.504 OA
ATOM     20  H   UNL     1       2.841 -37.815 -29.587  1.00  0.00     0.293 HD
ENDBRANCH  16  19
ENDBRANCH   1  11
BRANCH  10  21
ATOM     21  O   UNL     1       4.750 -40.714 -34.418  1.00  0.00    -0.500 OA
ATOM     22  H   UNL     1       4.611 -39.816 -33.969  1.00  0.00     0.294 HD
ENDBRANCH  10  21
BRANCH   5  23
ATOM     23  O   UNL     1       7.837 -47.125 -31.329  1.00  0.00    -0.507 OA
ATOM     24  H   UNL     1       8.801 -47.290 -31.062  1.00  0.00     0.293 HD
ENDBRANCH   5  23
BRANCH   7  25
ATOM     25  O   UNL     1       8.463 -44.170 -35.124  1.00  0.00    -0.507 OA
ATOM     26  H   UNL     1       9.362 -44.581 -35.349  1.00  0.00     0.293 HD
ENDBRANCH   7  25
TORSDOF 6
ENDMDL
MODEL 5
REMARK VINA RESULT:    -6.061     10.476     13.549
REMARK INTER + INTRA:          -7.422
REMARK INTER:                  -7.073
REMARK INTRA:                  -0.349
REMARK UNBOUND:                -0.121
REMARK SMILES Oc1cc(O)c2cc(O)c(-c3ccc(O)c(O)c3)[o+]c2c1.[Cl-]
REMARK SMILES IDX 10 1 19 2 20 3 21 4 2 5 3 6 4 7 6 8 7 9 8 10 11 11 12 12
REMARK SMILES IDX 13 13 14 14 18 15 16 16 15 17 17 19 9 21 1 23 5 25
REMARK H PARENT 15 18 17 20 9 22 1 24 5 26
REMARK Flexibility Score: inf
ROOT
ATOM      1  C   UNL     1       5.005 -42.282 -33.161  1.00  0.00     0.402 A 
ATOM      2  O   UNL     1       5.025 -41.603 -32.015  1.00  0.00    -0.202 OA
ATOM      3  C   UNL     1       3.939 -41.063 -31.470  1.00  0.00     0.368 A 
ATOM      4  C   UNL     1       4.044 -40.369 -30.261  1.00  0.00     0.162 A 
ATOM      5  C   UNL     1       2.909 -39.800 -29.675  1.00  0.00     0.128 A 
ATOM      6  C   UNL     1       1.662 -39.925 -30.301  1.00  0.00     0.093 A 
ATOM      7  C   UNL     1       1.542 -40.618 -31.515  1.00  0.00     0.136 A 
ATOM      8  C   UNL     1       2.684 -41.191 -32.104  1.00  0.00     0.125 A 
ATOM      9  C   UNL     1       2.626 -41.886 -33.317  1.00  0.00     0.078 A 
ATOM     10  C   UNL     1       3.791 -42.430 -33.863  1.00  0.00     0.223 A 
ENDROOT
BRANCH   1  11
ATOM     11  C   UNL     1       6.279 -42.844 -33.664  1.00  0.00     0.087 A 
ATOM     12  C   UNL     1       7.097 -42.124 -34.553  1.00  0.00     0.022 A 
ATOM     13  C   UNL     1       8.284 -42.686 -35.034  1.00  0.00     0.051 A 
ATOM     14  C   UNL     1       8.664 -43.976 -34.644  1.00  0.00     0.157 A 
ATOM     15  C   UNL     1       6.655 -44.146 -33.294  1.00  0.00     0.068 A 
ATOM     16  C   UNL     1       7.846 -44.709 -33.774  1.00  0.00     0.158 A 
BRANCH  14  17
ATOM     17  O   UNL     1       9.846 -44.538 -35.119  1.00  0.00    -0.504 OA
ATOM     18  H   UNL     1      10.734 -44.059 -35.028  1.00  0.00     0.293 HD
ENDBRANCH  14  17
BRANCH  16  19
ATOM     19  O   UNL     1       8.223 -45.995 -33.393  1.00  0.00    -0.504 OA
ATOM     20  H   UNL     1       8.780 -46.162 -32.563  1.00  0.00     0.293 HD
ENDBRANCH  16  19
ENDBRANCH   1  11
BRANCH  10  21
ATOM     21  O   UNL     1       3.749 -43.080 -35.097  1.00  0.00    -0.500 OA
ATOM     22  H   UNL     1       2.903 -43.524 -35.435  1.00  0.00     0.294 HD
ENDBRANCH  10  21
BRANCH   5  23
ATOM     23  O   UNL     1       3.033 -39.113 -28.470  1.00  0.00    -0.507 OA
ATOM     24  H   UNL     1       3.525 -38.228 -28.413  1.00  0.00     0.293 HD
ENDBRANCH   5  23
BRANCH   7  25
ATOM     25  O   UNL     1       0.295 -40.735 -32.130  1.00  0.00    -0.507 OA
ATOM     26  H   UNL     1      -0.566 -40.578 -31.619  1.00  0.00     0.293 HD
ENDBRANCH   7  25
TORSDOF 6
ENDMDL
MODEL 6
REMARK VINA RESULT:    -6.051     10.702     13.237
REMARK INTER + INTRA:          -7.410
REMARK INTER:                  -7.123
REMARK INTRA:                  -0.287
REMARK UNBOUND:                -0.121
REMARK SMILES Oc1cc(O)c2cc(O)c(-c3ccc(O)c(O)c3)[o+]c2c1.[Cl-]
REMARK SMILES IDX 10 1 19 2 20 3 21 4 2 5 3 6 4 7 6 8 7 9 8 10 11 11 12 12
REMARK SMILES IDX 13 13 14 14 18 15 16 16 15 17 17 19 9 21 1 23 5 25
REMARK H PARENT 15 18 17 20 9 22 1 24 5 26
REMARK Flexibility Score: inf
ROOT
ATOM      1  C   UNL     1       5.226 -39.742 -29.703  1.00  0.00     0.402 A 
ATOM      2  O   UNL     1       5.086 -40.331 -30.889  1.00  0.00    -0.202 OA
ATOM      3  C   UNL     1       3.910 -40.719 -31.375  1.00  0.00     0.368 A 
ATOM      4  C   UNL     1       3.848 -41.328 -32.632  1.00  0.00     0.162 A 
ATOM      5  C   UNL     1       2.617 -41.737 -33.156  1.00  0.00     0.128 A 
ATOM      6  C   UNL     1       1.442 -41.537 -32.419  1.00  0.00     0.093 A 
ATOM      7  C   UNL     1       1.490 -40.929 -31.155  1.00  0.00     0.136 A 
ATOM      8  C   UNL     1       2.728 -40.517 -30.629  1.00  0.00     0.125 A 
ATOM      9  C   UNL     1       2.838 -39.912 -29.371  1.00  0.00     0.078 A 
ATOM     10  C   UNL     1       4.093 -39.528 -28.892  1.00  0.00     0.223 A 
ENDROOT
BRANCH   1  11
ATOM     11  C   UNL     1       6.587 -39.347 -29.274  1.00  0.00     0.087 A 
ATOM     12  C   UNL     1       7.513 -40.298 -28.811  1.00  0.00     0.022 A 
ATOM     13  C   UNL     1       8.785 -39.898 -28.388  1.00  0.00     0.051 A 
ATOM     14  C   UNL     1       9.144 -38.545 -28.411  1.00  0.00     0.157 A 
ATOM     15  C   UNL     1       6.946 -37.989 -29.274  1.00  0.00     0.068 A 
ATOM     16  C   UNL     1       8.221 -37.588 -28.852  1.00  0.00     0.158 A 
BRANCH  14  17
ATOM     17  O   UNL     1      10.410 -38.142 -27.992  1.00  0.00    -0.504 OA
ATOM     18  H   UNL     1      10.533 -37.504 -27.215  1.00  0.00     0.293 HD
ENDBRANCH  14  17
BRANCH  16  19
ATOM     19  O   UNL     1       8.578 -36.240 -28.867  1.00  0.00    -0.504 OA
ATOM     20  H   UNL     1       8.402 -35.653 -29.674  1.00  0.00     0.293 HD
ENDBRANCH  16  19
ENDBRANCH   1  11
BRANCH  10  21
ATOM     21  O   UNL     1       4.215 -38.972 -27.619  1.00  0.00    -0.500 OA
ATOM     22  H   UNL     1       4.121 -39.536 -26.781  1.00  0.00     0.294 HD
ENDBRANCH  10  21
BRANCH   5  23
ATOM     23  O   UNL     1       2.574 -42.340 -34.410  1.00  0.00    -0.507 OA
ATOM     24  H   UNL     1       2.150 -43.252 -34.545  1.00  0.00     0.293 HD
ENDBRANCH   5  23
BRANCH   7  25
ATOM     25  O   UNL     1       0.314 -40.736 -30.430  1.00  0.00    -0.507 OA
ATOM     26  H   UNL     1       0.180 -41.149 -29.514  1.00  0.00     0.293 HD
ENDBRANCH   7  25
TORSDOF 6
ENDMDL
MODEL 7
REMARK VINA RESULT:    -5.980     13.876     15.893
REMARK INTER + INTRA:          -7.325
REMARK INTER:                  -7.128
REMARK INTRA:                  -0.197
REMARK UNBOUND:                -0.121
REMARK SMILES Oc1cc(O)c2cc(O)c(-c3ccc(O)c(O)c3)[o+]c2c1.[Cl-]
REMARK SMILES IDX 10 1 19 2 20 3 21 4 2 5 3 6 4 7 6 8 7 9 8 10 11 11 12 12
REMARK SMILES IDX 13 13 14 14 18 15 16 16 15 17 17 19 9 21 1 23 5 25
REMARK H PARENT 15 18 17 20 9 22 1 24 5 26
REMARK Flexibility Score: inf
ROOT
ATOM      1  C   UNL     1       8.879 -41.744 -28.556  1.00  0.00     0.402 A 
ATOM      2  O   UNL     1       8.071 -40.782 -28.998  1.00  0.00    -0.202 OA
ATOM      3  C   UNL     1       8.274 -39.491 -28.754  1.00  0.00     0.368 A 
ATOM      4  C   UNL     1       7.380 -38.542 -29.259  1.00  0.00     0.162 A 
ATOM      5  C   UNL     1       7.585 -37.180 -29.013  1.00  0.00     0.128 A 
ATOM      6  C   UNL     1       8.689 -36.764 -28.257  1.00  0.00     0.093 A 
ATOM      7  C   UNL     1       9.594 -37.706 -27.743  1.00  0.00     0.136 A 
ATOM      8  C   UNL     1       9.388 -39.076 -27.992  1.00  0.00     0.125 A 
ATOM      9  C   UNL     1      10.252 -40.059 -27.498  1.00  0.00     0.078 A 
ATOM     10  C   UNL     1       9.998 -41.407 -27.767  1.00  0.00     0.223 A 
ENDROOT
BRANCH   1  11
ATOM     11  C   UNL     1       8.552 -43.146 -28.900  1.00  0.00     0.087 A 
ATOM     12  C   UNL     1       8.571 -43.597 -30.231  1.00  0.00     0.022 A 
ATOM     13  C   UNL     1       8.235 -44.920 -30.534  1.00  0.00     0.051 A 
ATOM     14  C   UNL     1       7.863 -45.806 -29.515  1.00  0.00     0.157 A 
ATOM     15  C   UNL     1       8.157 -44.033 -27.885  1.00  0.00     0.068 A 
ATOM     16  C   UNL     1       7.821 -45.360 -28.188  1.00  0.00     0.158 A 
BRANCH  14  17
ATOM     17  O   UNL     1       7.529 -47.125 -29.812  1.00  0.00    -0.504 OA
ATOM     18  H   UNL     1       7.894 -47.899 -29.269  1.00  0.00     0.293 HD
ENDBRANCH  14  17
BRANCH  16  19
ATOM     19  O   UNL     1       7.444 -46.241 -27.176  1.00  0.00    -0.504 OA
ATOM     20  H   UNL     1       7.592 -47.241 -27.259  1.00  0.00     0.293 HD
ENDBRANCH  16  19
ENDBRANCH   1  11
BRANCH  10  21
ATOM     21  O   UNL     1      10.826 -42.395 -27.236  1.00  0.00    -0.500 OA
ATOM     22  H   UNL     1      11.282 -42.280 -26.338  1.00  0.00     0.294 HD
ENDBRANCH  10  21
BRANCH   5  23
ATOM     23  O   UNL     1       6.685 -36.249 -29.526  1.00  0.00    -0.507 OA
ATOM     24  H   UNL     1       6.218 -36.398 -30.413  1.00  0.00     0.293 HD
ENDBRANCH   5  23
BRANCH   7  25
ATOM     25  O   UNL     1      10.689 -37.281 -26.991  1.00  0.00    -0.507 OA
ATOM     26  H   UNL     1      10.576 -36.697 -26.170  1.00  0.00     0.293 HD
ENDBRANCH   7  25
TORSDOF 6
ENDMDL
MODEL 8
REMARK VINA RESULT:    -5.942      1.061      2.694
REMARK INTER + INTRA:          -7.278
REMARK INTER:                  -7.197
REMARK INTRA:                  -0.081
REMARK UNBOUND:                -0.121
REMARK SMILES Oc1cc(O)c2cc(O)c(-c3ccc(O)c(O)c3)[o+]c2c1.[Cl-]
REMARK SMILES IDX 10 1 19 2 20 3 21 4 2 5 3 6 4 7 6 8 7 9 8 10 11 11 12 12
REMARK SMILES IDX 13 13 14 14 18 15 16 16 15 17 17 19 9 21 1 23 5 25
REMARK H PARENT 15 18 17 20 9 22 1 24 5 26
REMARK Flexibility Score: inf
ROOT
ATOM      1  C   UNL     1      -2.191 -32.269 -32.183  1.00  0.00     0.402 A 
ATOM      2  O   UNL     1      -2.965 -31.365 -32.780  1.00  0.00    -0.202 OA
ATOM      3  C   UNL     1      -2.691 -30.064 -32.789  1.00  0.00     0.368 A 
ATOM      4  C   UNL     1      -3.554 -29.179 -33.444  1.00  0.00     0.162 A 
ATOM      5  C   UNL     1      -3.276 -27.809 -33.465  1.00  0.00     0.128 A 
ATOM      6  C   UNL     1      -2.127 -27.319 -32.828  1.00  0.00     0.093 A 
ATOM      7  C   UNL     1      -1.252 -28.195 -32.167  1.00  0.00     0.136 A 
ATOM      8  C   UNL     1      -1.533 -29.574 -32.146  1.00  0.00     0.125 A 
ATOM      9  C   UNL     1      -0.702 -30.493 -31.496  1.00  0.00     0.078 A 
ATOM     10  C   UNL     1      -1.030 -31.851 -31.500  1.00  0.00     0.223 A 
ENDROOT
BRANCH   1  11
ATOM     11  C   UNL     1      -2.597 -33.691 -32.247  1.00  0.00     0.087 A 
ATOM     12  C   UNL     1      -2.754 -34.461 -31.082  1.00  0.00     0.022 A 
ATOM     13  C   UNL     1      -3.115 -35.809 -31.169  1.00  0.00     0.051 A 
ATOM     14  C   UNL     1      -3.312 -36.409 -32.419  1.00  0.00     0.157 A 
ATOM     15  C   UNL     1      -2.775 -34.303 -33.499  1.00  0.00     0.068 A 
ATOM     16  C   UNL     1      -3.138 -35.655 -33.587  1.00  0.00     0.158 A 
BRANCH  14  17
ATOM     17  O   UNL     1      -3.673 -37.751 -32.511  1.00  0.00    -0.504 OA
ATOM     18  H   UNL     1      -4.354 -38.160 -31.881  1.00  0.00     0.293 HD
ENDBRANCH  14  17
BRANCH  16  19
ATOM     19  O   UNL     1      -3.327 -36.255 -34.831  1.00  0.00    -0.504 OA
ATOM     20  H   UNL     1      -2.584 -36.297 -35.518  1.00  0.00     0.293 HD
ENDBRANCH  16  19
ENDBRANCH   1  11
BRANCH  10  21
ATOM     21  O   UNL     1      -0.234 -32.765 -30.811  1.00  0.00    -0.500 OA
ATOM     22  H   UNL     1       0.075 -32.591 -29.860  1.00  0.00     0.294 HD
ENDBRANCH  10  21
BRANCH   5  23
ATOM     23  O   UNL     1      -4.146 -26.943 -34.122  1.00  0.00    -0.507 OA
ATOM     24  H   UNL     1      -4.102 -26.810 -35.127  1.00  0.00     0.293 HD
ENDBRANCH   5  23
BRANCH   7  25
ATOM     25  O   UNL     1      -0.113 -27.696 -31.535  1.00  0.00    -0.507 OA
ATOM     26  H   UNL     1      -0.169 -27.193 -30.657  1.00  0.00     0.293 HD
ENDBRANCH   7  25
TORSDOF 6
ENDMDL
