MODEL 1
REMARK VINA RESULT:    -4.177      0.000      0.000
REMARK INTER + INTRA:          -5.388
REMARK INTER:                  -5.154
REMARK INTRA:                  -0.234
REMARK UNBOUND:                -0.234
REMARK SMILES CCCCCC(=O)[O-]
REMARK SMILES IDX 4 1 5 2 6 3 7 4 8 5 3 6 2 7 1 8
REMARK H PARENT
REMARK Flexibility Score: inf
ROOT
ATOM      1  C   UNL     1       9.243 -25.534  10.343  1.00  0.00     0.006 C 
ENDROOT
BRANCH   1   2
ATOM      2  C   UNL     1      10.243 -25.839  11.463  1.00  0.00     0.053 C 
BRANCH   2   3
ATOM      3  C   UNL     1      10.415 -27.316  11.624  1.00  0.00     0.041 C 
ATOM      4  O   UNL     1      10.773 -28.023  10.645  1.00  0.00    -0.550 OA
ATOM      5  O   UNL     1      10.230 -27.906  12.868  1.00  0.00    -0.550 OA
ENDBRANCH   2   3
ENDBRANCH   1   2
BRANCH   1   6
ATOM      6  C   UNL     1       9.937 -24.860   9.154  1.00  0.00     0.000 C 
BRANCH   6   7
ATOM      7  C   UNL     1       9.947 -25.781   7.929  1.00  0.00    -0.003 C 
ATOM      8  C   UNL     1       8.694 -26.652   7.883  1.00  0.00     0.004 C 
ENDBRANCH   6   7
ENDBRANCH   1   6
TORSDOF 4
ENDMDL
MODEL 2
REMARK VINA RESULT:    -4.129      2.321      3.988
REMARK INTER + INTRA:          -5.329
REMARK INTER:                  -5.240
REMARK INTRA:                  -0.089
REMARK UNBOUND:                -0.234
REMARK SMILES CCCCCC(=O)[O-]
REMARK SMILES IDX 4 1 5 2 6 3 7 4 8 5 3 6 2 7 1 8
REMARK H PARENT
REMARK Flexibility Score: inf
ROOT
ATOM      1  C   UNL     1      10.174 -26.385  10.594  1.00  0.00     0.006 C 
ENDROOT
BRANCH   1   2
ATOM      2  C   UNL     1       9.339 -25.689   9.513  1.00  0.00     0.053 C 
BRANCH   2   3
ATOM      3  C   UNL     1       9.323 -26.502   8.258  1.00  0.00     0.041 C 
ATOM      4  O   UNL     1       8.233 -26.759   7.683  1.00  0.00    -0.550 OA
ATOM      5  O   UNL     1      10.517 -26.935   7.695  1.00  0.00    -0.550 OA
ENDBRANCH   2   3
ENDBRANCH   1   2
BRANCH   1   6
ATOM      6  C   UNL     1       9.998 -25.697  11.953  1.00  0.00     0.000 C 
BRANCH   6   7
ATOM      7  C   UNL     1       9.987 -26.724  13.091  1.00  0.00    -0.003 C 
ATOM      8  C   UNL     1      10.383 -28.110  12.587  1.00  0.00     0.004 C 
ENDBRANCH   6   7
ENDBRANCH   1   6
TORSDOF 4
ENDMDL
MODEL 3
REMARK VINA RESULT:    -4.128      2.464      3.966
REMARK INTER + INTRA:          -5.327
REMARK INTER:                  -5.212
REMARK INTRA:                  -0.116
REMARK UNBOUND:                -0.234
REMARK SMILES CCCCCC(=O)[O-]
REMARK SMILES IDX 4 1 5 2 6 3 7 4 8 5 3 6 2 7 1 8
REMARK H PARENT
REMARK Flexibility Score: inf
ROOT
ATOM      1  C   UNL     1       9.184 -25.453   9.995  1.00  0.00     0.006 C 
ENDROOT
BRANCH   1   2
ATOM      2  C   UNL     1      10.046 -25.472   8.728  1.00  0.00     0.053 C 
BRANCH   2   3
ATOM      3  C   UNL     1       9.478 -26.421   7.722  1.00  0.00     0.041 C 
ATOM      4  O   UNL     1       8.282 -26.804   7.816  1.00  0.00    -0.550 OA
ATOM      5  O   UNL     1      10.253 -26.843   6.649  1.00  0.00    -0.550 OA
ENDBRANCH   2   3
ENDBRANCH   1   2
BRANCH   1   6
ATOM      6  C   UNL     1      10.012 -25.823  11.230  1.00  0.00     0.000 C 
BRANCH   6   7
ATOM      7  C   UNL     1      10.375 -27.313  11.222  1.00  0.00    -0.003 C 
ATOM      8  C   UNL     1      10.401 -27.883  12.637  1.00  0.00     0.004 C 
ENDBRANCH   6   7
ENDBRANCH   1   6
TORSDOF 4
ENDMDL
MODEL 4
REMARK VINA RESULT:    -4.100      2.415      3.926
REMARK INTER + INTRA:          -5.293
REMARK INTER:                  -5.142
REMARK INTRA:                  -0.151
REMARK UNBOUND:                -0.234
REMARK SMILES CCCCCC(=O)[O-]
REMARK SMILES IDX 4 1 5 2 6 3 7 4 8 5 3 6 2 7 1 8
REMARK H PARENT
REMARK Flexibility Score: inf
ROOT
ATOM      1  C   UNL     1       9.592 -25.285   9.344  1.00  0.00     0.006 C 
ENDROOT
BRANCH   1   2
ATOM      2  C   UNL     1       9.219 -26.412   8.376  1.00  0.00     0.053 C 
BRANCH   2   3
ATOM      3  C   UNL     1      10.285 -26.591   7.343  1.00  0.00     0.041 C 
ATOM      4  O   UNL     1       9.974 -26.835   6.147  1.00  0.00    -0.550 OA
ATOM      5  O   UNL     1      11.621 -26.438   7.690  1.00  0.00    -0.550 OA
ENDBRANCH   2   3
ENDBRANCH   1   2
BRANCH   1   6
ATOM      6  C   UNL     1       9.509 -25.760  10.800  1.00  0.00     0.000 C 
BRANCH   6   7
ATOM      7  C   UNL     1      10.328 -27.039  11.007  1.00  0.00    -0.003 C 
ATOM      8  C   UNL     1      10.297 -27.483  12.467  1.00  0.00     0.004 C 
ENDBRANCH   6   7
ENDBRANCH   1   6
TORSDOF 4
ENDMDL
MODEL 5
REMARK VINA RESULT:    -4.085      9.773     10.587
REMARK INTER + INTRA:          -5.274
REMARK INTER:                  -5.168
REMARK INTRA:                  -0.106
REMARK UNBOUND:                -0.234
REMARK SMILES CCCCCC(=O)[O-]
REMARK SMILES IDX 4 1 5 2 6 3 7 4 8 5 3 6 2 7 1 8
REMARK H PARENT
REMARK Flexibility Score: inf
ROOT
ATOM      1  C   UNL     1      20.029 -29.768  11.446  1.00  0.00     0.006 C 
ENDROOT
BRANCH   1   2
ATOM      2  C   UNL     1      19.022 -29.461  10.333  1.00  0.00     0.053 C 
BRANCH   2   3
ATOM      3  C   UNL     1      19.727 -28.974   9.108  1.00  0.00     0.041 C 
ATOM      4  O   UNL     1      20.003 -27.752   8.978  1.00  0.00    -0.550 OA
ATOM      5  O   UNL     1      20.125 -29.877   8.130  1.00  0.00    -0.550 OA
ENDBRANCH   2   3
ENDBRANCH   1   2
BRANCH   1   6
ATOM      6  C   UNL     1      19.374 -29.658  12.828  1.00  0.00     0.000 C 
BRANCH   6   7
ATOM      7  C   UNL     1      17.881 -29.999  12.756  1.00  0.00    -0.003 C 
ATOM      8  C   UNL     1      17.505 -31.050  13.797  1.00  0.00     0.004 C 
ENDBRANCH   6   7
ENDBRANCH   1   6
TORSDOF 4
ENDMDL
MODEL 6
REMARK VINA RESULT:    -4.051      1.527      2.050
REMARK INTER + INTRA:          -5.233
REMARK INTER:                  -4.977
REMARK INTRA:                  -0.256
REMARK UNBOUND:                -0.234
REMARK SMILES CCCCCC(=O)[O-]
REMARK SMILES IDX 4 1 5 2 6 3 7 4 8 5 3 6 2 7 1 8
REMARK H PARENT
REMARK Flexibility Score: inf
ROOT
ATOM      1  C   UNL     1      11.809 -26.044   8.874  1.00  0.00     0.006 C 
ENDROOT
BRANCH   1   2
ATOM      2  C   UNL     1      11.455 -25.225  10.119  1.00  0.00     0.053 C 
BRANCH   2   3
ATOM      3  C   UNL     1      10.551 -26.004  11.019  1.00  0.00     0.041 C 
ATOM      4  O   UNL     1       9.862 -25.412  11.892  1.00  0.00    -0.550 OA
ATOM      5  O   UNL     1      10.430 -27.379  10.863  1.00  0.00    -0.550 OA
ENDBRANCH   2   3
ENDBRANCH   1   2
BRANCH   1   6
ATOM      6  C   UNL     1      10.963 -25.611   7.671  1.00  0.00     0.000 C 
BRANCH   6   7
ATOM      7  C   UNL     1      10.061 -26.755   7.193  1.00  0.00    -0.003 C 
ATOM      8  C   UNL     1       8.669 -26.654   7.812  1.00  0.00     0.004 C 
ENDBRANCH   6   7
ENDBRANCH   1   6
TORSDOF 4
ENDMDL
MODEL 7
REMARK VINA RESULT:    -4.037      2.115      3.609
REMARK INTER + INTRA:          -5.215
REMARK INTER:                  -4.977
REMARK INTRA:                  -0.238
REMARK UNBOUND:                -0.234
REMARK SMILES CCCCCC(=O)[O-]
REMARK SMILES IDX 4 1 5 2 6 3 7 4 8 5 3 6 2 7 1 8
REMARK H PARENT
REMARK Flexibility Score: inf
ROOT
ATOM      1  C   UNL     1       9.303 -26.158   9.417  1.00  0.00     0.006 C 
ENDROOT
BRANCH   1   2
ATOM      2  C   UNL     1      10.047 -25.382   8.325  1.00  0.00     0.053 C 
BRANCH   2   3
ATOM      3  C   UNL     1      11.269 -26.127   7.892  1.00  0.00     0.041 C 
ATOM      4  O   UNL     1      11.409 -26.469   6.688  1.00  0.00    -0.550 OA
ATOM      5  O   UNL     1      12.277 -26.401   8.807  1.00  0.00    -0.550 OA
ENDBRANCH   2   3
ENDBRANCH   1   2
BRANCH   1   6
ATOM      6  C   UNL     1       9.210 -25.338  10.709  1.00  0.00     0.000 C 
BRANCH   6   7
ATOM      7  C   UNL     1      10.164 -25.885  11.777  1.00  0.00    -0.003 C 
ATOM      8  C   UNL     1      10.355 -27.392  11.626  1.00  0.00     0.004 C 
ENDBRANCH   6   7
ENDBRANCH   1   6
TORSDOF 4
ENDMDL
MODEL 8
REMARK VINA RESULT:    -4.023      1.274      1.862
REMARK INTER + INTRA:          -5.197
REMARK INTER:                  -5.040
REMARK INTRA:                  -0.158
REMARK UNBOUND:                -0.234
REMARK SMILES CCCCCC(=O)[O-]
REMARK SMILES IDX 4 1 5 2 6 3 7 4 8 5 3 6 2 7 1 8
REMARK H PARENT
REMARK Flexibility Score: inf
ROOT
ATOM      1  C   UNL     1       9.587 -25.292   8.980  1.00  0.00     0.006 C 
ENDROOT
BRANCH   1   2
ATOM      2  C   UNL     1       9.180 -25.597  10.425  1.00  0.00     0.053 C 
BRANCH   2   3
ATOM      3  C   UNL     1      10.287 -26.299  11.145  1.00  0.00     0.041 C 
ATOM      4  O   UNL     1      10.476 -27.532  10.968  1.00  0.00    -0.550 OA
ATOM      5  O   UNL     1      11.143 -25.583  11.972  1.00  0.00    -0.550 OA
ENDBRANCH   2   3
ENDBRANCH   1   2
BRANCH   1   6
ATOM      6  C   UNL     1       9.096 -26.389   8.027  1.00  0.00     0.000 C 
BRANCH   6   7
ATOM      7  C   UNL     1      10.201 -26.799   7.046  1.00  0.00    -0.003 C 
ATOM      8  C   UNL     1      11.387 -25.840   7.120  1.00  0.00     0.004 C 
ENDBRANCH   6   7
ENDBRANCH   1   6
TORSDOF 4
ENDMDL
MODEL 9
REMARK VINA RESULT:    -3.807     10.952     11.618
REMARK INTER + INTRA:          -4.931
REMARK INTER:                  -4.780
REMARK INTRA:                  -0.151
REMARK UNBOUND:                -0.234
REMARK SMILES CCCCCC(=O)[O-]
REMARK SMILES IDX 4 1 5 2 6 3 7 4 8 5 3 6 2 7 1 8
REMARK H PARENT
REMARK Flexibility Score: inf
ROOT
ATOM      1  C   UNL     1       1.206 -22.973  14.089  1.00  0.00     0.006 C 
ENDROOT
BRANCH   1   2
ATOM      2  C   UNL     1       1.757 -21.806  14.914  1.00  0.00     0.053 C 
BRANCH   2   3
ATOM      3  C   UNL     1       1.062 -20.533  14.551  1.00  0.00     0.041 C 
ATOM      4  O   UNL     1       0.184 -20.525  13.648  1.00  0.00    -0.550 OA
ATOM      5  O   UNL     1       1.345 -19.363  15.246  1.00  0.00    -0.550 OA
ENDBRANCH   2   3
ENDBRANCH   1   2
BRANCH   1   6
ATOM      6  C   UNL     1       0.678 -24.089  14.999  1.00  0.00     0.000 C 
BRANCH   6   7
ATOM      7  C   UNL     1       1.047 -23.824  16.463  1.00  0.00    -0.003 C 
ATOM      8  C   UNL     1       1.453 -25.114  17.172  1.00  0.00     0.004 C 
ENDBRANCH   6   7
ENDBRANCH   1   6
TORSDOF 4
ENDMDL
