MODEL 1
REMARK VINA RESULT:    -2.811      0.000      0.000
REMARK INTER + INTRA:          -4.509
REMARK INTER:                  -4.043
REMARK INTRA:                  -0.466
REMARK UNBOUND:                -0.466
REMARK SMILES O=C(CO)[C@@H](O)[C@@H](O)[C@@H](O)CO
REMARK SMILES IDX 7 1 9 2 11 3 12 4 10 6 5 8 2 9 1 10 3 11 4 12 6 14 8 16
REMARK H PARENT 12 5 10 7 4 13 6 15 8 17
REMARK Flexibility Score: inf
ROOT
ATOM      1  C   UNL     1     -37.497  21.824   6.054  1.00  0.00     0.181 C 
ENDROOT
BRANCH   1   2
ATOM      2  C   UNL     1     -37.273  21.857   7.591  1.00  0.00     0.171 C 
BRANCH   2   3
ATOM      3  C   UNL     1     -36.134  22.811   7.988  1.00  0.00     0.190 C 
BRANCH   3   4
ATOM      4  O   UNL     1     -34.915  22.364   7.461  1.00  0.00    -0.394 OA
ATOM      5  H   UNL     1     -34.237  22.512   8.170  1.00  0.00     0.210 HD
ENDBRANCH   3   4
ENDBRANCH   2   3
BRANCH   2   6
ATOM      6  O   UNL     1     -36.969  20.567   8.057  1.00  0.00    -0.388 OA
ATOM      7  H   UNL     1     -36.030  20.378   7.794  1.00  0.00     0.211 HD
ENDBRANCH   2   6
ENDBRANCH   1   2
BRANCH   1   8
ATOM      8  C   UNL     1     -38.887  22.355   5.627  1.00  0.00     0.214 C 
BRANCH   8   9
ATOM      9  C   UNL     1     -39.035  23.847   5.865  1.00  0.00     0.189 C 
ATOM     10  O   UNL     1     -39.111  24.267   7.010  1.00  0.00    -0.294 OA
BRANCH   9  11
ATOM     11  C   UNL     1     -39.124  24.838   4.733  1.00  0.00     0.234 C 
BRANCH  11  12
ATOM     12  O   UNL     1     -38.177  24.567   3.738  1.00  0.00    -0.388 OA
ATOM     13  H   UNL     1     -37.289  24.700   4.158  1.00  0.00     0.211 HD
ENDBRANCH  11  12
ENDBRANCH   9  11
ENDBRANCH   8   9
BRANCH   8  14
ATOM     14  O   UNL     1     -39.125  22.042   4.277  1.00  0.00    -0.382 OA
ATOM     15  H   UNL     1     -40.058  22.320   4.077  1.00  0.00     0.211 HD
ENDBRANCH   8  14
ENDBRANCH   1   8
BRANCH   1  16
ATOM     16  O   UNL     1     -36.522  22.614   5.416  1.00  0.00    -0.387 OA
ATOM     17  H   UNL     1     -36.815  22.749   4.477  1.00  0.00     0.211 HD
ENDBRANCH   1  16
TORSDOF 10
ENDMDL
MODEL 2
REMARK VINA RESULT:    -2.061      1.284      2.121
REMARK INTER + INTRA:          -3.431
REMARK INTER:                  -4.096
REMARK INTRA:                   0.666
REMARK UNBOUND:                -0.466
REMARK SMILES O=C(CO)[C@@H](O)[C@@H](O)[C@@H](O)CO
REMARK SMILES IDX 7 1 9 2 11 3 12 4 10 6 5 8 2 9 1 10 3 11 4 12 6 14 8 16
REMARK H PARENT 12 5 10 7 4 13 6 15 8 17
REMARK Flexibility Score: inf
ROOT
ATOM      1  C   UNL     1     -37.514  22.204   5.714  1.00  0.00     0.181 C 
ENDROOT
BRANCH   1   2
ATOM      2  C   UNL     1     -38.184  21.798   7.056  1.00  0.00     0.171 C 
BRANCH   2   3
ATOM      3  C   UNL     1     -37.148  21.395   8.119  1.00  0.00     0.190 C 
BRANCH   3   4
ATOM      4  O   UNL     1     -36.967  20.005   8.124  1.00  0.00    -0.394 OA
ATOM      5  H   UNL     1     -37.817  19.616   7.793  1.00  0.00     0.210 HD
ENDBRANCH   3   4
ENDBRANCH   2   3
BRANCH   2   6
ATOM      6  O   UNL     1     -39.061  20.721   6.845  1.00  0.00    -0.388 OA
ATOM      7  H   UNL     1     -38.781  19.995   7.462  1.00  0.00     0.211 HD
ENDBRANCH   2   6
ENDBRANCH   1   2
BRANCH   1   8
ATOM      8  C   UNL     1     -38.420  23.087   4.822  1.00  0.00     0.214 C 
BRANCH   8   9
ATOM      9  C   UNL     1     -38.895  24.338   5.538  1.00  0.00     0.189 C 
ATOM     10  O   UNL     1     -39.074  25.364   4.898  1.00  0.00    -0.294 OA
BRANCH   9  11
ATOM     11  C   UNL     1     -39.125  24.376   7.027  1.00  0.00     0.234 C 
BRANCH  11  12
ATOM     12  O   UNL     1     -38.415  25.422   7.629  1.00  0.00    -0.388 OA
ATOM     13  H   UNL     1     -38.728  26.256   7.192  1.00  0.00     0.211 HD
ENDBRANCH  11  12
ENDBRANCH   9  11
ENDBRANCH   8   9
BRANCH   8  14
ATOM     14  O   UNL     1     -37.744  23.421   3.635  1.00  0.00    -0.382 OA
ATOM     15  H   UNL     1     -37.649  24.410   3.626  1.00  0.00     0.211 HD
ENDBRANCH   8  14
ENDBRANCH   1   8
BRANCH   1  16
ATOM     16  O   UNL     1     -36.333  22.925   5.973  1.00  0.00    -0.387 OA
ATOM     17  H   UNL     1     -35.999  23.272   5.104  1.00  0.00     0.211 HD
ENDBRANCH   1  16
TORSDOF 10
ENDMDL
MODEL 3
REMARK VINA RESULT:    -1.724      1.507      3.374
REMARK INTER + INTRA:          -2.946
REMARK INTER:                  -3.022
REMARK INTRA:                   0.076
REMARK UNBOUND:                -0.466
REMARK SMILES O=C(CO)[C@@H](O)[C@@H](O)[C@@H](O)CO
REMARK SMILES IDX 7 1 9 2 11 3 12 4 10 6 5 8 2 9 1 10 3 11 4 12 6 14 8 16
REMARK H PARENT 12 5 10 7 4 13 6 15 8 17
REMARK Flexibility Score: inf
ROOT
ATOM      1  C   UNL     1     -38.907  23.104   5.963  1.00  0.00     0.181 C 
ENDROOT
BRANCH   1   2
ATOM      2  C   UNL     1     -38.963  21.551   5.925  1.00  0.00     0.171 C 
BRANCH   2   3
ATOM      3  C   UNL     1     -39.124  20.945   7.329  1.00  0.00     0.190 C 
BRANCH   3   4
ATOM      4  O   UNL     1     -38.043  20.105   7.626  1.00  0.00    -0.394 OA
ATOM      5  H   UNL     1     -38.426  19.199   7.758  1.00  0.00     0.210 HD
ENDBRANCH   3   4
ENDBRANCH   2   3
BRANCH   2   6
ATOM      6  O   UNL     1     -37.789  21.046   5.343  1.00  0.00    -0.388 OA
ATOM      7  H   UNL     1     -37.086  21.067   6.045  1.00  0.00     0.211 HD
ENDBRANCH   2   6
ENDBRANCH   1   2
BRANCH   1   8
ATOM      8  C   UNL     1     -38.603  23.671   7.370  1.00  0.00     0.214 C 
BRANCH   8   9
ATOM      9  C   UNL     1     -37.119  23.659   7.691  1.00  0.00     0.189 C 
ATOM     10  O   UNL     1     -36.476  24.694   7.592  1.00  0.00    -0.294 OA
BRANCH   9  11
ATOM     11  C   UNL     1     -36.393  22.403   8.098  1.00  0.00     0.234 C 
BRANCH  11  12
ATOM     12  O   UNL     1     -35.473  22.003   7.121  1.00  0.00    -0.388 OA
ATOM     13  H   UNL     1     -35.594  22.622   6.357  1.00  0.00     0.211 HD
ENDBRANCH  11  12
ENDBRANCH   9  11
ENDBRANCH   8   9
BRANCH   8  14
ATOM     14  O   UNL     1     -39.125  24.970   7.487  1.00  0.00    -0.382 OA
ATOM     15  H   UNL     1     -38.692  25.520   6.781  1.00  0.00     0.211 HD
ENDBRANCH   8  14
ENDBRANCH   1   8
BRANCH   1  16
ATOM     16  O   UNL     1     -37.904  23.563   5.089  1.00  0.00    -0.387 OA
ATOM     17  H   UNL     1     -37.374  22.773   4.802  1.00  0.00     0.211 HD
ENDBRANCH   1  16
TORSDOF 10
ENDMDL
MODEL 4
REMARK VINA RESULT:    -0.642      1.505      3.813
REMARK INTER + INTRA:          -1.389
REMARK INTER:                  -1.264
REMARK INTRA:                  -0.125
REMARK UNBOUND:                -0.466
REMARK SMILES O=C(CO)[C@@H](O)[C@@H](O)[C@@H](O)CO
REMARK SMILES IDX 7 1 9 2 11 3 12 4 10 6 5 8 2 9 1 10 3 11 4 12 6 14 8 16
REMARK H PARENT 12 5 10 7 4 13 6 15 8 17
REMARK Flexibility Score: inf
ROOT
ATOM      1  C   UNL     1     -37.768  21.837   5.438  1.00  0.00     0.181 C 
ENDROOT
BRANCH   1   2
ATOM      2  C   UNL     1     -38.846  22.825   4.914  1.00  0.00     0.171 C 
BRANCH   2   3
ATOM      3  C   UNL     1     -38.400  23.536   3.625  1.00  0.00     0.190 C 
BRANCH   3   4
ATOM      4  O   UNL     1     -38.406  24.926   3.806  1.00  0.00    -0.394 OA
ATOM      5  H   UNL     1     -39.236  25.134   4.309  1.00  0.00     0.210 HD
ENDBRANCH   3   4
ENDBRANCH   2   3
BRANCH   2   6
ATOM      6  O   UNL     1     -39.124  23.793   5.894  1.00  0.00    -0.388 OA
ATOM      7  H   UNL     1     -38.520  23.609   6.661  1.00  0.00     0.211 HD
ENDBRANCH   2   6
ENDBRANCH   1   2
BRANCH   1   8
ATOM      8  C   UNL     1     -37.796  21.661   6.976  1.00  0.00     0.214 C 
BRANCH   8   9
ATOM      9  C   UNL     1     -36.942  22.692   7.692  1.00  0.00     0.189 C 
ATOM     10  O   UNL     1     -37.457  23.728   8.086  1.00  0.00    -0.294 OA
BRANCH   9  11
ATOM     11  C   UNL     1     -35.463  22.501   7.911  1.00  0.00     0.234 C 
BRANCH  11  12
ATOM     12  O   UNL     1     -34.709  23.302   7.043  1.00  0.00    -0.388 OA
ATOM     13  H   UNL     1     -34.086  23.818   7.616  1.00  0.00     0.211 HD
ENDBRANCH  11  12
ENDBRANCH   9  11
ENDBRANCH   8   9
BRANCH   8  14
ATOM     14  O   UNL     1     -39.122  21.707   7.440  1.00  0.00    -0.382 OA
ATOM     15  H   UNL     1     -39.302  20.839   7.888  1.00  0.00     0.211 HD
ENDBRANCH   8  14
ENDBRANCH   1   8
BRANCH   1  16
ATOM     16  O   UNL     1     -37.965  20.570   4.858  1.00  0.00    -0.387 OA
ATOM     17  H   UNL     1     -37.108  20.299   4.435  1.00  0.00     0.211 HD
ENDBRANCH   1  16
TORSDOF 10
ENDMDL
MODEL 5
REMARK VINA RESULT:    -0.249      1.360      2.014
REMARK INTER + INTRA:          -0.824
REMARK INTER:                  -0.486
REMARK INTRA:                  -0.337
REMARK UNBOUND:                -0.466
REMARK SMILES O=C(CO)[C@@H](O)[C@@H](O)[C@@H](O)CO
REMARK SMILES IDX 7 1 9 2 11 3 12 4 10 6 5 8 2 9 1 10 3 11 4 12 6 14 8 16
REMARK H PARENT 12 5 10 7 4 13 6 15 8 17
REMARK Flexibility Score: inf
ROOT
ATOM      1  C   UNL     1     -36.734  22.123   5.920  1.00  0.00     0.181 C 
ENDROOT
BRANCH   1   2
ATOM      2  C   UNL     1     -35.832  22.877   6.936  1.00  0.00     0.171 C 
BRANCH   2   3
ATOM      3  C   UNL     1     -34.440  23.181   6.358  1.00  0.00     0.190 C 
BRANCH   3   4
ATOM      4  O   UNL     1     -33.787  24.146   7.137  1.00  0.00    -0.394 OA
ATOM      5  H   UNL     1     -32.913  23.749   7.392  1.00  0.00     0.210 HD
ENDBRANCH   3   4
ENDBRANCH   2   3
BRANCH   2   6
ATOM      6  O   UNL     1     -35.682  22.109   8.103  1.00  0.00    -0.388 OA
ATOM      7  H   UNL     1     -35.344  21.219   7.822  1.00  0.00     0.211 HD
ENDBRANCH   2   6
ENDBRANCH   1   2
BRANCH   1   8
ATOM      8  C   UNL     1     -38.246  22.334   6.171  1.00  0.00     0.214 C 
BRANCH   8   9
ATOM      9  C   UNL     1     -38.683  23.764   5.904  1.00  0.00     0.189 C 
ATOM     10  O   UNL     1     -38.654  24.197   4.762  1.00  0.00    -0.294 OA
BRANCH   9  11
ATOM     11  C   UNL     1     -39.125  24.690   7.008  1.00  0.00     0.234 C 
BRANCH  11  12
ATOM     12  O   UNL     1     -38.037  25.133   7.771  1.00  0.00    -0.388 OA
ATOM     13  H   UNL     1     -37.749  24.358   8.318  1.00  0.00     0.211 HD
ENDBRANCH  11  12
ENDBRANCH   9  11
ENDBRANCH   8   9
BRANCH   8  14
ATOM     14  O   UNL     1     -38.992  21.435   5.390  1.00  0.00    -0.382 OA
ATOM     15  H   UNL     1     -39.165  20.636   5.955  1.00  0.00     0.211 HD
ENDBRANCH   8  14
ENDBRANCH   1   8
BRANCH   1  16
ATOM     16  O   UNL     1     -36.449  22.566   4.615  1.00  0.00    -0.387 OA
ATOM     17  H   UNL     1     -36.830  23.479   4.520  1.00  0.00     0.211 HD
ENDBRANCH   1  16
TORSDOF 10
ENDMDL
MODEL 6
REMARK VINA RESULT:     0.094     16.119     18.019
REMARK INTER + INTRA:          -0.330
REMARK INTER:                  -0.031
REMARK INTRA:                  -0.299
REMARK UNBOUND:                -0.466
REMARK SMILES O=C(CO)[C@@H](O)[C@@H](O)[C@@H](O)CO
REMARK SMILES IDX 7 1 9 2 11 3 12 4 10 6 5 8 2 9 1 10 3 11 4 12 6 14 8 16
REMARK H PARENT 12 5 10 7 4 13 6 15 8 17
REMARK Flexibility Score: inf
ROOT
ATOM      1  C   UNL     1     -21.694  30.501   6.926  1.00  0.00     0.181 C 
ENDROOT
BRANCH   1   2
ATOM      2  C   UNL     1     -20.833  30.987   8.125  1.00  0.00     0.171 C 
BRANCH   2   3
ATOM      3  C   UNL     1     -20.618  32.509   8.102  1.00  0.00     0.190 C 
BRANCH   3   4
ATOM      4  O   UNL     1     -19.251  32.809   8.033  1.00  0.00    -0.394 OA
ATOM      5  H   UNL     1     -19.134  33.673   8.506  1.00  0.00     0.210 HD
ENDBRANCH   3   4
ENDBRANCH   2   3
BRANCH   2   6
ATOM      6  O   UNL     1     -19.581  30.350   8.102  1.00  0.00    -0.388 OA
ATOM      7  H   UNL     1     -19.112  30.663   7.284  1.00  0.00     0.211 HD
ENDBRANCH   2   6
ENDBRANCH   1   2
BRANCH   1   8
ATOM      8  C   UNL     1     -22.041  28.994   6.993  1.00  0.00     0.214 C 
BRANCH   8   9
ATOM      9  C   UNL     1     -22.351  28.410   5.627  1.00  0.00     0.189 C 
ATOM     10  O   UNL     1     -22.278  29.125   4.638  1.00  0.00    -0.294 OA
BRANCH   9  11
ATOM     11  C   UNL     1     -22.780  26.977   5.442  1.00  0.00     0.234 C 
BRANCH  11  12
ATOM     12  O   UNL     1     -21.732  26.187   4.955  1.00  0.00    -0.388 OA
ATOM     13  H   UNL     1     -20.915  26.746   5.009  1.00  0.00     0.211 HD
ENDBRANCH  11  12
ENDBRANCH   9  11
ENDBRANCH   8   9
BRANCH   8  14
ATOM     14  O   UNL     1     -20.994  28.288   7.609  1.00  0.00    -0.382 OA
ATOM     15  H   UNL     1     -21.239  28.183   8.566  1.00  0.00     0.211 HD
ENDBRANCH   8  14
ENDBRANCH   1   8
BRANCH   1  16
ATOM     16  O   UNL     1     -22.904  31.219   6.890  1.00  0.00    -0.387 OA
ATOM     17  H   UNL     1     -22.883  31.875   7.636  1.00  0.00     0.211 HD
ENDBRANCH   1  16
TORSDOF 10
ENDMDL
