MODEL 1
REMARK VINA RESULT:    -6.431      0.000      0.000
REMARK INTER + INTRA:          -7.624
REMARK INTER:                  -7.747
REMARK INTRA:                   0.123
REMARK UNBOUND:                 0.123
REMARK SMILES O=c1c(O)c(-c2ccc(O)c(O)c2)oc2cc(O)cc(O)c12
REMARK SMILES IDX 5 1 3 2 2 3 1 4 22 5 20 6 19 7 17 8 16 9 15 10 14 11 6 12
REMARK SMILES IDX 7 13 8 14 9 15 13 16 11 17 10 18 12 20 4 22 21 24 18 26
REMARK H PARENT 10 19 12 21 4 23 21 25 18 27
REMARK Flexibility Score: inf
ROOT
ATOM      1  C   UNL     1       9.889  31.783  40.986  1.00  0.00     0.180 A 
ATOM      2  C   UNL     1      10.623  31.539  42.159  1.00  0.00     0.208 A 
ATOM      3  C   UNL     1       9.950  31.522  43.392  1.00  0.00     0.238 A 
ATOM      4  O   UNL     1      10.603  31.249  44.434  1.00  0.00    -0.285 OA
ATOM      5  C   UNL     1       8.556  31.764  43.437  1.00  0.00     0.111 A 
ATOM      6  C   UNL     1       7.779  31.810  44.634  1.00  0.00     0.134 A 
ATOM      7  C   UNL     1       6.386  31.928  44.550  1.00  0.00     0.093 A 
ATOM      8  C   UNL     1       5.749  32.066  43.318  1.00  0.00     0.123 A 
ATOM      9  C   UNL     1       6.504  32.082  42.144  1.00  0.00     0.094 A 
ATOM     10  C   UNL     1       7.892  31.930  42.194  1.00  0.00     0.146 A 
ATOM     11  O   UNL     1       8.572  31.941  41.054  1.00  0.00    -0.452 OA
ENDROOT
BRANCH   1  12
ATOM     12  C   UNL     1      10.532  31.841  39.653  1.00  0.00     0.025 A 
ATOM     13  C   UNL     1      10.196  32.877  38.768  1.00  0.00     0.016 A 
ATOM     14  C   UNL     1      10.805  32.962  37.514  1.00  0.00     0.051 A 
ATOM     15  C   UNL     1      11.770  32.025  37.131  1.00  0.00     0.157 A 
ATOM     16  C   UNL     1      11.518  30.912  39.275  1.00  0.00     0.062 A 
ATOM     17  C   UNL     1      12.132  30.997  38.017  1.00  0.00     0.158 A 
BRANCH  15  18
ATOM     18  O   UNL     1      12.360  32.136  35.872  1.00  0.00    -0.504 OA
ATOM     19  H   UNL     1      12.436  33.024  35.390  1.00  0.00     0.293 HD
ENDBRANCH  15  18
BRANCH  17  20
ATOM     20  O   UNL     1      13.104  30.067  37.648  1.00  0.00    -0.504 OA
ATOM     21  H   UNL     1      13.545  30.093  36.735  1.00  0.00     0.293 HD
ENDBRANCH  17  20
ENDBRANCH   1  12
BRANCH   2  22
ATOM     22  O   UNL     1      11.995  31.280  42.091  1.00  0.00    -0.502 OA
ATOM     23  H   UNL     1      12.634  31.865  41.566  1.00  0.00     0.293 HD
ENDBRANCH   2  22
BRANCH   6  24
ATOM     24  O   UNL     1       8.325  31.771  45.921  1.00  0.00    -0.507 OA
ATOM     25  H   UNL     1       9.047  31.132  46.220  1.00  0.00     0.293 HD
ENDBRANCH   6  24
BRANCH   8  26
ATOM     26  O   UNL     1       4.363  32.197  43.272  1.00  0.00    -0.508 OA
ATOM     27  H   UNL     1       3.867  32.282  42.392  1.00  0.00     0.293 HD
ENDBRANCH   8  26
TORSDOF 6
ENDMDL
MODEL 2
REMARK VINA RESULT:    -6.300      1.531      3.284
REMARK INTER + INTRA:          -7.466
REMARK INTER:                  -7.489
REMARK INTRA:                   0.022
REMARK UNBOUND:                 0.123
REMARK SMILES O=c1c(O)c(-c2ccc(O)c(O)c2)oc2cc(O)cc(O)c12
REMARK SMILES IDX 5 1 3 2 2 3 1 4 22 5 20 6 19 7 17 8 16 9 15 10 14 11 6 12
REMARK SMILES IDX 7 13 8 14 9 15 13 16 11 17 10 18 12 20 4 22 21 24 18 26
REMARK H PARENT 10 19 12 21 4 23 21 25 18 27
REMARK Flexibility Score: inf
ROOT
ATOM      1  C   UNL     1      10.356  31.574  40.772  1.00  0.00     0.180 A 
ATOM      2  C   UNL     1       9.022  31.869  41.103  1.00  0.00     0.208 A 
ATOM      3  C   UNL     1       8.638  31.861  42.455  1.00  0.00     0.238 A 
ATOM      4  O   UNL     1       7.456  32.177  42.749  1.00  0.00    -0.285 OA
ATOM      5  C   UNL     1       9.589  31.544  43.455  1.00  0.00     0.111 A 
ATOM      6  C   UNL     1       9.302  31.468  44.851  1.00  0.00     0.134 A 
ATOM      7  C   UNL     1      10.348  31.274  45.762  1.00  0.00     0.093 A 
ATOM      8  C   UNL     1      11.658  31.091  45.325  1.00  0.00     0.123 A 
ATOM      9  C   UNL     1      11.942  31.104  43.959  1.00  0.00     0.094 A 
ATOM     10  C   UNL     1      10.926  31.331  43.027  1.00  0.00     0.146 A 
ATOM     11  O   UNL     1      11.239  31.347  41.737  1.00  0.00    -0.452 OA
ENDROOT
BRANCH   1  12
ATOM     12  C   UNL     1      10.829  31.539  39.370  1.00  0.00     0.025 A 
ATOM     13  C   UNL     1      10.590  32.638  38.531  1.00  0.00     0.016 A 
ATOM     14  C   UNL     1      11.046  32.634  37.211  1.00  0.00     0.051 A 
ATOM     15  C   UNL     1      11.762  31.540  36.713  1.00  0.00     0.157 A 
ATOM     16  C   UNL     1      11.568  30.448  38.874  1.00  0.00     0.062 A 
ATOM     17  C   UNL     1      12.028  30.443  37.549  1.00  0.00     0.158 A 
BRANCH  15  18
ATOM     18  O   UNL     1      12.203  31.564  35.390  1.00  0.00    -0.504 OA
ATOM     19  H   UNL     1      12.086  32.379  34.799  1.00  0.00     0.293 HD
ENDBRANCH  15  18
BRANCH  17  20
ATOM     20  O   UNL     1      12.753  29.355  37.064  1.00  0.00    -0.504 OA
ATOM     21  H   UNL     1      13.718  29.450  36.768  1.00  0.00     0.293 HD
ENDBRANCH  17  20
ENDBRANCH   1  12
BRANCH   2  22
ATOM     22  O   UNL     1       8.105  32.200  40.102  1.00  0.00    -0.502 OA
ATOM     23  H   UNL     1       8.372  32.299  39.130  1.00  0.00     0.293 HD
ENDBRANCH   2  22
BRANCH   6  24
ATOM     24  O   UNL     1       8.013  31.547  45.388  1.00  0.00    -0.507 OA
ATOM     25  H   UNL     1       7.468  30.755  45.695  1.00  0.00     0.293 HD
ENDBRANCH   6  24
BRANCH   8  26
ATOM     26  O   UNL     1      12.672  30.885  46.259  1.00  0.00    -0.508 OA
ATOM     27  H   UNL     1      12.656  30.094  46.892  1.00  0.00     0.293 HD
ENDBRANCH   8  26
TORSDOF 6
ENDMDL
MODEL 3
REMARK VINA RESULT:    -6.295      3.185      8.045
REMARK INTER + INTRA:          -7.460
REMARK INTER:                  -7.171
REMARK INTRA:                  -0.289
REMARK UNBOUND:                 0.123
REMARK SMILES O=c1c(O)c(-c2ccc(O)c(O)c2)oc2cc(O)cc(O)c12
REMARK SMILES IDX 5 1 3 2 2 3 1 4 22 5 20 6 19 7 17 8 16 9 15 10 14 11 6 12
REMARK SMILES IDX 7 13 8 14 9 15 13 16 11 17 10 18 12 20 4 22 21 24 18 26
REMARK H PARENT 10 19 12 21 4 23 21 25 18 27
REMARK Flexibility Score: inf
ROOT
ATOM      1  C   UNL     1       4.408  32.546  42.284  1.00  0.00     0.180 A 
ATOM      2  C   UNL     1       4.993  32.420  41.012  1.00  0.00     0.208 A 
ATOM      3  C   UNL     1       6.382  32.233  40.917  1.00  0.00     0.238 A 
ATOM      4  O   UNL     1       6.893  32.067  39.779  1.00  0.00    -0.285 OA
ATOM      5  C   UNL     1       7.169  32.190  42.093  1.00  0.00     0.111 A 
ATOM      6  C   UNL     1       8.589  32.045  42.113  1.00  0.00     0.134 A 
ATOM      7  C   UNL     1       9.250  31.884  43.338  1.00  0.00     0.093 A 
ATOM      8  C   UNL     1       8.552  31.928  44.543  1.00  0.00     0.123 A 
ATOM      9  C   UNL     1       7.171  32.129  44.538  1.00  0.00     0.094 A 
ATOM     10  C   UNL     1       6.479  32.256  43.332  1.00  0.00     0.146 A 
ATOM     11  O   UNL     1       5.164  32.436  43.370  1.00  0.00    -0.452 OA
ENDROOT
BRANCH   1  12
ATOM     12  C   UNL     1       2.955  32.770  42.464  1.00  0.00     0.025 A 
ATOM     13  C   UNL     1       2.478  34.071  42.687  1.00  0.00     0.016 A 
ATOM     14  C   UNL     1       1.110  34.308  42.838  1.00  0.00     0.051 A 
ATOM     15  C   UNL     1       0.197  33.252  42.754  1.00  0.00     0.157 A 
ATOM     16  C   UNL     1       2.033  31.713  42.357  1.00  0.00     0.062 A 
ATOM     17  C   UNL     1       0.659  31.949  42.508  1.00  0.00     0.158 A 
BRANCH  15  18
ATOM     18  O   UNL     1      -1.163  33.519  42.911  1.00  0.00    -0.504 OA
ATOM     19  H   UNL     1      -1.675  34.103  42.260  1.00  0.00     0.293 HD
ENDBRANCH  15  18
BRANCH  17  20
ATOM     20  O   UNL     1      -0.248  30.894  42.408  1.00  0.00    -0.504 OA
ATOM     21  H   UNL     1      -1.247  31.055  42.357  1.00  0.00     0.293 HD
ENDBRANCH  17  20
ENDBRANCH   1  12
BRANCH   2  22
ATOM     22  O   UNL     1       4.195  32.443  39.865  1.00  0.00    -0.502 OA
ATOM     23  H   UNL     1       3.623  33.241  39.615  1.00  0.00     0.293 HD
ENDBRANCH   2  22
BRANCH   6  24
ATOM     24  O   UNL     1       9.393  32.079  40.970  1.00  0.00    -0.507 OA
ATOM     25  H   UNL     1       9.545  31.297  40.351  1.00  0.00     0.293 HD
ENDBRANCH   6  24
BRANCH   8  26
ATOM     26  O   UNL     1       9.244  31.780  45.744  1.00  0.00    -0.508 OA
ATOM     27  H   UNL     1       9.926  31.043  45.874  1.00  0.00     0.293 HD
ENDBRANCH   8  26
TORSDOF 6
ENDMDL
MODEL 4
REMARK VINA RESULT:    -6.246      4.436      7.045
REMARK INTER + INTRA:          -7.401
REMARK INTER:                  -7.232
REMARK INTRA:                  -0.170
REMARK UNBOUND:                 0.123
REMARK SMILES O=c1c(O)c(-c2ccc(O)c(O)c2)oc2cc(O)cc(O)c12
REMARK SMILES IDX 5 1 3 2 2 3 1 4 22 5 20 6 19 7 17 8 16 9 15 10 14 11 6 12
REMARK SMILES IDX 7 13 8 14 9 15 13 16 11 17 10 18 12 20 4 22 21 24 18 26
REMARK H PARENT 10 19 12 21 4 23 21 25 18 27
REMARK Flexibility Score: inf
ROOT
ATOM      1  C   UNL     1       6.677  31.774  37.937  1.00  0.00     0.180 A 
ATOM      2  C   UNL     1       6.856  32.374  39.195  1.00  0.00     0.208 A 
ATOM      3  C   UNL     1       8.149  32.441  39.740  1.00  0.00     0.238 A 
ATOM      4  O   UNL     1       8.311  33.027  40.842  1.00  0.00    -0.285 OA
ATOM      5  C   UNL     1       9.243  31.895  39.026  1.00  0.00     0.111 A 
ATOM      6  C   UNL     1      10.589  31.871  39.499  1.00  0.00     0.134 A 
ATOM      7  C   UNL     1      11.612  31.423  38.654  1.00  0.00     0.093 A 
ATOM      8  C   UNL     1      11.330  30.937  37.378  1.00  0.00     0.123 A 
ATOM      9  C   UNL     1      10.009  30.900  36.927  1.00  0.00     0.094 A 
ATOM     10  C   UNL     1       8.972  31.374  37.733  1.00  0.00     0.146 A 
ATOM     11  O   UNL     1       7.732  31.330  37.263  1.00  0.00    -0.452 OA
ENDROOT
BRANCH   1  12
ATOM     12  C   UNL     1       5.342  31.643  37.309  1.00  0.00     0.025 A 
ATOM     13  C   UNL     1       4.663  32.795  36.883  1.00  0.00     0.016 A 
ATOM     14  C   UNL     1       3.412  32.693  36.269  1.00  0.00     0.051 A 
ATOM     15  C   UNL     1       2.827  31.440  36.059  1.00  0.00     0.157 A 
ATOM     16  C   UNL     1       4.762  30.382  37.078  1.00  0.00     0.062 A 
ATOM     17  C   UNL     1       3.506  30.279  36.461  1.00  0.00     0.158 A 
BRANCH  15  18
ATOM     18  O   UNL     1       1.577  31.371  35.446  1.00  0.00    -0.504 OA
ATOM     19  H   UNL     1       0.963  32.175  35.384  1.00  0.00     0.293 HD
ENDBRANCH  15  18
BRANCH  17  20
ATOM     20  O   UNL     1       2.936  29.025  36.241  1.00  0.00    -0.504 OA
ATOM     21  H   UNL     1       1.974  28.828  36.492  1.00  0.00     0.293 HD
ENDBRANCH  17  20
ENDBRANCH   1  12
BRANCH   2  22
ATOM     22  O   UNL     1       5.766  32.927  39.873  1.00  0.00    -0.502 OA
ATOM     23  H   UNL     1       5.129  33.583  39.436  1.00  0.00     0.293 HD
ENDBRANCH   2  22
BRANCH   6  24
ATOM     24  O   UNL     1      10.969  32.250  40.791  1.00  0.00    -0.507 OA
ATOM     25  H   UNL     1      11.706  31.813  41.324  1.00  0.00     0.293 HD
ENDBRANCH   6  24
BRANCH   8  26
ATOM     26  O   UNL     1      12.370  30.484  36.569  1.00  0.00    -0.508 OA
ATOM     27  H   UNL     1      12.368  30.640  35.568  1.00  0.00     0.293 HD
ENDBRANCH   8  26
TORSDOF 6
ENDMDL
MODEL 5
REMARK VINA RESULT:    -6.152      2.626      7.484
REMARK INTER + INTRA:          -7.287
REMARK INTER:                  -6.963
REMARK INTRA:                  -0.324
REMARK UNBOUND:                 0.123
REMARK SMILES O=c1c(O)c(-c2ccc(O)c(O)c2)oc2cc(O)cc(O)c12
REMARK SMILES IDX 5 1 3 2 2 3 1 4 22 5 20 6 19 7 17 8 16 9 15 10 14 11 6 12
REMARK SMILES IDX 7 13 8 14 9 15 13 16 11 17 10 18 12 20 4 22 21 24 18 26
REMARK H PARENT 10 19 12 21 4 23 21 25 18 27
REMARK Flexibility Score: inf
ROOT
ATOM      1  C   UNL     1       5.370  32.394  42.729  1.00  0.00     0.180 A 
ATOM      2  C   UNL     1       6.144  32.047  43.850  1.00  0.00     0.208 A 
ATOM      3  C   UNL     1       7.527  31.863  43.693  1.00  0.00     0.238 A 
ATOM      4  O   UNL     1       8.222  31.606  44.710  1.00  0.00    -0.285 OA
ATOM      5  C   UNL     1       8.116  32.014  42.414  1.00  0.00     0.111 A 
ATOM      6  C   UNL     1       9.501  31.813  42.131  1.00  0.00     0.134 A 
ATOM      7  C   UNL     1       9.997  32.116  40.857  1.00  0.00     0.093 A 
ATOM      8  C   UNL     1       9.150  32.550  39.839  1.00  0.00     0.123 A 
ATOM      9  C   UNL     1       7.784  32.694  40.088  1.00  0.00     0.094 A 
ATOM     10  C   UNL     1       7.265  32.434  41.359  1.00  0.00     0.146 A 
ATOM     11  O   UNL     1       5.962  32.592  41.557  1.00  0.00    -0.452 OA
ENDROOT
BRANCH   1  12
ATOM     12  C   UNL     1       3.903  32.580  42.811  1.00  0.00     0.025 A 
ATOM     13  C   UNL     1       3.375  33.876  42.901  1.00  0.00     0.016 A 
ATOM     14  C   UNL     1       1.994  34.076  42.959  1.00  0.00     0.051 A 
ATOM     15  C   UNL     1       1.119  32.986  42.911  1.00  0.00     0.157 A 
ATOM     16  C   UNL     1       3.022  31.485  42.742  1.00  0.00     0.062 A 
ATOM     17  C   UNL     1       1.634  31.684  42.798  1.00  0.00     0.158 A 
BRANCH  15  18
ATOM     18  O   UNL     1      -0.255  33.216  42.972  1.00  0.00    -0.504 OA
ATOM     19  H   UNL     1      -0.922  32.462  43.092  1.00  0.00     0.293 HD
ENDBRANCH  15  18
BRANCH  17  20
ATOM     20  O   UNL     1       0.768  30.593  42.735  1.00  0.00    -0.504 OA
ATOM     21  H   UNL     1      -0.083  30.622  42.186  1.00  0.00     0.293 HD
ENDBRANCH  17  20
ENDBRANCH   1  12
BRANCH   2  22
ATOM     22  O   UNL     1       5.546  31.926  45.108  1.00  0.00    -0.502 OA
ATOM     23  H   UNL     1       5.189  32.723  45.621  1.00  0.00     0.293 HD
ENDBRANCH   2  22
BRANCH   6  24
ATOM     24  O   UNL     1      10.419  31.295  43.051  1.00  0.00    -0.507 OA
ATOM     25  H   UNL     1      11.020  31.854  43.638  1.00  0.00     0.293 HD
ENDBRANCH   6  24
BRANCH   8  26
ATOM     26  O   UNL     1       9.675  32.828  38.579  1.00  0.00    -0.508 OA
ATOM     27  H   UNL     1       9.236  32.481  37.734  1.00  0.00     0.293 HD
ENDBRANCH   8  26
TORSDOF 6
ENDMDL
MODEL 6
REMARK VINA RESULT:    -6.117      6.150      7.841
REMARK INTER + INTRA:          -7.246
REMARK INTER:                  -7.055
REMARK INTRA:                  -0.191
REMARK UNBOUND:                 0.123
REMARK SMILES O=c1c(O)c(-c2ccc(O)c(O)c2)oc2cc(O)cc(O)c12
REMARK SMILES IDX 5 1 3 2 2 3 1 4 22 5 20 6 19 7 17 8 16 9 15 10 14 11 6 12
REMARK SMILES IDX 7 13 8 14 9 15 13 16 11 17 10 18 12 20 4 22 21 24 18 26
REMARK H PARENT 10 19 12 21 4 23 21 25 18 27
REMARK Flexibility Score: inf
ROOT
ATOM      1  C   UNL     1       5.061  31.338  37.260  1.00  0.00     0.180 A 
ATOM      2  C   UNL     1       5.012  31.374  35.857  1.00  0.00     0.208 A 
ATOM      3  C   UNL     1       3.808  31.051  35.208  1.00  0.00     0.238 A 
ATOM      4  O   UNL     1       3.755  31.138  33.954  1.00  0.00    -0.285 OA
ATOM      5  C   UNL     1       2.675  30.682  35.972  1.00  0.00     0.111 A 
ATOM      6  C   UNL     1       1.416  30.297  35.420  1.00  0.00     0.134 A 
ATOM      7  C   UNL     1       0.325  30.077  36.272  1.00  0.00     0.093 A 
ATOM      8  C   UNL     1       0.464  30.166  37.656  1.00  0.00     0.123 A 
ATOM      9  C   UNL     1       1.705  30.484  38.209  1.00  0.00     0.094 A 
ATOM     10  C   UNL     1       2.803  30.743  37.385  1.00  0.00     0.146 A 
ATOM     11  O   UNL     1       3.963  31.052  37.950  1.00  0.00    -0.452 OA
ENDROOT
BRANCH   1  12
ATOM     12  C   UNL     1       6.300  31.641  38.013  1.00  0.00     0.025 A 
ATOM     13  C   UNL     1       6.323  32.732  38.896  1.00  0.00     0.016 A 
ATOM     14  C   UNL     1       7.474  33.024  39.631  1.00  0.00     0.051 A 
ATOM     15  C   UNL     1       8.613  32.222  39.509  1.00  0.00     0.157 A 
ATOM     16  C   UNL     1       7.440  30.823  37.907  1.00  0.00     0.062 A 
ATOM     17  C   UNL     1       8.596  31.114  38.646  1.00  0.00     0.158 A 
BRANCH  15  18
ATOM     18  O   UNL     1       9.748  32.539  40.255  1.00  0.00    -0.504 OA
ATOM     19  H   UNL     1      10.207  31.860  40.851  1.00  0.00     0.293 HD
ENDBRANCH  15  18
BRANCH  17  20
ATOM     20  O   UNL     1       9.723  30.301  38.530  1.00  0.00    -0.504 OA
ATOM     21  H   UNL     1      10.406  30.443  37.795  1.00  0.00     0.293 HD
ENDBRANCH  17  20
ENDBRANCH   1  12
BRANCH   2  22
ATOM     22  O   UNL     1       6.136  31.763  35.123  1.00  0.00    -0.502 OA
ATOM     23  H   UNL     1       7.036  31.935  35.555  1.00  0.00     0.293 HD
ENDBRANCH   2  22
BRANCH   6  24
ATOM     24  O   UNL     1       1.192  30.091  34.055  1.00  0.00    -0.507 OA
ATOM     25  H   UNL     1       1.740  30.503  33.315  1.00  0.00     0.293 HD
ENDBRANCH   6  24
BRANCH   8  26
ATOM     26  O   UNL     1      -0.638  29.926  38.474  1.00  0.00    -0.508 OA
ATOM     27  H   UNL     1      -1.377  30.611  38.581  1.00  0.00     0.293 HD
ENDBRANCH   8  26
TORSDOF 6
ENDMDL
MODEL 7
REMARK VINA RESULT:    -6.034      2.368      3.568
REMARK INTER + INTRA:          -7.145
REMARK INTER:                  -6.822
REMARK INTRA:                  -0.323
REMARK UNBOUND:                 0.123
REMARK SMILES O=c1c(O)c(-c2ccc(O)c(O)c2)oc2cc(O)cc(O)c12
REMARK SMILES IDX 5 1 3 2 2 3 1 4 22 5 20 6 19 7 17 8 16 9 15 10 14 11 6 12
REMARK SMILES IDX 7 13 8 14 9 15 13 16 11 17 10 18 12 20 4 22 21 24 18 26
REMARK H PARENT 10 19 12 21 4 23 21 25 18 27
REMARK Flexibility Score: inf
ROOT
ATOM      1  C   UNL     1       6.762  32.187  41.712  1.00  0.00     0.180 A 
ATOM      2  C   UNL     1       6.998  31.375  42.834  1.00  0.00     0.208 A 
ATOM      3  C   UNL     1       6.022  31.305  43.842  1.00  0.00     0.238 A 
ATOM      4  O   UNL     1       6.216  30.535  44.818  1.00  0.00    -0.285 OA
ATOM      5  C   UNL     1       4.831  32.059  43.721  1.00  0.00     0.111 A 
ATOM      6  C   UNL     1       3.791  32.095  44.699  1.00  0.00     0.134 A 
ATOM      7  C   UNL     1       2.599  32.773  44.416  1.00  0.00     0.093 A 
ATOM      8  C   UNL     1       2.433  33.469  43.220  1.00  0.00     0.123 A 
ATOM      9  C   UNL     1       3.466  33.490  42.281  1.00  0.00     0.094 A 
ATOM     10  C   UNL     1       4.653  32.793  42.519  1.00  0.00     0.146 A 
ATOM     11  O   UNL     1       5.606  32.830  41.596  1.00  0.00    -0.452 OA
ENDROOT
BRANCH   1  12
ATOM     12  C   UNL     1       7.754  32.330  40.621  1.00  0.00     0.025 A 
ATOM     13  C   UNL     1       8.745  33.319  40.714  1.00  0.00     0.016 A 
ATOM     14  C   UNL     1       9.702  33.459  39.706  1.00  0.00     0.051 A 
ATOM     15  C   UNL     1       9.694  32.603  38.600  1.00  0.00     0.157 A 
ATOM     16  C   UNL     1       7.760  31.457  39.518  1.00  0.00     0.062 A 
ATOM     17  C   UNL     1       8.722  31.595  38.506  1.00  0.00     0.158 A 
BRANCH  15  18
ATOM     18  O   UNL     1      10.662  32.769  37.609  1.00  0.00    -0.504 OA
ATOM     19  H   UNL     1      11.568  32.318  37.662  1.00  0.00     0.293 HD
ENDBRANCH  15  18
BRANCH  17  20
ATOM     20  O   UNL     1       8.716  30.729  37.412  1.00  0.00    -0.504 OA
ATOM     21  H   UNL     1       8.142  29.894  37.399  1.00  0.00     0.293 HD
ENDBRANCH  17  20
ENDBRANCH   1  12
BRANCH   2  22
ATOM     22  O   UNL     1       8.172  30.621  42.923  1.00  0.00    -0.502 OA
ATOM     23  H   UNL     1       9.079  31.042  43.082  1.00  0.00     0.293 HD
ENDBRANCH   2  22
BRANCH   6  24
ATOM     24  O   UNL     1       3.891  31.509  45.965  1.00  0.00    -0.507 OA
ATOM     25  H   UNL     1       4.655  30.926  46.269  1.00  0.00     0.293 HD
ENDBRANCH   6  24
BRANCH   8  26
ATOM     26  O   UNL     1       1.240  34.146  42.978  1.00  0.00    -0.508 OA
ATOM     27  H   UNL     1       0.391  33.651  42.728  1.00  0.00     0.293 HD
ENDBRANCH   8  26
TORSDOF 6
ENDMDL
MODEL 8
REMARK VINA RESULT:    -5.951      5.771      7.837
REMARK INTER + INTRA:          -7.045
REMARK INTER:                  -6.822
REMARK INTRA:                  -0.223
REMARK UNBOUND:                 0.123
REMARK SMILES O=c1c(O)c(-c2ccc(O)c(O)c2)oc2cc(O)cc(O)c12
REMARK SMILES IDX 5 1 3 2 2 3 1 4 22 5 20 6 19 7 17 8 16 9 15 10 14 11 6 12
REMARK SMILES IDX 7 13 8 14 9 15 13 16 11 17 10 18 12 20 4 22 21 24 18 26
REMARK H PARENT 10 19 12 21 4 23 21 25 18 27
REMARK Flexibility Score: inf
ROOT
ATOM      1  C   UNL     1       5.700  31.663  37.557  1.00  0.00     0.180 A 
ATOM      2  C   UNL     1       4.480  31.293  38.148  1.00  0.00     0.208 A 
ATOM      3  C   UNL     1       3.349  31.132  37.332  1.00  0.00     0.238 A 
ATOM      4  O   UNL     1       2.272  30.748  37.859  1.00  0.00    -0.285 OA
ATOM      5  C   UNL     1       3.449  31.358  35.938  1.00  0.00     0.111 A 
ATOM      6  C   UNL     1       2.358  31.263  35.021  1.00  0.00     0.134 A 
ATOM      7  C   UNL     1       2.599  31.379  33.646  1.00  0.00     0.093 A 
ATOM      8  C   UNL     1       3.877  31.651  33.160  1.00  0.00     0.123 A 
ATOM      9  C   UNL     1       4.940  31.805  34.051  1.00  0.00     0.094 A 
ATOM     10  C   UNL     1       4.738  31.659  35.426  1.00  0.00     0.146 A 
ATOM     11  O   UNL     1       5.777  31.803  36.239  1.00  0.00    -0.452 OA
ENDROOT
BRANCH   1  12
ATOM     12  C   UNL     1       6.929  31.876  38.355  1.00  0.00     0.025 A 
ATOM     13  C   UNL     1       7.016  32.985  39.210  1.00  0.00     0.016 A 
ATOM     14  C   UNL     1       8.157  33.193  39.987  1.00  0.00     0.051 A 
ATOM     15  C   UNL     1       9.223  32.289  39.934  1.00  0.00     0.157 A 
ATOM     16  C   UNL     1       7.993  30.955  38.319  1.00  0.00     0.062 A 
ATOM     17  C   UNL     1       9.140  31.162  39.100  1.00  0.00     0.158 A 
BRANCH  15  18
ATOM     18  O   UNL     1      10.351  32.525  40.720  1.00  0.00    -0.504 OA
ATOM     19  H   UNL     1      11.152  31.905  40.710  1.00  0.00     0.293 HD
ENDBRANCH  15  18
BRANCH  17  20
ATOM     20  O   UNL     1      10.193  30.249  39.054  1.00  0.00    -0.504 OA
ATOM     21  H   UNL     1      10.305  29.531  39.760  1.00  0.00     0.293 HD
ENDBRANCH  17  20
ENDBRANCH   1  12
BRANCH   2  22
ATOM     22  O   UNL     1       4.408  31.053  39.523  1.00  0.00    -0.502 OA
ATOM     23  H   UNL     1       3.773  31.556  40.132  1.00  0.00     0.293 HD
ENDBRANCH   2  22
BRANCH   6  24
ATOM     24  O   UNL     1       1.027  31.083  35.408  1.00  0.00    -0.507 OA
ATOM     25  H   UNL     1       0.561  30.190  35.465  1.00  0.00     0.293 HD
ENDBRANCH   6  24
BRANCH   8  26
ATOM     26  O   UNL     1       4.078  31.776  31.787  1.00  0.00    -0.508 OA
ATOM     27  H   UNL     1       4.977  31.579  31.363  1.00  0.00     0.293 HD
ENDBRANCH   8  26
TORSDOF 6
ENDMDL
MODEL 9
REMARK VINA RESULT:    -5.928      5.393      6.940
REMARK INTER + INTRA:          -7.018
REMARK INTER:                  -6.693
REMARK INTRA:                  -0.325
REMARK UNBOUND:                 0.123
REMARK SMILES O=c1c(O)c(-c2ccc(O)c(O)c2)oc2cc(O)cc(O)c12
REMARK SMILES IDX 5 1 3 2 2 3 1 4 22 5 20 6 19 7 17 8 16 9 15 10 14 11 6 12
REMARK SMILES IDX 7 13 8 14 9 15 13 16 11 17 10 18 12 20 4 22 21 24 18 26
REMARK H PARENT 10 19 12 21 4 23 21 25 18 27
REMARK Flexibility Score: inf
ROOT
ATOM      1  C   UNL     1       4.986  31.543  37.839  1.00  0.00     0.180 A 
ATOM      2  C   UNL     1       6.362  31.450  37.567  1.00  0.00     0.208 A 
ATOM      3  C   UNL     1       7.278  31.666  38.609  1.00  0.00     0.238 A 
ATOM      4  O   UNL     1       8.507  31.529  38.373  1.00  0.00    -0.285 OA
ATOM      5  C   UNL     1       6.807  31.985  39.906  1.00  0.00     0.111 A 
ATOM      6  C   UNL     1       7.646  32.263  41.027  1.00  0.00     0.134 A 
ATOM      7  C   UNL     1       7.072  32.439  42.293  1.00  0.00     0.093 A 
ATOM      8  C   UNL     1       5.689  32.413  42.466  1.00  0.00     0.123 A 
ATOM      9  C   UNL     1       4.856  32.202  41.366  1.00  0.00     0.094 A 
ATOM     10  C   UNL     1       5.401  31.986  40.097  1.00  0.00     0.146 A 
ATOM     11  O   UNL     1       4.575  31.779  39.079  1.00  0.00    -0.452 OA
ENDROOT
BRANCH   1  12
ATOM     12  C   UNL     1       3.961  31.353  36.787  1.00  0.00     0.025 A 
ATOM     13  C   UNL     1       3.461  30.067  36.533  1.00  0.00     0.016 A 
ATOM     14  C   UNL     1       2.479  29.869  35.560  1.00  0.00     0.051 A 
ATOM     15  C   UNL     1       1.970  30.953  34.837  1.00  0.00     0.157 A 
ATOM     16  C   UNL     1       3.433  32.445  36.074  1.00  0.00     0.062 A 
ATOM     17  C   UNL     1       2.445  32.248  35.098  1.00  0.00     0.158 A 
BRANCH  15  18
ATOM     18  O   UNL     1       0.991  30.723  33.871  1.00  0.00    -0.504 OA
ATOM     19  H   UNL     1       1.096  30.009  33.159  1.00  0.00     0.293 HD
ENDBRANCH  15  18
BRANCH  17  20
ATOM     20  O   UNL     1       1.932  33.336  34.392  1.00  0.00    -0.504 OA
ATOM     21  H   UNL     1       0.935  33.472  34.277  1.00  0.00     0.293 HD
ENDBRANCH  17  20
ENDBRANCH   1  12
BRANCH   2  22
ATOM     22  O   UNL     1       6.805  31.111  36.285  1.00  0.00    -0.502 OA
ATOM     23  H   UNL     1       6.967  30.152  36.001  1.00  0.00     0.293 HD
ENDBRANCH   2  22
BRANCH   6  24
ATOM     24  O   UNL     1       9.035  32.401  40.948  1.00  0.00    -0.507 OA
ATOM     25  H   UNL     1       9.649  32.500  41.742  1.00  0.00     0.293 HD
ENDBRANCH   6  24
BRANCH   8  26
ATOM     26  O   UNL     1       5.152  32.608  43.736  1.00  0.00    -0.508 OA
ATOM     27  H   UNL     1       5.147  31.868  44.429  1.00  0.00     0.293 HD
ENDBRANCH   8  26
TORSDOF 6
ENDMDL
