MODEL 1
REMARK VINA RESULT:    -5.396      0.000      0.000
REMARK INTER + INTRA:          -5.712
REMARK INTER:                  -5.712
REMARK INTRA:                   0.000
REMARK UNBOUND:                 0.000
REMARK SMILES O=c1ccc2cc(O)c(O)cc2o1
REMARK SMILES IDX 4 1 3 2 2 3 1 4 13 5 12 6 11 7 9 8 7 9 6 10 5 11 8 12 10 14
REMARK H PARENT 8 13 10 15
REMARK Flexibility Score: inf
ROOT
ATOM      1  C   UNL     1      -8.202  -7.758  32.148  1.00  0.00     0.019 A 
ATOM      2  C   UNL     1      -6.947  -7.687  32.752  1.00  0.00     0.094 A 
ATOM      3  C   UNL     1      -5.851  -8.274  32.111  1.00  0.00     0.336 A 
ATOM      4  O   UNL     1      -4.710  -8.221  32.639  1.00  0.00    -0.246 OA
ATOM      5  O   UNL     1      -6.007  -8.892  30.942  1.00  0.00    -0.423 OA
ATOM      6  C   UNL     1      -7.186  -8.983  30.332  1.00  0.00     0.142 A 
ATOM      7  C   UNL     1      -7.289  -9.644  29.105  1.00  0.00     0.098 A 
ATOM      8  C   UNL     1      -8.530  -9.743  28.456  1.00  0.00     0.161 A 
ATOM      9  C   UNL     1      -9.673  -9.177  29.041  1.00  0.00     0.158 A 
ATOM     10  C   UNL     1      -9.575  -8.512  30.273  1.00  0.00     0.062 A 
ATOM     11  C   UNL     1      -8.336  -8.413  30.920  1.00  0.00     0.022 A 
ENDROOT
BRANCH   9  12
ATOM     12  O   UNL     1     -10.902  -9.280  28.392  1.00  0.00    -0.504 OA
ATOM     13  H   UNL     1     -11.412  -8.458  28.088  1.00  0.00     0.293 HD
ENDBRANCH   9  12
BRANCH   8  14
ATOM     14  O   UNL     1      -8.635 -10.401  27.233  1.00  0.00    -0.504 OA
ATOM     15  H   UNL     1      -7.891 -10.367  26.547  1.00  0.00     0.293 HD
ENDBRANCH   8  14
TORSDOF 2
ENDMDL
MODEL 2
REMARK VINA RESULT:    -5.391      2.317      3.258
REMARK INTER + INTRA:          -5.706
REMARK INTER:                  -5.706
REMARK INTRA:                   0.000
REMARK UNBOUND:                 0.000
REMARK SMILES O=c1ccc2cc(O)c(O)cc2o1
REMARK SMILES IDX 4 1 3 2 2 3 1 4 13 5 12 6 11 7 9 8 7 9 6 10 5 11 8 12 10 14
REMARK H PARENT 8 13 10 15
REMARK Flexibility Score: inf
ROOT
ATOM      1  C   UNL     1      -5.669  -9.887  30.574  1.00  0.00     0.019 A 
ATOM      2  C   UNL     1      -4.881 -10.944  30.119  1.00  0.00     0.094 A 
ATOM      3  C   UNL     1      -5.357 -11.746  29.076  1.00  0.00     0.336 A 
ATOM      4  O   UNL     1      -4.661 -12.704  28.651  1.00  0.00    -0.246 OA
ATOM      5  O   UNL     1      -6.545 -11.501  28.529  1.00  0.00    -0.423 OA
ATOM      6  C   UNL     1      -7.329 -10.504  28.932  1.00  0.00     0.142 A 
ATOM      7  C   UNL     1      -8.568 -10.296  28.319  1.00  0.00     0.098 A 
ATOM      8  C   UNL     1      -9.397  -9.245  28.740  1.00  0.00     0.161 A 
ATOM      9  C   UNL     1      -8.985  -8.400  29.781  1.00  0.00     0.158 A 
ATOM     10  C   UNL     1      -7.742  -8.605  30.400  1.00  0.00     0.062 A 
ATOM     11  C   UNL     1      -6.913  -9.654  29.979  1.00  0.00     0.022 A 
ENDROOT
BRANCH   9  12
ATOM     12  O   UNL     1      -9.814  -7.360  30.194  1.00  0.00    -0.504 OA
ATOM     13  H   UNL     1     -10.318  -7.400  31.073  1.00  0.00     0.293 HD
ENDBRANCH   9  12
BRANCH   8  14
ATOM     14  O   UNL     1     -10.632  -9.036  28.130  1.00  0.00    -0.504 OA
ATOM     15  H   UNL     1     -11.214  -9.809  27.831  1.00  0.00     0.293 HD
ENDBRANCH   8  14
TORSDOF 2
ENDMDL
MODEL 3
REMARK VINA RESULT:    -5.179      1.890      3.335
REMARK INTER + INTRA:          -5.482
REMARK INTER:                  -5.482
REMARK INTRA:                   0.000
REMARK UNBOUND:                 0.000
REMARK SMILES O=c1ccc2cc(O)c(O)cc2o1
REMARK SMILES IDX 4 1 3 2 2 3 1 4 13 5 12 6 11 7 9 8 7 9 6 10 5 11 8 12 10 14
REMARK H PARENT 8 13 10 15
REMARK Flexibility Score: inf
ROOT
ATOM      1  C   UNL     1      -6.529 -11.507  28.191  1.00  0.00     0.019 A 
ATOM      2  C   UNL     1      -5.363 -11.846  28.877  1.00  0.00     0.094 A 
ATOM      3  C   UNL     1      -5.105 -11.245  30.113  1.00  0.00     0.336 A 
ATOM      4  O   UNL     1      -4.058 -11.537  30.749  1.00  0.00    -0.246 OA
ATOM      5  O   UNL     1      -5.961 -10.364  30.626  1.00  0.00    -0.423 OA
ATOM      6  C   UNL     1      -7.084 -10.013  30.005  1.00  0.00     0.142 A 
ATOM      7  C   UNL     1      -7.946  -9.081  30.591  1.00  0.00     0.098 A 
ATOM      8  C   UNL     1      -9.132  -8.708  29.941  1.00  0.00     0.161 A 
ATOM      9  C   UNL     1      -9.456  -9.270  28.697  1.00  0.00     0.158 A 
ATOM     10  C   UNL     1      -8.595 -10.205  28.104  1.00  0.00     0.062 A 
ATOM     11  C   UNL     1      -7.410 -10.578  28.753  1.00  0.00     0.022 A 
ENDROOT
BRANCH   9  12
ATOM     12  O   UNL     1     -10.635  -8.893  28.058  1.00  0.00    -0.504 OA
ATOM     13  H   UNL     1     -11.070  -9.482  27.356  1.00  0.00     0.293 HD
ENDBRANCH   9  12
BRANCH   8  14
ATOM     14  O   UNL     1      -9.992  -7.780  30.524  1.00  0.00    -0.504 OA
ATOM     15  H   UNL     1     -10.606  -7.201  29.964  1.00  0.00     0.293 HD
ENDBRANCH   8  14
TORSDOF 2
ENDMDL
MODEL 4
REMARK VINA RESULT:    -4.932     14.769     16.978
REMARK INTER + INTRA:          -5.221
REMARK INTER:                  -5.221
REMARK INTRA:                   0.000
REMARK UNBOUND:                 0.000
REMARK SMILES O=c1ccc2cc(O)c(O)cc2o1
REMARK SMILES IDX 4 1 3 2 2 3 1 4 13 5 12 6 11 7 9 8 7 9 6 10 5 11 8 12 10 14
REMARK H PARENT 8 13 10 15
REMARK Flexibility Score: inf
ROOT
ATOM      1  C   UNL     1     -17.495 -19.405  18.789  1.00  0.00     0.019 A 
ATOM      2  C   UNL     1     -17.717 -18.361  17.893  1.00  0.00     0.094 A 
ATOM      3  C   UNL     1     -16.926 -17.211  17.982  1.00  0.00     0.336 A 
ATOM      4  O   UNL     1     -17.110 -16.256  17.183  1.00  0.00    -0.246 OA
ATOM      5  O   UNL     1     -15.975 -17.119  18.909  1.00  0.00    -0.423 OA
ATOM      6  C   UNL     1     -15.730 -18.092  19.783  1.00  0.00     0.142 A 
ATOM      7  C   UNL     1     -14.718 -17.939  20.735  1.00  0.00     0.098 A 
ATOM      8  C   UNL     1     -14.454 -18.962  21.658  1.00  0.00     0.161 A 
ATOM      9  C   UNL     1     -15.209 -20.144  21.629  1.00  0.00     0.158 A 
ATOM     10  C   UNL     1     -16.227 -20.303  20.675  1.00  0.00     0.062 A 
ATOM     11  C   UNL     1     -16.489 -19.281  19.753  1.00  0.00     0.022 A 
ENDROOT
BRANCH   9  12
ATOM     12  O   UNL     1     -14.943 -21.155  22.550  1.00  0.00    -0.504 OA
ATOM     13  H   UNL     1     -15.426 -22.046  22.515  1.00  0.00     0.293 HD
ENDBRANCH   9  12
BRANCH   8  14
ATOM     14  O   UNL     1     -13.446 -18.812  22.608  1.00  0.00    -0.504 OA
ATOM     15  H   UNL     1     -13.583 -19.082  23.575  1.00  0.00     0.293 HD
ENDBRANCH   8  14
TORSDOF 2
ENDMDL
MODEL 5
REMARK VINA RESULT:    -4.878      9.478     11.779
REMARK INTER + INTRA:          -5.163
REMARK INTER:                  -5.163
REMARK INTRA:                   0.000
REMARK UNBOUND:                 0.000
REMARK SMILES O=c1ccc2cc(O)c(O)cc2o1
REMARK SMILES IDX 4 1 3 2 2 3 1 4 13 5 12 6 11 7 9 8 7 9 6 10 5 11 8 12 10 14
REMARK H PARENT 8 13 10 15
REMARK Flexibility Score: inf
ROOT
ATOM      1  C   UNL     1      -9.481 -12.631  18.772  1.00  0.00     0.019 A 
ATOM      2  C   UNL     1      -8.699 -13.239  17.790  1.00  0.00     0.094 A 
ATOM      3  C   UNL     1      -7.947 -14.369  18.126  1.00  0.00     0.336 A 
ATOM      4  O   UNL     1      -7.235 -14.933  17.255  1.00  0.00    -0.246 OA
ATOM      5  O   UNL     1      -7.980 -14.856  19.364  1.00  0.00    -0.423 OA
ATOM      6  C   UNL     1      -8.713 -14.307  20.330  1.00  0.00     0.142 A 
ATOM      7  C   UNL     1      -8.708 -14.862  21.613  1.00  0.00     0.098 A 
ATOM      8  C   UNL     1      -9.480 -14.288  22.635  1.00  0.00     0.161 A 
ATOM      9  C   UNL     1     -10.259 -13.151  22.371  1.00  0.00     0.158 A 
ATOM     10  C   UNL     1     -10.267 -12.590  21.085  1.00  0.00     0.062 A 
ATOM     11  C   UNL     1      -9.497 -13.164  20.064  1.00  0.00     0.022 A 
ENDROOT
BRANCH   9  12
ATOM     12  O   UNL     1     -11.021 -12.586  23.391  1.00  0.00    -0.504 OA
ATOM     13  H   UNL     1     -10.734 -11.733  23.857  1.00  0.00     0.293 HD
ENDBRANCH   9  12
BRANCH   8  14
ATOM     14  O   UNL     1      -9.476 -14.839  23.914  1.00  0.00    -0.504 OA
ATOM     15  H   UNL     1      -8.704 -14.691  24.554  1.00  0.00     0.293 HD
ENDBRANCH   8  14
TORSDOF 2
ENDMDL
MODEL 6
REMARK VINA RESULT:    -4.784     14.722     17.075
REMARK INTER + INTRA:          -5.064
REMARK INTER:                  -5.064
REMARK INTRA:                   0.000
REMARK UNBOUND:                 0.000
REMARK SMILES O=c1ccc2cc(O)c(O)cc2o1
REMARK SMILES IDX 4 1 3 2 2 3 1 4 13 5 12 6 11 7 9 8 7 9 6 10 5 11 8 12 10 14
REMARK H PARENT 8 13 10 15
REMARK Flexibility Score: inf
ROOT
ATOM      1  C   UNL     1     -15.781 -16.890  18.886  1.00  0.00     0.019 A 
ATOM      2  C   UNL     1     -16.785 -16.994  17.924  1.00  0.00     0.094 A 
ATOM      3  C   UNL     1     -17.573 -18.150  17.889  1.00  0.00     0.336 A 
ATOM      4  O   UNL     1     -18.485 -18.264  17.029  1.00  0.00    -0.246 OA
ATOM      5  O   UNL     1     -17.365 -19.132  18.762  1.00  0.00    -0.423 OA
ATOM      6  C   UNL     1     -16.418 -19.073  19.696  1.00  0.00     0.142 A 
ATOM      7  C   UNL     1     -16.246 -20.137  20.586  1.00  0.00     0.098 A 
ATOM      8  C   UNL     1     -15.249 -20.079  21.573  1.00  0.00     0.161 A 
ATOM      9  C   UNL     1     -14.421 -18.950  21.667  1.00  0.00     0.158 A 
ATOM     10  C   UNL     1     -14.590 -17.880  20.775  1.00  0.00     0.062 A 
ATOM     11  C   UNL     1     -15.585 -17.937  19.790  1.00  0.00     0.022 A 
ENDROOT
BRANCH   9  12
ATOM     12  O   UNL     1     -13.433 -18.901  22.648  1.00  0.00    -0.504 OA
ATOM     13  H   UNL     1     -13.153 -18.025  23.075  1.00  0.00     0.293 HD
ENDBRANCH   9  12
BRANCH   8  14
ATOM     14  O   UNL     1     -15.076 -21.137  22.461  1.00  0.00    -0.504 OA
ATOM     15  H   UNL     1     -15.740 -21.901  22.512  1.00  0.00     0.293 HD
ENDBRANCH   8  14
TORSDOF 2
ENDMDL
MODEL 7
REMARK VINA RESULT:    -4.780     15.178     17.381
REMARK INTER + INTRA:          -5.059
REMARK INTER:                  -5.059
REMARK INTRA:                   0.000
REMARK UNBOUND:                 0.000
REMARK SMILES O=c1ccc2cc(O)c(O)cc2o1
REMARK SMILES IDX 4 1 3 2 2 3 1 4 13 5 12 6 11 7 9 8 7 9 6 10 5 11 8 12 10 14
REMARK H PARENT 8 13 10 15
REMARK Flexibility Score: inf
ROOT
ATOM      1  C   UNL     1     -16.977 -19.738  20.002  1.00  0.00     0.019 A 
ATOM      2  C   UNL     1     -16.048 -19.536  21.022  1.00  0.00     0.094 A 
ATOM      3  C   UNL     1     -15.225 -18.406  20.975  1.00  0.00     0.336 A 
ATOM      4  O   UNL     1     -14.379 -18.206  21.886  1.00  0.00    -0.246 OA
ATOM      5  O   UNL     1     -15.330 -17.538  19.972  1.00  0.00    -0.423 OA
ATOM      6  C   UNL     1     -16.203 -17.693  18.980  1.00  0.00     0.142 A 
ATOM      7  C   UNL     1     -16.268 -16.748  17.952  1.00  0.00     0.098 A 
ATOM      8  C   UNL     1     -17.188 -16.905  16.903  1.00  0.00     0.161 A 
ATOM      9  C   UNL     1     -18.045 -18.015  16.884  1.00  0.00     0.158 A 
ATOM     10  C   UNL     1     -17.984 -18.967  17.913  1.00  0.00     0.062 A 
ATOM     11  C   UNL     1     -17.066 -18.810  18.961  1.00  0.00     0.022 A 
ENDROOT
BRANCH   9  12
ATOM     12  O   UNL     1     -18.954 -18.165  15.839  1.00  0.00    -0.504 OA
ATOM     13  H   UNL     1     -18.865 -18.914  15.161  1.00  0.00     0.293 HD
ENDBRANCH   9  12
BRANCH   8  14
ATOM     14  O   UNL     1     -17.254 -15.964  15.878  1.00  0.00    -0.504 OA
ATOM     15  H   UNL     1     -17.426 -14.984  16.068  1.00  0.00     0.293 HD
ENDBRANCH   8  14
TORSDOF 2
ENDMDL
MODEL 8
REMARK VINA RESULT:    -4.658      9.147     12.321
REMARK INTER + INTRA:          -4.930
REMARK INTER:                  -4.930
REMARK INTRA:                   0.000
REMARK UNBOUND:                 0.000
REMARK SMILES O=c1ccc2cc(O)c(O)cc2o1
REMARK SMILES IDX 4 1 3 2 2 3 1 4 13 5 12 6 11 7 9 8 7 9 6 10 5 11 8 12 10 14
REMARK H PARENT 8 13 10 15
REMARK Flexibility Score: inf
ROOT
ATOM      1  C   UNL     1      -8.262 -14.093  18.757  1.00  0.00     0.019 A 
ATOM      2  C   UNL     1      -8.999 -14.425  17.621  1.00  0.00     0.094 A 
ATOM      3  C   UNL     1     -10.395 -14.355  17.673  1.00  0.00     0.336 A 
ATOM      4  O   UNL     1     -11.078 -14.650  16.658  1.00  0.00    -0.246 OA
ATOM      5  O   UNL     1     -11.008 -13.977  18.791  1.00  0.00    -0.423 OA
ATOM      6  C   UNL     1     -10.344 -13.651  19.898  1.00  0.00     0.142 A 
ATOM      7  C   UNL     1     -11.043 -13.261  21.044  1.00  0.00     0.098 A 
ATOM      8  C   UNL     1     -10.347 -12.917  22.213  1.00  0.00     0.161 A 
ATOM      9  C   UNL     1      -8.945 -12.964  22.234  1.00  0.00     0.158 A 
ATOM     10  C   UNL     1      -8.238 -13.355  21.087  1.00  0.00     0.062 A 
ATOM     11  C   UNL     1      -8.933 -13.699  19.919  1.00  0.00     0.022 A 
ENDROOT
BRANCH   9  12
ATOM     12  O   UNL     1      -8.261 -12.622  23.399  1.00  0.00    -0.504 OA
ATOM     13  H   UNL     1      -8.711 -12.656  24.307  1.00  0.00     0.293 HD
ENDBRANCH   9  12
BRANCH   8  14
ATOM     14  O   UNL     1     -11.041 -12.528  23.357  1.00  0.00    -0.504 OA
ATOM     15  H   UNL     1     -10.845 -12.939  24.262  1.00  0.00     0.293 HD
ENDBRANCH   8  14
TORSDOF 2
ENDMDL
MODEL 9
REMARK VINA RESULT:    -4.637      2.177      2.990
REMARK INTER + INTRA:          -4.908
REMARK INTER:                  -4.908
REMARK INTRA:                   0.000
REMARK UNBOUND:                 0.000
REMARK SMILES O=c1ccc2cc(O)c(O)cc2o1
REMARK SMILES IDX 4 1 3 2 2 3 1 4 13 5 12 6 11 7 9 8 7 9 6 10 5 11 8 12 10 14
REMARK H PARENT 8 13 10 15
REMARK Flexibility Score: inf
ROOT
ATOM      1  C   UNL     1      -9.888  -8.883  29.727  1.00  0.00     0.019 A 
ATOM      2  C   UNL     1      -9.907  -8.520  31.073  1.00  0.00     0.094 A 
ATOM      3  C   UNL     1      -8.844  -8.907  31.895  1.00  0.00     0.336 A 
ATOM      4  O   UNL     1      -8.842  -8.590  33.113  1.00  0.00    -0.246 OA
ATOM      5  O   UNL     1      -7.830  -9.611  31.397  1.00  0.00    -0.423 OA
ATOM      6  C   UNL     1      -7.772  -9.977  30.118  1.00  0.00     0.142 A 
ATOM      7  C   UNL     1      -6.681 -10.717  29.652  1.00  0.00     0.098 A 
ATOM      8  C   UNL     1      -6.615 -11.105  28.305  1.00  0.00     0.161 A 
ATOM      9  C   UNL     1      -7.647 -10.752  27.422  1.00  0.00     0.158 A 
ATOM     10  C   UNL     1      -8.744 -10.011  27.885  1.00  0.00     0.062 A 
ATOM     11  C   UNL     1      -8.810  -9.622  29.230  1.00  0.00     0.022 A 
ENDROOT
BRANCH   9  12
ATOM     12  O   UNL     1      -7.574 -11.143  26.086  1.00  0.00    -0.504 OA
ATOM     13  H   UNL     1      -7.828 -12.080  25.793  1.00  0.00     0.293 HD
ENDBRANCH   9  12
BRANCH   8  14
ATOM     14  O   UNL     1      -5.529 -11.841  27.837  1.00  0.00    -0.504 OA
ATOM     15  H   UNL     1      -4.630 -11.408  27.661  1.00  0.00     0.293 HD
ENDBRANCH   8  14
TORSDOF 2
ENDMDL
