MODEL 1
REMARK VINA RESULT:    -3.036      0.000      0.000
REMARK INTER + INTRA:          -3.452
REMARK INTER:                  -3.391
REMARK INTRA:                  -0.060
REMARK UNBOUND:                -0.060
REMARK SMILES CCCC(=O)[O-]
REMARK SMILES IDX 3 1 4 2 5 3 6 4 2 5 1 6
REMARK H PARENT
REMARK Flexibility Score: inf
ROOT
ATOM      1  C   UNL     1       4.131   1.609  -6.233  1.00  0.00     0.052 C 
ENDROOT
BRANCH   1   2
ATOM      2  C   UNL     1       5.559   2.028  -6.406  1.00  0.00     0.041 C 
ATOM      3  O   UNL     1       6.088   2.826  -5.588  1.00  0.00    -0.550 OA
ATOM      4  O   UNL     1       6.296   1.563  -7.488  1.00  0.00    -0.550 OA
ENDBRANCH   1   2
BRANCH   1   5
ATOM      5  C   UNL     1       3.981   0.082  -6.240  1.00  0.00     0.003 C 
ATOM      6  C   UNL     1       4.829  -0.590  -5.162  1.00  0.00     0.004 C 
ENDBRANCH   1   5
TORSDOF 2
ENDMDL
MODEL 2
REMARK VINA RESULT:    -3.005     17.339     18.051
REMARK INTER + INTRA:          -3.416
REMARK INTER:                  -3.371
REMARK INTRA:                  -0.046
REMARK UNBOUND:                -0.060
REMARK SMILES CCCC(=O)[O-]
REMARK SMILES IDX 3 1 4 2 5 3 6 4 2 5 1 6
REMARK H PARENT
REMARK Flexibility Score: inf
ROOT
ATOM      1  C   UNL     1       4.432  13.699   6.655  1.00  0.00     0.052 C 
ENDROOT
BRANCH   1   2
ATOM      2  C   UNL     1       5.561  14.162   7.524  1.00  0.00     0.041 C 
ATOM      3  O   UNL     1       5.650  13.762   8.715  1.00  0.00    -0.550 OA
ATOM      4  O   UNL     1       6.498  15.061   7.028  1.00  0.00    -0.550 OA
ENDBRANCH   1   2
BRANCH   1   5
ATOM      5  C   UNL     1       4.143  12.204   6.846  1.00  0.00     0.003 C 
ATOM      6  C   UNL     1       5.034  11.323   5.972  1.00  0.00     0.004 C 
ENDBRANCH   1   5
TORSDOF 2
ENDMDL
MODEL 3
REMARK VINA RESULT:    -2.972     16.642     17.324
REMARK INTER + INTRA:          -3.380
REMARK INTER:                  -3.342
REMARK INTRA:                  -0.039
REMARK UNBOUND:                -0.060
REMARK SMILES CCCC(=O)[O-]
REMARK SMILES IDX 3 1 4 2 5 3 6 4 2 5 1 6
REMARK H PARENT
REMARK Flexibility Score: inf
ROOT
ATOM      1  C   UNL     1       3.725  11.653   7.041  1.00  0.00     0.052 C 
ENDROOT
BRANCH   1   2
ATOM      2  C   UNL     1       4.511  10.719   7.909  1.00  0.00     0.041 C 
ATOM      3  O   UNL     1       4.916  11.096   9.040  1.00  0.00    -0.550 OA
ATOM      4  O   UNL     1       4.825   9.444   7.456  1.00  0.00    -0.550 OA
ENDBRANCH   1   2
BRANCH   1   5
ATOM      5  C   UNL     1       4.638  12.597   6.248  1.00  0.00     0.003 C 
ATOM      6  C   UNL     1       4.734  13.984   6.884  1.00  0.00     0.004 C 
ENDBRANCH   1   5
TORSDOF 2
ENDMDL
MODEL 4
REMARK VINA RESULT:    -2.929     16.234     16.553
REMARK INTER + INTRA:          -3.332
REMARK INTER:                  -3.301
REMARK INTRA:                  -0.031
REMARK UNBOUND:                -0.060
REMARK SMILES CCCC(=O)[O-]
REMARK SMILES IDX 3 1 4 2 5 3 6 4 2 5 1 6
REMARK H PARENT
REMARK Flexibility Score: inf
ROOT
ATOM      1  C   UNL     1       3.963  11.319   7.276  1.00  0.00     0.052 C 
ENDROOT
BRANCH   1   2
ATOM      2  C   UNL     1       4.962  11.731   6.238  1.00  0.00     0.041 C 
ATOM      3  O   UNL     1       4.597  12.410   5.243  1.00  0.00    -0.550 OA
ATOM      4  O   UNL     1       6.289  11.336   6.353  1.00  0.00    -0.550 OA
ENDBRANCH   1   2
BRANCH   1   5
ATOM      5  C   UNL     1       4.632  10.604   8.457  1.00  0.00     0.003 C 
ATOM      6  C   UNL     1       4.093   9.188   8.660  1.00  0.00     0.004 C 
ENDBRANCH   1   5
TORSDOF 2
ENDMDL
MODEL 5
REMARK VINA RESULT:    -2.925     17.033     17.876
REMARK INTER + INTRA:          -3.327
REMARK INTER:                  -3.303
REMARK INTRA:                  -0.024
REMARK UNBOUND:                -0.060
REMARK SMILES CCCC(=O)[O-]
REMARK SMILES IDX 3 1 4 2 5 3 6 4 2 5 1 6
REMARK H PARENT
REMARK Flexibility Score: inf
ROOT
ATOM      1  C   UNL     1       4.532  13.646   6.497  1.00  0.00     0.052 C 
ENDROOT
BRANCH   1   2
ATOM      2  C   UNL     1       4.531  12.156   6.646  1.00  0.00     0.041 C 
ATOM      3  O   UNL     1       4.546  11.417   5.626  1.00  0.00    -0.550 OA
ATOM      4  O   UNL     1       4.481  11.581   7.910  1.00  0.00    -0.550 OA
ENDBRANCH   1   2
BRANCH   1   5
ATOM      5  C   UNL     1       5.281  14.332   7.647  1.00  0.00     0.003 C 
ATOM      6  C   UNL     1       6.634  14.889   7.209  1.00  0.00     0.004 C 
ENDBRANCH   1   5
TORSDOF 2
ENDMDL
MODEL 6
REMARK VINA RESULT:    -2.785      1.132      1.682
REMARK INTER + INTRA:          -3.171
REMARK INTER:                  -3.119
REMARK INTRA:                  -0.052
REMARK UNBOUND:                -0.060
REMARK SMILES CCCC(=O)[O-]
REMARK SMILES IDX 3 1 4 2 5 3 6 4 2 5 1 6
REMARK H PARENT
REMARK Flexibility Score: inf
ROOT
ATOM      1  C   UNL     1       4.709   1.508  -6.254  1.00  0.00     0.052 C 
ENDROOT
BRANCH   1   2
ATOM      2  C   UNL     1       5.501   1.263  -7.501  1.00  0.00     0.041 C 
ATOM      3  O   UNL     1       4.994   0.618  -8.457  1.00  0.00    -0.550 OA
ATOM      4  O   UNL     1       6.810   1.719  -7.597  1.00  0.00    -0.550 OA
ENDBRANCH   1   2
BRANCH   1   5
ATOM      5  C   UNL     1       3.893   0.275  -5.846  1.00  0.00     0.003 C 
ATOM      6  C   UNL     1       4.740  -0.771  -5.124  1.00  0.00     0.004 C 
ENDBRANCH   1   5
TORSDOF 2
ENDMDL
MODEL 7
REMARK VINA RESULT:    -2.683     11.118     11.545
REMARK INTER + INTRA:          -3.057
REMARK INTER:                  -3.051
REMARK INTRA:                  -0.006
REMARK UNBOUND:                -0.060
REMARK SMILES CCCC(=O)[O-]
REMARK SMILES IDX 3 1 4 2 5 3 6 4 2 5 1 6
REMARK H PARENT
REMARK Flexibility Score: inf
ROOT
ATOM      1  C   UNL     1       7.737   0.383   5.637  1.00  0.00     0.052 C 
ENDROOT
BRANCH   1   2
ATOM      2  C   UNL     1       8.174   1.675   5.016  1.00  0.00     0.041 C 
ATOM      3  O   UNL     1       7.627   2.757   5.356  1.00  0.00    -0.550 OA
ATOM      4  O   UNL     1       9.161   1.680   4.039  1.00  0.00    -0.550 OA
ENDBRANCH   1   2
BRANCH   1   5
ATOM      5  C   UNL     1       7.483  -0.699   4.579  1.00  0.00     0.003 C 
ATOM      6  C   UNL     1       6.959  -1.997   5.190  1.00  0.00     0.004 C 
ENDBRANCH   1   5
TORSDOF 2
ENDMDL
MODEL 8
REMARK VINA RESULT:    -2.665      2.265      3.283
REMARK INTER + INTRA:          -3.037
REMARK INTER:                  -3.023
REMARK INTRA:                  -0.014
REMARK UNBOUND:                -0.060
REMARK SMILES CCCC(=O)[O-]
REMARK SMILES IDX 3 1 4 2 5 3 6 4 2 5 1 6
REMARK H PARENT
REMARK Flexibility Score: inf
ROOT
ATOM      1  C   UNL     1       4.948   1.021  -7.705  1.00  0.00     0.052 C 
ENDROOT
BRANCH   1   2
ATOM      2  C   UNL     1       4.588   0.731  -6.281  1.00  0.00     0.041 C 
ATOM      3  O   UNL     1       3.539   0.088  -6.011  1.00  0.00    -0.550 OA
ATOM      4  O   UNL     1       5.392   1.199  -5.249  1.00  0.00    -0.550 OA
ENDBRANCH   1   2
BRANCH   1   5
ATOM      5  C   UNL     1       5.265   2.506  -7.921  1.00  0.00     0.003 C 
ATOM      6  C   UNL     1       4.289   3.174  -8.888  1.00  0.00     0.004 C 
ENDBRANCH   1   5
TORSDOF 2
ENDMDL
MODEL 9
REMARK VINA RESULT:    -2.610      2.135      3.062
REMARK INTER + INTRA:          -2.976
REMARK INTER:                  -2.939
REMARK INTRA:                  -0.037
REMARK UNBOUND:                -0.060
REMARK SMILES CCCC(=O)[O-]
REMARK SMILES IDX 3 1 4 2 5 3 6 4 2 5 1 6
REMARK H PARENT
REMARK Flexibility Score: inf
ROOT
ATOM      1  C   UNL     1       5.180   1.032  -7.680  1.00  0.00     0.052 C 
ENDROOT
BRANCH   1   2
ATOM      2  C   UNL     1       4.716   0.680  -6.300  1.00  0.00     0.041 C 
ATOM      3  O   UNL     1       5.339   1.108  -5.293  1.00  0.00    -0.550 OA
ATOM      4  O   UNL     1       3.613  -0.148  -6.126  1.00  0.00    -0.550 OA
ENDBRANCH   1   2
BRANCH   1   5
ATOM      5  C   UNL     1       4.727   2.439  -8.091  1.00  0.00     0.003 C 
ATOM      6  C   UNL     1       5.825   3.483  -7.899  1.00  0.00     0.004 C 
ENDBRANCH   1   5
TORSDOF 2
ENDMDL
