MODEL 1
REMARK VINA RESULT:    -7.276      0.000      0.000
REMARK INTER + INTRA:          -8.869
REMARK INTER:                  -8.553
REMARK INTRA:                  -0.316
REMARK UNBOUND:                -0.316
REMARK SMILES O=c1cc(-c2ccc(O)c(O)c2)oc2cc(O)cc(O)c12
REMARK SMILES IDX 4 1 3 2 2 3 1 4 21 5 19 6 18 7 16 8 15 9 14 10 13 11 5 12
REMARK SMILES IDX 6 13 7 14 8 15 12 16 10 17 9 18 11 20 20 22 17 24
REMARK H PARENT 9 19 11 21 20 23 17 25
REMARK Flexibility Score: inf
ROOT
ATOM      1  C   UNL     1     -23.598 -49.950 102.907  1.00  0.00     0.138 A 
ATOM      2  C   UNL     1     -23.532 -49.360 104.181  1.00  0.00     0.100 A 
ATOM      3  C   UNL     1     -22.928 -48.110 104.327  1.00  0.00     0.197 A 
ATOM      4  O   UNL     1     -22.872 -47.589 105.474  1.00  0.00    -0.289 OA
ATOM      5  C   UNL     1     -22.392 -47.460 103.198  1.00  0.00     0.107 A 
ATOM      6  C   UNL     1     -21.765 -46.192 103.259  1.00  0.00     0.134 A 
ATOM      7  C   UNL     1     -21.252 -45.614 102.089  1.00  0.00     0.093 A 
ATOM      8  C   UNL     1     -21.352 -46.277 100.863  1.00  0.00     0.123 A 
ATOM      9  C   UNL     1     -21.969 -47.530 100.797  1.00  0.00     0.094 A 
ATOM     10  C   UNL     1     -22.489 -48.123 101.952  1.00  0.00     0.146 A 
ATOM     11  O   UNL     1     -23.073 -49.313 101.863  1.00  0.00    -0.456 OA
ENDROOT
BRANCH   1  12
ATOM     12  C   UNL     1     -24.227 -51.278 102.692  1.00  0.00     0.021 A 
ATOM     13  C   UNL     1     -24.983 -51.860 103.724  1.00  0.00     0.016 A 
ATOM     14  C   UNL     1     -25.579 -53.111 103.549  1.00  0.00     0.051 A 
ATOM     15  C   UNL     1     -25.421 -53.808 102.345  1.00  0.00     0.157 A 
ATOM     16  C   UNL     1     -24.061 -51.989 101.487  1.00  0.00     0.062 A 
ATOM     17  C   UNL     1     -24.655 -53.244 101.311  1.00  0.00     0.158 A 
BRANCH  15  18
ATOM     18  O   UNL     1     -26.018 -55.056 102.173  1.00  0.00    -0.504 OA
ATOM     19  H   UNL     1     -25.490 -55.915 102.271  1.00  0.00     0.293 HD
ENDBRANCH  15  18
BRANCH  17  20
ATOM     20  O   UNL     1     -24.470 -53.917 100.104  1.00  0.00    -0.504 OA
ATOM     21  H   UNL     1     -24.060 -53.467  99.293  1.00  0.00     0.293 HD
ENDBRANCH  17  20
ENDBRANCH   1  12
BRANCH   6  22
ATOM     22  O   UNL     1     -21.651 -45.507 104.469  1.00  0.00    -0.507 OA
ATOM     23  H   UNL     1     -21.226 -45.933 105.285  1.00  0.00     0.293 HD
ENDBRANCH   6  22
BRANCH   8  24
ATOM     24  O   UNL     1     -20.832 -45.681  99.716  1.00  0.00    -0.508 OA
ATOM     25  H   UNL     1     -19.838 -45.519  99.606  1.00  0.00     0.293 HD
ENDBRANCH   8  24
TORSDOF 5
ENDMDL
MODEL 2
REMARK VINA RESULT:    -7.015      4.384      7.095
REMARK INTER + INTRA:          -8.562
REMARK INTER:                  -8.270
REMARK INTRA:                  -0.292
REMARK UNBOUND:                -0.316
REMARK SMILES O=c1cc(-c2ccc(O)c(O)c2)oc2cc(O)cc(O)c12
REMARK SMILES IDX 4 1 3 2 2 3 1 4 21 5 19 6 18 7 16 8 15 9 14 10 13 11 5 12
REMARK SMILES IDX 6 13 7 14 8 15 12 16 10 17 9 18 11 20 20 22 17 24
REMARK H PARENT 9 19 11 21 20 23 17 25
REMARK Flexibility Score: inf
ROOT
ATOM      1  C   UNL     1     -20.195 -47.114 104.493  1.00  0.00     0.138 A 
ATOM      2  C   UNL     1     -19.001 -46.663 105.080  1.00  0.00     0.100 A 
ATOM      3  C   UNL     1     -18.584 -47.211 106.295  1.00  0.00     0.197 A 
ATOM      4  O   UNL     1     -17.512 -46.799 106.815  1.00  0.00    -0.289 OA
ATOM      5  C   UNL     1     -19.367 -48.204 106.915  1.00  0.00     0.107 A 
ATOM      6  C   UNL     1     -19.016 -48.812 108.144  1.00  0.00     0.134 A 
ATOM      7  C   UNL     1     -19.854 -49.791 108.699  1.00  0.00     0.093 A 
ATOM      8  C   UNL     1     -21.031 -50.172 108.051  1.00  0.00     0.123 A 
ATOM      9  C   UNL     1     -21.383 -49.575 106.837  1.00  0.00     0.094 A 
ATOM     10  C   UNL     1     -20.561 -48.598 106.266  1.00  0.00     0.146 A 
ATOM     11  O   UNL     1     -20.917 -48.047 105.110  1.00  0.00    -0.456 OA
ENDROOT
BRANCH   1  12
ATOM     12  C   UNL     1     -20.688 -46.566 103.204  1.00  0.00     0.021 A 
ATOM     13  C   UNL     1     -20.699 -45.175 103.003  1.00  0.00     0.016 A 
ATOM     14  C   UNL     1     -21.164 -44.635 101.801  1.00  0.00     0.051 A 
ATOM     15  C   UNL     1     -21.637 -45.473 100.785  1.00  0.00     0.157 A 
ATOM     16  C   UNL     1     -21.178 -47.404 102.182  1.00  0.00     0.062 A 
ATOM     17  C   UNL     1     -21.646 -46.864 100.979  1.00  0.00     0.158 A 
BRANCH  15  18
ATOM     18  O   UNL     1     -22.100 -44.930  99.587  1.00  0.00    -0.504 OA
ATOM     19  H   UNL     1     -22.212 -43.930  99.466  1.00  0.00     0.293 HD
ENDBRANCH  15  18
BRANCH  17  20
ATOM     20  O   UNL     1     -22.122 -47.725  99.990  1.00  0.00    -0.504 OA
ATOM     21  H   UNL     1     -23.102 -47.765  99.737  1.00  0.00     0.293 HD
ENDBRANCH  17  20
ENDBRANCH   1  12
BRANCH   6  22
ATOM     22  O   UNL     1     -17.847 -48.452 108.814  1.00  0.00    -0.507 OA
ATOM     23  H   UNL     1     -16.930 -48.646 108.427  1.00  0.00     0.293 HD
ENDBRANCH   6  22
BRANCH   8  24
ATOM     24  O   UNL     1     -21.846 -51.147 108.624  1.00  0.00    -0.508 OA
ATOM     25  H   UNL     1     -21.505 -52.084 108.806  1.00  0.00     0.293 HD
ENDBRANCH   8  24
TORSDOF 5
ENDMDL
MODEL 3
REMARK VINA RESULT:    -6.900      4.040      5.879
REMARK INTER + INTRA:          -8.426
REMARK INTER:                  -8.128
REMARK INTRA:                  -0.297
REMARK UNBOUND:                -0.316
REMARK SMILES O=c1cc(-c2ccc(O)c(O)c2)oc2cc(O)cc(O)c12
REMARK SMILES IDX 4 1 3 2 2 3 1 4 21 5 19 6 18 7 16 8 15 9 14 10 13 11 5 12
REMARK SMILES IDX 6 13 7 14 8 15 12 16 10 17 9 18 11 20 20 22 17 24
REMARK H PARENT 9 19 11 21 20 23 17 25
REMARK Flexibility Score: inf
ROOT
ATOM      1  C   UNL     1     -20.423 -48.047 104.730  1.00  0.00     0.138 A 
ATOM      2  C   UNL     1     -21.522 -48.376 103.919  1.00  0.00     0.100 A 
ATOM      3  C   UNL     1     -21.652 -47.778 102.665  1.00  0.00     0.197 A 
ATOM      4  O   UNL     1     -22.643 -48.078 101.944  1.00  0.00    -0.289 OA
ATOM      5  C   UNL     1     -20.683 -46.852 102.232  1.00  0.00     0.107 A 
ATOM      6  C   UNL     1     -20.739 -46.202 100.975  1.00  0.00     0.134 A 
ATOM      7  C   UNL     1     -19.736 -45.287 100.621  1.00  0.00     0.093 A 
ATOM      8  C   UNL     1     -18.682 -45.011 101.495  1.00  0.00     0.123 A 
ATOM      9  C   UNL     1     -18.621 -45.650 102.738  1.00  0.00     0.094 A 
ATOM     10  C   UNL     1     -19.611 -46.566 103.110  1.00  0.00     0.146 A 
ATOM     11  O   UNL     1     -19.530 -47.161 104.295  1.00  0.00    -0.456 OA
ENDROOT
BRANCH   1  12
ATOM     12  C   UNL     1     -20.234 -48.651 106.073  1.00  0.00     0.021 A 
ATOM     13  C   UNL     1     -19.096 -48.314 106.828  1.00  0.00     0.016 A 
ATOM     14  C   UNL     1     -18.891 -48.873 108.092  1.00  0.00     0.051 A 
ATOM     15  C   UNL     1     -19.812 -49.787 108.619  1.00  0.00     0.157 A 
ATOM     16  C   UNL     1     -21.149 -49.581 106.604  1.00  0.00     0.062 A 
ATOM     17  C   UNL     1     -20.944 -50.144 107.868  1.00  0.00     0.158 A 
BRANCH  15  18
ATOM     18  O   UNL     1     -19.604 -50.343 109.881  1.00  0.00    -0.504 OA
ATOM     19  H   UNL     1     -18.939 -49.944 110.533  1.00  0.00     0.293 HD
ENDBRANCH  15  18
BRANCH  17  20
ATOM     20  O   UNL     1     -21.874 -51.060 108.361  1.00  0.00    -0.504 OA
ATOM     21  H   UNL     1     -22.842 -51.057 108.062  1.00  0.00     0.293 HD
ENDBRANCH  17  20
ENDBRANCH   1  12
BRANCH   6  22
ATOM     22  O   UNL     1     -21.780 -46.457 100.082  1.00  0.00    -0.507 OA
ATOM     23  H   UNL     1     -22.747 -46.272 100.323  1.00  0.00     0.293 HD
ENDBRANCH   6  22
BRANCH   8  24
ATOM     24  O   UNL     1     -17.699 -44.098 101.119  1.00  0.00    -0.508 OA
ATOM     25  H   UNL     1     -17.935 -43.165 100.800  1.00  0.00     0.293 HD
ENDBRANCH   8  24
TORSDOF 5
ENDMDL
MODEL 4
REMARK VINA RESULT:    -6.649      4.445      5.742
REMARK INTER + INTRA:          -8.132
REMARK INTER:                  -7.835
REMARK INTRA:                  -0.297
REMARK UNBOUND:                -0.316
REMARK SMILES O=c1cc(-c2ccc(O)c(O)c2)oc2cc(O)cc(O)c12
REMARK SMILES IDX 4 1 3 2 2 3 1 4 21 5 19 6 18 7 16 8 15 9 14 10 13 11 5 12
REMARK SMILES IDX 6 13 7 14 8 15 12 16 10 17 9 18 11 20 20 22 17 24
REMARK H PARENT 9 19 11 21 20 23 17 25
REMARK Flexibility Score: inf
ROOT
ATOM      1  C   UNL     1     -19.922 -47.401 104.459  1.00  0.00     0.138 A 
ATOM      2  C   UNL     1     -18.612 -46.900 104.388  1.00  0.00     0.100 A 
ATOM      3  C   UNL     1     -18.260 -46.045 103.342  1.00  0.00     0.197 A 
ATOM      4  O   UNL     1     -17.081 -45.602 103.285  1.00  0.00    -0.289 OA
ATOM      5  C   UNL     1     -19.222 -45.700 102.373  1.00  0.00     0.107 A 
ATOM      6  C   UNL     1     -18.949 -44.839 101.282  1.00  0.00     0.134 A 
ATOM      7  C   UNL     1     -19.961 -44.548 100.356  1.00  0.00     0.093 A 
ATOM      8  C   UNL     1     -21.237 -45.100 100.498  1.00  0.00     0.123 A 
ATOM      9  C   UNL     1     -21.513 -45.951 101.573  1.00  0.00     0.094 A 
ATOM     10  C   UNL     1     -20.518 -46.252 102.508  1.00  0.00     0.146 A 
ATOM     11  O   UNL     1     -20.805 -47.062 103.522  1.00  0.00    -0.456 OA
ENDROOT
BRANCH   1  12
ATOM     12  C   UNL     1     -20.353 -48.314 105.548  1.00  0.00     0.021 A 
ATOM     13  C   UNL     1     -21.653 -48.849 105.528  1.00  0.00     0.016 A 
ATOM     14  C   UNL     1     -22.084 -49.705 106.544  1.00  0.00     0.051 A 
ATOM     15  C   UNL     1     -21.230 -50.033 107.603  1.00  0.00     0.157 A 
ATOM     16  C   UNL     1     -19.502 -48.638 106.623  1.00  0.00     0.062 A 
ATOM     17  C   UNL     1     -19.933 -49.494 107.643  1.00  0.00     0.158 A 
BRANCH  15  18
ATOM     18  O   UNL     1     -21.664 -50.889 108.615  1.00  0.00    -0.504 OA
ATOM     19  H   UNL     1     -21.066 -51.134 109.395  1.00  0.00     0.293 HD
ENDBRANCH  15  18
BRANCH  17  20
ATOM     20  O   UNL     1     -19.062 -49.792 108.690  1.00  0.00    -0.504 OA
ATOM     21  H   UNL     1     -19.235 -50.556 109.333  1.00  0.00     0.293 HD
ENDBRANCH  17  20
ENDBRANCH   1  12
BRANCH   6  22
ATOM     22  O   UNL     1     -17.685 -44.274 101.114  1.00  0.00    -0.507 OA
ATOM     23  H   UNL     1     -17.552 -43.407 100.604  1.00  0.00     0.293 HD
ENDBRANCH   6  22
BRANCH   8  24
ATOM     24  O   UNL     1     -22.224 -44.796  99.563  1.00  0.00    -0.508 OA
ATOM     25  H   UNL     1     -22.000 -44.359  98.677  1.00  0.00     0.293 HD
ENDBRANCH   8  24
TORSDOF 5
ENDMDL
MODEL 5
REMARK VINA RESULT:    -6.640      1.964      3.233
REMARK INTER + INTRA:          -8.121
REMARK INTER:                  -7.848
REMARK INTRA:                  -0.273
REMARK UNBOUND:                -0.316
REMARK SMILES O=c1cc(-c2ccc(O)c(O)c2)oc2cc(O)cc(O)c12
REMARK SMILES IDX 4 1 3 2 2 3 1 4 21 5 19 6 18 7 16 8 15 9 14 10 13 11 5 12
REMARK SMILES IDX 6 13 7 14 8 15 12 16 10 17 9 18 11 20 20 22 17 24
REMARK H PARENT 9 19 11 21 20 23 17 25
REMARK Flexibility Score: inf
ROOT
ATOM      1  C   UNL     1     -23.304 -50.481 103.506  1.00  0.00     0.138 A 
ATOM      2  C   UNL     1     -23.245 -49.332 102.699  1.00  0.00     0.100 A 
ATOM      3  C   UNL     1     -22.429 -48.266 103.083  1.00  0.00     0.197 A 
ATOM      4  O   UNL     1     -22.384 -47.238 102.354  1.00  0.00    -0.289 OA
ATOM      5  C   UNL     1     -21.680 -48.357 104.272  1.00  0.00     0.107 A 
ATOM      6  C   UNL     1     -20.829 -47.323 104.732  1.00  0.00     0.134 A 
ATOM      7  C   UNL     1     -20.120 -47.489 105.932  1.00  0.00     0.093 A 
ATOM      8  C   UNL     1     -20.246 -48.663 106.678  1.00  0.00     0.123 A 
ATOM      9  C   UNL     1     -21.086 -49.688 106.229  1.00  0.00     0.094 A 
ATOM     10  C   UNL     1     -21.800 -49.543 105.035  1.00  0.00     0.146 A 
ATOM     11  O   UNL     1     -22.591 -50.531 104.629  1.00  0.00    -0.456 OA
ENDROOT
BRANCH   1  12
ATOM     12  C   UNL     1     -24.155 -51.645 103.149  1.00  0.00     0.021 A 
ATOM     13  C   UNL     1     -25.060 -52.155 104.095  1.00  0.00     0.016 A 
ATOM     14  C   UNL     1     -25.867 -53.253 103.787  1.00  0.00     0.051 A 
ATOM     15  C   UNL     1     -25.776 -53.867 102.532  1.00  0.00     0.157 A 
ATOM     16  C   UNL     1     -24.058 -52.275 101.893  1.00  0.00     0.062 A 
ATOM     17  C   UNL     1     -24.864 -53.377 101.582  1.00  0.00     0.158 A 
BRANCH  15  18
ATOM     18  O   UNL     1     -26.583 -54.962 102.228  1.00  0.00    -0.504 OA
ATOM     19  H   UNL     1     -27.218 -55.360 102.910  1.00  0.00     0.293 HD
ENDBRANCH  15  18
BRANCH  17  20
ATOM     20  O   UNL     1     -24.741 -53.974 100.328  1.00  0.00    -0.504 OA
ATOM     21  H   UNL     1     -25.542 -54.137  99.729  1.00  0.00     0.293 HD
ENDBRANCH  17  20
ENDBRANCH   1  12
BRANCH   6  22
ATOM     22  O   UNL     1     -20.683 -46.140 104.009  1.00  0.00    -0.507 OA
ATOM     23  H   UNL     1     -19.775 -45.817 103.692  1.00  0.00     0.293 HD
ENDBRANCH   6  22
BRANCH   8  24
ATOM     24  O   UNL     1     -19.532 -48.802 107.866  1.00  0.00    -0.508 OA
ATOM     25  H   UNL     1     -18.573 -49.130 107.873  1.00  0.00     0.293 HD
ENDBRANCH   8  24
TORSDOF 5
ENDMDL
MODEL 6
REMARK VINA RESULT:    -6.585      4.089      5.843
REMARK INTER + INTRA:          -8.056
REMARK INTER:                  -7.758
REMARK INTRA:                  -0.298
REMARK UNBOUND:                -0.316
REMARK SMILES O=c1cc(-c2ccc(O)c(O)c2)oc2cc(O)cc(O)c12
REMARK SMILES IDX 4 1 3 2 2 3 1 4 21 5 19 6 18 7 16 8 15 9 14 10 13 11 5 12
REMARK SMILES IDX 6 13 7 14 8 15 12 16 10 17 9 18 11 20 20 22 17 24
REMARK H PARENT 9 19 11 21 20 23 17 25
REMARK Flexibility Score: inf
ROOT
ATOM      1  C   UNL     1     -20.909 -47.417 104.229  1.00  0.00     0.138 A 
ATOM      2  C   UNL     1     -21.496 -47.954 103.071  1.00  0.00     0.100 A 
ATOM      3  C   UNL     1     -21.610 -47.159 101.929  1.00  0.00     0.197 A 
ATOM      4  O   UNL     1     -22.140 -47.649 100.894  1.00  0.00    -0.289 OA
ATOM      5  C   UNL     1     -21.139 -45.832 101.954  1.00  0.00     0.107 A 
ATOM      6  C   UNL     1     -21.216 -44.961 100.841  1.00  0.00     0.134 A 
ATOM      7  C   UNL     1     -20.728 -43.650 100.950  1.00  0.00     0.093 A 
ATOM      8  C   UNL     1     -20.168 -43.194 102.146  1.00  0.00     0.123 A 
ATOM      9  C   UNL     1     -20.090 -44.050 103.250  1.00  0.00     0.094 A 
ATOM     10  C   UNL     1     -20.569 -45.361 103.161  1.00  0.00     0.146 A 
ATOM     11  O   UNL     1     -20.483 -46.156 104.223  1.00  0.00    -0.456 OA
ENDROOT
BRANCH   1  12
ATOM     12  C   UNL     1     -20.762 -48.214 105.473  1.00  0.00     0.021 A 
ATOM     13  C   UNL     1     -21.801 -49.073 105.870  1.00  0.00     0.016 A 
ATOM     14  C   UNL     1     -21.691 -49.829 107.040  1.00  0.00     0.051 A 
ATOM     15  C   UNL     1     -20.545 -49.732 107.839  1.00  0.00     0.157 A 
ATOM     16  C   UNL     1     -19.618 -48.111 106.288  1.00  0.00     0.062 A 
ATOM     17  C   UNL     1     -19.506 -48.866 107.462  1.00  0.00     0.158 A 
BRANCH  15  18
ATOM     18  O   UNL     1     -20.438 -50.488 109.005  1.00  0.00    -0.504 OA
ATOM     19  H   UNL     1     -20.727 -51.459 109.036  1.00  0.00     0.293 HD
ENDBRANCH  15  18
BRANCH  17  20
ATOM     20  O   UNL     1     -18.357 -48.738 108.242  1.00  0.00    -0.504 OA
ATOM     21  H   UNL     1     -18.338 -49.005 109.219  1.00  0.00     0.293 HD
ENDBRANCH  17  20
ENDBRANCH   1  12
BRANCH   6  22
ATOM     22  O   UNL     1     -21.769 -45.387  99.634  1.00  0.00    -0.507 OA
ATOM     23  H   UNL     1     -22.726 -45.719  99.574  1.00  0.00     0.293 HD
ENDBRANCH   6  22
BRANCH   8  24
ATOM     24  O   UNL     1     -19.692 -41.888 102.228  1.00  0.00    -0.508 OA
ATOM     25  H   UNL     1     -20.000 -41.255 102.958  1.00  0.00     0.293 HD
ENDBRANCH   8  24
TORSDOF 5
ENDMDL
MODEL 7
REMARK VINA RESULT:    -6.571      2.234      7.115
REMARK INTER + INTRA:          -8.040
REMARK INTER:                  -7.725
REMARK INTRA:                  -0.315
REMARK UNBOUND:                -0.316
REMARK SMILES O=c1cc(-c2ccc(O)c(O)c2)oc2cc(O)cc(O)c12
REMARK SMILES IDX 4 1 3 2 2 3 1 4 21 5 19 6 18 7 16 8 15 9 14 10 13 11 5 12
REMARK SMILES IDX 6 13 7 14 8 15 12 16 10 17 9 18 11 20 20 22 17 24
REMARK H PARENT 9 19 11 21 20 23 17 25
REMARK Flexibility Score: inf
ROOT
ATOM      1  C   UNL     1     -21.408 -46.721 102.593  1.00  0.00     0.138 A 
ATOM      2  C   UNL     1     -20.706 -46.861 103.802  1.00  0.00     0.100 A 
ATOM      3  C   UNL     1     -20.941 -47.977 104.606  1.00  0.00     0.197 A 
ATOM      4  O   UNL     1     -20.308 -48.093 105.691  1.00  0.00    -0.289 OA
ATOM      5  C   UNL     1     -21.878 -48.945 104.197  1.00  0.00     0.107 A 
ATOM      6  C   UNL     1     -22.174 -50.106 104.951  1.00  0.00     0.134 A 
ATOM      7  C   UNL     1     -23.126 -51.020 104.475  1.00  0.00     0.093 A 
ATOM      8  C   UNL     1     -23.785 -50.797 103.265  1.00  0.00     0.123 A 
ATOM      9  C   UNL     1     -23.498 -49.652 102.514  1.00  0.00     0.094 A 
ATOM     10  C   UNL     1     -22.551 -48.729 102.970  1.00  0.00     0.146 A 
ATOM     11  O   UNL     1     -22.294 -47.649 102.239  1.00  0.00    -0.456 OA
ENDROOT
BRANCH   1  12
ATOM     12  C   UNL     1     -21.200 -45.555 101.698  1.00  0.00     0.021 A 
ATOM     13  C   UNL     1     -20.553 -44.409 102.194  1.00  0.00     0.016 A 
ATOM     14  C   UNL     1     -20.351 -43.296 101.375  1.00  0.00     0.051 A 
ATOM     15  C   UNL     1     -20.803 -43.302 100.050  1.00  0.00     0.157 A 
ATOM     16  C   UNL     1     -21.663 -45.550 100.368  1.00  0.00     0.062 A 
ATOM     17  C   UNL     1     -21.465 -44.434  99.546  1.00  0.00     0.158 A 
BRANCH  15  18
ATOM     18  O   UNL     1     -20.599 -42.189  99.235  1.00  0.00    -0.504 OA
ATOM     19  H   UNL     1     -20.699 -42.244  98.228  1.00  0.00     0.293 HD
ENDBRANCH  15  18
BRANCH  17  20
ATOM     20  O   UNL     1     -21.936 -44.468  98.234  1.00  0.00    -0.504 OA
ATOM     21  H   UNL     1     -21.820 -45.281  97.641  1.00  0.00     0.293 HD
ENDBRANCH  17  20
ENDBRANCH   1  12
BRANCH   6  22
ATOM     22  O   UNL     1     -21.532 -50.355 106.164  1.00  0.00    -0.507 OA
ATOM     23  H   UNL     1     -21.506 -51.283 106.573  1.00  0.00     0.293 HD
ENDBRANCH   6  22
BRANCH   8  24
ATOM     24  O   UNL     1     -24.727 -51.720 102.815  1.00  0.00    -0.508 OA
ATOM     25  H   UNL     1     -24.462 -52.509 102.237  1.00  0.00     0.293 HD
ENDBRANCH   8  24
TORSDOF 5
ENDMDL
MODEL 8
REMARK VINA RESULT:    -6.517      2.895      5.354
REMARK INTER + INTRA:          -7.976
REMARK INTER:                  -7.679
REMARK INTRA:                  -0.296
REMARK UNBOUND:                -0.316
REMARK SMILES O=c1cc(-c2ccc(O)c(O)c2)oc2cc(O)cc(O)c12
REMARK SMILES IDX 4 1 3 2 2 3 1 4 21 5 19 6 18 7 16 8 15 9 14 10 13 11 5 12
REMARK SMILES IDX 6 13 7 14 8 15 12 16 10 17 9 18 11 20 20 22 17 24
REMARK H PARENT 9 19 11 21 20 23 17 25
REMARK Flexibility Score: inf
ROOT
ATOM      1  C   UNL     1     -21.335 -45.983 103.374  1.00  0.00     0.138 A 
ATOM      2  C   UNL     1     -20.880 -45.465 102.150  1.00  0.00     0.100 A 
ATOM      3  C   UNL     1     -20.112 -44.299 102.141  1.00  0.00     0.197 A 
ATOM      4  O   UNL     1     -19.710 -43.840 101.038  1.00  0.00    -0.289 OA
ATOM      5  C   UNL     1     -19.806 -43.658 103.358  1.00  0.00     0.107 A 
ATOM      6  C   UNL     1     -19.034 -42.475 103.437  1.00  0.00     0.134 A 
ATOM      7  C   UNL     1     -18.778 -41.894 104.689  1.00  0.00     0.093 A 
ATOM      8  C   UNL     1     -19.280 -42.472 105.858  1.00  0.00     0.123 A 
ATOM      9  C   UNL     1     -20.044 -43.641 105.786  1.00  0.00     0.094 A 
ATOM     10  C   UNL     1     -20.309 -44.236 104.548  1.00  0.00     0.146 A 
ATOM     11  O   UNL     1     -21.036 -45.347 104.505  1.00  0.00    -0.456 OA
ENDROOT
BRANCH   1  12
ATOM     12  C   UNL     1     -22.155 -47.218 103.444  1.00  0.00     0.021 A 
ATOM     13  C   UNL     1     -22.756 -47.580 104.663  1.00  0.00     0.016 A 
ATOM     14  C   UNL     1     -23.528 -48.740 104.757  1.00  0.00     0.051 A 
ATOM     15  C   UNL     1     -23.704 -49.565 103.640  1.00  0.00     0.157 A 
ATOM     16  C   UNL     1     -22.326 -48.059 102.327  1.00  0.00     0.062 A 
ATOM     17  C   UNL     1     -23.096 -49.224 102.420  1.00  0.00     0.158 A 
BRANCH  15  18
ATOM     18  O   UNL     1     -24.475 -50.723 103.738  1.00  0.00    -0.504 OA
ATOM     19  H   UNL     1     -25.439 -50.746 103.424  1.00  0.00     0.293 HD
ENDBRANCH  15  18
BRANCH  17  20
ATOM     20  O   UNL     1     -23.243 -50.030 101.292  1.00  0.00    -0.504 OA
ATOM     21  H   UNL     1     -23.949 -49.848 100.588  1.00  0.00     0.293 HD
ENDBRANCH  17  20
ENDBRANCH   1  12
BRANCH   6  22
ATOM     22  O   UNL     1     -18.520 -41.875 102.287  1.00  0.00    -0.507 OA
ATOM     23  H   UNL     1     -18.667 -42.275 101.367  1.00  0.00     0.293 HD
ENDBRANCH   6  22
BRANCH   8  24
ATOM     24  O   UNL     1     -19.012 -41.875 107.088  1.00  0.00    -0.508 OA
ATOM     25  H   UNL     1     -19.701 -41.301 107.560  1.00  0.00     0.293 HD
ENDBRANCH   8  24
TORSDOF 5
ENDMDL
MODEL 9
REMARK VINA RESULT:    -6.403      2.669      4.365
REMARK INTER + INTRA:          -7.842
REMARK INTER:                  -7.530
REMARK INTRA:                  -0.312
REMARK UNBOUND:                -0.316
REMARK SMILES O=c1cc(-c2ccc(O)c(O)c2)oc2cc(O)cc(O)c12
REMARK SMILES IDX 4 1 3 2 2 3 1 4 21 5 19 6 18 7 16 8 15 9 14 10 13 11 5 12
REMARK SMILES IDX 6 13 7 14 8 15 12 16 10 17 9 18 11 20 20 22 17 24
REMARK H PARENT 9 19 11 21 20 23 17 25
REMARK Flexibility Score: inf
ROOT
ATOM      1  C   UNL     1     -21.516 -46.119 103.347  1.00  0.00     0.138 A 
ATOM      2  C   UNL     1     -20.979 -45.523 104.500  1.00  0.00     0.100 A 
ATOM      3  C   UNL     1     -20.250 -44.338 104.385  1.00  0.00     0.197 A 
ATOM      4  O   UNL     1     -19.771 -43.811 105.426  1.00  0.00    -0.289 OA
ATOM      5  C   UNL     1     -20.060 -43.759 103.115  1.00  0.00     0.107 A 
ATOM      6  C   UNL     1     -19.335 -42.561 102.910  1.00  0.00     0.134 A 
ATOM      7  C   UNL     1     -19.186 -42.052 101.611  1.00  0.00     0.093 A 
ATOM      8  C   UNL     1     -19.745 -42.716 100.517  1.00  0.00     0.123 A 
ATOM      9  C   UNL     1     -20.462 -43.902 100.713  1.00  0.00     0.094 A 
ATOM     10  C   UNL     1     -20.623 -44.425 102.000  1.00  0.00     0.146 A 
ATOM     11  O   UNL     1     -21.309 -45.551 102.160  1.00  0.00    -0.456 OA
ENDROOT
BRANCH   1  12
ATOM     12  C   UNL     1     -22.298 -47.379 103.409  1.00  0.00     0.021 A 
ATOM     13  C   UNL     1     -22.888 -47.767 104.624  1.00  0.00     0.016 A 
ATOM     14  C   UNL     1     -23.624 -48.951 104.711  1.00  0.00     0.051 A 
ATOM     15  C   UNL     1     -23.774 -49.774 103.588  1.00  0.00     0.157 A 
ATOM     16  C   UNL     1     -22.442 -48.218 102.286  1.00  0.00     0.062 A 
ATOM     17  C   UNL     1     -23.177 -49.406 102.371  1.00  0.00     0.158 A 
BRANCH  15  18
ATOM     18  O   UNL     1     -24.509 -50.955 103.678  1.00  0.00    -0.504 OA
ATOM     19  H   UNL     1     -25.414 -50.984 104.134  1.00  0.00     0.293 HD
ENDBRANCH  15  18
BRANCH  17  20
ATOM     20  O   UNL     1     -23.299 -50.210 101.238  1.00  0.00    -0.504 OA
ATOM     21  H   UNL     1     -23.559 -49.830 100.335  1.00  0.00     0.293 HD
ENDBRANCH  17  20
ENDBRANCH   1  12
BRANCH   6  22
ATOM     22  O   UNL     1     -18.766 -41.875 103.983  1.00  0.00    -0.507 OA
ATOM     23  H   UNL     1     -18.356 -40.954 103.870  1.00  0.00     0.293 HD
ENDBRANCH   6  22
BRANCH   8  24
ATOM     24  O   UNL     1     -19.582 -42.191  99.237  1.00  0.00    -0.508 OA
ATOM     25  H   UNL     1     -19.089 -42.700  98.513  1.00  0.00     0.293 HD
ENDBRANCH   8  24
TORSDOF 5
ENDMDL
