MODEL 1
REMARK VINA RESULT:    -5.343      0.000      0.000
REMARK INTER + INTRA:         -11.205
REMARK INTER:                 -10.028
REMARK INTRA:                  -1.177
REMARK UNBOUND:                -1.177
REMARK SMILES O=C([O-])CCCCCCCCCCCCCCC(=O)[O-]
REMARK SMILES IDX 10 1 9 2 8 3 7 4 6 5 5 6 4 7 2 8 1 9 3 10 11 11 12 12 13 13
REMARK SMILES IDX 14 14 15 15 16 16 17 17 18 18 19 19 20 20
REMARK H PARENT
REMARK Flexibility Score: inf
ROOT
ATOM      1  C   UNL     1       6.174  57.356  21.876  1.00  0.00     0.000 C 
ENDROOT
BRANCH   1   2
ATOM      2  C   UNL     1       7.306  56.473  22.429  1.00  0.00     0.000 C 
BRANCH   2   3
ATOM      3  C   UNL     1       7.672  55.313  21.490  1.00  0.00     0.000 C 
BRANCH   3   4
ATOM      4  C   UNL     1       7.104  53.985  22.014  1.00  0.00     0.000 C 
BRANCH   4   5
ATOM      5  C   UNL     1       6.723  54.050  23.502  1.00  0.00     0.000 C 
BRANCH   5   6
ATOM      6  C   UNL     1       7.707  53.287  24.400  1.00  0.00     0.006 C 
BRANCH   6   7
ATOM      7  C   UNL     1       8.438  54.242  25.348  1.00  0.00     0.053 C 
BRANCH   7   8
ATOM      8  C   UNL     1       9.868  54.398  24.936  1.00  0.00     0.041 C 
ATOM      9  O   UNL     1      10.716  54.847  25.749  1.00  0.00    -0.550 OA
ATOM     10  O   UNL     1      10.255  54.091  23.638  1.00  0.00    -0.550 OA
ENDBRANCH   7   8
ENDBRANCH   6   7
ENDBRANCH   5   6
ENDBRANCH   4   5
ENDBRANCH   3   4
ENDBRANCH   2   3
ENDBRANCH   1   2
BRANCH   1  11
ATOM     11  C   UNL     1       4.825  57.226  22.612  1.00  0.00     0.000 C 
BRANCH  11  12
ATOM     12  C   UNL     1       3.704  58.141  22.086  1.00  0.00     0.000 C 
BRANCH  12  13
ATOM     13  C   UNL     1       3.323  59.249  23.079  1.00  0.00     0.000 C 
BRANCH  13  14
ATOM     14  C   UNL     1       2.575  60.386  22.372  1.00  0.00     0.000 C 
BRANCH  14  15
ATOM     15  C   UNL     1       2.881  60.395  20.869  1.00  0.00     0.000 C 
BRANCH  15  16
ATOM     16  C   UNL     1       1.598  60.207  20.046  1.00  0.00     0.006 C 
BRANCH  16  17
ATOM     17  C   UNL     1       1.630  58.922  19.207  1.00  0.00     0.053 C 
BRANCH  17  18
ATOM     18  C   UNL     1       1.464  59.211  17.745  1.00  0.00     0.041 C 
ATOM     19  O   UNL     1       1.839  60.315  17.270  1.00  0.00    -0.550 OA
ATOM     20  O   UNL     1       0.865  58.271  16.915  1.00  0.00    -0.550 OA
ENDBRANCH  17  18
ENDBRANCH  16  17
ENDBRANCH  15  16
ENDBRANCH  14  15
ENDBRANCH  13  14
ENDBRANCH  12  13
ENDBRANCH  11  12
ENDBRANCH   1  11
TORSDOF 15
ENDMDL
MODEL 2
REMARK VINA RESULT:    -5.260      0.949      9.570
REMARK INTER + INTRA:         -11.050
REMARK INTER:                  -9.971
REMARK INTRA:                  -1.078
REMARK UNBOUND:                -1.177
REMARK SMILES O=C([O-])CCCCCCCCCCCCCCC(=O)[O-]
REMARK SMILES IDX 10 1 9 2 8 3 7 4 6 5 5 6 4 7 2 8 1 9 3 10 11 11 12 12 13 13
REMARK SMILES IDX 14 14 15 15 16 16 17 17 18 18 19 19 20 20
REMARK H PARENT
REMARK Flexibility Score: inf
ROOT
ATOM      1  C   UNL     1       5.365  56.735  22.280  1.00  0.00     0.000 C 
ENDROOT
BRANCH   1   2
ATOM      2  C   UNL     1       4.558  57.995  22.638  1.00  0.00     0.000 C 
BRANCH   2   3
ATOM      3  C   UNL     1       3.417  58.275  21.648  1.00  0.00     0.000 C 
BRANCH   3   4
ATOM      4  C   UNL     1       3.000  59.752  21.696  1.00  0.00     0.000 C 
BRANCH   4   5
ATOM      5  C   UNL     1       2.258  60.201  20.426  1.00  0.00     0.000 C 
BRANCH   5   6
ATOM      6  C   UNL     1       1.537  59.042  19.722  1.00  0.00     0.006 C 
BRANCH   6   7
ATOM      7  C   UNL     1       1.678  59.153  18.201  1.00  0.00     0.053 C 
BRANCH   7   8
ATOM      8  C   UNL     1       0.370  58.873  17.532  1.00  0.00     0.041 C 
ATOM      9  O   UNL     1       0.106  57.714  17.117  1.00  0.00    -0.550 OA
ATOM     10  O   UNL     1      -0.539  59.902  17.322  1.00  0.00    -0.550 OA
ENDBRANCH   7   8
ENDBRANCH   6   7
ENDBRANCH   5   6
ENDBRANCH   4   5
ENDBRANCH   3   4
ENDBRANCH   2   3
ENDBRANCH   1   2
BRANCH   1  11
ATOM     11  C   UNL     1       6.870  56.970  22.037  1.00  0.00     0.000 C 
BRANCH  11  12
ATOM     12  C   UNL     1       7.574  55.884  21.202  1.00  0.00     0.000 C 
BRANCH  12  13
ATOM     13  C   UNL     1       6.966  54.488  21.404  1.00  0.00     0.000 C 
BRANCH  13  14
ATOM     14  C   UNL     1       7.703  53.724  22.511  1.00  0.00     0.000 C 
BRANCH  14  15
ATOM     15  C   UNL     1       6.847  53.632  23.780  1.00  0.00     0.000 C 
BRANCH  15  16
ATOM     16  C   UNL     1       7.665  54.012  25.023  1.00  0.00     0.006 C 
BRANCH  16  17
ATOM     17  C   UNL     1       8.785  55.009  24.700  1.00  0.00     0.053 C 
BRANCH  17  18
ATOM     18  C   UNL     1      10.136  54.454  25.033  1.00  0.00     0.041 C 
ATOM     19  O   UNL     1      10.729  54.815  26.084  1.00  0.00    -0.550 OA
ATOM     20  O   UNL     1      10.754  53.561  24.165  1.00  0.00    -0.550 OA
ENDBRANCH  17  18
ENDBRANCH  16  17
ENDBRANCH  15  16
ENDBRANCH  14  15
ENDBRANCH  13  14
ENDBRANCH  12  13
ENDBRANCH  11  12
ENDBRANCH   1  11
TORSDOF 15
ENDMDL
MODEL 3
REMARK VINA RESULT:    -5.241      0.701      9.250
REMARK INTER + INTRA:         -11.014
REMARK INTER:                  -9.894
REMARK INTRA:                  -1.120
REMARK UNBOUND:                -1.177
REMARK SMILES O=C([O-])CCCCCCCCCCCCCCC(=O)[O-]
REMARK SMILES IDX 10 1 9 2 8 3 7 4 6 5 5 6 4 7 2 8 1 9 3 10 11 11 12 12 13 13
REMARK SMILES IDX 14 14 15 15 16 16 17 17 18 18 19 19 20 20
REMARK H PARENT
REMARK Flexibility Score: inf
ROOT
ATOM      1  C   UNL     1       3.624  58.266  22.006  1.00  0.00     0.000 C 
ENDROOT
BRANCH   1   2
ATOM      2  C   UNL     1       2.960  59.215  23.020  1.00  0.00     0.000 C 
BRANCH   2   3
ATOM      3  C   UNL     1       2.884  60.665  22.519  1.00  0.00     0.000 C 
BRANCH   3   4
ATOM      4  C   UNL     1       2.618  60.709  21.007  1.00  0.00     0.000 C 
BRANCH   4   5
ATOM      5  C   UNL     1       1.148  61.014  20.672  1.00  0.00     0.000 C 
BRANCH   5   6
ATOM      6  C   UNL     1       0.688  60.352  19.365  1.00  0.00     0.006 C 
BRANCH   6   7
ATOM      7  C   UNL     1       1.640  59.224  18.958  1.00  0.00     0.053 C 
BRANCH   7   8
ATOM      8  C   UNL     1       1.439  58.862  17.521  1.00  0.00     0.041 C 
ATOM      9  O   UNL     1       2.247  59.270  16.646  1.00  0.00    -0.550 OA
ATOM     10  O   UNL     1       0.333  58.114  17.140  1.00  0.00    -0.550 OA
ENDBRANCH   7   8
ENDBRANCH   6   7
ENDBRANCH   5   6
ENDBRANCH   4   5
ENDBRANCH   3   4
ENDBRANCH   2   3
ENDBRANCH   1   2
BRANCH   1  11
ATOM     11  C   UNL     1       4.723  57.354  22.588  1.00  0.00     0.000 C 
BRANCH  11  12
ATOM     12  C   UNL     1       6.008  57.263  21.745  1.00  0.00     0.000 C 
BRANCH  12  13
ATOM     13  C   UNL     1       7.120  56.460  22.436  1.00  0.00     0.000 C 
BRANCH  13  14
ATOM     14  C   UNL     1       7.626  55.331  21.529  1.00  0.00     0.000 C 
BRANCH  14  15
ATOM     15  C   UNL     1       7.208  53.959  22.073  1.00  0.00     0.000 C 
BRANCH  15  16
ATOM     16  C   UNL     1       6.805  54.053  23.552  1.00  0.00     0.006 C 
BRANCH  16  17
ATOM     17  C   UNL     1       7.791  53.318  24.469  1.00  0.00     0.053 C 
BRANCH  17  18
ATOM     18  C   UNL     1       8.941  54.194  24.863  1.00  0.00     0.041 C 
ATOM     19  O   UNL     1       9.959  54.273  24.127  1.00  0.00    -0.550 OA
ATOM     20  O   UNL     1       8.901  54.897  26.061  1.00  0.00    -0.550 OA
ENDBRANCH  17  18
ENDBRANCH  16  17
ENDBRANCH  15  16
ENDBRANCH  14  15
ENDBRANCH  13  14
ENDBRANCH  12  13
ENDBRANCH  11  12
ENDBRANCH   1  11
TORSDOF 15
ENDMDL
MODEL 4
REMARK VINA RESULT:    -5.190      5.264     10.695
REMARK INTER + INTRA:         -10.917
REMARK INTER:                  -9.423
REMARK INTRA:                  -1.494
REMARK UNBOUND:                -1.177
REMARK SMILES O=C([O-])CCCCCCCCCCCCCCC(=O)[O-]
REMARK SMILES IDX 10 1 9 2 8 3 7 4 6 5 5 6 4 7 2 8 1 9 3 10 11 11 12 12 13 13
REMARK SMILES IDX 14 14 15 15 16 16 17 17 18 18 19 19 20 20
REMARK H PARENT
REMARK Flexibility Score: inf
ROOT
ATOM      1  C   UNL     1      10.580  53.854  23.304  1.00  0.00     0.000 C 
ENDROOT
BRANCH   1   2
ATOM      2  C   UNL     1      10.355  53.994  24.820  1.00  0.00     0.000 C 
BRANCH   2   3
ATOM      3  C   UNL     1       9.242  54.994  25.169  1.00  0.00     0.000 C 
BRANCH   3   4
ATOM      4  C   UNL     1       7.986  54.262  25.665  1.00  0.00     0.000 C 
BRANCH   4   5
ATOM      5  C   UNL     1       7.203  53.589  24.526  1.00  0.00     0.000 C 
BRANCH   5   6
ATOM      6  C   UNL     1       6.801  54.576  23.420  1.00  0.00     0.006 C 
BRANCH   6   7
ATOM      7  C   UNL     1       6.809  53.895  22.048  1.00  0.00     0.053 C 
BRANCH   7   8
ATOM      8  C   UNL     1       7.513  54.749  21.043  1.00  0.00     0.041 C 
ATOM      9  O   UNL     1       7.419  54.490  19.814  1.00  0.00    -0.550 OA
ATOM     10  O   UNL     1       8.313  55.803  21.464  1.00  0.00    -0.550 OA
ENDBRANCH   7   8
ENDBRANCH   6   7
ENDBRANCH   5   6
ENDBRANCH   4   5
ENDBRANCH   3   4
ENDBRANCH   2   3
ENDBRANCH   1   2
BRANCH   1  11
ATOM     11  C   UNL     1      10.219  52.476  22.715  1.00  0.00     0.000 C 
BRANCH  11  12
ATOM     12  C   UNL     1       9.870  51.393  23.753  1.00  0.00     0.000 C 
BRANCH  12  13
ATOM     13  C   UNL     1      10.826  50.193  23.708  1.00  0.00     0.000 C 
BRANCH  13  14
ATOM     14  C   UNL     1      10.254  49.006  24.493  1.00  0.00     0.000 C 
BRANCH  14  15
ATOM     15  C   UNL     1      10.736  47.674  23.906  1.00  0.00     0.000 C 
BRANCH  15  16
ATOM     16  C   UNL     1      10.418  46.508  24.853  1.00  0.00     0.006 C 
BRANCH  16  17
ATOM     17  C   UNL     1       9.275  46.841  25.821  1.00  0.00     0.053 C 
BRANCH  17  18
ATOM     18  C   UNL     1       8.046  46.035  25.526  1.00  0.00     0.041 C 
ATOM     19  O   UNL     1       8.098  45.073  24.715  1.00  0.00    -0.550 OA
ATOM     20  O   UNL     1       6.836  46.368  26.123  1.00  0.00    -0.550 OA
ENDBRANCH  17  18
ENDBRANCH  16  17
ENDBRANCH  15  16
ENDBRANCH  14  15
ENDBRANCH  13  14
ENDBRANCH  12  13
ENDBRANCH  11  12
ENDBRANCH   1  11
TORSDOF 15
ENDMDL
MODEL 5
REMARK VINA RESULT:    -5.188      2.359      3.341
REMARK INTER + INTRA:         -10.914
REMARK INTER:                  -9.495
REMARK INTRA:                  -1.420
REMARK UNBOUND:                -1.177
REMARK SMILES O=C([O-])CCCCCCCCCCCCCCC(=O)[O-]
REMARK SMILES IDX 10 1 9 2 8 3 7 4 6 5 5 6 4 7 2 8 1 9 3 10 11 11 12 12 13 13
REMARK SMILES IDX 14 14 15 15 16 16 17 17 18 18 19 19 20 20
REMARK H PARENT
REMARK Flexibility Score: inf
ROOT
ATOM      1  C   UNL     1       7.089  55.352  20.431  1.00  0.00     0.000 C 
ENDROOT
BRANCH   1   2
ATOM      2  C   UNL     1       7.713  54.017  20.877  1.00  0.00     0.000 C 
BRANCH   2   3
ATOM      3  C   UNL     1       7.044  53.434  22.130  1.00  0.00     0.000 C 
BRANCH   3   4
ATOM      4  C   UNL     1       8.096  52.936  23.131  1.00  0.00     0.000 C 
BRANCH   4   5
ATOM      5  C   UNL     1       7.632  53.064  24.592  1.00  0.00     0.000 C 
BRANCH   5   6
ATOM      6  C   UNL     1       7.769  54.494  25.134  1.00  0.00     0.006 C 
BRANCH   6   7
ATOM      7  C   UNL     1       9.188  55.029  24.917  1.00  0.00     0.053 C 
BRANCH   7   8
ATOM      8  C   UNL     1      10.046  54.735  26.107  1.00  0.00     0.041 C 
ATOM      9  O   UNL     1       9.549  54.741  27.263  1.00  0.00    -0.550 OA
ATOM     10  O   UNL     1      11.405  54.502  25.944  1.00  0.00    -0.550 OA
ENDBRANCH   7   8
ENDBRANCH   6   7
ENDBRANCH   5   6
ENDBRANCH   4   5
ENDBRANCH   3   4
ENDBRANCH   2   3
ENDBRANCH   1   2
BRANCH   1  11
ATOM     11  C   UNL     1       7.633  56.601  21.152  1.00  0.00     0.000 C 
BRANCH  11  12
ATOM     12  C   UNL     1       6.891  56.983  22.446  1.00  0.00     0.000 C 
BRANCH  12  13
ATOM     13  C   UNL     1       5.375  56.759  22.353  1.00  0.00     0.000 C 
BRANCH  13  14
ATOM     14  C   UNL     1       4.607  58.023  22.759  1.00  0.00     0.000 C 
BRANCH  14  15
ATOM     15  C   UNL     1       3.481  58.326  21.764  1.00  0.00     0.000 C 
BRANCH  15  16
ATOM     16  C   UNL     1       3.357  59.837  21.517  1.00  0.00     0.006 C 
BRANCH  16  17
ATOM     17  C   UNL     1       2.725  60.570  22.708  1.00  0.00     0.053 C 
BRANCH  17  18
ATOM     18  C   UNL     1       1.391  59.992  23.071  1.00  0.00     0.041 C 
ATOM     19  O   UNL     1       0.410  60.125  22.293  1.00  0.00    -0.550 OA
ATOM     20  O   UNL     1       1.226  59.335  24.284  1.00  0.00    -0.550 OA
ENDBRANCH  17  18
ENDBRANCH  16  17
ENDBRANCH  15  16
ENDBRANCH  14  15
ENDBRANCH  13  14
ENDBRANCH  12  13
ENDBRANCH  11  12
ENDBRANCH   1  11
TORSDOF 15
ENDMDL
MODEL 6
REMARK VINA RESULT:    -5.070      5.018      7.370
REMARK INTER + INTRA:         -10.693
REMARK INTER:                  -9.320
REMARK INTRA:                  -1.373
REMARK UNBOUND:                -1.177
REMARK SMILES O=C([O-])CCCCCCCCCCCCCCC(=O)[O-]
REMARK SMILES IDX 10 1 9 2 8 3 7 4 6 5 5 6 4 7 2 8 1 9 3 10 11 11 12 12 13 13
REMARK SMILES IDX 14 14 15 15 16 16 17 17 18 18 19 19 20 20
REMARK H PARENT
REMARK Flexibility Score: inf
ROOT
ATOM      1  C   UNL     1      10.441  53.998  23.261  1.00  0.00     0.000 C 
ENDROOT
BRANCH   1   2
ATOM      2  C   UNL     1      10.244  52.569  22.725  1.00  0.00     0.000 C 
BRANCH   2   3
ATOM      3  C   UNL     1       9.960  51.547  23.836  1.00  0.00     0.000 C 
BRANCH   3   4
ATOM      4  C   UNL     1      10.394  50.138  23.408  1.00  0.00     0.000 C 
BRANCH   4   5
ATOM      5  C   UNL     1      10.602  49.192  24.603  1.00  0.00     0.000 C 
BRANCH   5   6
ATOM      6  C   UNL     1      10.317  47.724  24.253  1.00  0.00     0.006 C 
BRANCH   6   7
ATOM      7  C   UNL     1      11.529  46.842  24.568  1.00  0.00     0.053 C 
BRANCH   7   8
ATOM      8  C   UNL     1      11.222  45.916  25.702  1.00  0.00     0.041 C 
ATOM      9  O   UNL     1      10.746  44.773  25.476  1.00  0.00    -0.550 OA
ATOM     10  O   UNL     1      11.417  46.333  27.012  1.00  0.00    -0.550 OA
ENDBRANCH   7   8
ENDBRANCH   6   7
ENDBRANCH   5   6
ENDBRANCH   4   5
ENDBRANCH   3   4
ENDBRANCH   2   3
ENDBRANCH   1   2
BRANCH   1  11
ATOM     11  C   UNL     1      10.276  54.152  24.787  1.00  0.00     0.000 C 
BRANCH  11  12
ATOM     12  C   UNL     1       9.139  55.091  25.229  1.00  0.00     0.000 C 
BRANCH  12  13
ATOM     13  C   UNL     1       7.902  54.335  25.732  1.00  0.00     0.000 C 
BRANCH  13  14
ATOM     14  C   UNL     1       7.167  53.652  24.572  1.00  0.00     0.000 C 
BRANCH  14  15
ATOM     15  C   UNL     1       6.704  54.679  23.533  1.00  0.00     0.000 C 
BRANCH  15  16
ATOM     16  C   UNL     1       6.694  54.069  22.123  1.00  0.00     0.006 C 
BRANCH  16  17
ATOM     17  C   UNL     1       7.034  55.103  21.041  1.00  0.00     0.053 C 
BRANCH  17  18
ATOM     18  C   UNL     1       7.342  54.450  19.728  1.00  0.00     0.041 C 
ATOM     19  O   UNL     1       8.205  53.536  19.661  1.00  0.00    -0.550 OA
ATOM     20  O   UNL     1       6.697  54.875  18.572  1.00  0.00    -0.550 OA
ENDBRANCH  17  18
ENDBRANCH  16  17
ENDBRANCH  15  16
ENDBRANCH  14  15
ENDBRANCH  13  14
ENDBRANCH  12  13
ENDBRANCH  11  12
ENDBRANCH   1  11
TORSDOF 15
ENDMDL
MODEL 7
REMARK VINA RESULT:    -5.036      1.046      2.023
REMARK INTER + INTRA:         -10.628
REMARK INTER:                  -9.682
REMARK INTRA:                  -0.946
REMARK UNBOUND:                -1.177
REMARK SMILES O=C([O-])CCCCCCCCCCCCCCC(=O)[O-]
REMARK SMILES IDX 10 1 9 2 8 3 7 4 6 5 5 6 4 7 2 8 1 9 3 10 11 11 12 12 13 13
REMARK SMILES IDX 14 14 15 15 16 16 17 17 18 18 19 19 20 20
REMARK H PARENT
REMARK Flexibility Score: inf
ROOT
ATOM      1  C   UNL     1       4.070  58.090  21.866  1.00  0.00     0.000 C 
ENDROOT
BRANCH   1   2
ATOM      2  C   UNL     1       5.158  57.331  22.646  1.00  0.00     0.000 C 
BRANCH   2   3
ATOM      3  C   UNL     1       6.379  56.982  21.782  1.00  0.00     0.000 C 
BRANCH   3   4
ATOM      4  C   UNL     1       7.488  56.345  22.634  1.00  0.00     0.000 C 
BRANCH   4   5
ATOM      5  C   UNL     1       7.529  54.814  22.502  1.00  0.00     0.000 C 
BRANCH   5   6
ATOM      6  C   UNL     1       7.292  54.098  23.840  1.00  0.00     0.006 C 
BRANCH   6   7
ATOM      7  C   UNL     1       8.347  53.013  24.076  1.00  0.00     0.053 C 
BRANCH   7   8
ATOM      8  C   UNL     1       9.722  53.601  24.032  1.00  0.00     0.041 C 
ATOM      9  O   UNL     1      10.075  54.450  24.891  1.00  0.00    -0.550 OA
ATOM     10  O   UNL     1      10.597  53.248  23.013  1.00  0.00    -0.550 OA
ENDBRANCH   7   8
ENDBRANCH   6   7
ENDBRANCH   5   6
ENDBRANCH   4   5
ENDBRANCH   3   4
ENDBRANCH   2   3
ENDBRANCH   1   2
BRANCH   1  11
ATOM     11  C   UNL     1       3.094  58.910  22.734  1.00  0.00     0.000 C 
BRANCH  11  12
ATOM     12  C   UNL     1       3.073  60.421  22.441  1.00  0.00     0.000 C 
BRANCH  12  13
ATOM     13  C   UNL     1       2.287  60.772  21.170  1.00  0.00     0.000 C 
BRANCH  13  14
ATOM     14  C   UNL     1       0.873  60.180  21.217  1.00  0.00     0.000 C 
BRANCH  14  15
ATOM     15  C   UNL     1       0.448  59.659  19.839  1.00  0.00     0.000 C 
BRANCH  15  16
ATOM     16  C   UNL     1       1.669  59.233  19.012  1.00  0.00     0.006 C 
BRANCH  16  17
ATOM     17  C   UNL     1       1.295  58.872  17.568  1.00  0.00     0.053 C 
BRANCH  17  18
ATOM     18  C   UNL     1       2.034  59.718  16.576  1.00  0.00     0.041 C 
ATOM     19  O   UNL     1       2.963  59.222  15.886  1.00  0.00    -0.550 OA
ATOM     20  O   UNL     1       1.718  61.065  16.439  1.00  0.00    -0.550 OA
ENDBRANCH  17  18
ENDBRANCH  16  17
ENDBRANCH  15  16
ENDBRANCH  14  15
ENDBRANCH  13  14
ENDBRANCH  12  13
ENDBRANCH  11  12
ENDBRANCH   1  11
TORSDOF 15
ENDMDL
MODEL 8
REMARK VINA RESULT:    -4.976      5.336     11.803
REMARK INTER + INTRA:         -10.515
REMARK INTER:                  -9.209
REMARK INTRA:                  -1.307
REMARK UNBOUND:                -1.177
REMARK SMILES O=C([O-])CCCCCCCCCCCCCCC(=O)[O-]
REMARK SMILES IDX 10 1 9 2 8 3 7 4 6 5 5 6 4 7 2 8 1 9 3 10 11 11 12 12 13 13
REMARK SMILES IDX 14 14 15 15 16 16 17 17 18 18 19 19 20 20
REMARK H PARENT
REMARK Flexibility Score: inf
ROOT
ATOM      1  C   UNL     1      10.633  53.644  23.259  1.00  0.00     0.000 C 
ENDROOT
BRANCH   1   2
ATOM      2  C   UNL     1      10.311  53.995  24.722  1.00  0.00     0.000 C 
BRANCH   2   3
ATOM      3  C   UNL     1       9.176  55.022  24.854  1.00  0.00     0.000 C 
BRANCH   3   4
ATOM      4  C   UNL     1       7.897  54.359  25.384  1.00  0.00     0.000 C 
BRANCH   4   5
ATOM      5  C   UNL     1       7.151  53.560  24.303  1.00  0.00     0.000 C 
BRANCH   5   6
ATOM      6  C   UNL     1       6.436  54.463  23.287  1.00  0.00     0.006 C 
BRANCH   6   7
ATOM      7  C   UNL     1       6.439  53.830  21.893  1.00  0.00     0.053 C 
BRANCH   7   8
ATOM      8  C   UNL     1       7.490  54.458  21.034  1.00  0.00     0.041 C 
ATOM      9  O   UNL     1       8.183  55.411  21.476  1.00  0.00    -0.550 OA
ATOM     10  O   UNL     1       7.671  54.025  19.727  1.00  0.00    -0.550 OA
ENDBRANCH   7   8
ENDBRANCH   6   7
ENDBRANCH   5   6
ENDBRANCH   4   5
ENDBRANCH   3   4
ENDBRANCH   2   3
ENDBRANCH   1   2
BRANCH   1  11
ATOM     11  C   UNL     1      10.147  52.255  22.798  1.00  0.00     0.000 C 
BRANCH  11  12
ATOM     12  C   UNL     1       9.907  51.239  23.929  1.00  0.00     0.000 C 
BRANCH  12  13
ATOM     13  C   UNL     1      10.600  49.892  23.679  1.00  0.00     0.000 C 
BRANCH  13  14
ATOM     14  C   UNL     1      10.401  48.943  24.868  1.00  0.00     0.000 C 
BRANCH  14  15
ATOM     15  C   UNL     1      11.602  48.005  25.030  1.00  0.00     0.000 C 
BRANCH  15  16
ATOM     16  C   UNL     1      11.693  47.471  26.467  1.00  0.00     0.006 C 
BRANCH  16  17
ATOM     17  C   UNL     1      13.026  46.761  26.740  1.00  0.00     0.053 C 
BRANCH  17  18
ATOM     18  C   UNL     1      13.796  47.427  27.839  1.00  0.00     0.041 C 
ATOM     19  O   UNL     1      13.715  48.673  28.005  1.00  0.00    -0.550 OA
ATOM     20  O   UNL     1      14.628  46.675  28.660  1.00  0.00    -0.550 OA
ENDBRANCH  17  18
ENDBRANCH  16  17
ENDBRANCH  15  16
ENDBRANCH  14  15
ENDBRANCH  13  14
ENDBRANCH  12  13
ENDBRANCH  11  12
ENDBRANCH   1  11
TORSDOF 15
ENDMDL
MODEL 9
REMARK VINA RESULT:    -4.955      3.339      9.162
REMARK INTER + INTRA:         -10.477
REMARK INTER:                  -9.495
REMARK INTRA:                  -0.982
REMARK UNBOUND:                -1.177
REMARK SMILES O=C([O-])CCCCCCCCCCCCCCC(=O)[O-]
REMARK SMILES IDX 10 1 9 2 8 3 7 4 6 5 5 6 4 7 2 8 1 9 3 10 11 11 12 12 13 13
REMARK SMILES IDX 14 14 15 15 16 16 17 17 18 18 19 19 20 20
REMARK H PARENT
REMARK Flexibility Score: inf
ROOT
ATOM      1  C   UNL     1       5.091  56.839  22.365  1.00  0.00     0.000 C 
ENDROOT
BRANCH   1   2
ATOM      2  C   UNL     1       4.285  58.147  22.457  1.00  0.00     0.000 C 
BRANCH   2   3
ATOM      3  C   UNL     1       3.069  58.166  21.519  1.00  0.00     0.000 C 
BRANCH   3   4
ATOM      4  C   UNL     1       2.079  59.267  21.930  1.00  0.00     0.000 C 
BRANCH   4   5
ATOM      5  C   UNL     1       2.237  59.688  23.400  1.00  0.00     0.000 C 
BRANCH   5   6
ATOM      6  C   UNL     1       0.892  59.984  24.079  1.00  0.00     0.006 C 
BRANCH   6   7
ATOM      7  C   UNL     1      -0.019  58.754  24.052  1.00  0.00     0.053 C 
BRANCH   7   8
ATOM      8  C   UNL     1      -0.666  58.551  25.385  1.00  0.00     0.041 C 
ATOM      9  O   UNL     1      -1.864  58.894  25.567  1.00  0.00    -0.550 OA
ATOM     10  O   UNL     1       0.067  58.028  26.442  1.00  0.00    -0.550 OA
ENDBRANCH   7   8
ENDBRANCH   6   7
ENDBRANCH   5   6
ENDBRANCH   4   5
ENDBRANCH   3   4
ENDBRANCH   2   3
ENDBRANCH   1   2
BRANCH   1  11
ATOM     11  C   UNL     1       6.623  57.012  22.382  1.00  0.00     0.000 C 
BRANCH  11  12
ATOM     12  C   UNL     1       7.402  56.014  21.506  1.00  0.00     0.000 C 
BRANCH  12  13
ATOM     13  C   UNL     1       6.756  54.622  21.468  1.00  0.00     0.000 C 
BRANCH  13  14
ATOM     14  C   UNL     1       7.413  53.684  22.488  1.00  0.00     0.000 C 
BRANCH  14  15
ATOM     15  C   UNL     1       6.821  53.892  23.888  1.00  0.00     0.000 C 
BRANCH  15  16
ATOM     16  C   UNL     1       7.867  53.606  24.975  1.00  0.00     0.006 C 
BRANCH  16  17
ATOM     17  C   UNL     1       8.863  54.761  25.142  1.00  0.00     0.053 C 
BRANCH  17  18
ATOM     18  C   UNL     1      10.277  54.309  24.938  1.00  0.00     0.041 C 
ATOM     19  O   UNL     1      11.116  54.409  25.872  1.00  0.00    -0.550 OA
ATOM     20  O   UNL     1      10.675  53.807  23.705  1.00  0.00    -0.550 OA
ENDBRANCH  17  18
ENDBRANCH  16  17
ENDBRANCH  15  16
ENDBRANCH  14  15
ENDBRANCH  13  14
ENDBRANCH  12  13
ENDBRANCH  11  12
ENDBRANCH   1  11
TORSDOF 15
ENDMDL
