MODEL 1
REMARK VINA RESULT:    -3.426      0.000      0.000
REMARK INTER + INTRA:          -4.158
REMARK INTER:                  -4.027
REMARK INTRA:                  -0.131
REMARK UNBOUND:                -0.131
REMARK SMILES O=C([O-])CCC(=O)[O-]
REMARK SMILES IDX 4 1 2 2 1 3 3 4 5 5 6 6 7 7 8 8
REMARK H PARENT
REMARK Flexibility Score: inf
ROOT
ATOM      1  C   UNL     1      -1.984   4.329   6.081  1.00  0.00     0.059 C 
ENDROOT
BRANCH   1   2
ATOM      2  C   UNL     1      -1.049   3.440   5.321  1.00  0.00     0.042 C 
ATOM      3  O   UNL     1      -1.142   3.345   4.068  1.00  0.00    -0.550 OA
ATOM      4  O   UNL     1      -0.102   2.684   6.000  1.00  0.00    -0.550 OA
ENDBRANCH   1   2
BRANCH   1   5
ATOM      5  C   UNL     1      -3.436   3.855   5.962  1.00  0.00     0.059 C 
BRANCH   5   6
ATOM      6  C   UNL     1      -3.577   2.410   6.329  1.00  0.00     0.042 C 
ATOM      7  O   UNL     1      -3.828   1.552   5.441  1.00  0.00    -0.550 OA
ATOM      8  O   UNL     1      -3.390   2.004   7.644  1.00  0.00    -0.550 OA
ENDBRANCH   5   6
ENDBRANCH   1   5
TORSDOF 3
ENDMDL
MODEL 2
REMARK VINA RESULT:    -3.377      0.187      3.070
REMARK INTER + INTRA:          -4.101
REMARK INTER:                  -3.975
REMARK INTRA:                  -0.126
REMARK UNBOUND:                -0.131
REMARK SMILES O=C([O-])CCC(=O)[O-]
REMARK SMILES IDX 4 1 2 2 1 3 3 4 5 5 6 6 7 7 8 8
REMARK H PARENT
REMARK Flexibility Score: inf
ROOT
ATOM      1  C   UNL     1      -3.279   3.995   6.023  1.00  0.00     0.059 C 
ENDROOT
BRANCH   1   2
ATOM      2  C   UNL     1      -3.561   2.575   6.408  1.00  0.00     0.042 C 
ATOM      3  O   UNL     1      -3.901   1.736   5.532  1.00  0.00    -0.550 OA
ATOM      4  O   UNL     1      -3.489   2.188   7.740  1.00  0.00    -0.550 OA
ENDBRANCH   1   2
BRANCH   1   5
ATOM      5  C   UNL     1      -1.786   4.321   6.122  1.00  0.00     0.059 C 
BRANCH   5   6
ATOM      6  C   UNL     1      -0.955   3.341   5.351  1.00  0.00     0.042 C 
ATOM      7  O   UNL     1      -1.086   3.243   4.103  1.00  0.00    -0.550 OA
ATOM      8  O   UNL     1      -0.006   2.566   6.006  1.00  0.00    -0.550 OA
ENDBRANCH   5   6
ENDBRANCH   1   5
TORSDOF 3
ENDMDL
MODEL 3
REMARK VINA RESULT:    -3.362     11.354     12.169
REMARK INTER + INTRA:          -4.083
REMARK INTER:                  -4.042
REMARK INTRA:                  -0.041
REMARK UNBOUND:                -0.131
REMARK SMILES O=C([O-])CCC(=O)[O-]
REMARK SMILES IDX 4 1 2 2 1 3 3 4 5 5 6 6 7 7 8 8
REMARK H PARENT
REMARK Flexibility Score: inf
ROOT
ATOM      1  C   UNL     1      -4.876   7.221  -4.383  1.00  0.00     0.059 C 
ENDROOT
BRANCH   1   2
ATOM      2  C   UNL     1      -4.003   8.242  -5.045  1.00  0.00     0.042 C 
ATOM      3  O   UNL     1      -3.447   9.141  -4.361  1.00  0.00    -0.550 OA
ATOM      4  O   UNL     1      -3.837   8.224  -6.424  1.00  0.00    -0.550 OA
ENDBRANCH   1   2
BRANCH   1   5
ATOM      5  C   UNL     1      -6.255   7.140  -5.047  1.00  0.00     0.059 C 
BRANCH   5   6
ATOM      6  C   UNL     1      -7.352   7.472  -4.083  1.00  0.00     0.042 C 
ATOM      7  O   UNL     1      -7.490   6.802  -3.025  1.00  0.00    -0.550 OA
ATOM      8  O   UNL     1      -8.197   8.545  -4.333  1.00  0.00    -0.550 OA
ENDBRANCH   5   6
ENDBRANCH   1   5
TORSDOF 3
ENDMDL
MODEL 4
REMARK VINA RESULT:    -3.348      1.168      1.398
REMARK INTER + INTRA:          -4.067
REMARK INTER:                  -3.969
REMARK INTRA:                  -0.098
REMARK UNBOUND:                -0.131
REMARK SMILES O=C([O-])CCC(=O)[O-]
REMARK SMILES IDX 4 1 2 2 1 3 3 4 5 5 6 6 7 7 8 8
REMARK H PARENT
REMARK Flexibility Score: inf
ROOT
ATOM      1  C   UNL     1      -1.683   4.243   6.213  1.00  0.00     0.059 C 
ENDROOT
BRANCH   1   2
ATOM      2  C   UNL     1      -0.962   3.257   5.345  1.00  0.00     0.042 C 
ATOM      3  O   UNL     1      -1.140   3.261   4.098  1.00  0.00    -0.550 OA
ATOM      4  O   UNL     1      -0.126   2.307   5.918  1.00  0.00    -0.550 OA
ENDBRANCH   1   2
BRANCH   1   5
ATOM      5  C   UNL     1      -2.791   3.571   7.031  1.00  0.00     0.059 C 
BRANCH   5   6
ATOM      6  C   UNL     1      -3.983   3.247   6.184  1.00  0.00     0.042 C 
ATOM      7  O   UNL     1      -4.888   4.104   6.010  1.00  0.00    -0.550 OA
ATOM      8  O   UNL     1      -4.074   2.012   5.554  1.00  0.00    -0.550 OA
ENDBRANCH   5   6
ENDBRANCH   1   5
TORSDOF 3
ENDMDL
MODEL 5
REMARK VINA RESULT:    -3.307     11.980     12.415
REMARK INTER + INTRA:          -4.019
REMARK INTER:                  -3.936
REMARK INTRA:                  -0.083
REMARK UNBOUND:                -0.131
REMARK SMILES O=C([O-])CCC(=O)[O-]
REMARK SMILES IDX 4 1 2 2 1 3 3 4 5 5 6 6 7 7 8 8
REMARK H PARENT
REMARK Flexibility Score: inf
ROOT
ATOM      1  C   UNL     1      -2.438  -4.188  -5.151  1.00  0.00     0.059 C 
ENDROOT
BRANCH   1   2
ATOM      2  C   UNL     1      -1.421  -3.257  -4.568  1.00  0.00     0.042 C 
ATOM      3  O   UNL     1      -1.197  -2.142  -5.110  1.00  0.00    -0.550 OA
ATOM      4  O   UNL     1      -0.689  -3.638  -3.450  1.00  0.00    -0.550 OA
ENDBRANCH   1   2
BRANCH   1   5
ATOM      5  C   UNL     1      -2.814  -5.301  -4.168  1.00  0.00     0.059 C 
BRANCH   5   6
ATOM      6  C   UNL     1      -4.224  -5.157  -3.683  1.00  0.00     0.042 C 
ATOM      7  O   UNL     1      -4.911  -4.157  -4.022  1.00  0.00    -0.550 OA
ATOM      8  O   UNL     1      -4.792  -6.145  -2.889  1.00  0.00    -0.550 OA
ENDBRANCH   5   6
ENDBRANCH   1   5
TORSDOF 3
ENDMDL
MODEL 6
REMARK VINA RESULT:    -3.225      2.060      4.185
REMARK INTER + INTRA:          -3.922
REMARK INTER:                  -3.804
REMARK INTRA:                  -0.118
REMARK UNBOUND:                -0.131
REMARK SMILES O=C([O-])CCC(=O)[O-]
REMARK SMILES IDX 4 1 2 2 1 3 3 4 5 5 6 6 7 7 8 8
REMARK H PARENT
REMARK Flexibility Score: inf
ROOT
ATOM      1  C   UNL     1      -0.885   2.975   6.646  1.00  0.00     0.059 C 
ENDROOT
BRANCH   1   2
ATOM      2  C   UNL     1      -1.658   2.766   5.381  1.00  0.00     0.042 C 
ATOM      3  O   UNL     1      -2.732   2.109   5.395  1.00  0.00    -0.550 OA
ATOM      4  O   UNL     1      -1.169   3.260   4.178  1.00  0.00    -0.550 OA
ENDBRANCH   1   2
BRANCH   1   5
ATOM      5  C   UNL     1       0.434   2.195   6.639  1.00  0.00     0.059 C 
BRANCH   5   6
ATOM      6  C   UNL     1       1.617   3.110   6.707  1.00  0.00     0.042 C 
ATOM      7  O   UNL     1       2.678   2.733   7.271  1.00  0.00    -0.550 OA
ATOM      8  O   UNL     1       1.562   4.365   6.114  1.00  0.00    -0.550 OA
ENDBRANCH   5   6
ENDBRANCH   1   5
TORSDOF 3
ENDMDL
MODEL 7
REMARK VINA RESULT:    -3.221     11.956     12.841
REMARK INTER + INTRA:          -3.917
REMARK INTER:                  -3.852
REMARK INTRA:                  -0.064
REMARK UNBOUND:                -0.131
REMARK SMILES O=C([O-])CCC(=O)[O-]
REMARK SMILES IDX 4 1 2 2 1 3 3 4 5 5 6 6 7 7 8 8
REMARK H PARENT
REMARK Flexibility Score: inf
ROOT
ATOM      1  C   UNL     1      -2.988  -4.739  -4.655  1.00  0.00     0.059 C 
ENDROOT
BRANCH   1   2
ATOM      2  C   UNL     1      -4.381  -4.533  -4.146  1.00  0.00     0.042 C 
ATOM      3  O   UNL     1      -4.887  -5.352  -3.334  1.00  0.00    -0.550 OA
ATOM      4  O   UNL     1      -5.136  -3.459  -4.600  1.00  0.00    -0.550 OA
ENDBRANCH   1   2
BRANCH   1   5
ATOM      5  C   UNL     1      -2.409  -3.452  -5.253  1.00  0.00     0.059 C 
BRANCH   5   6
ATOM      6  C   UNL     1      -1.103  -3.087  -4.617  1.00  0.00     0.042 C 
ATOM      7  O   UNL     1      -0.351  -2.235  -5.159  1.00  0.00    -0.550 OA
ATOM      8  O   UNL     1      -0.735  -3.658  -3.405  1.00  0.00    -0.550 OA
ENDBRANCH   5   6
ENDBRANCH   1   5
TORSDOF 3
ENDMDL
MODEL 8
REMARK VINA RESULT:    -3.177     11.977     12.492
REMARK INTER + INTRA:          -3.866
REMARK INTER:                  -3.808
REMARK INTRA:                  -0.058
REMARK UNBOUND:                -0.131
REMARK SMILES O=C([O-])CCC(=O)[O-]
REMARK SMILES IDX 4 1 2 2 1 3 3 4 5 5 6 6 7 7 8 8
REMARK H PARENT
REMARK Flexibility Score: inf
ROOT
ATOM      1  C   UNL     1      -2.054  -3.327  -5.588  1.00  0.00     0.059 C 
ENDROOT
BRANCH   1   2
ATOM      2  C   UNL     1      -1.543  -3.887  -4.296  1.00  0.00     0.042 C 
ATOM      3  O   UNL     1      -2.138  -4.850  -3.743  1.00  0.00    -0.550 OA
ATOM      4  O   UNL     1      -0.435  -3.319  -3.682  1.00  0.00    -0.550 OA
ENDBRANCH   1   2
BRANCH   1   5
ATOM      5  C   UNL     1      -1.903  -1.804  -5.642  1.00  0.00     0.059 C 
BRANCH   5   6
ATOM      6  C   UNL     1      -3.234  -1.117  -5.664  1.00  0.00     0.042 C 
ATOM      7  O   UNL     1      -3.334   0.081  -5.291  1.00  0.00    -0.550 OA
ATOM      8  O   UNL     1      -4.355  -1.787  -6.135  1.00  0.00    -0.550 OA
ENDBRANCH   5   6
ENDBRANCH   1   5
TORSDOF 3
ENDMDL
MODEL 9
REMARK VINA RESULT:    -3.145     12.256     12.932
REMARK INTER + INTRA:          -3.827
REMARK INTER:                  -3.713
REMARK INTRA:                  -0.114
REMARK UNBOUND:                -0.131
REMARK SMILES O=C([O-])CCC(=O)[O-]
REMARK SMILES IDX 4 1 2 2 1 3 3 4 5 5 6 6 7 7 8 8
REMARK H PARENT
REMARK Flexibility Score: inf
ROOT
ATOM      1  C   UNL     1      -4.451  -3.751  -4.884  1.00  0.00     0.059 C 
ENDROOT
BRANCH   1   2
ATOM      2  C   UNL     1      -3.952  -4.890  -4.049  1.00  0.00     0.042 C 
ATOM      3  O   UNL     1      -2.850  -5.437  -4.317  1.00  0.00    -0.550 OA
ATOM      4  O   UNL     1      -4.725  -5.373  -3.001  1.00  0.00    -0.550 OA
ENDBRANCH   1   2
BRANCH   1   5
ATOM      5  C   UNL     1      -3.417  -3.322  -5.930  1.00  0.00     0.059 C 
BRANCH   5   6
ATOM      6  C   UNL     1      -2.683  -2.086  -5.506  1.00  0.00     0.042 C 
ATOM      7  O   UNL     1      -3.226  -0.956  -5.622  1.00  0.00    -0.550 OA
ATOM      8  O   UNL     1      -1.416  -2.187  -4.946  1.00  0.00    -0.550 OA
ENDBRANCH   5   6
ENDBRANCH   1   5
TORSDOF 3
ENDMDL
