MODEL 1
REMARK VINA RESULT:    -4.818      0.000      0.000
REMARK INTER + INTRA:          -8.340
REMARK INTER:                  -7.634
REMARK INTRA:                  -0.706
REMARK UNBOUND:                -0.706
REMARK SMILES CCCCCCCCCCCC(=O)[O-]
REMARK SMILES IDX 7 1 8 2 9 3 10 4 11 5 12 6 13 7 14 8 6 9 5 10 4 11 3 12 2 13
REMARK SMILES IDX 1 14
REMARK H PARENT
REMARK Flexibility Score: inf
ROOT
ATOM      1  C   UNL     1      12.166  29.592  61.880  1.00  0.00     0.000 C 
ENDROOT
BRANCH   1   2
ATOM      2  C   UNL     1      11.971  28.736  60.619  1.00  0.00     0.000 C 
BRANCH   2   3
ATOM      3  C   UNL     1      11.110  29.438  59.554  1.00  0.00     0.000 C 
BRANCH   3   4
ATOM      4  C   UNL     1       9.639  28.974  59.587  1.00  0.00     0.006 C 
BRANCH   4   5
ATOM      5  C   UNL     1       8.638  30.122  59.787  1.00  0.00     0.053 C 
BRANCH   5   6
ATOM      6  C   UNL     1       7.926  30.036  61.100  1.00  0.00     0.041 C 
ATOM      7  O   UNL     1       6.760  30.498  61.222  1.00  0.00    -0.550 OA
ATOM      8  O   UNL     1       8.556  29.465  62.198  1.00  0.00    -0.550 OA
ENDBRANCH   5   6
ENDBRANCH   4   5
ENDBRANCH   3   4
ENDBRANCH   2   3
ENDBRANCH   1   2
BRANCH   1   9
ATOM      9  C   UNL     1      13.635  29.992  62.106  1.00  0.00     0.000 C 
BRANCH   9  10
ATOM     10  C   UNL     1      14.419  30.096  60.780  1.00  0.00    -0.000 C 
BRANCH  10  11
ATOM     11  C   UNL     1      15.900  29.703  60.906  1.00  0.00    -0.000 C 
BRANCH  11  12
ATOM     12  C   UNL     1      16.404  29.728  62.357  1.00  0.00    -0.000 C 
BRANCH  12  13
ATOM     13  C   UNL     1      16.848  28.341  62.849  1.00  0.00    -0.003 C 
ATOM     14  C   UNL     1      15.936  27.780  63.940  1.00  0.00     0.004 C 
ENDBRANCH  12  13
ENDBRANCH  11  12
ENDBRANCH  10  11
ENDBRANCH   9  10
ENDBRANCH   1   9
TORSDOF 10
ENDMDL
MODEL 2
REMARK VINA RESULT:    -4.808      3.853      7.045
REMARK INTER + INTRA:          -8.324
REMARK INTER:                  -7.740
REMARK INTRA:                  -0.584
REMARK UNBOUND:                -0.706
REMARK SMILES CCCCCCCCCCCC(=O)[O-]
REMARK SMILES IDX 7 1 8 2 9 3 10 4 11 5 12 6 13 7 14 8 6 9 5 10 4 11 3 12 2 13
REMARK SMILES IDX 1 14
REMARK H PARENT
REMARK Flexibility Score: inf
ROOT
ATOM      1  C   UNL     1      12.013  28.411  60.407  1.00  0.00     0.000 C 
ENDROOT
BRANCH   1   2
ATOM      2  C   UNL     1      12.928  28.519  61.637  1.00  0.00     0.000 C 
BRANCH   2   3
ATOM      3  C   UNL     1      13.657  29.872  61.716  1.00  0.00     0.000 C 
BRANCH   3   4
ATOM      4  C   UNL     1      15.043  29.755  62.381  1.00  0.00     0.006 C 
BRANCH   4   5
ATOM      5  C   UNL     1      15.101  28.701  63.498  1.00  0.00     0.053 C 
BRANCH   5   6
ATOM      6  C   UNL     1      16.381  27.925  63.484  1.00  0.00     0.041 C 
ATOM      7  O   UNL     1      16.612  27.067  64.377  1.00  0.00    -0.550 OA
ATOM      8  O   UNL     1      17.330  28.165  62.499  1.00  0.00    -0.550 OA
ENDBRANCH   5   6
ENDBRANCH   4   5
ENDBRANCH   3   4
ENDBRANCH   2   3
ENDBRANCH   1   2
BRANCH   1   9
ATOM      9  C   UNL     1      11.900  29.735  59.631  1.00  0.00     0.000 C 
BRANCH   9  10
ATOM     10  C   UNL     1      10.432  30.169  59.433  1.00  0.00    -0.000 C 
BRANCH  10  11
ATOM     11  C   UNL     1       9.493  29.014  59.050  1.00  0.00    -0.000 C 
BRANCH  11  12
ATOM     12  C   UNL     1       8.627  28.533  60.225  1.00  0.00    -0.000 C 
BRANCH  12  13
ATOM     13  C   UNL     1       8.475  29.602  61.319  1.00  0.00    -0.003 C 
ATOM     14  C   UNL     1       7.126  30.319  61.264  1.00  0.00     0.004 C 
ENDBRANCH  12  13
ENDBRANCH  11  12
ENDBRANCH  10  11
ENDBRANCH   9  10
ENDBRANCH   1   9
TORSDOF 10
ENDMDL
MODEL 3
REMARK VINA RESULT:    -4.776      1.340      2.729
REMARK INTER + INTRA:          -8.274
REMARK INTER:                  -7.411
REMARK INTRA:                  -0.863
REMARK UNBOUND:                -0.706
REMARK SMILES CCCCCCCCCCCC(=O)[O-]
REMARK SMILES IDX 7 1 8 2 9 3 10 4 11 5 12 6 13 7 14 8 6 9 5 10 4 11 3 12 2 13
REMARK SMILES IDX 1 14
REMARK H PARENT
REMARK Flexibility Score: inf
ROOT
ATOM      1  C   UNL     1      14.793  29.799  60.724  1.00  0.00     0.000 C 
ENDROOT
BRANCH   1   2
ATOM      2  C   UNL     1      13.681  30.364  61.623  1.00  0.00     0.000 C 
BRANCH   2   3
ATOM      3  C   UNL     1      12.536  29.361  61.848  1.00  0.00     0.000 C 
BRANCH   3   4
ATOM      4  C   UNL     1      12.083  28.681  60.540  1.00  0.00     0.006 C 
BRANCH   4   5
ATOM      5  C   UNL     1      11.332  29.623  59.586  1.00  0.00     0.053 C 
BRANCH   5   6
ATOM      6  C   UNL     1       9.856  29.625  59.833  1.00  0.00     0.041 C 
ATOM      7  O   UNL     1       9.308  28.649  60.410  1.00  0.00    -0.550 OA
ATOM      8  O   UNL     1       9.080  30.694  59.404  1.00  0.00    -0.550 OA
ENDBRANCH   5   6
ENDBRANCH   4   5
ENDBRANCH   3   4
ENDBRANCH   2   3
ENDBRANCH   1   2
BRANCH   1   9
ATOM      9  C   UNL     1      16.030  29.348  61.521  1.00  0.00     0.000 C 
BRANCH   9  10
ATOM     10  C   UNL     1      16.130  30.057  62.888  1.00  0.00    -0.000 C 
BRANCH  10  11
ATOM     11  C   UNL     1      15.914  29.119  64.088  1.00  0.00    -0.000 C 
BRANCH  11  12
ATOM     12  C   UNL     1      15.824  27.639  63.681  1.00  0.00    -0.000 C 
BRANCH  12  13
ATOM     13  C   UNL     1      16.947  26.791  64.298  1.00  0.00    -0.003 C 
ATOM     14  C   UNL     1      18.044  26.438  63.293  1.00  0.00     0.004 C 
ENDBRANCH  12  13
ENDBRANCH  11  12
ENDBRANCH  10  11
ENDBRANCH   9  10
ENDBRANCH   1   9
TORSDOF 10
ENDMDL
MODEL 4
REMARK VINA RESULT:    -4.754      1.150      1.740
REMARK INTER + INTRA:          -8.238
REMARK INTER:                  -7.765
REMARK INTRA:                  -0.474
REMARK UNBOUND:                -0.706
REMARK SMILES CCCCCCCCCCCC(=O)[O-]
REMARK SMILES IDX 7 1 8 2 9 3 10 4 11 5 12 6 13 7 14 8 6 9 5 10 4 11 3 12 2 13
REMARK SMILES IDX 1 14
REMARK H PARENT
REMARK Flexibility Score: inf
ROOT
ATOM      1  C   UNL     1      13.833  30.161  59.713  1.00  0.00     0.000 C 
ENDROOT
BRANCH   1   2
ATOM      2  C   UNL     1      12.398  29.615  59.657  1.00  0.00     0.000 C 
BRANCH   2   3
ATOM      3  C   UNL     1      11.475  30.466  58.767  1.00  0.00     0.000 C 
BRANCH   3   4
ATOM      4  C   UNL     1       9.997  30.040  58.875  1.00  0.00     0.006 C 
BRANCH   4   5
ATOM      5  C   UNL     1       9.736  28.999  59.975  1.00  0.00     0.053 C 
BRANCH   5   6
ATOM      6  C   UNL     1       8.980  29.570  61.133  1.00  0.00     0.041 C 
ATOM      7  O   UNL     1       9.535  29.682  62.259  1.00  0.00    -0.550 OA
ATOM      8  O   UNL     1       7.656  29.959  60.978  1.00  0.00    -0.550 OA
ENDBRANCH   5   6
ENDBRANCH   4   5
ENDBRANCH   3   4
ENDBRANCH   2   3
ENDBRANCH   1   2
BRANCH   1   9
ATOM      9  C   UNL     1      14.534  29.857  61.049  1.00  0.00     0.000 C 
BRANCH   9  10
ATOM     10  C   UNL     1      16.068  29.788  60.898  1.00  0.00    -0.000 C 
BRANCH  10  11
ATOM     11  C   UNL     1      16.778  29.139  62.098  1.00  0.00    -0.000 C 
BRANCH  11  12
ATOM     12  C   UNL     1      15.966  29.241  63.399  1.00  0.00    -0.000 C 
BRANCH  12  13
ATOM     13  C   UNL     1      15.543  27.865  63.936  1.00  0.00    -0.003 C 
ATOM     14  C   UNL     1      16.733  26.958  64.249  1.00  0.00     0.004 C 
ENDBRANCH  12  13
ENDBRANCH  11  12
ENDBRANCH  10  11
ENDBRANCH   9  10
ENDBRANCH   1   9
TORSDOF 10
ENDMDL
MODEL 5
REMARK VINA RESULT:    -4.714      3.096      6.822
REMARK INTER + INTRA:          -8.176
REMARK INTER:                  -7.429
REMARK INTRA:                  -0.746
REMARK UNBOUND:                -0.706
REMARK SMILES CCCCCCCCCCCC(=O)[O-]
REMARK SMILES IDX 7 1 8 2 9 3 10 4 11 5 12 6 13 7 14 8 6 9 5 10 4 11 3 12 2 13
REMARK SMILES IDX 1 14
REMARK H PARENT
REMARK Flexibility Score: inf
ROOT
ATOM      1  C   UNL     1      13.548  30.195  61.590  1.00  0.00     0.000 C 
ENDROOT
BRANCH   1   2
ATOM      2  C   UNL     1      14.450  29.883  60.385  1.00  0.00     0.000 C 
BRANCH   2   3
ATOM      3  C   UNL     1      15.946  29.925  60.740  1.00  0.00     0.000 C 
BRANCH   3   4
ATOM      4  C   UNL     1      16.198  29.765  62.253  1.00  0.00     0.006 C 
BRANCH   4   5
ATOM      5  C   UNL     1      16.889  28.443  62.624  1.00  0.00     0.053 C 
BRANCH   5   6
ATOM      6  C   UNL     1      16.214  27.747  63.764  1.00  0.00     0.041 C 
ATOM      7  O   UNL     1      15.035  28.052  64.084  1.00  0.00    -0.550 OA
ATOM      8  O   UNL     1      16.894  26.777  64.488  1.00  0.00    -0.550 OA
ENDBRANCH   5   6
ENDBRANCH   4   5
ENDBRANCH   3   4
ENDBRANCH   2   3
ENDBRANCH   1   2
BRANCH   1   9
ATOM      9  C   UNL     1      12.498  29.098  61.847  1.00  0.00     0.000 C 
BRANCH   9  10
ATOM     10  C   UNL     1      12.112  28.351  60.553  1.00  0.00    -0.000 C 
BRANCH  10  11
ATOM     11  C   UNL     1      10.903  28.962  59.824  1.00  0.00    -0.000 C 
BRANCH  11  12
ATOM     12  C   UNL     1       9.970  29.742  60.764  1.00  0.00    -0.000 C 
BRANCH  12  13
ATOM     13  C   UNL     1       8.509  29.723  60.291  1.00  0.00    -0.003 C 
ATOM     14  C   UNL     1       7.514  29.971  61.425  1.00  0.00     0.004 C 
ENDBRANCH  12  13
ENDBRANCH  11  12
ENDBRANCH  10  11
ENDBRANCH   9  10
ENDBRANCH   1   9
TORSDOF 10
ENDMDL
MODEL 6
REMARK VINA RESULT:    -4.570      3.239      6.598
REMARK INTER + INTRA:          -7.948
REMARK INTER:                  -6.880
REMARK INTRA:                  -1.068
REMARK UNBOUND:                -0.706
REMARK SMILES CCCCCCCCCCCC(=O)[O-]
REMARK SMILES IDX 7 1 8 2 9 3 10 4 11 5 12 6 13 7 14 8 6 9 5 10 4 11 3 12 2 13
REMARK SMILES IDX 1 14
REMARK H PARENT
REMARK Flexibility Score: inf
ROOT
ATOM      1  C   UNL     1      15.286  29.699  59.957  1.00  0.00     0.000 C 
ENDROOT
BRANCH   1   2
ATOM      2  C   UNL     1      16.569  30.503  60.222  1.00  0.00     0.000 C 
BRANCH   2   3
ATOM      3  C   UNL     1      17.092  30.328  61.658  1.00  0.00     0.000 C 
BRANCH   3   4
ATOM      4  C   UNL     1      16.848  28.906  62.203  1.00  0.00     0.006 C 
BRANCH   4   5
ATOM      5  C   UNL     1      16.125  28.884  63.560  1.00  0.00     0.053 C 
BRANCH   5   6
ATOM      6  C   UNL     1      15.874  27.492  64.050  1.00  0.00     0.041 C 
ATOM      7  O   UNL     1      16.841  26.737  64.335  1.00  0.00    -0.550 OA
ATOM      8  O   UNL     1      14.574  27.020  64.171  1.00  0.00    -0.550 OA
ENDBRANCH   5   6
ENDBRANCH   4   5
ENDBRANCH   3   4
ENDBRANCH   2   3
ENDBRANCH   1   2
BRANCH   1   9
ATOM      9  C   UNL     1      14.008  30.510  60.236  1.00  0.00     0.000 C 
BRANCH   9  10
ATOM     10  C   UNL     1      13.353  30.119  61.578  1.00  0.00    -0.000 C 
BRANCH  10  11
ATOM     11  C   UNL     1      12.747  28.706  61.581  1.00  0.00    -0.000 C 
BRANCH  11  12
ATOM     12  C   UNL     1      11.847  28.438  60.364  1.00  0.00    -0.000 C 
BRANCH  12  13
ATOM     13  C   UNL     1      10.519  29.207  60.436  1.00  0.00    -0.003 C 
ATOM     14  C   UNL     1      10.265  30.069  59.199  1.00  0.00     0.004 C 
ENDBRANCH  12  13
ENDBRANCH  11  12
ENDBRANCH  10  11
ENDBRANCH   9  10
ENDBRANCH   1   9
TORSDOF 10
ENDMDL
MODEL 7
REMARK VINA RESULT:    -4.570      3.122      5.968
REMARK INTER + INTRA:          -7.947
REMARK INTER:                  -7.026
REMARK INTRA:                  -0.920
REMARK UNBOUND:                -0.706
REMARK SMILES CCCCCCCCCCCC(=O)[O-]
REMARK SMILES IDX 7 1 8 2 9 3 10 4 11 5 12 6 13 7 14 8 6 9 5 10 4 11 3 12 2 13
REMARK SMILES IDX 1 14
REMARK H PARENT
REMARK Flexibility Score: inf
ROOT
ATOM      1  C   UNL     1      14.524  28.453  62.620  1.00  0.00     0.000 C 
ENDROOT
BRANCH   1   2
ATOM      2  C   UNL     1      14.908  29.798  61.983  1.00  0.00     0.000 C 
BRANCH   2   3
ATOM      3  C   UNL     1      16.084  29.672  60.999  1.00  0.00     0.000 C 
BRANCH   3   4
ATOM      4  C   UNL     1      15.862  30.487  59.709  1.00  0.00     0.006 C 
BRANCH   4   5
ATOM      5  C   UNL     1      14.556  30.136  58.978  1.00  0.00     0.053 C 
BRANCH   5   6
ATOM      6  C   UNL     1      14.088  31.240  58.083  1.00  0.00     0.041 C 
ATOM      7  O   UNL     1      13.912  32.399  58.545  1.00  0.00    -0.550 OA
ATOM      8  O   UNL     1      13.825  30.987  56.743  1.00  0.00    -0.550 OA
ENDBRANCH   5   6
ENDBRANCH   4   5
ENDBRANCH   3   4
ENDBRANCH   2   3
ENDBRANCH   1   2
BRANCH   1   9
ATOM      9  C   UNL     1      13.141  27.953  62.164  1.00  0.00     0.000 C 
BRANCH   9  10
ATOM     10  C   UNL     1      12.278  29.089  61.575  1.00  0.00    -0.000 C 
BRANCH  10  11
ATOM     11  C   UNL     1      11.376  28.640  60.413  1.00  0.00    -0.000 C 
BRANCH  11  12
ATOM     12  C   UNL     1      10.884  29.813  59.550  1.00  0.00    -0.000 C 
BRANCH  12  13
ATOM     13  C   UNL     1       9.352  29.927  59.532  1.00  0.00    -0.003 C 
ATOM     14  C   UNL     1       8.685  29.139  60.659  1.00  0.00     0.004 C 
ENDBRANCH  12  13
ENDBRANCH  11  12
ENDBRANCH  10  11
ENDBRANCH   9  10
ENDBRANCH   1   9
TORSDOF 10
ENDMDL
MODEL 8
REMARK VINA RESULT:    -4.567      1.495      3.009
REMARK INTER + INTRA:          -7.943
REMARK INTER:                  -7.025
REMARK INTRA:                  -0.918
REMARK UNBOUND:                -0.706
REMARK SMILES CCCCCCCCCCCC(=O)[O-]
REMARK SMILES IDX 7 1 8 2 9 3 10 4 11 5 12 6 13 7 14 8 6 9 5 10 4 11 3 12 2 13
REMARK SMILES IDX 1 14
REMARK H PARENT
REMARK Flexibility Score: inf
ROOT
ATOM      1  C   UNL     1      12.079  29.752  61.957  1.00  0.00     0.000 C 
ENDROOT
BRANCH   1   2
ATOM      2  C   UNL     1      11.721  28.944  60.699  1.00  0.00     0.000 C 
BRANCH   2   3
ATOM      3  C   UNL     1      11.317  29.841  59.515  1.00  0.00     0.000 C 
BRANCH   3   4
ATOM      4  C   UNL     1       9.794  30.076  59.449  1.00  0.00     0.006 C 
BRANCH   4   5
ATOM      5  C   UNL     1       8.975  29.016  60.205  1.00  0.00     0.053 C 
BRANCH   5   6
ATOM      6  C   UNL     1       8.203  29.600  61.346  1.00  0.00     0.041 C 
ATOM      7  O   UNL     1       8.613  29.456  62.528  1.00  0.00    -0.550 OA
ATOM      8  O   UNL     1       7.018  30.283  61.107  1.00  0.00    -0.550 OA
ENDBRANCH   5   6
ENDBRANCH   4   5
ENDBRANCH   3   4
ENDBRANCH   2   3
ENDBRANCH   1   2
BRANCH   1   9
ATOM      9  C   UNL     1      13.485  30.373  61.885  1.00  0.00     0.000 C 
BRANCH   9  10
ATOM     10  C   UNL     1      14.506  29.424  61.222  1.00  0.00    -0.000 C 
BRANCH  10  11
ATOM     11  C   UNL     1      15.475  30.133  60.261  1.00  0.00    -0.000 C 
BRANCH  11  12
ATOM     12  C   UNL     1      14.923  30.248  58.832  1.00  0.00    -0.000 C 
BRANCH  12  13
ATOM     13  C   UNL     1      14.264  31.610  58.564  1.00  0.00    -0.003 C 
ATOM     14  C   UNL     1      15.203  32.597  57.871  1.00  0.00     0.004 C 
ENDBRANCH  12  13
ENDBRANCH  11  12
ENDBRANCH  10  11
ENDBRANCH   9  10
ENDBRANCH   1   9
TORSDOF 10
ENDMDL
MODEL 9
REMARK VINA RESULT:    -4.514      3.601      4.528
REMARK INTER + INTRA:          -7.858
REMARK INTER:                  -6.819
REMARK INTRA:                  -1.039
REMARK UNBOUND:                -0.706
REMARK SMILES CCCCCCCCCCCC(=O)[O-]
REMARK SMILES IDX 7 1 8 2 9 3 10 4 11 5 12 6 13 7 14 8 6 9 5 10 4 11 3 12 2 13
REMARK SMILES IDX 1 14
REMARK H PARENT
REMARK Flexibility Score: inf
ROOT
ATOM      1  C   UNL     1      11.534  29.005  60.587  1.00  0.00     0.000 C 
ENDROOT
BRANCH   1   2
ATOM      2  C   UNL     1      10.579  29.672  59.584  1.00  0.00     0.000 C 
BRANCH   2   3
ATOM      3  C   UNL     1      11.321  30.517  58.533  1.00  0.00     0.000 C 
BRANCH   3   4
ATOM      4  C   UNL     1      12.853  30.409  58.667  1.00  0.00     0.006 C 
BRANCH   4   5
ATOM      5  C   UNL     1      13.541  31.754  58.950  1.00  0.00     0.053 C 
BRANCH   5   6
ATOM      6  C   UNL     1      14.821  31.911  58.192  1.00  0.00     0.041 C 
ATOM      7  O   UNL     1      15.211  33.055  57.836  1.00  0.00    -0.550 OA
ATOM      8  O   UNL     1      15.575  30.794  57.858  1.00  0.00    -0.550 OA
ENDBRANCH   5   6
ENDBRANCH   4   5
ENDBRANCH   3   4
ENDBRANCH   2   3
ENDBRANCH   1   2
BRANCH   1   9
ATOM      9  C   UNL     1      11.556  29.719  61.951  1.00  0.00     0.000 C 
BRANCH   9  10
ATOM     10  C   UNL     1      12.982  30.151  62.356  1.00  0.00    -0.000 C 
BRANCH  10  11
ATOM     11  C   UNL     1      14.064  29.116  62.007  1.00  0.00    -0.000 C 
BRANCH  11  12
ATOM     12  C   UNL     1      15.411  29.759  61.643  1.00  0.00    -0.000 C 
BRANCH  12  13
ATOM     13  C   UNL     1      16.364  29.847  62.846  1.00  0.00    -0.003 C 
ATOM     14  C   UNL     1      16.009  28.858  63.957  1.00  0.00     0.004 C 
ENDBRANCH  12  13
ENDBRANCH  11  12
ENDBRANCH  10  11
ENDBRANCH   9  10
ENDBRANCH   1   9
TORSDOF 10
ENDMDL
