MODEL 1
REMARK VINA RESULT:    -5.146      0.000      0.000
REMARK INTER + INTRA:          -6.880
REMARK INTER:                  -7.251
REMARK INTRA:                   0.371
REMARK UNBOUND:                 0.371
REMARK SMILES CC1=CCC(=C(C)C)C(=O)CC(C)=CCC1
REMARK SMILES IDX 12 1 14 2 13 3 15 4 16 5 2 6 1 7 3 8 11 10 9 11 10 12 5 13
REMARK SMILES IDX 6 14 7 15 8 16 4 17
REMARK H PARENT
REMARK Flexibility Score: 60.00
ROOT
ATOM      1  C   UNL     1     117.457 175.737 129.776  1.00  0.00    -0.070 C 
ATOM      2  C   UNL     1     116.318 175.681 129.044  1.00  0.00    -0.027 C 
ATOM      3  C   UNL     1     117.521 174.898 131.028  1.00  0.00     0.039 C 
ENDROOT
BRANCH   2   4
ATOM      4  C   UNL     1     115.999 176.510 127.823  1.00  0.00     0.032 C 
BRANCH   4   5
ATOM      5  C   UNL     1     116.424 175.820 126.512  1.00  0.00     0.034 C 
BRANCH   5   6
ATOM      6  C   UNL     1     117.251 176.735 125.629  1.00  0.00    -0.077 C 
ATOM      7  C   UNL     1     116.544 177.836 124.879  1.00  0.00     0.039 C 
ATOM      8  C   UNL     1     118.592 176.635 125.491  1.00  0.00    -0.023 CG0
ATOM      9  G   UNL     1     119.477 175.625 126.183  1.00  0.00     0.000 G0
ENDBRANCH   5   6
ENDBRANCH   4   5
ENDBRANCH   2   4
BRANCH   1  10
ATOM     10  C   UNL     1     118.632 176.640 129.441  1.00  0.00     0.111 C 
BRANCH  10  11
ATOM     11  C   UNL     1     119.732 175.883 128.739  1.00  0.00     0.163 C 
ATOM     12  O   UNL     1     120.222 174.875 129.318  1.00  0.00    -0.294 OA
BRANCH  11  13
ATOM     13  C   UNL     1     120.208 176.263 127.372  1.00  0.00    -0.002 C 
ATOM     14  C   UNL     1     121.197 177.189 127.186  1.00  0.00    -0.069 C 
ATOM     15  C   UNL     1     121.699 177.539 125.803  1.00  0.00     0.039 C 
ATOM     16  C   UNL     1     121.813 177.934 128.349  1.00  0.00     0.039 C 
BRANCH  13  17
ATOM     17  C   UNL     1     119.492 175.630 126.192  1.00  0.00     0.066 CG0
ATOM     18  G   UNL     1     118.612 176.654 125.518  1.00  0.00     0.000 G0
ENDBRANCH  13  17
ENDBRANCH  11  13
ENDBRANCH  10  11
ENDBRANCH   1  10
TORSDOF 0
ENDMDL
MODEL 2
REMARK VINA RESULT:    -4.800      2.027      4.615
REMARK INTER + INTRA:          -6.393
REMARK INTER:                  -6.783
REMARK INTRA:                   0.391
REMARK UNBOUND:                 0.371
REMARK SMILES CC1=CCC(=C(C)C)C(=O)CC(C)=CCC1
REMARK SMILES IDX 12 1 14 2 13 3 15 4 16 5 2 6 1 7 3 8 11 10 9 11 10 12 5 13
REMARK SMILES IDX 6 14 7 15 8 16 4 17
REMARK H PARENT
REMARK Flexibility Score: 60.00
ROOT
ATOM      1  C   UNL     1     116.925 177.273 125.021  1.00  0.00    -0.070 C 
ATOM      2  C   UNL     1     117.808 178.045 124.343  1.00  0.00    -0.027 C 
ATOM      3  C   UNL     1     115.461 177.447 124.701  1.00  0.00     0.039 C 
ENDROOT
BRANCH   2   4
ATOM      4  C   UNL     1     119.298 178.111 124.574  1.00  0.00     0.032 C 
BRANCH   4   5
ATOM      5  C   UNL     1     119.664 178.868 125.866  1.00  0.00     0.034 C 
BRANCH   5   6
ATOM      6  C   UNL     1     120.589 178.061 126.758  1.00  0.00    -0.077 C 
ATOM      7  C   UNL     1     121.954 177.697 126.230  1.00  0.00     0.039 C 
ATOM      8  C   UNL     1     120.269 177.668 128.011  1.00  0.00    -0.023 CG0
ATOM      9  G   UNL     1     118.972 177.963 128.724  1.00  0.00     0.000 G0
ENDBRANCH   5   6
ENDBRANCH   4   5
ENDBRANCH   2   4
BRANCH   1  10
ATOM     10  C   UNL     1     117.323 176.301 126.119  1.00  0.00     0.111 C 
BRANCH  10  11
ATOM     11  C   UNL     1     117.023 176.858 127.489  1.00  0.00     0.163 C 
ATOM     12  O   UNL     1     115.880 177.352 127.692  1.00  0.00    -0.294 OA
BRANCH  11  13
ATOM     13  C   UNL     1     118.015 176.792 128.607  1.00  0.00    -0.002 C 
ATOM     14  C   UNL     1     118.022 175.760 129.503  1.00  0.00    -0.069 C 
ATOM     15  C   UNL     1     119.053 175.681 130.607  1.00  0.00     0.039 C 
ATOM     16  C   UNL     1     116.979 174.665 129.458  1.00  0.00     0.039 C 
BRANCH  13  17
ATOM     17  C   UNL     1     118.972 177.962 128.749  1.00  0.00     0.066 CG0
ATOM     18  G   UNL     1     120.261 177.661 128.023  1.00  0.00     0.000 G0
ENDBRANCH  13  17
ENDBRANCH  11  13
ENDBRANCH  10  11
ENDBRANCH   1  10
TORSDOF 0
ENDMDL
MODEL 3
REMARK VINA RESULT:    -4.722      2.244      4.331
REMARK INTER + INTRA:          -6.283
REMARK INTER:                  -6.650
REMARK INTRA:                   0.367
REMARK UNBOUND:                 0.371
REMARK SMILES CC1=CCC(=C(C)C)C(=O)CC(C)=CCC1
REMARK SMILES IDX 12 1 14 2 13 3 15 4 16 5 2 6 1 7 3 8 11 10 9 11 10 12 5 13
REMARK SMILES IDX 6 14 7 15 8 16 4 17
REMARK H PARENT
REMARK Flexibility Score: 60.00
ROOT
ATOM      1  C   UNL     1     117.784 178.686 126.614  1.00  0.00    -0.070 C 
ATOM      2  C   UNL     1     118.633 178.662 125.559  1.00  0.00    -0.027 C 
ATOM      3  C   UNL     1     116.676 179.709 126.592  1.00  0.00     0.039 C 
ENDROOT
BRANCH   2   4
ATOM      4  C   UNL     1     119.864 177.799 125.421  1.00  0.00     0.032 C 
BRANCH   4   5
ATOM      5  C   UNL     1     119.562 176.436 124.770  1.00  0.00     0.034 C 
BRANCH   5   6
ATOM      6  C   UNL     1     120.064 175.278 125.612  1.00  0.00    -0.077 C 
ATOM      7  C   UNL     1     121.549 175.013 125.651  1.00  0.00     0.039 C 
ATOM      8  C   UNL     1     119.259 174.481 126.351  1.00  0.00    -0.023 CG0
ATOM      9  G   UNL     1     117.759 174.609 126.467  1.00  0.00     0.000 G0
ENDBRANCH   5   6
ENDBRANCH   4   5
ENDBRANCH   2   4
BRANCH   1  10
ATOM     10  C   UNL     1     117.928 177.790 127.833  1.00  0.00     0.111 C 
BRANCH  10  11
ATOM     11  C   UNL     1     116.946 176.645 127.800  1.00  0.00     0.163 C 
ATOM     12  O   UNL     1     115.718 176.919 127.706  1.00  0.00    -0.294 OA
BRANCH  11  13
ATOM     13  C   UNL     1     117.392 175.217 127.824  1.00  0.00    -0.002 C 
ATOM     14  C   UNL     1     117.534 174.526 128.995  1.00  0.00    -0.069 C 
ATOM     15  C   UNL     1     117.949 173.072 129.007  1.00  0.00     0.039 C 
ATOM     16  C   UNL     1     117.317 175.190 130.337  1.00  0.00     0.039 C 
BRANCH  13  17
ATOM     17  C   UNL     1     117.756 174.587 126.491  1.00  0.00     0.066 CG0
ATOM     18  G   UNL     1     119.258 174.495 126.361  1.00  0.00     0.000 G0
ENDBRANCH  13  17
ENDBRANCH  11  13
ENDBRANCH  10  11
ENDBRANCH   1  10
TORSDOF 0
ENDMDL
MODEL 4
REMARK VINA RESULT:    -4.692      1.934      3.844
REMARK INTER + INTRA:          -6.242
REMARK INTER:                  -6.620
REMARK INTRA:                   0.379
REMARK UNBOUND:                 0.371
REMARK SMILES CC1=CCC(=C(C)C)C(=O)CC(C)=CCC1
REMARK SMILES IDX 12 1 14 2 13 3 15 4 16 5 2 6 1 7 3 8 11 10 9 11 10 12 5 13
REMARK SMILES IDX 6 14 7 15 8 16 4 17
REMARK H PARENT
REMARK Flexibility Score: 60.00
ROOT
ATOM      1  C   UNL     1     116.165 177.890 126.767  1.00  0.00    -0.070 C 
ATOM      2  C   UNL     1     116.873 178.825 126.090  1.00  0.00    -0.027 C 
ATOM      3  C   UNL     1     114.665 177.900 126.603  1.00  0.00     0.039 C 
ENDROOT
BRANCH   2   4
ATOM      4  C   UNL     1     118.361 179.064 126.189  1.00  0.00     0.032 C 
BRANCH   4   5
ATOM      5  C   UNL     1     119.177 178.077 125.332  1.00  0.00     0.034 C 
BRANCH   5   6
ATOM      6  C   UNL     1     120.347 177.489 126.096  1.00  0.00    -0.077 C 
ATOM      7  C   UNL     1     121.437 178.422 126.563  1.00  0.00     0.039 C 
ATOM      8  C   UNL     1     120.460 176.178 126.407  1.00  0.00    -0.023 CG0
ATOM      9  G   UNL     1     119.461 175.101 126.060  1.00  0.00     0.000 G0
ENDBRANCH   5   6
ENDBRANCH   4   5
ENDBRANCH   2   4
BRANCH   1  10
ATOM     10  C   UNL     1     116.788 176.886 127.722  1.00  0.00     0.111 C 
BRANCH  10  11
ATOM     11  C   UNL     1     117.122 175.590 127.025  1.00  0.00     0.163 C 
ATOM     12  O   UNL     1     116.261 175.096 126.246  1.00  0.00    -0.294 OA
BRANCH  11  13
ATOM     13  C   UNL     1     118.448 174.918 127.194  1.00  0.00    -0.002 C 
ATOM     14  C   UNL     1     118.774 174.244 128.338  1.00  0.00    -0.069 C 
ATOM     15  C   UNL     1     120.101 173.535 128.486  1.00  0.00     0.039 C 
ATOM     16  C   UNL     1     117.837 174.204 129.526  1.00  0.00     0.039 C 
BRANCH  13  17
ATOM     17  C   UNL     1     119.451 175.079 126.065  1.00  0.00     0.066 CG0
ATOM     18  G   UNL     1     120.430 176.179 126.404  1.00  0.00     0.000 G0
ENDBRANCH  13  17
ENDBRANCH  11  13
ENDBRANCH  10  11
ENDBRANCH   1  10
TORSDOF 0
ENDMDL
MODEL 5
REMARK VINA RESULT:    -4.680      1.735      3.579
REMARK INTER + INTRA:          -6.224
REMARK INTER:                  -7.037
REMARK INTRA:                   0.814
REMARK UNBOUND:                 0.371
REMARK SMILES CC1=CCC(=C(C)C)C(=O)CC(C)=CCC1
REMARK SMILES IDX 12 1 14 2 13 3 15 4 16 5 2 6 1 7 3 8 11 10 9 11 10 12 5 13
REMARK SMILES IDX 6 14 7 15 8 16 4 17
REMARK H PARENT
REMARK Flexibility Score: 60.00
ROOT
ATOM      1  C   UNL     1     118.424 178.357 124.618  1.00  0.00    -0.070 C 
ATOM      2  C   UNL     1     117.186 177.810 124.563  1.00  0.00    -0.027 C 
ATOM      3  C   UNL     1     119.284 178.256 123.382  1.00  0.00     0.039 C 
ENDROOT
BRANCH   2   4
ATOM      4  C   UNL     1     116.204 177.704 125.705  1.00  0.00     0.032 C 
BRANCH   4   5
ATOM      5  C   UNL     1     116.004 176.252 126.181  1.00  0.00     0.034 C 
BRANCH   5   6
ATOM      6  C   UNL     1     116.820 175.939 127.420  1.00  0.00    -0.077 C 
ATOM      7  C   UNL     1     116.117 175.929 128.755  1.00  0.00     0.039 C 
ATOM      8  C   UNL     1     118.139 175.644 127.397  1.00  0.00    -0.023 CG0
ATOM      9  G   UNL     1     119.004 175.570 126.161  1.00  0.00     0.000 G0
ENDBRANCH   5   6
ENDBRANCH   4   5
ENDBRANCH   2   4
BRANCH   1  10
ATOM     10  C   UNL     1     119.008 179.000 125.864  1.00  0.00     0.111 C 
BRANCH  10  11
ATOM     11  C   UNL     1     119.688 177.982 126.747  1.00  0.00     0.163 C 
ATOM     12  O   UNL     1     119.867 178.275 127.961  1.00  0.00    -0.294 OA
BRANCH  11  13
ATOM     13  C   UNL     1     120.100 176.638 126.235  1.00  0.00    -0.002 C 
ATOM     14  C   UNL     1     121.368 176.396 125.784  1.00  0.00    -0.069 C 
ATOM     15  C   UNL     1     121.786 175.024 125.304  1.00  0.00     0.039 C 
ATOM     16  C   UNL     1     122.404 177.496 125.710  1.00  0.00     0.039 C 
BRANCH  13  17
ATOM     17  C   UNL     1     119.024 175.568 126.167  1.00  0.00     0.066 CG0
ATOM     18  G   UNL     1     118.149 175.643 127.395  1.00  0.00     0.000 G0
ENDBRANCH  13  17
ENDBRANCH  11  13
ENDBRANCH  10  11
ENDBRANCH   1  10
TORSDOF 0
ENDMDL
MODEL 6
REMARK VINA RESULT:    -4.620      2.350      4.544
REMARK INTER + INTRA:          -6.139
REMARK INTER:                  -6.915
REMARK INTRA:                   0.775
REMARK UNBOUND:                 0.371
REMARK SMILES CC1=CCC(=C(C)C)C(=O)CC(C)=CCC1
REMARK SMILES IDX 12 1 14 2 13 3 15 4 16 5 2 6 1 7 3 8 11 10 9 11 10 12 5 13
REMARK SMILES IDX 6 14 7 15 8 16 4 17
REMARK H PARENT
REMARK Flexibility Score: 60.00
ROOT
ATOM      1  C   UNL     1     121.161 178.190 126.848  1.00  0.00    -0.070 C 
ATOM      2  C   UNL     1     121.631 177.227 126.020  1.00  0.00    -0.027 C 
ATOM      3  C   UNL     1     121.926 178.443 128.124  1.00  0.00     0.039 C 
ENDROOT
BRANCH   2   4
ATOM      4  C   UNL     1     120.971 176.739 124.752  1.00  0.00     0.032 C 
BRANCH   4   5
ATOM      5  C   UNL     1     120.582 175.249 124.822  1.00  0.00     0.034 C 
BRANCH   5   6
ATOM      6  C   UNL     1     119.731 174.938 126.038  1.00  0.00    -0.077 C 
ATOM      7  C   UNL     1     120.283 173.994 127.076  1.00  0.00     0.039 C 
ATOM      8  C   UNL     1     118.511 175.478 126.260  1.00  0.00    -0.023 CG0
ATOM      9  G   UNL     1     117.807 176.465 125.359  1.00  0.00     0.000 G0
ENDBRANCH   5   6
ENDBRANCH   4   5
ENDBRANCH   2   4
BRANCH   1  10
ATOM     10  C   UNL     1     119.885 178.974 126.593  1.00  0.00     0.111 C 
BRANCH  10  11
ATOM     11  C   UNL     1     118.663 178.203 127.032  1.00  0.00     0.163 C 
ATOM     12  O   UNL     1     118.531 177.951 128.261  1.00  0.00    -0.294 OA
BRANCH  11  13
ATOM     13  C   UNL     1     117.600 177.786 126.066  1.00  0.00    -0.002 C 
ATOM     14  C   UNL     1     116.472 178.533 125.869  1.00  0.00    -0.069 C 
ATOM     15  C   UNL     1     115.420 178.123 124.863  1.00  0.00     0.039 C 
ATOM     16  C   UNL     1     116.203 179.786 126.672  1.00  0.00     0.039 C 
BRANCH  13  17
ATOM     17  C   UNL     1     117.791 176.452 125.365  1.00  0.00     0.066 CG0
ATOM     18  G   UNL     1     118.514 175.492 126.279  1.00  0.00     0.000 G0
ENDBRANCH  13  17
ENDBRANCH  11  13
ENDBRANCH  10  11
ENDBRANCH   1  10
TORSDOF 0
ENDMDL
MODEL 7
REMARK VINA RESULT:    -4.602      1.713      4.082
REMARK INTER + INTRA:          -6.114
REMARK INTER:                  -6.471
REMARK INTRA:                   0.358
REMARK UNBOUND:                 0.371
REMARK SMILES CC1=CCC(=C(C)C)C(=O)CC(C)=CCC1
REMARK SMILES IDX 12 1 14 2 13 3 15 4 16 5 2 6 1 7 3 8 11 10 9 11 10 12 5 13
REMARK SMILES IDX 6 14 7 15 8 16 4 17
REMARK H PARENT
REMARK Flexibility Score: 60.00
ROOT
ATOM      1  C   UNL     1     120.822 176.920 124.796  1.00  0.00    -0.070 C 
ATOM      2  C   UNL     1     120.069 177.675 123.961  1.00  0.00    -0.027 C 
ATOM      3  C   UNL     1     121.903 176.068 124.178  1.00  0.00     0.039 C 
ENDROOT
BRANCH   2   4
ATOM      4  C   UNL     1     118.875 178.514 124.348  1.00  0.00     0.032 C 
BRANCH   4   5
ATOM      5  C   UNL     1     117.605 177.670 124.572  1.00  0.00     0.034 C 
BRANCH   5   6
ATOM      6  C   UNL     1     116.921 178.006 125.884  1.00  0.00    -0.077 C 
ATOM      7  C   UNL     1     116.325 179.382 126.048  1.00  0.00     0.039 C 
ATOM      8  C   UNL     1     116.791 177.133 126.908  1.00  0.00    -0.023 CG0
ATOM      9  G   UNL     1     117.287 175.707 126.920  1.00  0.00     0.000 G0
ENDBRANCH   5   6
ENDBRANCH   4   5
ENDBRANCH   2   4
BRANCH   1  10
ATOM     10  C   UNL     1     120.594 176.836 126.296  1.00  0.00     0.111 C 
BRANCH  10  11
ATOM     11  C   UNL     1     119.842 175.583 126.674  1.00  0.00     0.163 C 
ATOM     12  O   UNL     1     120.270 174.480 126.238  1.00  0.00    -0.294 OA
BRANCH  11  13
ATOM     13  C   UNL     1     118.652 175.616 127.581  1.00  0.00    -0.002 C 
ATOM     14  C   UNL     1     118.779 175.522 128.939  1.00  0.00    -0.069 C 
ATOM     15  C   UNL     1     117.575 175.594 129.851  1.00  0.00     0.039 C 
ATOM     16  C   UNL     1     120.125 175.304 129.595  1.00  0.00     0.039 C 
BRANCH  13  17
ATOM     17  C   UNL     1     117.285 175.684 126.923  1.00  0.00     0.066 CG0
ATOM     18  G   UNL     1     116.794 177.112 126.909  1.00  0.00     0.000 G0
ENDBRANCH  13  17
ENDBRANCH  11  13
ENDBRANCH  10  11
ENDBRANCH   1  10
TORSDOF 0
ENDMDL
MODEL 8
REMARK VINA RESULT:    -4.566      1.923      3.885
REMARK INTER + INTRA:          -6.064
REMARK INTER:                  -6.808
REMARK INTRA:                   0.745
REMARK UNBOUND:                 0.371
REMARK SMILES CC1=CCC(=C(C)C)C(=O)CC(C)=CCC1
REMARK SMILES IDX 12 1 14 2 13 3 15 4 16 5 2 6 1 7 3 8 11 10 9 11 10 12 5 13
REMARK SMILES IDX 6 14 7 15 8 16 4 17
REMARK H PARENT
REMARK Flexibility Score: 60.00
ROOT
ATOM      1  C   UNL     1     120.636 177.580 129.505  1.00  0.00    -0.070 C 
ATOM      2  C   UNL     1     121.601 177.799 128.580  1.00  0.00    -0.027 C 
ATOM      3  C   UNL     1     121.040 176.881 130.779  1.00  0.00     0.039 C 
ENDROOT
BRANCH   2   4
ATOM      4  C   UNL     1     121.401 178.382 127.201  1.00  0.00     0.032 C 
BRANCH   4   5
ATOM      5  C   UNL     1     121.730 177.377 126.080  1.00  0.00     0.034 C 
BRANCH   5   6
ATOM      6  C   UNL     1     120.479 176.807 125.440  1.00  0.00    -0.077 C 
ATOM      7  C   UNL     1     120.071 177.323 124.083  1.00  0.00     0.039 C 
ATOM      8  C   UNL     1     119.719 175.842 126.005  1.00  0.00    -0.023 CG0
ATOM      9  G   UNL     1     119.983 175.177 127.335  1.00  0.00     0.000 G0
ENDBRANCH   5   6
ENDBRANCH   4   5
ENDBRANCH   2   4
BRANCH   1  10
ATOM     10  C   UNL     1     119.174 177.938 129.300  1.00  0.00     0.111 C 
BRANCH  10  11
ATOM     11  C   UNL     1     118.476 176.937 128.412  1.00  0.00     0.163 C 
ATOM     12  O   UNL     1     117.534 177.347 127.681  1.00  0.00    -0.294 OA
BRANCH  11  13
ATOM     13  C   UNL     1     118.905 175.505 128.342  1.00  0.00    -0.002 C 
ATOM     14  C   UNL     1     118.398 174.559 129.190  1.00  0.00    -0.069 C 
ATOM     15  C   UNL     1     118.809 173.107 129.088  1.00  0.00     0.039 C 
ATOM     16  C   UNL     1     117.430 174.923 130.293  1.00  0.00     0.039 C 
BRANCH  13  17
ATOM     17  C   UNL     1     119.988 175.159 127.336  1.00  0.00     0.066 CG0
ATOM     18  G   UNL     1     119.702 175.844 126.020  1.00  0.00     0.000 G0
ENDBRANCH  13  17
ENDBRANCH  11  13
ENDBRANCH  10  11
ENDBRANCH   1  10
TORSDOF 0
ENDMDL
MODEL 9
REMARK VINA RESULT:    -4.518      2.004      3.847
REMARK INTER + INTRA:          -5.995
REMARK INTER:                  -7.254
REMARK INTRA:                   1.259
REMARK UNBOUND:                 0.371
REMARK SMILES CC1=CCC(=C(C)C)C(=O)CC(C)=CCC1
REMARK SMILES IDX 12 1 14 2 13 3 15 4 16 5 2 6 1 7 3 8 11 10 9 11 10 12 5 13
REMARK SMILES IDX 6 14 7 15 8 16 4 17
REMARK H PARENT
REMARK Flexibility Score: 60.00
ROOT
ATOM      1  C   UNL     1     118.521 178.188 124.689  1.00  0.00    -0.070 C 
ATOM      2  C   UNL     1     117.350 177.518 124.811  1.00  0.00    -0.027 C 
ATOM      3  C   UNL     1     119.142 178.259 123.316  1.00  0.00     0.039 C 
ENDROOT
BRANCH   2   4
ATOM      4  C   UNL     1     116.612 177.234 126.097  1.00  0.00     0.032 C 
BRANCH   4   5
ATOM      5  C   UNL     1     116.232 175.749 126.246  1.00  0.00     0.034 C 
BRANCH   5   6
ATOM      6  C   UNL     1     117.311 174.951 126.952  1.00  0.00    -0.077 C 
ATOM      7  C   UNL     1     117.491 173.502 126.576  1.00  0.00     0.039 C 
ATOM      8  C   UNL     1     118.140 175.471 127.885  1.00  0.00    -0.023 CG0
ATOM      9  G   UNL     1     118.139 176.902 128.367  1.00  0.00     0.000 G0
ENDBRANCH   5   6
ENDBRANCH   4   5
ENDBRANCH   2   4
BRANCH   1  10
ATOM     10  C   UNL     1     119.265 178.806 125.861  1.00  0.00     0.111 C 
BRANCH  10  11
ATOM     11  C   UNL     1     119.918 177.753 126.723  1.00  0.00     0.163 C 
ATOM     12  O   UNL     1     120.864 177.083 126.226  1.00  0.00    -0.294 OA
BRANCH  11  13
ATOM     13  C   UNL     1     119.509 177.527 128.144  1.00  0.00    -0.002 C 
ATOM     14  C   UNL     1     120.347 177.805 129.188  1.00  0.00    -0.069 C 
ATOM     15  C   UNL     1     119.912 177.609 130.623  1.00  0.00     0.039 C 
ATOM     16  C   UNL     1     121.763 178.288 128.958  1.00  0.00     0.039 C 
BRANCH  13  17
ATOM     17  C   UNL     1     118.145 176.902 128.377  1.00  0.00     0.066 CG0
ATOM     18  G   UNL     1     118.150 175.469 127.901  1.00  0.00     0.000 G0
ENDBRANCH  13  17
ENDBRANCH  11  13
ENDBRANCH  10  11
ENDBRANCH   1  10
TORSDOF 0
ENDMDL
