MODEL 1
REMARK VINA RESULT:    -4.620      0.000      0.000
REMARK INTER + INTRA:          -7.528
REMARK INTER:                  -7.050
REMARK INTRA:                  -0.478
REMARK UNBOUND:                -0.478
REMARK SMILES CCCCCCCCCC=CC(=O)[O-]
REMARK SMILES IDX 7 1 8 2 9 3 10 4 11 5 12 6 13 7 14 8 6 9 5 10 4 11 3 12 2 13
REMARK SMILES IDX 1 14
REMARK H PARENT
REMARK Flexibility Score: inf
ROOT
ATOM      1  C   UNL     1       3.818  10.374  82.310  1.00  0.00     0.000 C 
ENDROOT
BRANCH   1   2
ATOM      2  C   UNL     1       5.263  10.138  81.849  1.00  0.00     0.004 C 
BRANCH   2   3
ATOM      3  C   UNL     1       5.644   8.652  81.873  1.00  0.00     0.027 C 
BRANCH   3   4
ATOM      4  C   UNL     1       6.912   8.394  81.110  1.00  0.00    -0.025 C 
ATOM      5  C   UNL     1       7.050   7.326  80.317  1.00  0.00     0.020 C 
BRANCH   5   6
ATOM      6  C   UNL     1       8.273   7.085  79.539  1.00  0.00     0.064 C 
ATOM      7  O   UNL     1       8.977   8.060  79.170  1.00  0.00    -0.545 OA
ATOM      8  O   UNL     1       8.665   5.794  79.203  1.00  0.00    -0.545 OA
ENDBRANCH   5   6
ENDBRANCH   3   4
ENDBRANCH   2   3
ENDBRANCH   1   2
BRANCH   1   9
ATOM      9  C   UNL     1       3.261   9.139  83.030  1.00  0.00     0.000 C 
BRANCH   9  10
ATOM     10  C   UNL     1       1.979   9.487  83.802  1.00  0.00     0.000 C 
BRANCH  10  11
ATOM     11  C   UNL     1       1.893   8.775  85.162  1.00  0.00    -0.000 C 
BRANCH  11  12
ATOM     12  C   UNL     1       2.703   7.467  85.196  1.00  0.00    -0.000 C 
BRANCH  12  13
ATOM     13  C   UNL     1       1.863   6.267  85.659  1.00  0.00    -0.003 C 
ATOM     14  C   UNL     1       2.667   4.969  85.725  1.00  0.00     0.004 C 
ENDBRANCH  12  13
ENDBRANCH  11  12
ENDBRANCH  10  11
ENDBRANCH   9  10
ENDBRANCH   1   9
TORSDOF 9
ENDMDL
MODEL 2
REMARK VINA RESULT:    -4.544      3.363      5.902
REMARK INTER + INTRA:          -7.413
REMARK INTER:                  -6.478
REMARK INTRA:                  -0.935
REMARK UNBOUND:                -0.478
REMARK SMILES CCCCCCCCCC=CC(=O)[O-]
REMARK SMILES IDX 7 1 8 2 9 3 10 4 11 5 12 6 13 7 14 8 6 9 5 10 4 11 3 12 2 13
REMARK SMILES IDX 1 14
REMARK H PARENT
REMARK Flexibility Score: inf
ROOT
ATOM      1  C   UNL     1       4.212   9.890  82.566  1.00  0.00     0.000 C 
ENDROOT
BRANCH   1   2
ATOM      2  C   UNL     1       5.039  11.072  82.039  1.00  0.00     0.004 C 
BRANCH   2   3
ATOM      3  C   UNL     1       4.407  11.713  80.797  1.00  0.00     0.027 C 
BRANCH   3   4
ATOM      4  C   UNL     1       5.434  12.420  79.958  1.00  0.00    -0.025 C 
ATOM      5  C   UNL     1       6.379  11.749  79.290  1.00  0.00     0.020 C 
BRANCH   5   6
ATOM      6  C   UNL     1       7.364  12.430  78.439  1.00  0.00     0.064 C 
ATOM      7  O   UNL     1       8.592  12.306  78.689  1.00  0.00    -0.545 OA
ATOM      8  O   UNL     1       6.963  13.210  77.361  1.00  0.00    -0.545 OA
ENDBRANCH   5   6
ENDBRANCH   3   4
ENDBRANCH   2   3
ENDBRANCH   1   2
BRANCH   1   9
ATOM      9  C   UNL     1       4.871   8.553  82.204  1.00  0.00     0.000 C 
BRANCH   9  10
ATOM     10  C   UNL     1       6.314   8.765  81.719  1.00  0.00     0.000 C 
BRANCH  10  11
ATOM     11  C   UNL     1       6.750   7.722  80.678  1.00  0.00    -0.000 C 
BRANCH  11  12
ATOM     12  C   UNL     1       7.519   8.349  79.501  1.00  0.00    -0.000 C 
BRANCH  12  13
ATOM     13  C   UNL     1       9.022   8.038  79.549  1.00  0.00    -0.003 C 
ATOM     14  C   UNL     1       9.862   9.235  79.992  1.00  0.00     0.004 C 
ENDBRANCH  12  13
ENDBRANCH  11  12
ENDBRANCH  10  11
ENDBRANCH   9  10
ENDBRANCH   1   9
TORSDOF 9
ENDMDL
MODEL 3
REMARK VINA RESULT:    -4.499      1.321      1.857
REMARK INTER + INTRA:          -7.345
REMARK INTER:                  -6.904
REMARK INTRA:                  -0.440
REMARK UNBOUND:                -0.478
REMARK SMILES CCCCCCCCCC=CC(=O)[O-]
REMARK SMILES IDX 7 1 8 2 9 3 10 4 11 5 12 6 13 7 14 8 6 9 5 10 4 11 3 12 2 13
REMARK SMILES IDX 1 14
REMARK H PARENT
REMARK Flexibility Score: inf
ROOT
ATOM      1  C   UNL     1       4.507  10.817  82.855  1.00  0.00     0.000 C 
ENDROOT
BRANCH   1   2
ATOM      2  C   UNL     1       5.307  10.223  81.688  1.00  0.00     0.004 C 
BRANCH   2   3
ATOM      3  C   UNL     1       5.572   8.724  81.870  1.00  0.00     0.027 C 
BRANCH   3   4
ATOM      4  C   UNL     1       6.861   8.308  81.220  1.00  0.00    -0.025 C 
ATOM      5  C   UNL     1       6.900   7.350  80.287  1.00  0.00     0.020 C 
BRANCH   5   6
ATOM      6  C   UNL     1       8.150   6.961  79.620  1.00  0.00     0.064 C 
ATOM      7  O   UNL     1       8.788   7.814  78.950  1.00  0.00    -0.545 OA
ATOM      8  O   UNL     1       8.641   5.664  79.718  1.00  0.00    -0.545 OA
ENDBRANCH   5   6
ENDBRANCH   3   4
ENDBRANCH   2   3
ENDBRANCH   1   2
BRANCH   1   9
ATOM      9  C   UNL     1       3.171  10.084  83.036  1.00  0.00     0.000 C 
BRANCH   9  10
ATOM     10  C   UNL     1       2.793   9.992  84.523  1.00  0.00     0.000 C 
BRANCH  10  11
ATOM     11  C   UNL     1       2.266   8.602  84.916  1.00  0.00    -0.000 C 
BRANCH  11  12
ATOM     12  C   UNL     1       2.602   8.234  86.372  1.00  0.00    -0.000 C 
BRANCH  12  13
ATOM     13  C   UNL     1       2.962   9.462  87.222  1.00  0.00    -0.003 C 
ATOM     14  C   UNL     1       2.323   9.432  88.609  1.00  0.00     0.004 C 
ENDBRANCH  12  13
ENDBRANCH  11  12
ENDBRANCH  10  11
ENDBRANCH   9  10
ENDBRANCH   1   9
TORSDOF 9
ENDMDL
MODEL 4
REMARK VINA RESULT:    -4.433      3.827      7.003
REMARK INTER + INTRA:          -7.244
REMARK INTER:                  -6.857
REMARK INTRA:                  -0.386
REMARK UNBOUND:                -0.478
REMARK SMILES CCCCCCCCCC=CC(=O)[O-]
REMARK SMILES IDX 7 1 8 2 9 3 10 4 11 5 12 6 13 7 14 8 6 9 5 10 4 11 3 12 2 13
REMARK SMILES IDX 1 14
REMARK H PARENT
REMARK Flexibility Score: inf
ROOT
ATOM      1  C   UNL     1       4.175  10.351  83.096  1.00  0.00     0.000 C 
ENDROOT
BRANCH   1   2
ATOM      2  C   UNL     1       3.131   9.236  83.254  1.00  0.00     0.004 C 
BRANCH   2   3
ATOM      3  C   UNL     1       2.521   9.209  84.661  1.00  0.00     0.027 C 
BRANCH   3   4
ATOM      4  C   UNL     1       2.641   7.849  85.289  1.00  0.00    -0.025 C 
ATOM      5  C   UNL     1       1.569   7.083  85.517  1.00  0.00     0.020 C 
BRANCH   5   6
ATOM      6  C   UNL     1       1.680   5.738  86.098  1.00  0.00     0.064 C 
ATOM      7  O   UNL     1       0.938   5.414  87.062  1.00  0.00    -0.545 OA
ATOM      8  O   UNL     1       2.592   4.816  85.600  1.00  0.00    -0.545 OA
ENDBRANCH   5   6
ENDBRANCH   3   4
ENDBRANCH   2   3
ENDBRANCH   1   2
BRANCH   1   9
ATOM      9  C   UNL     1       5.126  10.053  81.931  1.00  0.00     0.000 C 
BRANCH   9  10
ATOM     10  C   UNL     1       5.498   8.562  81.893  1.00  0.00     0.000 C 
BRANCH  10  11
ATOM     11  C   UNL     1       6.805   8.295  81.129  1.00  0.00    -0.000 C 
BRANCH  11  12
ATOM     12  C   UNL     1       6.727   7.036  80.248  1.00  0.00    -0.000 C 
BRANCH  12  13
ATOM     13  C   UNL     1       8.112   6.550  79.793  1.00  0.00    -0.003 C 
ATOM     14  C   UNL     1       8.991   7.680  79.260  1.00  0.00     0.004 C 
ENDBRANCH  12  13
ENDBRANCH  11  12
ENDBRANCH  10  11
ENDBRANCH   9  10
ENDBRANCH   1   9
TORSDOF 9
ENDMDL
MODEL 5
REMARK VINA RESULT:    -4.351      4.105      7.170
REMARK INTER + INTRA:          -7.118
REMARK INTER:                  -6.711
REMARK INTRA:                  -0.407
REMARK UNBOUND:                -0.478
REMARK SMILES CCCCCCCCCC=CC(=O)[O-]
REMARK SMILES IDX 7 1 8 2 9 3 10 4 11 5 12 6 13 7 14 8 6 9 5 10 4 11 3 12 2 13
REMARK SMILES IDX 1 14
REMARK H PARENT
REMARK Flexibility Score: inf
ROOT
ATOM      1  C   UNL     1       5.085  10.411  82.372  1.00  0.00     0.000 C 
ENDROOT
BRANCH   1   2
ATOM      2  C   UNL     1       3.581  10.646  82.572  1.00  0.00     0.004 C 
BRANCH   2   3
ATOM      3  C   UNL     1       2.845   9.366  82.985  1.00  0.00     0.027 C 
BRANCH   3   4
ATOM      4  C   UNL     1       2.573   9.337  84.462  1.00  0.00    -0.025 C 
ATOM      5  C   UNL     1       2.370   8.188  85.117  1.00  0.00     0.020 C 
BRANCH   5   6
ATOM      6  C   UNL     1       2.139   8.148  86.568  1.00  0.00     0.064 C 
ATOM      7  O   UNL     1       2.751   8.952  87.317  1.00  0.00    -0.545 OA
ATOM      8  O   UNL     1       1.254   7.233  87.127  1.00  0.00    -0.545 OA
ENDBRANCH   5   6
ENDBRANCH   3   4
ENDBRANCH   2   3
ENDBRANCH   1   2
BRANCH   1   9
ATOM      9  C   UNL     1       5.365   8.964  81.946  1.00  0.00     0.000 C 
BRANCH   9  10
ATOM     10  C   UNL     1       6.754   8.840  81.302  1.00  0.00     0.000 C 
BRANCH  10  11
ATOM     11  C   UNL     1       6.936   7.524  80.530  1.00  0.00    -0.000 C 
BRANCH  11  12
ATOM     12  C   UNL     1       7.717   7.711  79.217  1.00  0.00    -0.000 C 
BRANCH  12  13
ATOM     13  C   UNL     1       9.006   6.876  79.176  1.00  0.00    -0.003 C 
ATOM     14  C   UNL     1       8.763   5.395  79.462  1.00  0.00     0.004 C 
ENDBRANCH  12  13
ENDBRANCH  11  12
ENDBRANCH  10  11
ENDBRANCH   9  10
ENDBRANCH   1   9
TORSDOF 9
ENDMDL
MODEL 6
REMARK VINA RESULT:    -4.295      5.587      8.991
REMARK INTER + INTRA:          -7.033
REMARK INTER:                  -6.574
REMARK INTRA:                  -0.459
REMARK UNBOUND:                -0.478
REMARK SMILES CCCCCCCCCC=CC(=O)[O-]
REMARK SMILES IDX 7 1 8 2 9 3 10 4 11 5 12 6 13 7 14 8 6 9 5 10 4 11 3 12 2 13
REMARK SMILES IDX 1 14
REMARK H PARENT
REMARK Flexibility Score: inf
ROOT
ATOM      1  C   UNL     1      11.255   4.530  79.659  1.00  0.00     0.000 C 
ENDROOT
BRANCH   1   2
ATOM      2  C   UNL     1      11.908   3.196  79.272  1.00  0.00     0.004 C 
BRANCH   2   3
ATOM      3  C   UNL     1      13.358   3.097  79.763  1.00  0.00     0.027 C 
BRANCH   3   4
ATOM      4  C   UNL     1      14.322   2.972  78.618  1.00  0.00    -0.025 C 
ATOM      5  C   UNL     1      15.066   4.006  78.210  1.00  0.00     0.020 C 
BRANCH   5   6
ATOM      6  C   UNL     1      16.037   3.884  77.114  1.00  0.00     0.064 C 
ATOM      7  O   UNL     1      16.085   4.774  76.225  1.00  0.00    -0.545 OA
ATOM      8  O   UNL     1      16.904   2.800  77.042  1.00  0.00    -0.545 OA
ENDBRANCH   5   6
ENDBRANCH   3   4
ENDBRANCH   2   3
ENDBRANCH   1   2
BRANCH   1   9
ATOM      9  C   UNL     1       9.785   4.330  80.050  1.00  0.00     0.000 C 
BRANCH   9  10
ATOM     10  C   UNL     1       8.893   5.395  79.393  1.00  0.00     0.000 C 
BRANCH  10  11
ATOM     11  C   UNL     1       9.622   6.731  79.181  1.00  0.00    -0.000 C 
BRANCH  11  12
ATOM     12  C   UNL     1       8.706   7.947  79.408  1.00  0.00    -0.000 C 
BRANCH  12  13
ATOM     13  C   UNL     1       7.396   7.571  80.118  1.00  0.00    -0.003 C 
ATOM     14  C   UNL     1       6.991   8.582  81.190  1.00  0.00     0.004 C 
ENDBRANCH  12  13
ENDBRANCH  11  12
ENDBRANCH  10  11
ENDBRANCH   9  10
ENDBRANCH   1   9
TORSDOF 9
ENDMDL
MODEL 7
REMARK VINA RESULT:    -4.294      2.126      3.865
REMARK INTER + INTRA:          -7.032
REMARK INTER:                  -6.192
REMARK INTRA:                  -0.840
REMARK UNBOUND:                -0.478
REMARK SMILES CCCCCCCCCC=CC(=O)[O-]
REMARK SMILES IDX 7 1 8 2 9 3 10 4 11 5 12 6 13 7 14 8 6 9 5 10 4 11 3 12 2 13
REMARK SMILES IDX 1 14
REMARK H PARENT
REMARK Flexibility Score: inf
ROOT
ATOM      1  C   UNL     1       4.193  10.449  83.079  1.00  0.00     0.000 C 
ENDROOT
BRANCH   1   2
ATOM      2  C   UNL     1       5.204  10.115  81.973  1.00  0.00     0.004 C 
BRANCH   2   3
ATOM      3  C   UNL     1       5.459   8.607  81.856  1.00  0.00     0.027 C 
BRANCH   3   4
ATOM      4  C   UNL     1       6.719   8.318  81.091  1.00  0.00    -0.025 C 
ATOM      5  C   UNL     1       6.847   7.218  80.340  1.00  0.00     0.020 C 
BRANCH   5   6
ATOM      6  C   UNL     1       8.062   6.944  79.560  1.00  0.00     0.064 C 
ATOM      7  O   UNL     1       8.719   7.902  79.075  1.00  0.00    -0.545 OA
ATOM      8  O   UNL     1       8.498   5.641  79.346  1.00  0.00    -0.545 OA
ENDBRANCH   5   6
ENDBRANCH   3   4
ENDBRANCH   2   3
ENDBRANCH   1   2
BRANCH   1   9
ATOM      9  C   UNL     1       3.008   9.476  83.054  1.00  0.00     0.000 C 
BRANCH   9  10
ATOM     10  C   UNL     1       1.674  10.234  83.143  1.00  0.00     0.000 C 
BRANCH  10  11
ATOM     11  C   UNL     1       1.153  10.684  81.769  1.00  0.00    -0.000 C 
BRANCH  11  12
ATOM     12  C   UNL     1       0.925  12.204  81.692  1.00  0.00    -0.000 C 
BRANCH  12  13
ATOM     13  C   UNL     1       2.184  12.967  81.251  1.00  0.00    -0.003 C 
ATOM     14  C   UNL     1       2.790  12.415  79.962  1.00  0.00     0.004 C 
ENDBRANCH  12  13
ENDBRANCH  11  12
ENDBRANCH  10  11
ENDBRANCH   9  10
ENDBRANCH   1   9
TORSDOF 9
ENDMDL
MODEL 8
REMARK VINA RESULT:    -4.215      1.447      2.316
REMARK INTER + INTRA:          -6.910
REMARK INTER:                  -6.045
REMARK INTRA:                  -0.865
REMARK UNBOUND:                -0.478
REMARK SMILES CCCCCCCCCC=CC(=O)[O-]
REMARK SMILES IDX 7 1 8 2 9 3 10 4 11 5 12 6 13 7 14 8 6 9 5 10 4 11 3 12 2 13
REMARK SMILES IDX 1 14
REMARK H PARENT
REMARK Flexibility Score: inf
ROOT
ATOM      1  C   UNL     1       5.197  11.018  81.232  1.00  0.00     0.000 C 
ENDROOT
BRANCH   1   2
ATOM      2  C   UNL     1       5.235   9.966  82.349  1.00  0.00     0.004 C 
BRANCH   2   3
ATOM      3  C   UNL     1       5.641   8.582  81.827  1.00  0.00     0.027 C 
BRANCH   3   4
ATOM      4  C   UNL     1       6.937   8.635  81.069  1.00  0.00    -0.025 C 
ATOM      5  C   UNL     1       7.350   7.613  80.311  1.00  0.00     0.020 C 
BRANCH   5   6
ATOM      6  C   UNL     1       8.598   7.670  79.538  1.00  0.00     0.064 C 
ATOM      7  O   UNL     1       9.305   8.711  79.575  1.00  0.00    -0.545 OA
ATOM      8  O   UNL     1       9.012   6.592  78.764  1.00  0.00    -0.545 OA
ENDBRANCH   5   6
ENDBRANCH   3   4
ENDBRANCH   2   3
ENDBRANCH   1   2
BRANCH   1   9
ATOM      9  C   UNL     1       3.837  11.726  81.189  1.00  0.00     0.000 C 
BRANCH   9  10
ATOM     10  C   UNL     1       3.040  11.462  82.476  1.00  0.00     0.000 C 
BRANCH  10  11
ATOM     11  C   UNL     1       1.682  10.794  82.206  1.00  0.00    -0.000 C 
BRANCH  11  12
ATOM     12  C   UNL     1       1.117  10.082  83.448  1.00  0.00    -0.000 C 
BRANCH  12  13
ATOM     13  C   UNL     1       2.196   9.794  84.503  1.00  0.00    -0.003 C 
ATOM     14  C   UNL     1       2.600   8.321  84.551  1.00  0.00     0.004 C 
ENDBRANCH  12  13
ENDBRANCH  11  12
ENDBRANCH  10  11
ENDBRANCH   9  10
ENDBRANCH   1   9
TORSDOF 9
ENDMDL
MODEL 9
REMARK VINA RESULT:    -4.215      3.008      5.288
REMARK INTER + INTRA:          -6.910
REMARK INTER:                  -6.219
REMARK INTRA:                  -0.691
REMARK UNBOUND:                -0.478
REMARK SMILES CCCCCCCCCC=CC(=O)[O-]
REMARK SMILES IDX 7 1 8 2 9 3 10 4 11 5 12 6 13 7 14 8 6 9 5 10 4 11 3 12 2 13
REMARK SMILES IDX 1 14
REMARK H PARENT
REMARK Flexibility Score: inf
ROOT
ATOM      1  C   UNL     1       4.835   9.469  82.200  1.00  0.00     0.000 C 
ENDROOT
BRANCH   1   2
ATOM      2  C   UNL     1       6.217   8.846  81.957  1.00  0.00     0.004 C 
BRANCH   2   3
ATOM      3  C   UNL     1       6.791   9.225  80.586  1.00  0.00     0.027 C 
BRANCH   3   4
ATOM      4  C   UNL     1       7.971   8.368  80.225  1.00  0.00    -0.025 C 
ATOM      5  C   UNL     1       7.829   7.081  79.890  1.00  0.00     0.020 C 
BRANCH   5   6
ATOM      6  C   UNL     1       8.972   6.245  79.501  1.00  0.00     0.064 C 
ATOM      7  O   UNL     1       9.982   6.780  78.972  1.00  0.00    -0.545 OA
ATOM      8  O   UNL     1       8.958   4.870  79.707  1.00  0.00    -0.545 OA
ENDBRANCH   5   6
ENDBRANCH   3   4
ENDBRANCH   2   3
ENDBRANCH   1   2
BRANCH   1   9
ATOM      9  C   UNL     1       4.916  11.001  82.209  1.00  0.00     0.000 C 
BRANCH   9  10
ATOM     10  C   UNL     1       3.829  11.613  81.312  1.00  0.00     0.000 C 
BRANCH  10  11
ATOM     11  C   UNL     1       4.268  12.935  80.664  1.00  0.00    -0.000 C 
BRANCH  11  12
ATOM     12  C   UNL     1       4.812  12.743  79.237  1.00  0.00    -0.000 C 
BRANCH  12  13
ATOM     13  C   UNL     1       6.339  12.581  79.206  1.00  0.00    -0.003 C 
ATOM     14  C   UNL     1       6.933  12.817  77.818  1.00  0.00     0.004 C 
ENDBRANCH  12  13
ENDBRANCH  11  12
ENDBRANCH  10  11
ENDBRANCH   9  10
ENDBRANCH   1   9
TORSDOF 9
ENDMDL
