MODEL 1
REMARK VINA RESULT:    -4.797      0.000      0.000
REMARK INTER + INTRA:          -5.357
REMARK INTER:                  -5.358
REMARK INTRA:                   0.001
REMARK UNBOUND:                 0.001
REMARK SMILES COc1cc2ccc(=O)oc2cc1OC
REMARK SMILES IDX 3 1 13 2 12 3 11 4 5 5 4 6 6 7 7 8 8 9 9 10 10 11 2 12 1 13
REMARK SMILES IDX 14 14 15 15
REMARK H PARENT
REMARK Flexibility Score: inf
ROOT
ATOM      1  C   UNL     1       2.108 -15.593  16.072  1.00  0.00     0.161 A 
ATOM      2  C   UNL     1       0.790 -15.598  15.587  1.00  0.00     0.164 A 
ATOM      3  C   UNL     1      -0.250 -16.106  16.389  1.00  0.00     0.098 A 
ATOM      4  C   UNL     1       0.021 -16.606  17.665  1.00  0.00     0.142 A 
ATOM      5  C   UNL     1       1.344 -16.602  18.153  1.00  0.00     0.022 A 
ATOM      6  C   UNL     1       2.381 -16.097  17.359  1.00  0.00     0.062 A 
ATOM      7  C   UNL     1       1.583 -17.110  19.434  1.00  0.00     0.019 A 
ATOM      8  C   UNL     1       0.516 -17.600  20.187  1.00  0.00     0.094 A 
ATOM      9  C   UNL     1      -0.770 -17.572  19.638  1.00  0.00     0.336 A 
ATOM     10  O   UNL     1      -1.746 -18.011  20.300  1.00  0.00    -0.246 OA
ATOM     11  O   UNL     1      -0.969 -17.084  18.416  1.00  0.00    -0.423 OA
ENDROOT
BRANCH   1  12
ATOM     12  O   UNL     1       3.119 -15.080  15.245  1.00  0.00    -0.493 OA
ATOM     13  C   UNL     1       3.720 -15.790  14.167  1.00  0.00     0.278 C 
ENDBRANCH   1  12
BRANCH   2  14
ATOM     14  O   UNL     1       0.553 -15.088  14.299  1.00  0.00    -0.493 OA
ATOM     15  C   UNL     1       0.282 -13.720  14.010  1.00  0.00     0.278 C 
ENDBRANCH   2  14
TORSDOF 2
ENDMDL
MODEL 2
REMARK VINA RESULT:    -4.747     13.664     15.416
REMARK INTER + INTRA:          -5.301
REMARK INTER:                  -5.185
REMARK INTRA:                  -0.116
REMARK UNBOUND:                 0.001
REMARK SMILES COc1cc2ccc(=O)oc2cc1OC
REMARK SMILES IDX 3 1 13 2 12 3 11 4 5 5 4 6 6 7 7 8 8 9 9 10 10 11 2 12 1 13
REMARK SMILES IDX 14 14 15 15
REMARK H PARENT
REMARK Flexibility Score: inf
ROOT
ATOM      1  C   UNL     1       1.128 -17.022  31.644  1.00  0.00     0.161 A 
ATOM      2  C   UNL     1       0.433 -17.600  32.719  1.00  0.00     0.164 A 
ATOM      3  C   UNL     1       0.597 -18.970  33.004  1.00  0.00     0.098 A 
ATOM      4  C   UNL     1       1.447 -19.758  32.224  1.00  0.00     0.142 A 
ATOM      5  C   UNL     1       2.146 -19.178  31.145  1.00  0.00     0.022 A 
ATOM      6  C   UNL     1       1.985 -17.817  30.858  1.00  0.00     0.062 A 
ATOM      7  C   UNL     1       2.989 -19.994  30.383  1.00  0.00     0.019 A 
ATOM      8  C   UNL     1       3.116 -21.343  30.709  1.00  0.00     0.094 A 
ATOM      9  C   UNL     1       2.392 -21.848  31.794  1.00  0.00     0.336 A 
ATOM     10  O   UNL     1       2.492 -23.064  32.105  1.00  0.00    -0.246 OA
ATOM     11  O   UNL     1       1.597 -21.051  32.503  1.00  0.00    -0.423 OA
ENDROOT
BRANCH   1  12
ATOM     12  O   UNL     1       0.939 -15.655  31.388  1.00  0.00    -0.493 OA
ATOM     13  C   UNL     1       0.736 -15.095  30.096  1.00  0.00     0.278 C 
ENDBRANCH   1  12
BRANCH   2  14
ATOM     14  O   UNL     1      -0.414 -16.779  33.482  1.00  0.00    -0.493 OA
ATOM     15  C   UNL     1      -1.747 -17.117  33.853  1.00  0.00     0.278 C 
ENDBRANCH   2  14
TORSDOF 2
ENDMDL
MODEL 3
REMARK VINA RESULT:    -4.739      1.412      1.778
REMARK INTER + INTRA:          -5.293
REMARK INTER:                  -5.153
REMARK INTRA:                  -0.139
REMARK UNBOUND:                 0.001
REMARK SMILES COc1cc2ccc(=O)oc2cc1OC
REMARK SMILES IDX 3 1 13 2 12 3 11 4 5 5 4 6 6 7 7 8 8 9 9 10 10 11 2 12 1 13
REMARK SMILES IDX 14 14 15 15
REMARK H PARENT
REMARK Flexibility Score: inf
ROOT
ATOM      1  C   UNL     1       0.860 -15.884  17.174  1.00  0.00     0.161 A 
ATOM      2  C   UNL     1      -0.351 -16.021  16.474  1.00  0.00     0.164 A 
ATOM      3  C   UNL     1      -1.399 -16.780  17.031  1.00  0.00     0.098 A 
ATOM      4  C   UNL     1      -1.243 -17.398  18.274  1.00  0.00     0.142 A 
ATOM      5  C   UNL     1      -0.028 -17.260  18.977  1.00  0.00     0.022 A 
ATOM      6  C   UNL     1       1.016 -16.507  18.428  1.00  0.00     0.062 A 
ATOM      7  C   UNL     1       0.097 -17.892  20.219  1.00  0.00     0.019 A 
ATOM      8  C   UNL     1      -0.973 -18.630  20.723  1.00  0.00     0.094 A 
ATOM      9  C   UNL     1      -2.147 -18.722  19.970  1.00  0.00     0.336 A 
ATOM     10  O   UNL     1      -3.124 -19.385  20.407  1.00  0.00    -0.246 OA
ATOM     11  O   UNL     1      -2.240 -18.112  18.791  1.00  0.00    -0.423 OA
ENDROOT
BRANCH   1  12
ATOM     12  O   UNL     1       1.883 -15.121  16.590  1.00  0.00    -0.493 OA
ATOM     13  C   UNL     1       2.904 -15.648  15.750  1.00  0.00     0.278 C 
ENDBRANCH   1  12
BRANCH   2  14
ATOM     14  O   UNL     1      -0.473 -15.387  15.227  1.00  0.00    -0.493 OA
ATOM     15  C   UNL     1      -0.388 -16.053  13.971  1.00  0.00     0.278 C 
ENDBRANCH   2  14
TORSDOF 2
ENDMDL
MODEL 4
REMARK VINA RESULT:    -4.653      1.885      5.447
REMARK INTER + INTRA:          -5.197
REMARK INTER:                  -5.074
REMARK INTRA:                  -0.123
REMARK UNBOUND:                 0.001
REMARK SMILES COc1cc2ccc(=O)oc2cc1OC
REMARK SMILES IDX 3 1 13 2 12 3 11 4 5 5 4 6 6 7 7 8 8 9 9 10 10 11 2 12 1 13
REMARK SMILES IDX 14 14 15 15
REMARK H PARENT
REMARK Flexibility Score: inf
ROOT
ATOM      1  C   UNL     1      -0.888 -18.417  19.545  1.00  0.00     0.161 A 
ATOM      2  C   UNL     1      -1.211 -18.744  18.217  1.00  0.00     0.164 A 
ATOM      3  C   UNL     1      -0.471 -18.182  17.157  1.00  0.00     0.098 A 
ATOM      4  C   UNL     1       0.582 -17.303  17.419  1.00  0.00     0.142 A 
ATOM      5  C   UNL     1       0.908 -16.975  18.751  1.00  0.00     0.022 A 
ATOM      6  C   UNL     1       0.175 -17.530  19.807  1.00  0.00     0.062 A 
ATOM      7  C   UNL     1       1.968 -16.091  18.979  1.00  0.00     0.019 A 
ATOM      8  C   UNL     1       2.668 -15.565  17.894  1.00  0.00     0.094 A 
ATOM      9  C   UNL     1       2.289 -15.936  16.600  1.00  0.00     0.336 A 
ATOM     10  O   UNL     1       2.907 -15.472  15.606  1.00  0.00    -0.246 OA
ATOM     11  O   UNL     1       1.276 -16.778  16.410  1.00  0.00    -0.423 OA
ENDROOT
BRANCH   1  12
ATOM     12  O   UNL     1      -1.646 -18.994  20.575  1.00  0.00    -0.493 OA
ATOM     13  C   UNL     1      -2.775 -18.381  21.188  1.00  0.00     0.278 C 
ENDBRANCH   1  12
BRANCH   2  14
ATOM     14  O   UNL     1      -2.276 -19.631  17.991  1.00  0.00    -0.493 OA
ATOM     15  C   UNL     1      -2.126 -21.021  17.721  1.00  0.00     0.278 C 
ENDBRANCH   2  14
TORSDOF 2
ENDMDL
MODEL 5
REMARK VINA RESULT:    -4.510      2.345      5.400
REMARK INTER + INTRA:          -5.037
REMARK INTER:                  -4.920
REMARK INTRA:                  -0.117
REMARK UNBOUND:                 0.001
REMARK SMILES COc1cc2ccc(=O)oc2cc1OC
REMARK SMILES IDX 3 1 13 2 12 3 11 4 5 5 4 6 6 7 7 8 8 9 9 10 10 11 2 12 1 13
REMARK SMILES IDX 14 14 15 15
REMARK H PARENT
REMARK Flexibility Score: inf
ROOT
ATOM      1  C   UNL     1      -1.211 -19.097  17.793  1.00  0.00     0.161 A 
ATOM      2  C   UNL     1      -1.225 -18.624  19.116  1.00  0.00     0.164 A 
ATOM      3  C   UNL     1      -0.328 -17.609  19.506  1.00  0.00     0.098 A 
ATOM      4  C   UNL     1       0.575 -17.072  18.587  1.00  0.00     0.142 A 
ATOM      5  C   UNL     1       0.590 -17.546  17.259  1.00  0.00     0.022 A 
ATOM      6  C   UNL     1      -0.299 -18.554  16.866  1.00  0.00     0.062 A 
ATOM      7  C   UNL     1       1.507 -16.987  16.362  1.00  0.00     0.019 A 
ATOM      8  C   UNL     1       2.372 -15.985  16.802  1.00  0.00     0.094 A 
ATOM      9  C   UNL     1       2.300 -15.565  18.133  1.00  0.00     0.336 A 
ATOM     10  O   UNL     1       3.072 -14.662  18.550  1.00  0.00    -0.246 OA
ATOM     11  O   UNL     1       1.418 -16.113  18.966  1.00  0.00    -0.423 OA
ENDROOT
BRANCH   1  12
ATOM     12  O   UNL     1      -2.117 -20.109  17.439  1.00  0.00    -0.493 OA
ATOM     13  C   UNL     1      -1.796 -21.494  17.371  1.00  0.00     0.278 C 
ENDBRANCH   1  12
BRANCH   2  14
ATOM     14  O   UNL     1      -2.146 -19.187  20.014  1.00  0.00    -0.493 OA
ATOM     15  C   UNL     1      -2.783 -18.475  21.069  1.00  0.00     0.278 C 
ENDBRANCH   2  14
TORSDOF 2
ENDMDL
MODEL 6
REMARK VINA RESULT:    -4.455     13.789     16.058
REMARK INTER + INTRA:          -4.976
REMARK INTER:                  -4.860
REMARK INTRA:                  -0.116
REMARK UNBOUND:                 0.001
REMARK SMILES COc1cc2ccc(=O)oc2cc1OC
REMARK SMILES IDX 3 1 13 2 12 3 11 4 5 5 4 6 6 7 7 8 8 9 9 10 10 11 2 12 1 13
REMARK SMILES IDX 14 14 15 15
REMARK H PARENT
REMARK Flexibility Score: inf
ROOT
ATOM      1  C   UNL     1       0.469 -20.143  33.178  1.00  0.00     0.161 A 
ATOM      2  C   UNL     1       1.445 -20.649  32.303  1.00  0.00     0.164 A 
ATOM      3  C   UNL     1       2.161 -19.769  31.467  1.00  0.00     0.098 A 
ATOM      4  C   UNL     1       1.906 -18.397  31.502  1.00  0.00     0.142 A 
ATOM      5  C   UNL     1       0.926 -17.887  32.380  1.00  0.00     0.022 A 
ATOM      6  C   UNL     1       0.213 -18.758  33.212  1.00  0.00     0.062 A 
ATOM      7  C   UNL     1       0.694 -16.508  32.390  1.00  0.00     0.019 A 
ATOM      8  C   UNL     1       1.432 -15.682  31.543  1.00  0.00     0.094 A 
ATOM      9  C   UNL     1       2.387 -16.258  30.699  1.00  0.00     0.336 A 
ATOM     10  O   UNL     1       3.063 -15.530  29.926  1.00  0.00    -0.246 OA
ATOM     11  O   UNL     1       2.588 -17.573  30.709  1.00  0.00    -0.423 OA
ENDROOT
BRANCH   1  12
ATOM     12  O   UNL     1      -0.225 -21.048  33.996  1.00  0.00    -0.493 OA
ATOM     13  C   UNL     1      -1.531 -21.544  33.724  1.00  0.00     0.278 C 
ENDBRANCH   1  12
BRANCH   2  14
ATOM     14  O   UNL     1       1.675 -22.035  32.294  1.00  0.00    -0.493 OA
ATOM     15  C   UNL     1       2.771 -22.667  31.641  1.00  0.00     0.278 C 
ENDBRANCH   2  14
TORSDOF 2
ENDMDL
MODEL 7
REMARK VINA RESULT:    -4.441      1.949      3.211
REMARK INTER + INTRA:          -4.960
REMARK INTER:                  -4.831
REMARK INTRA:                  -0.129
REMARK UNBOUND:                 0.001
REMARK SMILES COc1cc2ccc(=O)oc2cc1OC
REMARK SMILES IDX 3 1 13 2 12 3 11 4 5 5 4 6 6 7 7 8 8 9 9 10 10 11 2 12 1 13
REMARK SMILES IDX 14 14 15 15
REMARK H PARENT
REMARK Flexibility Score: inf
ROOT
ATOM      1  C   UNL     1       0.965 -17.667  16.809  1.00  0.00     0.161 A 
ATOM      2  C   UNL     1       1.378 -16.964  17.954  1.00  0.00     0.164 A 
ATOM      3  C   UNL     1       0.612 -17.036  19.134  1.00  0.00     0.098 A 
ATOM      4  C   UNL     1      -0.555 -17.802  19.174  1.00  0.00     0.142 A 
ATOM      5  C   UNL     1      -0.970 -18.508  18.026  1.00  0.00     0.022 A 
ATOM      6  C   UNL     1      -0.212 -18.440  16.851  1.00  0.00     0.062 A 
ATOM      7  C   UNL     1      -2.144 -19.265  18.098  1.00  0.00     0.019 A 
ATOM      8  C   UNL     1      -2.863 -19.302  19.292  1.00  0.00     0.094 A 
ATOM      9  C   UNL     1      -2.391 -18.577  20.390  1.00  0.00     0.336 A 
ATOM     10  O   UNL     1      -3.026 -18.596  21.477  1.00  0.00    -0.246 OA
ATOM     11  O   UNL     1      -1.271 -17.864  20.295  1.00  0.00    -0.423 OA
ENDROOT
BRANCH   1  12
ATOM     12  O   UNL     1       1.752 -17.573  15.651  1.00  0.00    -0.493 OA
ATOM     13  C   UNL     1       1.465 -16.721  14.547  1.00  0.00     0.278 C 
ENDBRANCH   1  12
BRANCH   2  14
ATOM     14  O   UNL     1       2.557 -16.204  17.878  1.00  0.00    -0.493 OA
ATOM     15  C   UNL     1       2.700 -14.884  18.391  1.00  0.00     0.278 C 
ENDBRANCH   2  14
TORSDOF 2
ENDMDL
MODEL 8
REMARK VINA RESULT:    -4.284     13.093     15.527
REMARK INTER + INTRA:          -4.784
REMARK INTER:                  -4.794
REMARK INTRA:                   0.010
REMARK UNBOUND:                 0.001
REMARK SMILES COc1cc2ccc(=O)oc2cc1OC
REMARK SMILES IDX 3 1 13 2 12 3 11 4 5 5 4 6 6 7 7 8 8 9 9 10 10 11 2 12 1 13
REMARK SMILES IDX 14 14 15 15
REMARK H PARENT
REMARK Flexibility Score: inf
ROOT
ATOM      1  C   UNL     1      14.587 -10.760  15.625  1.00  0.00     0.161 A 
ATOM      2  C   UNL     1      13.371 -10.588  16.308  1.00  0.00     0.164 A 
ATOM      3  C   UNL     1      13.356  -9.940  17.559  1.00  0.00     0.098 A 
ATOM      4  C   UNL     1      14.543  -9.470  18.126  1.00  0.00     0.142 A 
ATOM      5  C   UNL     1      15.764  -9.642  17.442  1.00  0.00     0.022 A 
ATOM      6  C   UNL     1      15.783 -10.285  16.198  1.00  0.00     0.062 A 
ATOM      7  C   UNL     1      16.934  -9.160  18.037  1.00  0.00     0.019 A 
ATOM      8  C   UNL     1      16.862  -8.526  19.277  1.00  0.00     0.094 A 
ATOM      9  C   UNL     1      15.616  -8.390  19.896  1.00  0.00     0.336 A 
ATOM     10  O   UNL     1      15.529  -7.822  21.016  1.00  0.00    -0.246 OA
ATOM     11  O   UNL     1      14.517  -8.858  19.309  1.00  0.00    -0.423 OA
ENDROOT
BRANCH   1  12
ATOM     12  O   UNL     1      14.565 -11.410  14.381  1.00  0.00    -0.493 OA
ATOM     13  C   UNL     1      15.262 -12.616  14.087  1.00  0.00     0.278 C 
ENDBRANCH   1  12
BRANCH   2  14
ATOM     14  O   UNL     1      12.198 -11.074  15.708  1.00  0.00    -0.493 OA
ATOM     15  C   UNL     1      11.526 -10.444  14.622  1.00  0.00     0.278 C 
ENDBRANCH   2  14
TORSDOF 2
ENDMDL
