MODEL 1
REMARK VINA RESULT:    -4.745      0.000      0.000
REMARK INTER + INTRA:          -5.491
REMARK INTER:                  -5.438
REMARK INTRA:                  -0.053
REMARK UNBOUND:                -0.053
REMARK SMILES O=C([O-])c1cc(O)c(O)c(O)c1
REMARK SMILES IDX 4 1 5 2 12 3 6 4 10 5 8 6 2 7 1 8 3 9 7 10 11 12 9 14
REMARK H PARENT 7 11 11 13 9 15
REMARK Flexibility Score: inf
ROOT
ATOM      1  C   UNL     1      10.719  -5.285  19.843  1.00  0.00     0.005 A 
ATOM      2  C   UNL     1       9.479  -4.639  19.725  1.00  0.00     0.060 A 
ATOM      3  C   UNL     1      10.750  -6.684  19.952  1.00  0.00     0.060 A 
ATOM      4  C   UNL     1       8.290  -5.374  19.713  1.00  0.00     0.162 A 
ATOM      5  C   UNL     1       9.569  -7.435  19.941  1.00  0.00     0.162 A 
ATOM      6  C   UNL     1       8.321  -6.776  19.822  1.00  0.00     0.200 A 
ENDROOT
BRANCH   1   7
ATOM      7  C   UNL     1      11.972  -4.498  19.854  1.00  0.00     0.072 C 
ATOM      8  O   UNL     1      13.091  -5.074  19.917  1.00  0.00    -0.545 OA
ATOM      9  O   UNL     1      11.933  -3.109  19.796  1.00  0.00    -0.545 OA
ENDBRANCH   1   7
BRANCH   4  10
ATOM     10  O   UNL     1       7.081  -4.688  19.592  1.00  0.00    -0.504 OA
ATOM     11  H   UNL     1       6.850  -3.890  20.172  1.00  0.00     0.293 HD
ENDBRANCH   4  10
BRANCH   5  12
ATOM     12  O   UNL     1       9.682  -8.822  20.054  1.00  0.00    -0.504 OA
ATOM     13  H   UNL     1       8.897  -9.456  20.064  1.00  0.00     0.293 HD
ENDBRANCH   5  12
BRANCH   6  14
ATOM     14  O   UNL     1       7.110  -7.472  19.806  1.00  0.00    -0.502 OA
ATOM     15  H   UNL     1       6.547  -7.612  18.980  1.00  0.00     0.293 HD
ENDBRANCH   6  14
TORSDOF 4
ENDMDL
MODEL 2
REMARK VINA RESULT:    -4.631      0.374      2.629
REMARK INTER + INTRA:          -5.360
REMARK INTER:                  -5.308
REMARK INTRA:                  -0.052
REMARK UNBOUND:                -0.053
REMARK SMILES O=C([O-])c1cc(O)c(O)c(O)c1
REMARK SMILES IDX 4 1 5 2 12 3 6 4 10 5 8 6 2 7 1 8 3 9 7 10 11 12 9 14
REMARK H PARENT 7 11 11 13 9 15
REMARK Flexibility Score: inf
ROOT
ATOM      1  C   UNL     1      10.458  -5.074  19.677  1.00  0.00     0.005 A 
ATOM      2  C   UNL     1      10.562  -6.468  19.790  1.00  0.00     0.060 A 
ATOM      3  C   UNL     1       9.184  -4.486  19.648  1.00  0.00     0.060 A 
ATOM      4  C   UNL     1       9.417  -7.264  19.875  1.00  0.00     0.162 A 
ATOM      5  C   UNL     1       8.026  -5.269  19.733  1.00  0.00     0.162 A 
ATOM      6  C   UNL     1       8.139  -6.676  19.847  1.00  0.00     0.200 A 
ENDROOT
BRANCH   1   7
ATOM      7  C   UNL     1      11.677  -4.239  19.588  1.00  0.00     0.072 C 
ATOM      8  O   UNL     1      11.623  -3.074  19.111  1.00  0.00    -0.545 OA
ATOM      9  O   UNL     1      12.901  -4.729  20.031  1.00  0.00    -0.545 OA
ENDBRANCH   1   7
BRANCH   4  10
ATOM     10  O   UNL     1       9.570  -8.647  19.988  1.00  0.00    -0.504 OA
ATOM     11  H   UNL     1       9.066  -9.297  19.396  1.00  0.00     0.293 HD
ENDBRANCH   4  10
BRANCH   5  12
ATOM     12  O   UNL     1       6.795  -4.612  19.697  1.00  0.00    -0.504 OA
ATOM     13  H   UNL     1       6.543  -3.846  20.305  1.00  0.00     0.293 HD
ENDBRANCH   5  12
BRANCH   6  14
ATOM     14  O   UNL     1       7.021  -7.509  19.934  1.00  0.00    -0.502 OA
ATOM     15  H   UNL     1       6.840  -8.137  20.703  1.00  0.00     0.293 HD
ENDBRANCH   6  14
TORSDOF 4
ENDMDL
MODEL 3
REMARK VINA RESULT:    -4.374      4.162      6.309
REMARK INTER + INTRA:          -5.066
REMARK INTER:                  -5.022
REMARK INTRA:                  -0.045
REMARK UNBOUND:                -0.053
REMARK SMILES O=C([O-])c1cc(O)c(O)c(O)c1
REMARK SMILES IDX 4 1 5 2 12 3 6 4 10 5 8 6 2 7 1 8 3 9 7 10 11 12 9 14
REMARK H PARENT 7 11 11 13 9 15
REMARK Flexibility Score: inf
ROOT
ATOM      1  C   UNL     1       8.038  -2.806  17.604  1.00  0.00     0.005 A 
ATOM      2  C   UNL     1       7.948  -3.334  16.308  1.00  0.00     0.060 A 
ATOM      3  C   UNL     1       8.918  -1.739  17.844  1.00  0.00     0.060 A 
ATOM      4  C   UNL     1       8.720  -2.809  15.267  1.00  0.00     0.162 A 
ATOM      5  C   UNL     1       9.698  -1.200  16.813  1.00  0.00     0.162 A 
ATOM      6  C   UNL     1       9.601  -1.739  15.507  1.00  0.00     0.200 A 
ENDROOT
BRANCH   1   7
ATOM      7  C   UNL     1       7.217  -3.369  18.698  1.00  0.00     0.072 C 
ATOM      8  O   UNL     1       7.680  -4.268  19.450  1.00  0.00    -0.545 OA
ATOM      9  O   UNL     1       5.921  -2.914  18.912  1.00  0.00    -0.545 OA
ENDBRANCH   1   7
BRANCH   4  10
ATOM     10  O   UNL     1       8.596  -3.367  13.994  1.00  0.00    -0.504 OA
ATOM     11  H   UNL     1       9.224  -4.084  13.654  1.00  0.00     0.293 HD
ENDBRANCH   4  10
BRANCH   5  12
ATOM     12  O   UNL     1      10.549  -0.140  17.131  1.00  0.00    -0.504 OA
ATOM     13  H   UNL     1      11.556  -0.205  17.144  1.00  0.00     0.293 HD
ENDBRANCH   5  12
BRANCH   6  14
ATOM     14  O   UNL     1      10.354  -1.245  14.440  1.00  0.00    -0.502 OA
ATOM     15  H   UNL     1      11.309  -1.509  14.248  1.00  0.00     0.293 HD
ENDBRANCH   6  14
TORSDOF 4
ENDMDL
MODEL 4
REMARK VINA RESULT:    -4.365      4.094      6.054
REMARK INTER + INTRA:          -5.055
REMARK INTER:                  -5.011
REMARK INTRA:                  -0.045
REMARK UNBOUND:                -0.053
REMARK SMILES O=C([O-])c1cc(O)c(O)c(O)c1
REMARK SMILES IDX 4 1 5 2 12 3 6 4 10 5 8 6 2 7 1 8 3 9 7 10 11 12 9 14
REMARK H PARENT 7 11 11 13 9 15
REMARK Flexibility Score: inf
ROOT
ATOM      1  C   UNL     1       8.278  -2.975  17.644  1.00  0.00     0.005 A 
ATOM      2  C   UNL     1       9.160  -1.904  17.850  1.00  0.00     0.060 A 
ATOM      3  C   UNL     1       8.072  -3.446  16.338  1.00  0.00     0.060 A 
ATOM      4  C   UNL     1       9.827  -1.311  16.774  1.00  0.00     0.162 A 
ATOM      5  C   UNL     1       8.732  -2.864  15.249  1.00  0.00     0.162 A 
ATOM      6  C   UNL     1       9.621  -1.783  15.465  1.00  0.00     0.200 A 
ENDROOT
BRANCH   1   7
ATOM      7  C   UNL     1       7.577  -3.596  18.791  1.00  0.00     0.072 C 
ATOM      8  O   UNL     1       8.168  -4.431  19.527  1.00  0.00    -0.545 OA
ATOM      9  O   UNL     1       6.256  -3.267  19.071  1.00  0.00    -0.545 OA
ENDBRANCH   1   7
BRANCH   4  10
ATOM     10  O   UNL     1      10.695  -0.249  17.027  1.00  0.00    -0.504 OA
ATOM     11  H   UNL     1      10.678   0.606  16.484  1.00  0.00     0.293 HD
ENDBRANCH   4  10
BRANCH   5  12
ATOM     12  O   UNL     1       8.475  -3.388  13.981  1.00  0.00    -0.504 OA
ATOM     13  H   UNL     1       8.542  -4.367  13.747  1.00  0.00     0.293 HD
ENDBRANCH   5  12
BRANCH   6  14
ATOM     14  O   UNL     1      10.307  -1.162  14.418  1.00  0.00    -0.502 OA
ATOM     15  H   UNL     1       9.911  -0.986  13.506  1.00  0.00     0.293 HD
ENDBRANCH   6  14
TORSDOF 4
ENDMDL
MODEL 5
REMARK VINA RESULT:    -4.333      3.252      5.190
REMARK INTER + INTRA:          -5.019
REMARK INTER:                  -4.971
REMARK INTRA:                  -0.049
REMARK UNBOUND:                -0.053
REMARK SMILES O=C([O-])c1cc(O)c(O)c(O)c1
REMARK SMILES IDX 4 1 5 2 12 3 6 4 10 5 8 6 2 7 1 8 3 9 7 10 11 12 9 14
REMARK H PARENT 7 11 11 13 9 15
REMARK Flexibility Score: inf
ROOT
ATOM      1  C   UNL     1       9.363  -3.819  18.456  1.00  0.00     0.005 A 
ATOM      2  C   UNL     1       8.437  -3.471  17.462  1.00  0.00     0.060 A 
ATOM      3  C   UNL     1      10.642  -3.242  18.428  1.00  0.00     0.060 A 
ATOM      4  C   UNL     1       8.778  -2.562  16.456  1.00  0.00     0.162 A 
ATOM      5  C   UNL     1      11.000  -2.329  17.428  1.00  0.00     0.162 A 
ATOM      6  C   UNL     1      10.060  -1.983  16.427  1.00  0.00     0.200 A 
ENDROOT
BRANCH   1   7
ATOM      7  C   UNL     1       8.992  -4.782  19.517  1.00  0.00     0.072 C 
ATOM      8  O   UNL     1       7.864  -4.718  20.076  1.00  0.00    -0.545 OA
ATOM      9  O   UNL     1       9.884  -5.771  19.914  1.00  0.00    -0.545 OA
ENDBRANCH   1   7
BRANCH   4  10
ATOM     10  O   UNL     1       7.824  -2.245  15.488  1.00  0.00    -0.504 OA
ATOM     11  H   UNL     1       7.600  -1.288  15.242  1.00  0.00     0.293 HD
ENDBRANCH   4  10
BRANCH   5  12
ATOM     12  O   UNL     1      12.290  -1.798  17.467  1.00  0.00    -0.504 OA
ATOM     13  H   UNL     1      13.128  -2.351  17.572  1.00  0.00     0.293 HD
ENDBRANCH   5  12
BRANCH   6  14
ATOM     14  O   UNL     1      10.359  -1.080  15.405  1.00  0.00    -0.502 OA
ATOM     15  H   UNL     1      10.574  -1.348  14.456  1.00  0.00     0.293 HD
ENDBRANCH   6  14
TORSDOF 4
ENDMDL
MODEL 6
REMARK VINA RESULT:    -4.325      3.193      5.390
REMARK INTER + INTRA:          -5.010
REMARK INTER:                  -4.961
REMARK INTRA:                  -0.049
REMARK UNBOUND:                -0.053
REMARK SMILES O=C([O-])c1cc(O)c(O)c(O)c1
REMARK SMILES IDX 4 1 5 2 12 3 6 4 10 5 8 6 2 7 1 8 3 9 7 10 11 12 9 14
REMARK H PARENT 7 11 11 13 9 15
REMARK Flexibility Score: inf
ROOT
ATOM      1  C   UNL     1       9.370  -3.904  18.479  1.00  0.00     0.005 A 
ATOM      2  C   UNL     1      10.641  -3.311  18.440  1.00  0.00     0.060 A 
ATOM      3  C   UNL     1       8.418  -3.535  17.515  1.00  0.00     0.060 A 
ATOM      4  C   UNL     1      10.960  -2.369  17.459  1.00  0.00     0.162 A 
ATOM      5  C   UNL     1       8.722  -2.594  16.524  1.00  0.00     0.162 A 
ATOM      6  C   UNL     1      10.007  -2.000  16.492  1.00  0.00     0.200 A 
ENDROOT
BRANCH   1   7
ATOM      7  C   UNL     1       9.042  -4.901  19.522  1.00  0.00     0.072 C 
ATOM      8  O   UNL     1       7.937  -4.858  20.125  1.00  0.00    -0.545 OA
ATOM      9  O   UNL     1       9.951  -5.900  19.852  1.00  0.00    -0.545 OA
ENDBRANCH   1   7
BRANCH   4  10
ATOM     10  O   UNL     1      12.237  -1.807  17.460  1.00  0.00    -0.504 OA
ATOM     11  H   UNL     1      12.745  -1.618  18.316  1.00  0.00     0.293 HD
ENDBRANCH   4  10
BRANCH   5  12
ATOM     12  O   UNL     1       7.723  -2.280  15.601  1.00  0.00    -0.504 OA
ATOM     13  H   UNL     1       7.678  -1.414  15.085  1.00  0.00     0.293 HD
ENDBRANCH   5  12
BRANCH   6  14
ATOM     14  O   UNL     1      10.367  -1.054  15.529  1.00  0.00    -0.502 OA
ATOM     15  H   UNL     1      10.981  -0.272  15.704  1.00  0.00     0.293 HD
ENDBRANCH   6  14
TORSDOF 4
ENDMDL
MODEL 7
REMARK VINA RESULT:    -4.213      3.737      4.805
REMARK INTER + INTRA:          -4.882
REMARK INTER:                  -4.837
REMARK INTRA:                  -0.045
REMARK UNBOUND:                -0.053
REMARK SMILES O=C([O-])c1cc(O)c(O)c(O)c1
REMARK SMILES IDX 4 1 5 2 12 3 6 4 10 5 8 6 2 7 1 8 3 9 7 10 11 12 9 14
REMARK H PARENT 7 11 11 13 9 15
REMARK Flexibility Score: inf
ROOT
ATOM      1  C   UNL     1      10.773  -2.232  17.385  1.00  0.00     0.005 A 
ATOM      2  C   UNL     1      10.335  -1.703  16.162  1.00  0.00     0.060 A 
ATOM      3  C   UNL     1       9.872  -2.969  18.170  1.00  0.00     0.060 A 
ATOM      4  C   UNL     1       9.023  -1.906  15.726  1.00  0.00     0.162 A 
ATOM      5  C   UNL     1       8.555  -3.182  17.747  1.00  0.00     0.162 A 
ATOM      6  C   UNL     1       8.120  -2.645  16.512  1.00  0.00     0.200 A 
ENDROOT
BRANCH   1   7
ATOM      7  C   UNL     1      12.165  -2.012  17.838  1.00  0.00     0.072 C 
ATOM      8  O   UNL     1      12.537  -0.877  18.239  1.00  0.00    -0.545 OA
ATOM      9  O   UNL     1      13.083  -3.056  17.826  1.00  0.00    -0.545 OA
ENDBRANCH   1   7
BRANCH   4  10
ATOM     10  O   UNL     1       8.632  -1.362  14.502  1.00  0.00    -0.504 OA
ATOM     11  H   UNL     1       9.242  -1.356  13.693  1.00  0.00     0.293 HD
ENDBRANCH   4  10
BRANCH   5  12
ATOM     12  O   UNL     1       7.719  -3.926  18.583  1.00  0.00    -0.504 OA
ATOM     13  H   UNL     1       6.728  -3.765  18.682  1.00  0.00     0.293 HD
ENDBRANCH   5  12
BRANCH   6  14
ATOM     14  O   UNL     1       6.818  -2.824  16.039  1.00  0.00    -0.502 OA
ATOM     15  H   UNL     1       6.060  -3.199  16.590  1.00  0.00     0.293 HD
ENDBRANCH   6  14
TORSDOF 4
ENDMDL
MODEL 8
REMARK VINA RESULT:    -4.208      3.729      5.045
REMARK INTER + INTRA:          -4.875
REMARK INTER:                  -4.830
REMARK INTRA:                  -0.045
REMARK UNBOUND:                -0.053
REMARK SMILES O=C([O-])c1cc(O)c(O)c(O)c1
REMARK SMILES IDX 4 1 5 2 12 3 6 4 10 5 8 6 2 7 1 8 3 9 7 10 11 12 9 14
REMARK H PARENT 7 11 11 13 9 15
REMARK Flexibility Score: inf
ROOT
ATOM      1  C   UNL     1      10.762  -2.271  17.375  1.00  0.00     0.005 A 
ATOM      2  C   UNL     1       9.843  -2.972  18.169  1.00  0.00     0.060 A 
ATOM      3  C   UNL     1      10.338  -1.749  16.143  1.00  0.00     0.060 A 
ATOM      4  C   UNL     1       8.523  -3.151  17.745  1.00  0.00     0.162 A 
ATOM      5  C   UNL     1       9.020  -1.919  15.703  1.00  0.00     0.162 A 
ATOM      6  C   UNL     1       8.097  -2.628  16.510  1.00  0.00     0.200 A 
ENDROOT
BRANCH   1   7
ATOM      7  C   UNL     1      12.157  -2.087  17.834  1.00  0.00     0.072 C 
ATOM      8  O   UNL     1      12.560  -0.959  18.224  1.00  0.00    -0.545 OA
ATOM      9  O   UNL     1      13.044  -3.158  17.840  1.00  0.00    -0.545 OA
ENDBRANCH   1   7
BRANCH   4  10
ATOM     10  O   UNL     1       7.644  -3.854  18.569  1.00  0.00    -0.504 OA
ATOM     11  H   UNL     1       6.942  -3.390  19.133  1.00  0.00     0.293 HD
ENDBRANCH   4  10
BRANCH   5  12
ATOM     12  O   UNL     1       8.674  -1.371  14.466  1.00  0.00    -0.504 OA
ATOM     13  H   UNL     1       9.151  -1.577  13.601  1.00  0.00     0.293 HD
ENDBRANCH   5  12
BRANCH   6  14
ATOM     14  O   UNL     1       6.770  -2.829  16.124  1.00  0.00    -0.502 OA
ATOM     15  H   UNL     1       6.153  -2.094  15.812  1.00  0.00     0.293 HD
ENDBRANCH   6  14
TORSDOF 4
ENDMDL
MODEL 9
REMARK VINA RESULT:    -4.156     13.815     15.131
REMARK INTER + INTRA:          -4.816
REMARK INTER:                  -4.764
REMARK INTRA:                  -0.052
REMARK UNBOUND:                -0.053
REMARK SMILES O=C([O-])c1cc(O)c(O)c(O)c1
REMARK SMILES IDX 4 1 5 2 12 3 6 4 10 5 8 6 2 7 1 8 3 9 7 10 11 12 9 14
REMARK H PARENT 7 11 11 13 9 15
REMARK Flexibility Score: inf
ROOT
ATOM      1  C   UNL     1       7.006   6.438  10.326  1.00  0.00     0.005 A 
ATOM      2  C   UNL     1       6.268   5.348   9.844  1.00  0.00     0.060 A 
ATOM      3  C   UNL     1       8.136   6.196  11.123  1.00  0.00     0.060 A 
ATOM      4  C   UNL     1       6.647   4.038  10.148  1.00  0.00     0.162 A 
ATOM      5  C   UNL     1       8.531   4.890  11.437  1.00  0.00     0.162 A 
ATOM      6  C   UNL     1       7.780   3.794  10.946  1.00  0.00     0.200 A 
ENDROOT
BRANCH   1   7
ATOM      7  C   UNL     1       6.595   7.822   9.998  1.00  0.00     0.072 C 
ATOM      8  O   UNL     1       5.875   8.055   8.991  1.00  0.00    -0.545 OA
ATOM      9  O   UNL     1       7.000   8.885  10.797  1.00  0.00    -0.545 OA
ENDBRANCH   1   7
BRANCH   4  10
ATOM     10  O   UNL     1       5.883   2.984   9.645  1.00  0.00    -0.504 OA
ATOM     11  H   UNL     1       5.103   3.134   9.016  1.00  0.00     0.293 HD
ENDBRANCH   4  10
BRANCH   5  12
ATOM     12  O   UNL     1       9.666   4.730  12.234  1.00  0.00    -0.504 OA
ATOM     13  H   UNL     1      10.262   5.489  12.531  1.00  0.00     0.293 HD
ENDBRANCH   5  12
BRANCH   6  14
ATOM     14  O   UNL     1       8.125   2.470  11.226  1.00  0.00    -0.502 OA
ATOM     15  H   UNL     1       7.461   1.712  11.291  1.00  0.00     0.293 HD
ENDBRANCH   6  14
TORSDOF 4
ENDMDL
