MODEL 1
REMARK VINA RESULT:    -4.211      0.000      0.000
REMARK INTER + INTRA:         -12.928
REMARK INTER:                  -9.135
REMARK INTRA:                  -3.793
REMARK UNBOUND:                -3.793
REMARK SMILES CCCCCCCCCCCCCCCCCCCCCC(=O)[O-]
REMARK SMILES IDX 12 1 11 2 10 3 9 4 8 5 7 6 6 7 5 8 4 9 3 10 2 11 1 12 13 13
REMARK SMILES IDX 14 14 15 15 16 16 17 17 18 18 19 19 20 20 21 21 22 22 23 23
REMARK SMILES IDX 24 24
REMARK H PARENT
REMARK Flexibility Score: inf
ROOT
ATOM      1  C   UNL     1       1.548 -21.002  -8.402  1.00  0.00     0.000 C 
ENDROOT
BRANCH   1   2
ATOM      2  C   UNL     1       2.961 -20.459  -8.101  1.00  0.00     0.000 C 
BRANCH   2   3
ATOM      3  C   UNL     1       3.058 -19.482  -6.915  1.00  0.00     0.000 C 
BRANCH   3   4
ATOM      4  C   UNL     1       4.155 -19.861  -5.906  1.00  0.00    -0.000 C 
BRANCH   4   5
ATOM      5  C   UNL     1       4.167 -21.375  -5.593  1.00  0.00    -0.000 C 
BRANCH   5   6
ATOM      6  C   UNL     1       5.537 -22.038  -5.818  1.00  0.00    -0.000 C 
BRANCH   6   7
ATOM      7  C   UNL     1       6.462 -21.204  -6.719  1.00  0.00    -0.000 C 
BRANCH   7   8
ATOM      8  C   UNL     1       7.740 -20.750  -5.983  1.00  0.00    -0.000 C 
BRANCH   8   9
ATOM      9  C   UNL     1       7.631 -20.864  -4.452  1.00  0.00    -0.000 C 
BRANCH   9  10
ATOM     10  C   UNL     1       7.227 -19.537  -3.786  1.00  0.00    -0.000 C 
BRANCH  10  11
ATOM     11  C   UNL     1       6.386 -19.751  -2.518  1.00  0.00    -0.003 C 
ATOM     12  C   UNL     1       6.472 -18.571  -1.550  1.00  0.00     0.004 C 
ENDBRANCH  10  11
ENDBRANCH   9  10
ENDBRANCH   8   9
ENDBRANCH   7   8
ENDBRANCH   6   7
ENDBRANCH   5   6
ENDBRANCH   4   5
ENDBRANCH   3   4
ENDBRANCH   2   3
ENDBRANCH   1   2
BRANCH   1  13
ATOM     13  C   UNL     1       1.082 -22.164  -7.508  1.00  0.00     0.000 C 
BRANCH  13  14
ATOM     14  C   UNL     1      -0.014 -21.760  -6.513  1.00  0.00     0.000 C 
BRANCH  14  15
ATOM     15  C   UNL     1       0.509 -21.836  -5.069  1.00  0.00     0.000 C 
BRANCH  15  16
ATOM     16  C   UNL     1       0.540 -20.460  -4.383  1.00  0.00     0.000 C 
BRANCH  16  17
ATOM     17  C   UNL     1       0.210 -20.545  -2.883  1.00  0.00     0.000 C 
BRANCH  17  18
ATOM     18  C   UNL     1       1.467 -20.621  -1.999  1.00  0.00     0.000 C 
BRANCH  18  19
ATOM     19  C   UNL     1       2.690 -19.888  -2.590  1.00  0.00     0.000 C 
BRANCH  19  20
ATOM     20  C   UNL     1       2.721 -18.401  -2.197  1.00  0.00     0.006 C 
BRANCH  20  21
ATOM     21  C   UNL     1       2.977 -17.488  -3.404  1.00  0.00     0.053 C 
BRANCH  21  22
ATOM     22  C   UNL     1       1.717 -16.821  -3.870  1.00  0.00     0.041 C 
ATOM     23  O   UNL     1       0.691 -16.825  -3.141  1.00  0.00    -0.550 OA
ATOM     24  O   UNL     1       1.673 -16.212  -5.117  1.00  0.00    -0.550 OA
ENDBRANCH  21  22
ENDBRANCH  20  21
ENDBRANCH  19  20
ENDBRANCH  18  19
ENDBRANCH  17  18
ENDBRANCH  16  17
ENDBRANCH  15  16
ENDBRANCH  14  15
ENDBRANCH  13  14
ENDBRANCH   1  13
TORSDOF 20
ENDMDL
MODEL 2
REMARK VINA RESULT:    -4.185      2.219      3.229
REMARK INTER + INTRA:         -12.871
REMARK INTER:                  -9.230
REMARK INTRA:                  -3.641
REMARK UNBOUND:                -3.793
REMARK SMILES CCCCCCCCCCCCCCCCCCCCCC(=O)[O-]
REMARK SMILES IDX 12 1 11 2 10 3 9 4 8 5 7 6 6 7 5 8 4 9 3 10 2 11 1 12 13 13
REMARK SMILES IDX 14 14 15 15 16 16 17 17 18 18 19 19 20 20 21 21 22 22 23 23
REMARK SMILES IDX 24 24
REMARK H PARENT
REMARK Flexibility Score: inf
ROOT
ATOM      1  C   UNL     1       1.623 -21.036  -8.450  1.00  0.00     0.000 C 
ENDROOT
BRANCH   1   2
ATOM      2  C   UNL     1       2.838 -20.239  -7.928  1.00  0.00     0.000 C 
BRANCH   2   3
ATOM      3  C   UNL     1       3.799 -21.019  -7.012  1.00  0.00     0.000 C 
BRANCH   3   4
ATOM      4  C   UNL     1       4.149 -20.265  -5.718  1.00  0.00    -0.000 C 
BRANCH   4   5
ATOM      5  C   UNL     1       4.625 -21.215  -4.595  1.00  0.00    -0.000 C 
BRANCH   5   6
ATOM      6  C   UNL     1       6.096 -21.006  -4.195  1.00  0.00    -0.000 C 
BRANCH   6   7
ATOM      7  C   UNL     1       6.708 -19.740  -4.817  1.00  0.00    -0.000 C 
BRANCH   7   8
ATOM      8  C   UNL     1       7.971 -20.050  -5.648  1.00  0.00    -0.000 C 
BRANCH   8   9
ATOM      9  C   UNL     1       7.862 -21.356  -6.455  1.00  0.00    -0.000 C 
BRANCH   9  10
ATOM     10  C   UNL     1       7.382 -21.123  -7.898  1.00  0.00    -0.000 C 
BRANCH  10  11
ATOM     11  C   UNL     1       7.592 -19.673  -8.358  1.00  0.00    -0.003 C 
ATOM     12  C   UNL     1       6.336 -19.067  -8.986  1.00  0.00     0.004 C 
ENDBRANCH  10  11
ENDBRANCH   9  10
ENDBRANCH   8   9
ENDBRANCH   7   8
ENDBRANCH   6   7
ENDBRANCH   5   6
ENDBRANCH   4   5
ENDBRANCH   3   4
ENDBRANCH   2   3
ENDBRANCH   1   2
BRANCH   1  13
ATOM     13  C   UNL     1       1.235 -22.271  -7.618  1.00  0.00     0.000 C 
BRANCH  13  14
ATOM     14  C   UNL     1       0.013 -22.036  -6.721  1.00  0.00     0.000 C 
BRANCH  14  15
ATOM     15  C   UNL     1       0.440 -21.864  -5.254  1.00  0.00     0.000 C 
BRANCH  15  16
ATOM     16  C   UNL     1       0.521 -20.387  -4.835  1.00  0.00     0.000 C 
BRANCH  16  17
ATOM     17  C   UNL     1       1.042 -20.212  -3.399  1.00  0.00     0.000 C 
BRANCH  17  18
ATOM     18  C   UNL     1       1.739 -18.859  -3.178  1.00  0.00     0.000 C 
BRANCH  18  19
ATOM     19  C   UNL     1       2.927 -18.924  -2.194  1.00  0.00     0.000 C 
BRANCH  19  20
ATOM     20  C   UNL     1       3.561 -17.542  -1.958  1.00  0.00     0.006 C 
BRANCH  20  21
ATOM     21  C   UNL     1       4.949 -17.423  -2.602  1.00  0.00     0.053 C 
BRANCH  21  22
ATOM     22  C   UNL     1       6.044 -17.588  -1.591  1.00  0.00     0.041 C 
ATOM     23  O   UNL     1       6.591 -18.710  -1.427  1.00  0.00    -0.550 OA
ATOM     24  O   UNL     1       6.447 -16.507  -0.818  1.00  0.00    -0.550 OA
ENDBRANCH  21  22
ENDBRANCH  20  21
ENDBRANCH  19  20
ENDBRANCH  18  19
ENDBRANCH  17  18
ENDBRANCH  16  17
ENDBRANCH  15  16
ENDBRANCH  14  15
ENDBRANCH  13  14
ENDBRANCH   1  13
TORSDOF 20
ENDMDL
MODEL 3
REMARK VINA RESULT:    -4.169      2.882      4.845
REMARK INTER + INTRA:         -12.836
REMARK INTER:                  -9.022
REMARK INTRA:                  -3.814
REMARK UNBOUND:                -3.793
REMARK SMILES CCCCCCCCCCCCCCCCCCCCCC(=O)[O-]
REMARK SMILES IDX 12 1 11 2 10 3 9 4 8 5 7 6 6 7 5 8 4 9 3 10 2 11 1 12 13 13
REMARK SMILES IDX 14 14 15 15 16 16 17 17 18 18 19 19 20 20 21 21 22 22 23 23
REMARK SMILES IDX 24 24
REMARK H PARENT
REMARK Flexibility Score: inf
ROOT
ATOM      1  C   UNL     1       0.938 -22.267  -6.384  1.00  0.00     0.000 C 
ENDROOT
BRANCH   1   2
ATOM      2  C   UNL     1       0.749 -21.657  -7.789  1.00  0.00     0.000 C 
BRANCH   2   3
ATOM      3  C   UNL     1       1.987 -20.959  -8.381  1.00  0.00     0.000 C 
BRANCH   3   4
ATOM      4  C   UNL     1       3.194 -20.954  -7.428  1.00  0.00    -0.000 C 
BRANCH   4   5
ATOM      5  C   UNL     1       3.880 -19.571  -7.356  1.00  0.00    -0.000 C 
BRANCH   5   6
ATOM      6  C   UNL     1       3.171 -18.582  -6.414  1.00  0.00    -0.000 C 
BRANCH   6   7
ATOM      7  C   UNL     1       4.152 -17.658  -5.673  1.00  0.00    -0.000 C 
BRANCH   7   8
ATOM      8  C   UNL     1       3.430 -16.507  -4.942  1.00  0.00    -0.000 C 
BRANCH   8   9
ATOM      9  C   UNL     1       1.929 -16.771  -4.726  1.00  0.00    -0.000 C 
BRANCH   9  10
ATOM     10  C   UNL     1       1.496 -16.573  -3.263  1.00  0.00    -0.000 C 
BRANCH  10  11
ATOM     11  C   UNL     1       2.588 -15.906  -2.414  1.00  0.00    -0.003 C 
ATOM     12  C   UNL     1       2.863 -16.659  -1.112  1.00  0.00     0.004 C 
ENDBRANCH  10  11
ENDBRANCH   9  10
ENDBRANCH   8   9
ENDBRANCH   7   8
ENDBRANCH   6   7
ENDBRANCH   5   6
ENDBRANCH   4   5
ENDBRANCH   3   4
ENDBRANCH   2   3
ENDBRANCH   1   2
BRANCH   1  13
ATOM     13  C   UNL     1       0.157 -21.575  -5.252  1.00  0.00     0.000 C 
BRANCH  13  14
ATOM     14  C   UNL     1       0.903 -20.379  -4.646  1.00  0.00     0.000 C 
BRANCH  14  15
ATOM     15  C   UNL     1       0.624 -20.272  -3.138  1.00  0.00     0.000 C 
BRANCH  15  16
ATOM     16  C   UNL     1       1.908 -20.077  -2.315  1.00  0.00     0.000 C 
BRANCH  16  17
ATOM     17  C   UNL     1       3.180 -20.297  -3.150  1.00  0.00     0.000 C 
BRANCH  17  18
ATOM     18  C   UNL     1       4.405 -19.566  -2.577  1.00  0.00     0.000 C 
BRANCH  18  19
ATOM     19  C   UNL     1       5.747 -20.264  -2.883  1.00  0.00     0.000 C 
BRANCH  19  20
ATOM     20  C   UNL     1       5.727 -20.992  -4.238  1.00  0.00     0.006 C 
BRANCH  20  21
ATOM     21  C   UNL     1       6.714 -20.380  -5.241  1.00  0.00     0.053 C 
BRANCH  21  22
ATOM     22  C   UNL     1       7.962 -21.202  -5.362  1.00  0.00     0.041 C 
ATOM     23  O   UNL     1       8.599 -21.543  -4.331  1.00  0.00    -0.550 OA
ATOM     24  O   UNL     1       8.431 -21.575  -6.615  1.00  0.00    -0.550 OA
ENDBRANCH  21  22
ENDBRANCH  20  21
ENDBRANCH  19  20
ENDBRANCH  18  19
ENDBRANCH  17  18
ENDBRANCH  16  17
ENDBRANCH  15  16
ENDBRANCH  14  15
ENDBRANCH  13  14
ENDBRANCH   1  13
TORSDOF 20
ENDMDL
MODEL 4
REMARK VINA RESULT:    -4.143      1.995      3.202
REMARK INTER + INTRA:         -12.780
REMARK INTER:                 -10.265
REMARK INTRA:                  -2.514
REMARK UNBOUND:                -3.793
REMARK SMILES CCCCCCCCCCCCCCCCCCCCCC(=O)[O-]
REMARK SMILES IDX 12 1 11 2 10 3 9 4 8 5 7 6 6 7 5 8 4 9 3 10 2 11 1 12 13 13
REMARK SMILES IDX 14 14 15 15 16 16 17 17 18 18 19 19 20 20 21 21 22 22 23 23
REMARK SMILES IDX 24 24
REMARK H PARENT
REMARK Flexibility Score: inf
ROOT
ATOM      1  C   UNL     1       0.878 -22.336  -7.500  1.00  0.00     0.000 C 
ENDROOT
BRANCH   1   2
ATOM      2  C   UNL     1       1.551 -21.088  -8.110  1.00  0.00     0.000 C 
BRANCH   2   3
ATOM      3  C   UNL     1       3.041 -20.904  -7.768  1.00  0.00     0.000 C 
BRANCH   3   4
ATOM      4  C   UNL     1       3.348 -19.549  -7.107  1.00  0.00    -0.000 C 
BRANCH   4   5
ATOM      5  C   UNL     1       4.085 -19.708  -5.758  1.00  0.00    -0.000 C 
BRANCH   5   6
ATOM      6  C   UNL     1       4.096 -21.153  -5.230  1.00  0.00    -0.000 C 
BRANCH   6   7
ATOM      7  C   UNL     1       5.453 -21.849  -5.429  1.00  0.00    -0.000 C 
BRANCH   7   8
ATOM      8  C   UNL     1       6.549 -21.265  -4.515  1.00  0.00    -0.000 C 
BRANCH   8   9
ATOM      9  C   UNL     1       7.886 -21.033  -5.241  1.00  0.00    -0.000 C 
BRANCH   9  10
ATOM     10  C   UNL     1       7.725 -20.953  -6.769  1.00  0.00    -0.000 C 
BRANCH  10  11
ATOM     11  C   UNL     1       8.484 -22.073  -7.497  1.00  0.00    -0.003 C 
ATOM     12  C   UNL     1       7.554 -22.997  -8.285  1.00  0.00     0.004 C 
ENDBRANCH  10  11
ENDBRANCH   9  10
ENDBRANCH   8   9
ENDBRANCH   7   8
ENDBRANCH   6   7
ENDBRANCH   5   6
ENDBRANCH   4   5
ENDBRANCH   3   4
ENDBRANCH   2   3
ENDBRANCH   1   2
BRANCH   1  13
ATOM     13  C   UNL     1      -0.144 -22.057  -6.384  1.00  0.00     0.000 C 
BRANCH  13  14
ATOM     14  C   UNL     1       0.508 -21.677  -5.048  1.00  0.00     0.000 C 
BRANCH  14  15
ATOM     15  C   UNL     1       0.505 -20.152  -4.855  1.00  0.00     0.000 C 
BRANCH  15  16
ATOM     16  C   UNL     1       0.541 -19.747  -3.372  1.00  0.00     0.000 C 
BRANCH  16  17
ATOM     17  C   UNL     1       1.840 -20.186  -2.675  1.00  0.00     0.000 C 
BRANCH  17  18
ATOM     18  C   UNL     1       2.683 -18.998  -2.182  1.00  0.00     0.000 C 
BRANCH  18  19
ATOM     19  C   UNL     1       2.208 -17.631  -2.718  1.00  0.00     0.000 C 
BRANCH  19  20
ATOM     20  C   UNL     1       2.227 -16.543  -1.631  1.00  0.00     0.006 C 
BRANCH  20  21
ATOM     21  C   UNL     1       3.600 -16.422  -0.955  1.00  0.00     0.053 C 
BRANCH  21  22
ATOM     22  C   UNL     1       3.902 -15.006  -0.564  1.00  0.00     0.041 C 
ATOM     23  O   UNL     1       4.971 -14.730   0.040  1.00  0.00    -0.550 OA
ATOM     24  O   UNL     1       2.993 -13.997  -0.849  1.00  0.00    -0.550 OA
ENDBRANCH  21  22
ENDBRANCH  20  21
ENDBRANCH  19  20
ENDBRANCH  18  19
ENDBRANCH  17  18
ENDBRANCH  16  17
ENDBRANCH  15  16
ENDBRANCH  14  15
ENDBRANCH  13  14
ENDBRANCH   1  13
TORSDOF 20
ENDMDL
MODEL 5
REMARK VINA RESULT:    -4.114      2.927      5.791
REMARK INTER + INTRA:         -12.716
REMARK INTER:                  -9.143
REMARK INTRA:                  -3.573
REMARK UNBOUND:                -3.793
REMARK SMILES CCCCCCCCCCCCCCCCCCCCCC(=O)[O-]
REMARK SMILES IDX 12 1 11 2 10 3 9 4 8 5 7 6 6 7 5 8 4 9 3 10 2 11 1 12 13 13
REMARK SMILES IDX 14 14 15 15 16 16 17 17 18 18 19 19 20 20 21 21 22 22 23 23
REMARK SMILES IDX 24 24
REMARK H PARENT
REMARK Flexibility Score: inf
ROOT
ATOM      1  C   UNL     1       1.940 -20.216  -2.178  1.00  0.00     0.000 C 
ENDROOT
BRANCH   1   2
ATOM      2  C   UNL     1       3.272 -20.242  -2.958  1.00  0.00     0.000 C 
BRANCH   2   3
ATOM      3  C   UNL     1       4.126 -18.965  -2.853  1.00  0.00     0.000 C 
BRANCH   3   4
ATOM      4  C   UNL     1       4.909 -18.653  -4.140  1.00  0.00    -0.000 C 
BRANCH   4   5
ATOM      5  C   UNL     1       4.464 -17.324  -4.791  1.00  0.00    -0.000 C 
BRANCH   5   6
ATOM      6  C   UNL     1       3.559 -17.515  -6.021  1.00  0.00    -0.000 C 
BRANCH   6   7
ATOM      7  C   UNL     1       2.073 -17.270  -5.710  1.00  0.00    -0.000 C 
BRANCH   7   8
ATOM      8  C   UNL     1       1.873 -16.192  -4.625  1.00  0.00    -0.000 C 
BRANCH   8   9
ATOM      9  C   UNL     1       1.217 -16.735  -3.343  1.00  0.00    -0.000 C 
BRANCH   9  10
ATOM     10  C   UNL     1       1.394 -15.791  -2.141  1.00  0.00    -0.000 C 
BRANCH  10  11
ATOM     11  C   UNL     1       2.498 -16.263  -1.183  1.00  0.00    -0.003 C 
ATOM     12  C   UNL     1       3.214 -15.102  -0.493  1.00  0.00     0.004 C 
ENDBRANCH  10  11
ENDBRANCH   9  10
ENDBRANCH   8   9
ENDBRANCH   7   8
ENDBRANCH   6   7
ENDBRANCH   5   6
ENDBRANCH   4   5
ENDBRANCH   3   4
ENDBRANCH   2   3
ENDBRANCH   1   2
BRANCH   1  13
ATOM     13  C   UNL     1       0.679 -20.503  -3.014  1.00  0.00     0.000 C 
BRANCH  13  14
ATOM     14  C   UNL     1       0.897 -20.314  -4.521  1.00  0.00     0.000 C 
BRANCH  14  15
ATOM     15  C   UNL     1       0.200 -21.430  -5.315  1.00  0.00     0.000 C 
BRANCH  15  16
ATOM     16  C   UNL     1       1.071 -21.965  -6.464  1.00  0.00     0.000 C 
BRANCH  16  17
ATOM     17  C   UNL     1       1.376 -20.889  -7.520  1.00  0.00     0.000 C 
BRANCH  17  18
ATOM     18  C   UNL     1       2.883 -20.694  -7.755  1.00  0.00     0.000 C 
BRANCH  18  19
ATOM     19  C   UNL     1       3.763 -21.160  -6.576  1.00  0.00     0.000 C 
BRANCH  19  20
ATOM     20  C   UNL     1       5.164 -21.598  -7.036  1.00  0.00     0.006 C 
BRANCH  20  21
ATOM     21  C   UNL     1       6.212 -21.451  -5.924  1.00  0.00     0.053 C 
BRANCH  21  22
ATOM     22  C   UNL     1       7.607 -21.451  -6.474  1.00  0.00     0.041 C 
ATOM     23  O   UNL     1       7.817 -21.783  -7.670  1.00  0.00    -0.550 OA
ATOM     24  O   UNL     1       8.676 -21.102  -5.660  1.00  0.00    -0.550 OA
ENDBRANCH  21  22
ENDBRANCH  20  21
ENDBRANCH  19  20
ENDBRANCH  18  19
ENDBRANCH  17  18
ENDBRANCH  16  17
ENDBRANCH  15  16
ENDBRANCH  14  15
ENDBRANCH  13  14
ENDBRANCH   1  13
TORSDOF 20
ENDMDL
MODEL 6
REMARK VINA RESULT:    -4.063      1.549      3.089
REMARK INTER + INTRA:         -12.607
REMARK INTER:                  -9.595
REMARK INTRA:                  -3.012
REMARK UNBOUND:                -3.793
REMARK SMILES CCCCCCCCCCCCCCCCCCCCCC(=O)[O-]
REMARK SMILES IDX 12 1 11 2 10 3 9 4 8 5 7 6 6 7 5 8 4 9 3 10 2 11 1 12 13 13
REMARK SMILES IDX 14 14 15 15 16 16 17 17 18 18 19 19 20 20 21 21 22 22 23 23
REMARK SMILES IDX 24 24
REMARK H PARENT
REMARK Flexibility Score: inf
ROOT
ATOM      1  C   UNL     1       3.019 -20.255  -7.561  1.00  0.00     0.000 C 
ENDROOT
BRANCH   1   2
ATOM      2  C   UNL     1       3.828 -21.354  -6.839  1.00  0.00     0.000 C 
BRANCH   2   3
ATOM      3  C   UNL     1       4.171 -21.065  -5.366  1.00  0.00     0.000 C 
BRANCH   3   4
ATOM      4  C   UNL     1       4.537 -19.594  -5.106  1.00  0.00    -0.000 C 
BRANCH   4   5
ATOM      5  C   UNL     1       5.296 -19.404  -3.773  1.00  0.00    -0.000 C 
BRANCH   5   6
ATOM      6  C   UNL     1       5.831 -20.718  -3.178  1.00  0.00    -0.000 C 
BRANCH   6   7
ATOM      7  C   UNL     1       7.355 -20.703  -2.975  1.00  0.00    -0.000 C 
BRANCH   7   8
ATOM      8  C   UNL     1       8.096 -21.517  -4.055  1.00  0.00    -0.000 C 
BRANCH   8   9
ATOM      9  C   UNL     1       8.450 -20.689  -5.304  1.00  0.00    -0.000 C 
BRANCH   9  10
ATOM     10  C   UNL     1       7.656 -21.122  -6.548  1.00  0.00    -0.000 C 
BRANCH  10  11
ATOM     11  C   UNL     1       8.485 -22.005  -7.493  1.00  0.00    -0.003 C 
ATOM     12  C   UNL     1       7.619 -22.957  -8.319  1.00  0.00     0.004 C 
ENDBRANCH  10  11
ENDBRANCH   9  10
ENDBRANCH   8   9
ENDBRANCH   7   8
ENDBRANCH   6   7
ENDBRANCH   5   6
ENDBRANCH   4   5
ENDBRANCH   3   4
ENDBRANCH   2   3
ENDBRANCH   1   2
BRANCH   1  13
ATOM     13  C   UNL     1       1.561 -20.619  -7.894  1.00  0.00     0.000 C 
BRANCH  13  14
ATOM     14  C   UNL     1       1.304 -22.132  -7.913  1.00  0.00     0.000 C 
BRANCH  14  15
ATOM     15  C   UNL     1       0.491 -22.561  -6.680  1.00  0.00     0.000 C 
BRANCH  15  16
ATOM     16  C   UNL     1      -0.044 -21.360  -5.883  1.00  0.00     0.000 C 
BRANCH  16  17
ATOM     17  C   UNL     1       0.533 -21.298  -4.459  1.00  0.00     0.000 C 
BRANCH  17  18
ATOM     18  C   UNL     1       0.483 -19.884  -3.856  1.00  0.00     0.000 C 
BRANCH  18  19
ATOM     19  C   UNL     1       1.646 -19.578  -2.888  1.00  0.00     0.000 C 
BRANCH  19  20
ATOM     20  C   UNL     1       1.953 -18.073  -2.807  1.00  0.00     0.006 C 
BRANCH  20  21
ATOM     21  C   UNL     1       2.859 -17.728  -1.617  1.00  0.00     0.053 C 
BRANCH  21  22
ATOM     22  C   UNL     1       2.674 -16.309  -1.173  1.00  0.00     0.041 C 
ATOM     23  O   UNL     1       1.618 -15.687  -1.461  1.00  0.00    -0.550 OA
ATOM     24  O   UNL     1       3.675 -15.668  -0.456  1.00  0.00    -0.550 OA
ENDBRANCH  21  22
ENDBRANCH  20  21
ENDBRANCH  19  20
ENDBRANCH  18  19
ENDBRANCH  17  18
ENDBRANCH  16  17
ENDBRANCH  15  16
ENDBRANCH  14  15
ENDBRANCH  13  14
ENDBRANCH   1  13
TORSDOF 20
ENDMDL
MODEL 7
REMARK VINA RESULT:    -4.061     11.828     13.678
REMARK INTER + INTRA:         -12.602
REMARK INTER:                 -10.359
REMARK INTRA:                  -2.244
REMARK UNBOUND:                -3.793
REMARK SMILES CCCCCCCCCCCCCCCCCCCCCC(=O)[O-]
REMARK SMILES IDX 12 1 11 2 10 3 9 4 8 5 7 6 6 7 5 8 4 9 3 10 2 11 1 12 13 13
REMARK SMILES IDX 14 14 15 15 16 16 17 17 18 18 19 19 20 20 21 21 22 22 23 23
REMARK SMILES IDX 24 24
REMARK H PARENT
REMARK Flexibility Score: inf
ROOT
ATOM      1  C   UNL     1      -8.951 -24.376  -2.363  1.00  0.00     0.000 C 
ENDROOT
BRANCH   1   2
ATOM      2  C   UNL     1      -9.311 -25.104  -3.676  1.00  0.00     0.000 C 
BRANCH   2   3
ATOM      3  C   UNL     1      -9.187 -26.638  -3.640  1.00  0.00     0.000 C 
BRANCH   3   4
ATOM      4  C   UNL     1      -9.958 -27.281  -2.475  1.00  0.00    -0.000 C 
BRANCH   4   5
ATOM      5  C   UNL     1      -9.041 -28.122  -1.557  1.00  0.00    -0.000 C 
BRANCH   5   6
ATOM      6  C   UNL     1      -7.984 -27.288  -0.813  1.00  0.00    -0.000 C 
BRANCH   6   7
ATOM      7  C   UNL     1      -6.789 -28.130  -0.335  1.00  0.00    -0.000 C 
BRANCH   7   8
ATOM      8  C   UNL     1      -5.485 -27.767  -1.074  1.00  0.00    -0.000 C 
BRANCH   8   9
ATOM      9  C   UNL     1      -5.725 -27.188  -2.480  1.00  0.00    -0.000 C 
BRANCH   9  10
ATOM     10  C   UNL     1      -5.291 -28.149  -3.600  1.00  0.00    -0.000 C 
BRANCH  10  11
ATOM     11  C   UNL     1      -6.468 -28.952  -4.172  1.00  0.00    -0.003 C 
ATOM     12  C   UNL     1      -6.651 -30.303  -3.479  1.00  0.00     0.004 C 
ENDBRANCH  10  11
ENDBRANCH   9  10
ENDBRANCH   8   9
ENDBRANCH   7   8
ENDBRANCH   6   7
ENDBRANCH   5   6
ENDBRANCH   4   5
ENDBRANCH   3   4
ENDBRANCH   2   3
ENDBRANCH   1   2
BRANCH   1  13
ATOM     13  C   UNL     1      -7.496 -23.886  -2.257  1.00  0.00     0.000 C 
BRANCH  13  14
ATOM     14  C   UNL     1      -7.380 -22.437  -1.765  1.00  0.00     0.000 C 
BRANCH  14  15
ATOM     15  C   UNL     1      -8.340 -22.183  -0.591  1.00  0.00     0.000 C 
BRANCH  15  16
ATOM     16  C   UNL     1      -9.119 -20.867  -0.744  1.00  0.00     0.000 C 
BRANCH  16  17
ATOM     17  C   UNL     1     -10.285 -20.756   0.253  1.00  0.00     0.000 C 
BRANCH  17  18
ATOM     18  C   UNL     1      -9.842 -20.255   1.638  1.00  0.00     0.000 C 
BRANCH  18  19
ATOM     19  C   UNL     1      -9.753 -18.718   1.745  1.00  0.00     0.000 C 
BRANCH  19  20
ATOM     20  C   UNL     1      -9.078 -18.265   3.051  1.00  0.00     0.006 C 
BRANCH  20  21
ATOM     21  C   UNL     1      -8.437 -19.436   3.809  1.00  0.00     0.053 C 
BRANCH  21  22
ATOM     22  C   UNL     1      -7.442 -18.960   4.824  1.00  0.00     0.041 C 
ATOM     23  O   UNL     1      -7.834 -18.463   5.912  1.00  0.00    -0.550 OA
ATOM     24  O   UNL     1      -6.081 -19.048   4.559  1.00  0.00    -0.550 OA
ENDBRANCH  21  22
ENDBRANCH  20  21
ENDBRANCH  19  20
ENDBRANCH  18  19
ENDBRANCH  17  18
ENDBRANCH  16  17
ENDBRANCH  15  16
ENDBRANCH  14  15
ENDBRANCH  13  14
ENDBRANCH   1  13
TORSDOF 20
ENDMDL
MODEL 8
REMARK VINA RESULT:    -4.040      2.071      4.135
REMARK INTER + INTRA:         -12.556
REMARK INTER:                  -9.355
REMARK INTRA:                  -3.201
REMARK UNBOUND:                -3.793
REMARK SMILES CCCCCCCCCCCCCCCCCCCCCC(=O)[O-]
REMARK SMILES IDX 12 1 11 2 10 3 9 4 8 5 7 6 6 7 5 8 4 9 3 10 2 11 1 12 13 13
REMARK SMILES IDX 14 14 15 15 16 16 17 17 18 18 19 19 20 20 21 21 22 22 23 23
REMARK SMILES IDX 24 24
REMARK H PARENT
REMARK Flexibility Score: inf
ROOT
ATOM      1  C   UNL     1       0.748 -20.304  -4.790  1.00  0.00     0.000 C 
ENDROOT
BRANCH   1   2
ATOM      2  C   UNL     1       0.305 -21.666  -5.364  1.00  0.00     0.000 C 
BRANCH   2   3
ATOM      3  C   UNL     1       0.862 -22.014  -6.756  1.00  0.00     0.000 C 
BRANCH   3   4
ATOM      4  C   UNL     1       1.240 -20.773  -7.584  1.00  0.00    -0.000 C 
BRANCH   4   5
ATOM      5  C   UNL     1       2.699 -20.829  -8.093  1.00  0.00    -0.000 C 
BRANCH   5   6
ATOM      6  C   UNL     1       3.729 -20.340  -7.060  1.00  0.00    -0.000 C 
BRANCH   6   7
ATOM      7  C   UNL     1       4.681 -21.454  -6.594  1.00  0.00    -0.000 C 
BRANCH   7   8
ATOM      8  C   UNL     1       6.099 -20.925  -6.299  1.00  0.00    -0.000 C 
BRANCH   8   9
ATOM      9  C   UNL     1       7.161 -21.455  -7.279  1.00  0.00    -0.000 C 
BRANCH   9  10
ATOM     10  C   UNL     1       7.859 -20.330  -8.064  1.00  0.00    -0.000 C 
BRANCH  10  11
ATOM     11  C   UNL     1       6.934 -19.682  -9.105  1.00  0.00    -0.003 C 
ATOM     12  C   UNL     1       6.603 -18.227  -8.773  1.00  0.00     0.004 C 
ENDBRANCH  10  11
ENDBRANCH   9  10
ENDBRANCH   8   9
ENDBRANCH   7   8
ENDBRANCH   6   7
ENDBRANCH   5   6
ENDBRANCH   4   5
ENDBRANCH   3   4
ENDBRANCH   2   3
ENDBRANCH   1   2
BRANCH   1  13
ATOM     13  C   UNL     1       0.580 -20.140  -3.269  1.00  0.00     0.000 C 
BRANCH  13  14
ATOM     14  C   UNL     1       1.901 -20.262  -2.498  1.00  0.00     0.000 C 
BRANCH  14  15
ATOM     15  C   UNL     1       3.097 -20.260  -3.464  1.00  0.00     0.000 C 
BRANCH  15  16
ATOM     16  C   UNL     1       4.411 -19.865  -2.771  1.00  0.00     0.000 C 
BRANCH  16  17
ATOM     17  C   UNL     1       5.008 -18.567  -3.339  1.00  0.00     0.000 C 
BRANCH  17  18
ATOM     18  C   UNL     1       4.003 -17.769  -4.187  1.00  0.00     0.000 C 
BRANCH  18  19
ATOM     19  C   UNL     1       3.564 -16.436  -3.543  1.00  0.00     0.000 C 
BRANCH  19  20
ATOM     20  C   UNL     1       2.375 -16.618  -2.585  1.00  0.00     0.006 C 
BRANCH  20  21
ATOM     21  C   UNL     1       2.823 -16.775  -1.126  1.00  0.00     0.053 C 
BRANCH  21  22
ATOM     22  C   UNL     1       3.316 -15.479  -0.555  1.00  0.00     0.041 C 
ATOM     23  O   UNL     1       4.530 -15.338  -0.258  1.00  0.00    -0.550 OA
ATOM     24  O   UNL     1       2.428 -14.433  -0.336  1.00  0.00    -0.550 OA
ENDBRANCH  21  22
ENDBRANCH  20  21
ENDBRANCH  19  20
ENDBRANCH  18  19
ENDBRANCH  17  18
ENDBRANCH  16  17
ENDBRANCH  15  16
ENDBRANCH  14  15
ENDBRANCH  13  14
ENDBRANCH   1  13
TORSDOF 20
ENDMDL
MODEL 9
REMARK VINA RESULT:    -4.007      2.572      5.174
REMARK INTER + INTRA:         -12.484
REMARK INTER:                  -8.816
REMARK INTRA:                  -3.668
REMARK UNBOUND:                -3.793
REMARK SMILES CCCCCCCCCCCCCCCCCCCCCC(=O)[O-]
REMARK SMILES IDX 12 1 11 2 10 3 9 4 8 5 7 6 6 7 5 8 4 9 3 10 2 11 1 12 13 13
REMARK SMILES IDX 14 14 15 15 16 16 17 17 18 18 19 19 20 20 21 21 22 22 23 23
REMARK SMILES IDX 24 24
REMARK H PARENT
REMARK Flexibility Score: inf
ROOT
ATOM      1  C   UNL     1       5.010 -21.767  -5.659  1.00  0.00     0.000 C 
ENDROOT
BRANCH   1   2
ATOM      2  C   UNL     1       4.937 -21.355  -7.144  1.00  0.00     0.000 C 
BRANCH   2   3
ATOM      3  C   UNL     1       4.335 -19.964  -7.418  1.00  0.00     0.000 C 
BRANCH   3   4
ATOM      4  C   UNL     1       5.380 -18.835  -7.384  1.00  0.00    -0.000 C 
BRANCH   4   5
ATOM      5  C   UNL     1       5.067 -17.779  -6.299  1.00  0.00    -0.000 C 
BRANCH   5   6
ATOM      6  C   UNL     1       3.569 -17.664  -5.967  1.00  0.00    -0.000 C 
BRANCH   6   7
ATOM      7  C   UNL     1       3.262 -16.513  -4.994  1.00  0.00    -0.000 C 
BRANCH   7   8
ATOM      8  C   UNL     1       1.768 -16.130  -4.996  1.00  0.00    -0.000 C 
BRANCH   8   9
ATOM      9  C   UNL     1       1.232 -15.764  -3.600  1.00  0.00    -0.000 C 
BRANCH   9  10
ATOM     10  C   UNL     1       2.311 -15.146  -2.694  1.00  0.00    -0.000 C 
BRANCH  10  11
ATOM     11  C   UNL     1       2.414 -15.857  -1.337  1.00  0.00    -0.003 C 
ATOM     12  C   UNL     1       3.467 -15.230  -0.423  1.00  0.00     0.004 C 
ENDBRANCH  10  11
ENDBRANCH   9  10
ENDBRANCH   8   9
ENDBRANCH   7   8
ENDBRANCH   6   7
ENDBRANCH   5   6
ENDBRANCH   4   5
ENDBRANCH   3   4
ENDBRANCH   2   3
ENDBRANCH   1   2
BRANCH   1  13
ATOM     13  C   UNL     1       6.238 -21.250  -4.889  1.00  0.00     0.000 C 
BRANCH  13  14
ATOM     14  C   UNL     1       5.871 -20.471  -3.619  1.00  0.00     0.000 C 
BRANCH  14  15
ATOM     15  C   UNL     1       4.353 -20.511  -3.376  1.00  0.00     0.000 C 
BRANCH  15  16
ATOM     16  C   UNL     1       3.846 -19.271  -2.621  1.00  0.00     0.000 C 
BRANCH  16  17
ATOM     17  C   UNL     1       2.350 -19.365  -2.276  1.00  0.00     0.000 C 
BRANCH  17  18
ATOM     18  C   UNL     1       1.455 -19.465  -3.522  1.00  0.00     0.000 C 
BRANCH  18  19
ATOM     19  C   UNL     1       0.485 -20.665  -3.499  1.00  0.00     0.000 C 
BRANCH  19  20
ATOM     20  C   UNL     1       0.098 -21.126  -4.915  1.00  0.00     0.006 C 
BRANCH  20  21
ATOM     21  C   UNL     1       1.312 -21.213  -5.849  1.00  0.00     0.053 C 
BRANCH  21  22
ATOM     22  C   UNL     1       0.985 -21.949  -7.114  1.00  0.00     0.041 C 
ATOM     23  O   UNL     1       1.143 -21.390  -8.231  1.00  0.00    -0.550 OA
ATOM     24  O   UNL     1       0.489 -23.244  -7.058  1.00  0.00    -0.550 OA
ENDBRANCH  21  22
ENDBRANCH  20  21
ENDBRANCH  19  20
ENDBRANCH  18  19
ENDBRANCH  17  18
ENDBRANCH  16  17
ENDBRANCH  15  16
ENDBRANCH  14  15
ENDBRANCH  13  14
ENDBRANCH   1  13
TORSDOF 20
ENDMDL
