MODEL 1
REMARK VINA RESULT:    -2.261      0.000      0.000
REMARK INTER + INTRA:          -2.261
REMARK INTER:                  -2.261
REMARK INTRA:                   0.000
REMARK UNBOUND:                 0.000
REMARK SMILES CC(=O)[O-]
REMARK SMILES IDX 1 1 2 2 3 3 4 4
REMARK H PARENT
REMARK Flexibility Score: inf
ROOT
ATOM      1  C   UNL     1      -0.060  -4.036  21.663  1.00  0.00     0.063 C 
ATOM      2  C   UNL     1       0.130  -3.855  23.130  1.00  0.00     0.038 C 
ATOM      3  O   UNL     1      -0.045  -4.824  23.914  1.00  0.00    -0.550 OA
ATOM      4  O   UNL     1       0.450  -2.604  23.641  1.00  0.00    -0.550 OA
ENDROOT
TORSDOF 0
ENDMDL
MODEL 2
REMARK VINA RESULT:    -2.179      2.779      3.176
REMARK INTER + INTRA:          -2.179
REMARK INTER:                  -2.179
REMARK INTRA:                   0.000
REMARK UNBOUND:                 0.000
REMARK SMILES CC(=O)[O-]
REMARK SMILES IDX 1 1 2 2 3 3 4 4
REMARK H PARENT
REMARK Flexibility Score: inf
ROOT
ATOM      1  C   UNL     1      -0.125  -4.091  21.630  1.00  0.00     0.063 C 
ATOM      2  C   UNL     1       0.882  -3.378  20.792  1.00  0.00     0.038 C 
ATOM      3  O   UNL     1       0.558  -2.338  20.163  1.00  0.00    -0.550 OA
ATOM      4  O   UNL     1       2.166  -3.891  20.663  1.00  0.00    -0.550 OA
ENDROOT
TORSDOF 0
ENDMDL
MODEL 3
REMARK VINA RESULT:    -2.087     17.890     17.996
REMARK INTER + INTRA:          -2.087
REMARK INTER:                  -2.087
REMARK INTRA:                   0.000
REMARK UNBOUND:                 0.000
REMARK SMILES CC(=O)[O-]
REMARK SMILES IDX 1 1 2 2 3 3 4 4
REMARK H PARENT
REMARK Flexibility Score: inf
ROOT
ATOM      1  C   UNL     1      17.510  -5.374  25.283  1.00  0.00     0.063 C 
ATOM      2  C   UNL     1      17.638  -6.855  25.377  1.00  0.00     0.038 C 
ATOM      3  O   UNL     1      17.411  -7.575  24.370  1.00  0.00    -0.550 OA
ATOM      4  O   UNL     1      17.959  -7.449  26.592  1.00  0.00    -0.550 OA
ENDROOT
TORSDOF 0
ENDMDL
MODEL 4
REMARK VINA RESULT:    -2.084      1.554      1.799
REMARK INTER + INTRA:          -2.084
REMARK INTER:                  -2.084
REMARK INTRA:                   0.000
REMARK UNBOUND:                 0.000
REMARK SMILES CC(=O)[O-]
REMARK SMILES IDX 1 1 2 2 3 3 4 4
REMARK H PARENT
REMARK Flexibility Score: inf
ROOT
ATOM      1  C   UNL     1       0.933  -2.572  23.231  1.00  0.00     0.063 C 
ATOM      2  C   UNL     1       0.206  -3.775  22.737  1.00  0.00     0.038 C 
ATOM      3  O   UNL     1      -0.069  -4.716  23.526  1.00  0.00    -0.550 OA
ATOM      4  O   UNL     1      -0.124  -3.886  21.392  1.00  0.00    -0.550 OA
ENDROOT
TORSDOF 0
ENDMDL
MODEL 5
REMARK VINA RESULT:    -2.059     17.842     17.990
REMARK INTER + INTRA:          -2.059
REMARK INTER:                  -2.059
REMARK INTRA:                   0.000
REMARK UNBOUND:                 0.000
REMARK SMILES CC(=O)[O-]
REMARK SMILES IDX 1 1 2 2 3 3 4 4
REMARK H PARENT
REMARK Flexibility Score: inf
ROOT
ATOM      1  C   UNL     1      17.058  -6.869  27.777  1.00  0.00     0.063 C 
ATOM      2  C   UNL     1      17.479  -6.764  26.351  1.00  0.00     0.038 C 
ATOM      3  O   UNL     1      17.869  -7.787  25.730  1.00  0.00    -0.550 OA
ATOM      4  O   UNL     1      17.492  -5.527  25.719  1.00  0.00    -0.550 OA
ENDROOT
TORSDOF 0
ENDMDL
MODEL 6
REMARK VINA RESULT:    -2.053     17.800     17.874
REMARK INTER + INTRA:          -2.053
REMARK INTER:                  -2.053
REMARK INTRA:                   0.000
REMARK UNBOUND:                 0.000
REMARK SMILES CC(=O)[O-]
REMARK SMILES IDX 1 1 2 2 3 3 4 4
REMARK H PARENT
REMARK Flexibility Score: inf
ROOT
ATOM      1  C   UNL     1      17.442  -7.119  24.160  1.00  0.00     0.063 C 
ATOM      2  C   UNL     1      17.602  -6.749  25.595  1.00  0.00     0.038 C 
ATOM      3  O   UNL     1      17.991  -7.606  26.430  1.00  0.00    -0.550 OA
ATOM      4  O   UNL     1      17.271  -5.469  26.024  1.00  0.00    -0.550 OA
ENDROOT
TORSDOF 0
ENDMDL
MODEL 7
REMARK VINA RESULT:    -2.041      2.169      2.721
REMARK INTER + INTRA:          -2.041
REMARK INTER:                  -2.041
REMARK INTRA:                   0.000
REMARK UNBOUND:                 0.000
REMARK SMILES CC(=O)[O-]
REMARK SMILES IDX 1 1 2 2 3 3 4 4
REMARK H PARENT
REMARK Flexibility Score: inf
ROOT
ATOM      1  C   UNL     1       2.132  -3.816  21.384  1.00  0.00     0.063 C 
ATOM      2  C   UNL     1       0.644  -3.751  21.319  1.00  0.00     0.038 C 
ATOM      3  O   UNL     1       0.080  -2.975  20.504  1.00  0.00    -0.550 OA
ATOM      4  O   UNL     1      -0.124  -4.510  22.193  1.00  0.00    -0.550 OA
ENDROOT
TORSDOF 0
ENDMDL
MODEL 8
REMARK VINA RESULT:    -2.024     17.887     18.051
REMARK INTER + INTRA:          -2.024
REMARK INTER:                  -2.024
REMARK INTRA:                   0.000
REMARK UNBOUND:                 0.000
REMARK SMILES CC(=O)[O-]
REMARK SMILES IDX 1 1 2 2 3 3 4 4
REMARK H PARENT
REMARK Flexibility Score: inf
ROOT
ATOM      1  C   UNL     1      17.642  -7.371  26.095  1.00  0.00     0.063 C 
ATOM      2  C   UNL     1      17.765  -6.347  25.020  1.00  0.00     0.038 C 
ATOM      3  O   UNL     1      17.716  -5.122  25.305  1.00  0.00    -0.550 OA
ATOM      4  O   UNL     1      17.883  -6.742  23.693  1.00  0.00    -0.550 OA
ENDROOT
TORSDOF 0
ENDMDL
MODEL 9
REMARK VINA RESULT:    -2.010     17.672     17.827
REMARK INTER + INTRA:          -2.010
REMARK INTER:                  -2.010
REMARK INTRA:                   0.000
REMARK UNBOUND:                 0.000
REMARK SMILES CC(=O)[O-]
REMARK SMILES IDX 1 1 2 2 3 3 4 4
REMARK H PARENT
REMARK Flexibility Score: inf
ROOT
ATOM      1  C   UNL     1      15.622  -7.466  27.285  1.00  0.00     0.063 C 
ATOM      2  C   UNL     1      17.070  -7.119  27.344  1.00  0.00     0.038 C 
ATOM      3  O   UNL     1      17.522  -6.456  28.314  1.00  0.00    -0.550 OA
ATOM      4  O   UNL     1      17.915  -7.482  26.303  1.00  0.00    -0.550 OA
ENDROOT
TORSDOF 0
ENDMDL
