MODEL 1
REMARK VINA RESULT:    -0.788      0.000      0.000
REMARK INTER + INTRA:          -2.011
REMARK INTER:                  -1.341
REMARK INTRA:                  -0.671
REMARK UNBOUND:                -0.671
REMARK SMILES CCCCCCCCCCCCCC(=O)[O-]
REMARK SMILES IDX 8 1 9 2 10 3 11 4 12 5 13 6 14 7 15 8 16 9 7 10 6 11 5 12
REMARK SMILES IDX 4 13 3 14 2 15 1 16
REMARK H PARENT
REMARK Flexibility Score: inf
ROOT
ATOM      1  C   UNL     1      17.934   1.295  25.376  1.00  0.00     0.000 C 
ENDROOT
BRANCH   1   2
ATOM      2  C   UNL     1      17.275   2.609  24.929  1.00  0.00     0.000 C 
BRANCH   2   3
ATOM      3  C   UNL     1      16.579   3.303  26.107  1.00  0.00     0.000 C 
BRANCH   3   4
ATOM      4  C   UNL     1      15.104   3.585  25.785  1.00  0.00     0.000 C 
BRANCH   4   5
ATOM      5  C   UNL     1      14.312   2.305  25.470  1.00  0.00     0.006 C 
BRANCH   5   6
ATOM      6  C   UNL     1      13.085   2.573  24.587  1.00  0.00     0.053 C 
BRANCH   6   7
ATOM      7  C   UNL     1      13.475   3.358  23.376  1.00  0.00     0.041 C 
ATOM      8  O   UNL     1      14.209   2.840  22.493  1.00  0.00    -0.550 OA
ATOM      9  O   UNL     1      13.070   4.680  23.244  1.00  0.00    -0.550 OA
ENDBRANCH   6   7
ENDBRANCH   5   6
ENDBRANCH   4   5
ENDBRANCH   3   4
ENDBRANCH   2   3
ENDBRANCH   1   2
BRANCH   1  10
ATOM     10  C   UNL     1      19.437   1.247  25.057  1.00  0.00     0.000 C 
BRANCH  10  11
ATOM     11  C   UNL     1      20.310   1.268  26.324  1.00  0.00    -0.000 C 
BRANCH  11  12
ATOM     12  C   UNL     1      19.496   1.071  27.614  1.00  0.00    -0.000 C 
BRANCH  12  13
ATOM     13  C   UNL     1      19.077   2.372  28.330  1.00  0.00    -0.000 C 
BRANCH  13  14
ATOM     14  C   UNL     1      19.416   2.432  29.833  1.00  0.00    -0.000 C 
BRANCH  14  15
ATOM     15  C   UNL     1      19.211   3.810  30.486  1.00  0.00    -0.003 C 
ATOM     16  C   UNL     1      17.738   4.194  30.615  1.00  0.00     0.004 C 
ENDBRANCH  14  15
ENDBRANCH  13  14
ENDBRANCH  12  13
ENDBRANCH  11  12
ENDBRANCH  10  11
ENDBRANCH   1  10
TORSDOF 12
ENDMDL
MODEL 2
REMARK VINA RESULT:    -0.675      3.440      6.727
REMARK INTER + INTRA:          -1.819
REMARK INTER:                  -0.750
REMARK INTRA:                  -1.069
REMARK UNBOUND:                -0.671
REMARK SMILES CCCCCCCCCCCCCC(=O)[O-]
REMARK SMILES IDX 8 1 9 2 10 3 11 4 12 5 13 6 14 7 15 8 16 9 7 10 6 11 5 12
REMARK SMILES IDX 4 13 3 14 2 15 1 16
REMARK H PARENT
REMARK Flexibility Score: inf
ROOT
ATOM      1  C   UNL     1      17.991   1.291  25.397  1.00  0.00     0.000 C 
ENDROOT
BRANCH   1   2
ATOM      2  C   UNL     1      19.521   1.365  25.281  1.00  0.00     0.000 C 
BRANCH   2   3
ATOM      3  C   UNL     1      20.182   1.274  26.663  1.00  0.00     0.000 C 
BRANCH   3   4
ATOM      4  C   UNL     1      19.126   1.144  27.770  1.00  0.00     0.000 C 
BRANCH   4   5
ATOM      5  C   UNL     1      19.478   1.962  29.022  1.00  0.00     0.006 C 
BRANCH   5   6
ATOM      6  C   UNL     1      18.750   3.313  29.069  1.00  0.00     0.053 C 
BRANCH   6   7
ATOM      7  C   UNL     1      18.597   3.774  30.484  1.00  0.00     0.041 C 
ATOM      8  O   UNL     1      19.502   3.543  31.328  1.00  0.00    -0.550 OA
ATOM      9  O   UNL     1      17.432   4.417  30.883  1.00  0.00    -0.550 OA
ENDBRANCH   6   7
ENDBRANCH   5   6
ENDBRANCH   4   5
ENDBRANCH   3   4
ENDBRANCH   2   3
ENDBRANCH   1   2
BRANCH   1  10
ATOM     10  C   UNL     1      17.298   2.585  24.944  1.00  0.00     0.000 C 
BRANCH  10  11
ATOM     11  C   UNL     1      16.569   3.300  26.095  1.00  0.00    -0.000 C 
BRANCH  11  12
ATOM     12  C   UNL     1      15.089   3.582  25.781  1.00  0.00    -0.000 C 
BRANCH  12  13
ATOM     13  C   UNL     1      14.234   2.335  25.475  1.00  0.00    -0.000 C 
BRANCH  13  14
ATOM     14  C   UNL     1      13.194   2.513  24.351  1.00  0.00    -0.000 C 
BRANCH  14  15
ATOM     15  C   UNL     1      13.699   3.291  23.122  1.00  0.00    -0.003 C 
ATOM     16  C   UNL     1      12.981   4.625  22.928  1.00  0.00     0.004 C 
ENDBRANCH  14  15
ENDBRANCH  13  14
ENDBRANCH  12  13
ENDBRANCH  11  12
ENDBRANCH  10  11
ENDBRANCH   1  10
TORSDOF 12
ENDMDL
MODEL 3
REMARK VINA RESULT:    -0.558     14.696     15.938
REMARK INTER + INTRA:          -1.621
REMARK INTER:                  -1.703
REMARK INTRA:                   0.083
REMARK UNBOUND:                -0.671
REMARK SMILES CCCCCCCCCCCCCC(=O)[O-]
REMARK SMILES IDX 8 1 9 2 10 3 11 4 12 5 13 6 14 7 15 8 16 9 7 10 6 11 5 12
REMARK SMILES IDX 4 13 3 14 2 15 1 16
REMARK H PARENT
REMARK Flexibility Score: inf
ROOT
ATOM      1  C   UNL     1      11.902  16.491  22.435  1.00  0.00     0.000 C 
ENDROOT
BRANCH   1   2
ATOM      2  C   UNL     1      11.631  15.183  21.675  1.00  0.00     0.000 C 
BRANCH   2   3
ATOM      3  C   UNL     1      12.184  15.253  20.246  1.00  0.00     0.000 C 
BRANCH   3   4
ATOM      4  C   UNL     1      11.731  16.540  19.543  1.00  0.00     0.000 C 
BRANCH   4   5
ATOM      5  C   UNL     1      12.459  16.774  18.210  1.00  0.00     0.006 C 
BRANCH   5   6
ATOM      6  C   UNL     1      13.197  18.119  18.167  1.00  0.00     0.053 C 
BRANCH   6   7
ATOM      7  C   UNL     1      14.484  18.032  18.926  1.00  0.00     0.041 C 
ATOM      8  O   UNL     1      14.478  18.020  20.185  1.00  0.00    -0.550 OA
ATOM      9  O   UNL     1      15.693  18.012  18.243  1.00  0.00    -0.550 OA
ENDBRANCH   6   7
ENDBRANCH   5   6
ENDBRANCH   4   5
ENDBRANCH   3   4
ENDBRANCH   2   3
ENDBRANCH   1   2
BRANCH   1  10
ATOM     10  C   UNL     1      10.875  16.755  23.547  1.00  0.00     0.000 C 
BRANCH  10  11
ATOM     11  C   UNL     1      10.923  15.695  24.661  1.00  0.00    -0.000 C 
BRANCH  11  12
ATOM     12  C   UNL     1      12.031  15.963  25.694  1.00  0.00    -0.000 C 
BRANCH  12  13
ATOM     13  C   UNL     1      12.208  17.442  26.096  1.00  0.00    -0.000 C 
BRANCH  13  14
ATOM     14  C   UNL     1      11.068  18.031  26.952  1.00  0.00    -0.000 C 
BRANCH  14  15
ATOM     15  C   UNL     1      10.899  17.381  28.336  1.00  0.00    -0.003 C 
ATOM     16  C   UNL     1      10.876  15.854  28.278  1.00  0.00     0.004 C 
ENDBRANCH  14  15
ENDBRANCH  13  14
ENDBRANCH  12  13
ENDBRANCH  11  12
ENDBRANCH  10  11
ENDBRANCH   1  10
TORSDOF 12
ENDMDL
MODEL 4
REMARK VINA RESULT:     0.524     13.761     15.912
REMARK INTER + INTRA:           0.221
REMARK INTER:                  -0.801
REMARK INTRA:                   1.022
REMARK UNBOUND:                -0.671
REMARK SMILES CCCCCCCCCCCCCC(=O)[O-]
REMARK SMILES IDX 8 1 9 2 10 3 11 4 12 5 13 6 14 7 15 8 16 9 7 10 6 11 5 12
REMARK SMILES IDX 4 13 3 14 2 15 1 16
REMARK H PARENT
REMARK Flexibility Score: inf
ROOT
ATOM      1  C   UNL     1      11.936  17.583  22.872  1.00  0.00     0.000 C 
ENDROOT
BRANCH   1   2
ATOM      2  C   UNL     1      11.186  16.316  22.432  1.00  0.00     0.000 C 
BRANCH   2   3
ATOM      3  C   UNL     1      11.591  15.904  21.011  1.00  0.00     0.000 C 
BRANCH   3   4
ATOM      4  C   UNL     1      11.670  17.127  20.086  1.00  0.00     0.000 C 
BRANCH   4   5
ATOM      5  C   UNL     1      12.581  16.890  18.870  1.00  0.00     0.006 C 
BRANCH   5   6
ATOM      6  C   UNL     1      13.483  18.094  18.565  1.00  0.00     0.053 C 
BRANCH   6   7
ATOM      7  C   UNL     1      14.724  18.040  19.399  1.00  0.00     0.041 C 
ATOM      8  O   UNL     1      15.848  17.885  18.854  1.00  0.00    -0.550 OA
ATOM      9  O   UNL     1      14.635  18.112  20.783  1.00  0.00    -0.550 OA
ENDBRANCH   6   7
ENDBRANCH   5   6
ENDBRANCH   4   5
ENDBRANCH   3   4
ENDBRANCH   2   3
ENDBRANCH   1   2
BRANCH   1  10
ATOM     10  C   UNL     1      11.484  18.092  24.250  1.00  0.00     0.000 C 
BRANCH  10  11
ATOM     11  C   UNL     1      11.395  16.967  25.296  1.00  0.00    -0.000 C 
BRANCH  11  12
ATOM     12  C   UNL     1      11.283  17.498  26.736  1.00  0.00    -0.000 C 
BRANCH  12  13
ATOM     13  C   UNL     1      11.161  16.415  27.827  1.00  0.00    -0.000 C 
BRANCH  13  14
ATOM     14  C   UNL     1      10.879  14.990  27.308  1.00  0.00    -0.000 C 
BRANCH  14  15
ATOM     15  C   UNL     1      11.782  14.536  26.148  1.00  0.00    -0.003 C 
ATOM     16  C   UNL     1      10.992  14.061  24.930  1.00  0.00     0.004 C 
ENDBRANCH  14  15
ENDBRANCH  13  14
ENDBRANCH  12  13
ENDBRANCH  11  12
ENDBRANCH  10  11
ENDBRANCH   1  10
TORSDOF 12
ENDMDL
MODEL 5
REMARK VINA RESULT:     1.191     13.095     15.337
REMARK INTER + INTRA:           1.357
REMARK INTER:                   1.823
REMARK INTRA:                  -0.467
REMARK UNBOUND:                -0.671
REMARK SMILES CCCCCCCCCCCCCC(=O)[O-]
REMARK SMILES IDX 8 1 9 2 10 3 11 4 12 5 13 6 14 7 15 8 16 9 7 10 6 11 5 12
REMARK SMILES IDX 4 13 3 14 2 15 1 16
REMARK H PARENT
REMARK Flexibility Score: inf
ROOT
ATOM      1  C   UNL     1      11.489  16.615  22.662  1.00  0.00     0.000 C 
ENDROOT
BRANCH   1   2
ATOM      2  C   UNL     1      10.887  15.203  22.719  1.00  0.00     0.000 C 
BRANCH   2   3
ATOM      3  C   UNL     1      10.876  14.554  21.328  1.00  0.00     0.000 C 
BRANCH   3   4
ATOM      4  C   UNL     1      11.644  15.414  20.314  1.00  0.00     0.000 C 
BRANCH   4   5
ATOM      5  C   UNL     1      11.271  15.086  18.859  1.00  0.00     0.006 C 
BRANCH   5   6
ATOM      6  C   UNL     1      11.405  16.300  17.928  1.00  0.00     0.053 C 
BRANCH   6   7
ATOM      7  C   UNL     1      12.005  17.457  18.662  1.00  0.00     0.041 C 
ATOM      8  O   UNL     1      11.327  18.089  19.513  1.00  0.00    -0.550 OA
ATOM      9  O   UNL     1      13.300  17.868  18.371  1.00  0.00    -0.550 OA
ENDBRANCH   6   7
ENDBRANCH   5   6
ENDBRANCH   4   5
ENDBRANCH   3   4
ENDBRANCH   2   3
ENDBRANCH   1   2
BRANCH   1  10
ATOM     10  C   UNL     1      10.991  17.519  23.800  1.00  0.00     0.000 C 
BRANCH  10  11
ATOM     11  C   UNL     1      12.087  17.821  24.838  1.00  0.00    -0.000 C 
BRANCH  11  12
ATOM     12  C   UNL     1      11.691  17.400  26.264  1.00  0.00    -0.000 C 
BRANCH  12  13
ATOM     13  C   UNL     1      10.877  16.094  26.360  1.00  0.00    -0.000 C 
BRANCH  13  14
ATOM     14  C   UNL     1      11.715  14.802  26.439  1.00  0.00    -0.000 C 
BRANCH  14  15
ATOM     15  C   UNL     1      10.895  13.500  26.440  1.00  0.00    -0.003 C 
ATOM     16  C   UNL     1      11.706  12.286  26.892  1.00  0.00     0.004 C 
ENDBRANCH  14  15
ENDBRANCH  13  14
ENDBRANCH  12  13
ENDBRANCH  11  12
ENDBRANCH  10  11
ENDBRANCH   1  10
TORSDOF 12
ENDMDL
MODEL 6
REMARK VINA RESULT:     1.244      1.240      2.503
REMARK INTER + INTRA:           1.445
REMARK INTER:                   2.295
REMARK INTRA:                  -0.849
REMARK UNBOUND:                -0.671
REMARK SMILES CCCCCCCCCCCCCC(=O)[O-]
REMARK SMILES IDX 8 1 9 2 10 3 11 4 12 5 13 6 14 7 15 8 16 9 7 10 6 11 5 12
REMARK SMILES IDX 4 13 3 14 2 15 1 16
REMARK H PARENT
REMARK Flexibility Score: inf
ROOT
ATOM      1  C   UNL     1      19.093   1.977  27.073  1.00  0.00     0.000 C 
ENDROOT
BRANCH   1   2
ATOM      2  C   UNL     1      19.337   1.352  25.691  1.00  0.00     0.000 C 
BRANCH   2   3
ATOM      3  C   UNL     1      18.135   1.581  24.765  1.00  0.00     0.000 C 
BRANCH   3   4
ATOM      4  C   UNL     1      17.239   2.709  25.296  1.00  0.00     0.000 C 
BRANCH   4   5
ATOM      5  C   UNL     1      15.788   2.253  25.525  1.00  0.00     0.006 C 
BRANCH   5   6
ATOM      6  C   UNL     1      14.779   3.402  25.385  1.00  0.00     0.053 C 
BRANCH   6   7
ATOM      7  C   UNL     1      13.688   3.025  24.434  1.00  0.00     0.041 C 
ATOM      8  O   UNL     1      13.058   1.946  24.587  1.00  0.00    -0.550 OA
ATOM      9  O   UNL     1      13.400   3.841  23.348  1.00  0.00    -0.550 OA
ENDBRANCH   6   7
ENDBRANCH   5   6
ENDBRANCH   4   5
ENDBRANCH   3   4
ENDBRANCH   2   3
ENDBRANCH   1   2
BRANCH   1  10
ATOM     10  C   UNL     1      19.437   1.020  28.226  1.00  0.00     0.000 C 
BRANCH  10  11
ATOM     11  C   UNL     1      19.844   1.764  29.510  1.00  0.00    -0.000 C 
BRANCH  11  12
ATOM     12  C   UNL     1      19.237   3.175  29.601  1.00  0.00    -0.000 C 
BRANCH  12  13
ATOM     13  C   UNL     1      18.675   3.558  30.985  1.00  0.00    -0.000 C 
BRANCH  13  14
ATOM     14  C   UNL     1      17.469   4.519  30.961  1.00  0.00    -0.000 C 
BRANCH  14  15
ATOM     15  C   UNL     1      16.948   4.864  29.554  1.00  0.00    -0.003 C 
ATOM     16  C   UNL     1      15.423   4.869  29.470  1.00  0.00     0.004 C 
ENDBRANCH  14  15
ENDBRANCH  13  14
ENDBRANCH  12  13
ENDBRANCH  11  12
ENDBRANCH  10  11
ENDBRANCH   1  10
TORSDOF 12
ENDMDL
MODEL 7
REMARK VINA RESULT:     1.330      3.435      7.014
REMARK INTER + INTRA:           1.592
REMARK INTER:                   1.976
REMARK INTRA:                  -0.384
REMARK UNBOUND:                -0.671
REMARK SMILES CCCCCCCCCCCCCC(=O)[O-]
REMARK SMILES IDX 8 1 9 2 10 3 11 4 12 5 13 6 14 7 15 8 16 9 7 10 6 11 5 12
REMARK SMILES IDX 4 13 3 14 2 15 1 16
REMARK H PARENT
REMARK Flexibility Score: inf
ROOT
ATOM      1  C   UNL     1      16.820   3.381  25.781  1.00  0.00     0.000 C 
ENDROOT
BRANCH   1   2
ATOM      2  C   UNL     1      17.302   2.364  24.735  1.00  0.00     0.000 C 
BRANCH   2   3
ATOM      3  C   UNL     1      17.930   1.137  25.410  1.00  0.00     0.000 C 
BRANCH   3   4
ATOM      4  C   UNL     1      19.376   1.425  25.838  1.00  0.00     0.000 C 
BRANCH   4   5
ATOM      5  C   UNL     1      19.560   1.387  27.364  1.00  0.00     0.006 C 
BRANCH   5   6
ATOM      6  C   UNL     1      18.800   2.514  28.078  1.00  0.00     0.053 C 
BRANCH   6   7
ATOM      7  C   UNL     1      19.311   2.684  29.474  1.00  0.00     0.041 C 
ATOM      8  O   UNL     1      20.243   1.954  29.902  1.00  0.00    -0.550 OA
ATOM      9  O   UNL     1      18.723   3.615  30.321  1.00  0.00    -0.550 OA
ENDBRANCH   6   7
ENDBRANCH   5   6
ENDBRANCH   4   5
ENDBRANCH   3   4
ENDBRANCH   2   3
ENDBRANCH   1   2
BRANCH   1  10
ATOM     10  C   UNL     1      15.294   3.556  25.779  1.00  0.00     0.000 C 
BRANCH  10  11
ATOM     11  C   UNL     1      14.544   2.212  25.772  1.00  0.00    -0.000 C 
BRANCH  11  12
ATOM     12  C   UNL     1      13.151   2.308  25.127  1.00  0.00    -0.000 C 
BRANCH  12  13
ATOM     13  C   UNL     1      13.143   2.337  23.585  1.00  0.00    -0.000 C 
BRANCH  13  14
ATOM     14  C   UNL     1      13.707   3.624  22.950  1.00  0.00    -0.000 C 
BRANCH  14  15
ATOM     15  C   UNL     1      12.740   4.821  22.952  1.00  0.00    -0.003 C 
ATOM     16  C   UNL     1      13.454   6.162  22.789  1.00  0.00     0.004 C 
ENDBRANCH  14  15
ENDBRANCH  13  14
ENDBRANCH  12  13
ENDBRANCH  11  12
ENDBRANCH  10  11
ENDBRANCH   1  10
TORSDOF 12
ENDMDL
MODEL 8
REMARK VINA RESULT:     1.574      3.066      6.301
REMARK INTER + INTRA:           2.008
REMARK INTER:                   2.386
REMARK INTRA:                  -0.379
REMARK UNBOUND:                -0.671
REMARK SMILES CCCCCCCCCCCCCC(=O)[O-]
REMARK SMILES IDX 8 1 9 2 10 3 11 4 12 5 13 6 14 7 15 8 16 9 7 10 6 11 5 12
REMARK SMILES IDX 4 13 3 14 2 15 1 16
REMARK H PARENT
REMARK Flexibility Score: inf
ROOT
ATOM      1  C   UNL     1      19.636   1.333  25.513  1.00  0.00     0.000 C 
ENDROOT
BRANCH   1   2
ATOM      2  C   UNL     1      19.056   0.923  26.876  1.00  0.00     0.000 C 
BRANCH   2   3
ATOM      3  C   UNL     1      19.109   2.090  27.869  1.00  0.00     0.000 C 
BRANCH   3   4
ATOM      4  C   UNL     1      19.623   1.624  29.239  1.00  0.00     0.000 C 
BRANCH   4   5
ATOM      5  C   UNL     1      19.508   2.714  30.317  1.00  0.00     0.006 C 
BRANCH   5   6
ATOM      6  C   UNL     1      18.899   4.016  29.777  1.00  0.00     0.053 C 
BRANCH   6   7
ATOM      7  C   UNL     1      17.597   4.302  30.454  1.00  0.00     0.041 C 
ATOM      8  O   UNL     1      17.475   4.130  31.695  1.00  0.00    -0.550 OA
ATOM      9  O   UNL     1      16.500   4.713  29.706  1.00  0.00    -0.550 OA
ENDBRANCH   6   7
ENDBRANCH   5   6
ENDBRANCH   4   5
ENDBRANCH   3   4
ENDBRANCH   2   3
ENDBRANCH   1   2
BRANCH   1  10
ATOM     10  C   UNL     1      18.654   2.167  24.677  1.00  0.00     0.000 C 
BRANCH  10  11
ATOM     11  C   UNL     1      17.191   1.968  25.110  1.00  0.00    -0.000 C 
BRANCH  11  12
ATOM     12  C   UNL     1      16.644   3.151  25.929  1.00  0.00    -0.000 C 
BRANCH  12  13
ATOM     13  C   UNL     1      15.189   3.551  25.611  1.00  0.00    -0.000 C 
BRANCH  13  14
ATOM     14  C   UNL     1      14.176   2.389  25.599  1.00  0.00    -0.000 C 
BRANCH  14  15
ATOM     15  C   UNL     1      13.279   2.328  24.349  1.00  0.00    -0.003 C 
ATOM     16  C   UNL     1      13.526   3.485  23.383  1.00  0.00     0.004 C 
ENDBRANCH  14  15
ENDBRANCH  13  14
ENDBRANCH  12  13
ENDBRANCH  11  12
ENDBRANCH  10  11
ENDBRANCH   1  10
TORSDOF 12
ENDMDL
