MODEL 1
REMARK VINA RESULT:    -2.959      0.000      0.000
REMARK INTER + INTRA:          -4.541
REMARK INTER:                  -4.170
REMARK INTRA:                  -0.371
REMARK UNBOUND:                -0.371
REMARK SMILES CCCCCCCCC(=O)[O-]
REMARK SMILES IDX 6 1 7 2 8 3 9 4 10 5 11 6 5 7 4 8 3 9 2 10 1 11
REMARK H PARENT
REMARK Flexibility Score: inf
ROOT
ATOM      1  C   UNL     1      16.186  66.032  16.143  1.00  0.00     0.000 C 
ENDROOT
BRANCH   1   2
ATOM      2  C   UNL     1      17.526  66.106  15.393  1.00  0.00     0.006 C 
BRANCH   2   3
ATOM      3  C   UNL     1      18.726  65.788  16.295  1.00  0.00     0.053 C 
BRANCH   3   4
ATOM      4  C   UNL     1      19.897  65.354  15.471  1.00  0.00     0.041 C 
ATOM      5  O   UNL     1      21.058  65.380  15.956  1.00  0.00    -0.550 OA
ATOM      6  O   UNL     1      19.710  64.966  14.150  1.00  0.00    -0.550 OA
ENDBRANCH   3   4
ENDBRANCH   2   3
ENDBRANCH   1   2
BRANCH   1   7
ATOM      7  C   UNL     1      16.206  65.014  17.293  1.00  0.00     0.000 C 
BRANCH   7   8
ATOM      8  C   UNL     1      14.803  64.438  17.539  1.00  0.00    -0.000 C 
BRANCH   8   9
ATOM      9  C   UNL     1      13.770  64.936  16.515  1.00  0.00    -0.000 C 
BRANCH   9  10
ATOM     10  C   UNL     1      13.470  63.896  15.425  1.00  0.00    -0.003 C 
ATOM     11  C   UNL     1      13.090  64.573  14.111  1.00  0.00     0.004 C 
ENDBRANCH   9  10
ENDBRANCH   8   9
ENDBRANCH   7   8
ENDBRANCH   1   7
TORSDOF 7
ENDMDL
MODEL 2
REMARK VINA RESULT:    -2.900     15.169     16.300
REMARK INTER + INTRA:          -4.458
REMARK INTER:                  -4.108
REMARK INTRA:                  -0.350
REMARK UNBOUND:                -0.371
REMARK SMILES CCCCCCCCC(=O)[O-]
REMARK SMILES IDX 6 1 7 2 8 3 9 4 10 5 11 6 5 7 4 8 3 9 2 10 1 11
REMARK H PARENT
REMARK Flexibility Score: inf
ROOT
ATOM      1  C   UNL     1      31.303  64.395  19.490  1.00  0.00     0.000 C 
ENDROOT
BRANCH   1   2
ATOM      2  C   UNL     1      32.200  63.747  20.557  1.00  0.00     0.006 C 
BRANCH   2   3
ATOM      3  C   UNL     1      32.739  62.377  20.123  1.00  0.00     0.053 C 
BRANCH   3   4
ATOM      4  C   UNL     1      32.537  61.370  21.211  1.00  0.00     0.041 C 
ATOM      5  O   UNL     1      33.120  61.507  22.318  1.00  0.00    -0.550 OA
ATOM      6  O   UNL     1      31.742  60.254  20.985  1.00  0.00    -0.550 OA
ENDBRANCH   3   4
ENDBRANCH   2   3
ENDBRANCH   1   2
BRANCH   1   7
ATOM      7  C   UNL     1      32.101  64.930  18.291  1.00  0.00     0.000 C 
BRANCH   7   8
ATOM      8  C   UNL     1      31.645  64.259  16.987  1.00  0.00    -0.000 C 
BRANCH   8   9
ATOM      9  C   UNL     1      32.759  63.431  16.325  1.00  0.00    -0.000 C 
BRANCH   9  10
ATOM     10  C   UNL     1      32.493  63.164  14.836  1.00  0.00    -0.003 C 
ATOM     11  C   UNL     1      31.039  63.460  14.477  1.00  0.00     0.004 C 
ENDBRANCH   9  10
ENDBRANCH   8   9
ENDBRANCH   7   8
ENDBRANCH   1   7
TORSDOF 7
ENDMDL
MODEL 3
REMARK VINA RESULT:    -2.793     11.745     14.633
REMARK INTER + INTRA:          -4.307
REMARK INTER:                  -3.882
REMARK INTRA:                  -0.425
REMARK UNBOUND:                -0.371
REMARK SMILES CCCCCCCCC(=O)[O-]
REMARK SMILES IDX 6 1 7 2 8 3 9 4 10 5 11 6 5 7 4 8 3 9 2 10 1 11
REMARK H PARENT
REMARK Flexibility Score: inf
ROOT
ATOM      1  C   UNL     1      31.329  64.564  19.203  1.00  0.00     0.000 C 
ENDROOT
BRANCH   1   2
ATOM      2  C   UNL     1      30.515  65.343  18.157  1.00  0.00     0.006 C 
BRANCH   2   3
ATOM      3  C   UNL     1      29.035  65.479  18.542  1.00  0.00     0.053 C 
BRANCH   3   4
ATOM      4  C   UNL     1      28.167  65.330  17.333  1.00  0.00     0.041 C 
ATOM      5  O   UNL     1      26.982  64.923  17.449  1.00  0.00    -0.550 OA
ATOM      6  O   UNL     1      28.682  65.597  16.071  1.00  0.00    -0.550 OA
ENDBRANCH   3   4
ENDBRANCH   2   3
ENDBRANCH   1   2
BRANCH   1   7
ATOM      7  C   UNL     1      32.411  63.676  18.569  1.00  0.00     0.000 C 
BRANCH   7   8
ATOM      8  C   UNL     1      32.653  64.070  17.104  1.00  0.00    -0.000 C 
BRANCH   8   9
ATOM      9  C   UNL     1      32.748  62.851  16.171  1.00  0.00    -0.000 C 
BRANCH   9  10
ATOM     10  C   UNL     1      32.458  63.205  14.705  1.00  0.00    -0.003 C 
ATOM     11  C   UNL     1      30.972  63.476  14.489  1.00  0.00     0.004 C 
ENDBRANCH   9  10
ENDBRANCH   8   9
ENDBRANCH   7   8
ENDBRANCH   1   7
TORSDOF 7
ENDMDL
MODEL 4
REMARK VINA RESULT:    -2.696      2.819      5.323
REMARK INTER + INTRA:          -4.170
REMARK INTER:                  -3.813
REMARK INTRA:                  -0.357
REMARK UNBOUND:                -0.371
REMARK SMILES CCCCCCCCC(=O)[O-]
REMARK SMILES IDX 6 1 7 2 8 3 9 4 10 5 11 6 5 7 4 8 3 9 2 10 1 11
REMARK H PARENT
REMARK Flexibility Score: inf
ROOT
ATOM      1  C   UNL     1      15.052  64.369  17.300  1.00  0.00     0.000 C 
ENDROOT
BRANCH   1   2
ATOM      2  C   UNL     1      14.114  65.450  16.741  1.00  0.00     0.006 C 
BRANCH   2   3
ATOM      3  C   UNL     1      12.909  64.860  15.996  1.00  0.00     0.053 C 
BRANCH   3   4
ATOM      4  C   UNL     1      13.368  63.989  14.870  1.00  0.00     0.041 C 
ATOM      5  O   UNL     1      12.946  62.807  14.770  1.00  0.00    -0.550 OA
ATOM      6  O   UNL     1      14.299  64.467  13.957  1.00  0.00    -0.550 OA
ENDBRANCH   3   4
ENDBRANCH   2   3
ENDBRANCH   1   2
BRANCH   1   7
ATOM      7  C   UNL     1      16.509  64.846  17.407  1.00  0.00     0.000 C 
BRANCH   7   8
ATOM      8  C   UNL     1      16.876  65.752  16.222  1.00  0.00    -0.000 C 
BRANCH   8   9
ATOM      9  C   UNL     1      18.395  65.906  16.043  1.00  0.00    -0.000 C 
BRANCH   9  10
ATOM     10  C   UNL     1      18.798  66.123  14.576  1.00  0.00    -0.003 C 
ATOM     11  C   UNL     1      19.773  65.046  14.110  1.00  0.00     0.004 C 
ENDBRANCH   9  10
ENDBRANCH   8   9
ENDBRANCH   7   8
ENDBRANCH   1   7
TORSDOF 7
ENDMDL
MODEL 5
REMARK VINA RESULT:    -2.612      4.041      5.760
REMARK INTER + INTRA:          -4.051
REMARK INTER:                  -3.658
REMARK INTRA:                  -0.394
REMARK UNBOUND:                -0.371
REMARK SMILES CCCCCCCCC(=O)[O-]
REMARK SMILES IDX 6 1 7 2 8 3 9 4 10 5 11 6 5 7 4 8 3 9 2 10 1 11
REMARK H PARENT
REMARK Flexibility Score: inf
ROOT
ATOM      1  C   UNL     1      13.146  63.212  13.967  1.00  0.00     0.000 C 
ENDROOT
BRANCH   1   2
ATOM      2  C   UNL     1      13.843  63.318  12.601  1.00  0.00     0.006 C 
BRANCH   2   3
ATOM      3  C   UNL     1      12.890  63.761  11.483  1.00  0.00     0.053 C 
BRANCH   3   4
ATOM      4  C   UNL     1      13.514  64.847  10.665  1.00  0.00     0.041 C 
ATOM      5  O   UNL     1      13.794  65.955  11.190  1.00  0.00    -0.550 OA
ATOM      6  O   UNL     1      13.744  64.650   9.310  1.00  0.00    -0.550 OA
ENDBRANCH   3   4
ENDBRANCH   2   3
ENDBRANCH   1   2
BRANCH   1   7
ATOM      7  C   UNL     1      12.876  64.584  14.602  1.00  0.00     0.000 C 
BRANCH   7   8
ATOM      8  C   UNL     1      14.186  65.239  15.068  1.00  0.00    -0.000 C 
BRANCH   8   9
ATOM      9  C   UNL     1      14.032  65.988  16.402  1.00  0.00    -0.000 C 
BRANCH   9  10
ATOM     10  C   UNL     1      14.156  65.059  17.619  1.00  0.00    -0.003 C 
ATOM     11  C   UNL     1      15.599  64.605  17.818  1.00  0.00     0.004 C 
ENDBRANCH   9  10
ENDBRANCH   8   9
ENDBRANCH   7   8
ENDBRANCH   1   7
TORSDOF 7
ENDMDL
MODEL 6
REMARK VINA RESULT:    -2.577      4.190      5.384
REMARK INTER + INTRA:          -4.002
REMARK INTER:                  -3.556
REMARK INTRA:                  -0.445
REMARK UNBOUND:                -0.371
REMARK SMILES CCCCCCCCC(=O)[O-]
REMARK SMILES IDX 6 1 7 2 8 3 9 4 10 5 11 6 5 7 4 8 3 9 2 10 1 11
REMARK H PARENT
REMARK Flexibility Score: inf
ROOT
ATOM      1  C   UNL     1      15.737  65.762  13.508  1.00  0.00     0.000 C 
ENDROOT
BRANCH   1   2
ATOM      2  C   UNL     1      15.553  65.872  11.986  1.00  0.00     0.006 C 
BRANCH   2   3
ATOM      3  C   UNL     1      14.077  65.971  11.575  1.00  0.00     0.053 C 
BRANCH   3   4
ATOM      4  C   UNL     1      13.665  64.749  10.817  1.00  0.00     0.041 C 
ATOM      5  O   UNL     1      13.792  64.706   9.565  1.00  0.00    -0.550 OA
ATOM      6  O   UNL     1      13.095  63.675  11.488  1.00  0.00    -0.550 OA
ENDBRANCH   3   4
ENDBRANCH   2   3
ENDBRANCH   1   2
BRANCH   1   7
ATOM      7  C   UNL     1      14.421  65.943  14.279  1.00  0.00     0.000 C 
BRANCH   7   8
ATOM      8  C   UNL     1      14.006  64.635  14.968  1.00  0.00    -0.000 C 
BRANCH   8   9
ATOM      9  C   UNL     1      13.195  64.872  16.252  1.00  0.00    -0.000 C 
BRANCH   9  10
ATOM     10  C   UNL     1      14.060  65.390  17.411  1.00  0.00    -0.003 C 
ATOM     11  C   UNL     1      15.240  64.458  17.673  1.00  0.00     0.004 C 
ENDBRANCH   9  10
ENDBRANCH   8   9
ENDBRANCH   7   8
ENDBRANCH   1   7
TORSDOF 7
ENDMDL
MODEL 7
REMARK VINA RESULT:    -2.485     12.363     15.309
REMARK INTER + INTRA:          -3.873
REMARK INTER:                  -3.559
REMARK INTRA:                  -0.314
REMARK UNBOUND:                -0.371
REMARK SMILES CCCCCCCCC(=O)[O-]
REMARK SMILES IDX 6 1 7 2 8 3 9 4 10 5 11 6 5 7 4 8 3 9 2 10 1 11
REMARK H PARENT
REMARK Flexibility Score: inf
ROOT
ATOM      1  C   UNL     1      32.389  63.880  17.794  1.00  0.00     0.000 C 
ENDROOT
BRANCH   1   2
ATOM      2  C   UNL     1      32.960  62.743  18.658  1.00  0.00     0.006 C 
BRANCH   2   3
ATOM      3  C   UNL     1      32.351  62.708  20.066  1.00  0.00     0.053 C 
BRANCH   3   4
ATOM      4  C   UNL     1      32.624  61.390  20.719  1.00  0.00     0.041 C 
ATOM      5  O   UNL     1      32.607  61.288  21.973  1.00  0.00    -0.550 OA
ATOM      6  O   UNL     1      32.943  60.284  19.943  1.00  0.00    -0.550 OA
ENDBRANCH   3   4
ENDBRANCH   2   3
ENDBRANCH   1   2
BRANCH   1   7
ATOM      7  C   UNL     1      31.893  65.069  18.632  1.00  0.00     0.000 C 
BRANCH   7   8
ATOM      8  C   UNL     1      30.922  65.941  17.822  1.00  0.00    -0.000 C 
BRANCH   8   9
ATOM      9  C   UNL     1      29.521  65.318  17.709  1.00  0.00    -0.000 C 
BRANCH   9  10
ATOM     10  C   UNL     1      28.987  65.320  16.269  1.00  0.00    -0.003 C 
ATOM     11  C   UNL     1      27.542  64.833  16.218  1.00  0.00     0.004 C 
ENDBRANCH   9  10
ENDBRANCH   8   9
ENDBRANCH   7   8
ENDBRANCH   1   7
TORSDOF 7
ENDMDL
MODEL 8
REMARK VINA RESULT:    -2.434     11.162     14.783
REMARK INTER + INTRA:          -3.801
REMARK INTER:                  -3.528
REMARK INTRA:                  -0.273
REMARK UNBOUND:                -0.371
REMARK SMILES CCCCCCCCC(=O)[O-]
REMARK SMILES IDX 6 1 7 2 8 3 9 4 10 5 11 6 5 7 4 8 3 9 2 10 1 11
REMARK H PARENT
REMARK Flexibility Score: inf
ROOT
ATOM      1  C   UNL     1      31.019  64.799  17.752  1.00  0.00     0.000 C 
ENDROOT
BRANCH   1   2
ATOM      2  C   UNL     1      29.938  65.823  17.370  1.00  0.00     0.006 C 
BRANCH   2   3
ATOM      3  C   UNL     1      28.944  65.275  16.337  1.00  0.00     0.053 C 
BRANCH   3   4
ATOM      4  C   UNL     1      27.621  65.002  16.981  1.00  0.00     0.041 C 
ATOM      5  O   UNL     1      27.568  64.592  18.169  1.00  0.00    -0.550 OA
ATOM      6  O   UNL     1      26.449  65.155  16.251  1.00  0.00    -0.550 OA
ENDBRANCH   3   4
ENDBRANCH   2   3
ENDBRANCH   1   2
BRANCH   1   7
ATOM      7  C   UNL     1      32.202  65.436  18.498  1.00  0.00     0.000 C 
BRANCH   7   8
ATOM      8  C   UNL     1      32.763  64.475  19.556  1.00  0.00    -0.000 C 
BRANCH   8   9
ATOM      9  C   UNL     1      31.966  63.164  19.649  1.00  0.00    -0.000 C 
BRANCH   9  10
ATOM     10  C   UNL     1      32.867  61.935  19.840  1.00  0.00    -0.003 C 
ATOM     11  C   UNL     1      32.329  61.025  20.940  1.00  0.00     0.004 C 
ENDBRANCH   9  10
ENDBRANCH   8   9
ENDBRANCH   7   8
ENDBRANCH   1   7
TORSDOF 7
ENDMDL
MODEL 9
REMARK VINA RESULT:    -2.313     11.653     13.982
REMARK INTER + INTRA:          -3.630
REMARK INTER:                  -3.390
REMARK INTRA:                  -0.241
REMARK UNBOUND:                -0.371
REMARK SMILES CCCCCCCCC(=O)[O-]
REMARK SMILES IDX 6 1 7 2 8 3 9 4 10 5 11 6 5 7 4 8 3 9 2 10 1 11
REMARK H PARENT
REMARK Flexibility Score: inf
ROOT
ATOM      1  C   UNL     1      30.290  63.810  15.028  1.00  0.00     0.000 C 
ENDROOT
BRANCH   1   2
ATOM      2  C   UNL     1      31.657  63.106  15.039  1.00  0.00     0.006 C 
BRANCH   2   3
ATOM      3  C   UNL     1      32.679  63.813  15.939  1.00  0.00     0.053 C 
BRANCH   3   4
ATOM      4  C   UNL     1      32.910  63.021  17.187  1.00  0.00     0.041 C 
ATOM      5  O   UNL     1      32.953  63.598  18.305  1.00  0.00    -0.550 OA
ATOM      6  O   UNL     1      33.125  61.651  17.111  1.00  0.00    -0.550 OA
ENDBRANCH   3   4
ENDBRANCH   2   3
ENDBRANCH   1   2
BRANCH   1   7
ATOM      7  C   UNL     1      30.135  64.820  16.175  1.00  0.00     0.000 C 
BRANCH   7   8
ATOM      8  C   UNL     1      28.877  65.679  15.981  1.00  0.00    -0.000 C 
BRANCH   8   9
ATOM      9  C   UNL     1      27.589  64.943  16.384  1.00  0.00    -0.000 C 
BRANCH   9  10
ATOM     10  C   UNL     1      26.848  65.636  17.538  1.00  0.00    -0.003 C 
ATOM     11  C   UNL     1      27.657  65.565  18.830  1.00  0.00     0.004 C 
ENDBRANCH   9  10
ENDBRANCH   8   9
ENDBRANCH   7   8
ENDBRANCH   1   7
TORSDOF 7
ENDMDL
