MODEL 1
REMARK VINA RESULT:    -3.876      0.000      0.000
REMARK INTER + INTRA:          -8.289
REMARK INTER:                  -7.274
REMARK INTRA:                  -1.014
REMARK UNBOUND:                -1.014
REMARK SMILES O=C([O-])CCCCCCCCCCCCCCC(=O)[O-]
REMARK SMILES IDX 10 1 9 2 8 3 7 4 6 5 5 6 4 7 2 8 1 9 3 10 11 11 12 12 13 13
REMARK SMILES IDX 14 14 15 15 16 16 17 17 18 18 19 19 20 20
REMARK H PARENT
REMARK Flexibility Score: inf
ROOT
ATOM      1  C   UNL     1      -2.728 -51.241   2.649  1.00  0.00     0.000 C 
ENDROOT
BRANCH   1   2
ATOM      2  C   UNL     1      -2.673 -50.693   1.209  1.00  0.00     0.000 C 
BRANCH   2   3
ATOM      3  C   UNL     1      -3.913 -51.003   0.348  1.00  0.00     0.000 C 
BRANCH   3   4
ATOM      4  C   UNL     1      -4.849 -52.086   0.923  1.00  0.00     0.000 C 
BRANCH   4   5
ATOM      5  C   UNL     1      -6.341 -51.702   0.971  1.00  0.00     0.000 C 
BRANCH   5   6
ATOM      6  C   UNL     1      -7.026 -51.922   2.332  1.00  0.00     0.006 C 
BRANCH   6   7
ATOM      7  C   UNL     1      -8.356 -51.167   2.459  1.00  0.00     0.053 C 
BRANCH   7   8
ATOM      8  C   UNL     1      -8.503 -50.598   3.834  1.00  0.00     0.041 C 
ATOM      9  O   UNL     1      -8.728 -49.367   3.990  1.00  0.00    -0.550 OA
ATOM     10  O   UNL     1      -8.343 -51.415   4.947  1.00  0.00    -0.550 OA
ENDBRANCH   7   8
ENDBRANCH   6   7
ENDBRANCH   5   6
ENDBRANCH   4   5
ENDBRANCH   3   4
ENDBRANCH   2   3
ENDBRANCH   1   2
BRANCH   1  11
ATOM     11  C   UNL     1      -1.378 -51.255   3.394  1.00  0.00     0.000 C 
BRANCH  11  12
ATOM     12  C   UNL     1      -1.347 -52.119   4.667  1.00  0.00     0.000 C 
BRANCH  12  13
ATOM     13  C   UNL     1      -2.688 -52.125   5.417  1.00  0.00     0.000 C 
BRANCH  13  14
ATOM     14  C   UNL     1      -2.763 -50.964   6.418  1.00  0.00     0.000 C 
BRANCH  14  15
ATOM     15  C   UNL     1      -2.452 -51.446   7.843  1.00  0.00     0.000 C 
BRANCH  15  16
ATOM     16  C   UNL     1      -3.683 -52.034   8.550  1.00  0.00     0.006 C 
BRANCH  16  17
ATOM     17  C   UNL     1      -4.526 -50.965   9.257  1.00  0.00     0.053 C 
BRANCH  17  18
ATOM     18  C   UNL     1      -5.963 -51.087   8.858  1.00  0.00     0.041 C 
ATOM     19  O   UNL     1      -6.270 -51.577   7.739  1.00  0.00    -0.550 OA
ATOM     20  O   UNL     1      -6.962 -50.614   9.700  1.00  0.00    -0.550 OA
ENDBRANCH  17  18
ENDBRANCH  16  17
ENDBRANCH  15  16
ENDBRANCH  14  15
ENDBRANCH  13  14
ENDBRANCH  12  13
ENDBRANCH  11  12
ENDBRANCH   1  11
TORSDOF 15
ENDMDL
MODEL 2
REMARK VINA RESULT:    -3.410      1.094      2.094
REMARK INTER + INTRA:          -7.415
REMARK INTER:                  -6.860
REMARK INTRA:                  -0.554
REMARK UNBOUND:                -1.014
REMARK SMILES O=C([O-])CCCCCCCCCCCCCCC(=O)[O-]
REMARK SMILES IDX 10 1 9 2 8 3 7 4 6 5 5 6 4 7 2 8 1 9 3 10 11 11 12 12 13 13
REMARK SMILES IDX 14 14 15 15 16 16 17 17 18 18 19 19 20 20
REMARK H PARENT
REMARK Flexibility Score: inf
ROOT
ATOM      1  C   UNL     1      -2.763 -50.901   0.502  1.00  0.00     0.000 C 
ENDROOT
BRANCH   1   2
ATOM      2  C   UNL     1      -4.263 -50.550   0.460  1.00  0.00     0.000 C 
BRANCH   2   3
ATOM      3  C   UNL     1      -5.177 -51.669  -0.077  1.00  0.00     0.000 C 
BRANCH   3   4
ATOM      4  C   UNL     1      -6.689 -51.403   0.076  1.00  0.00     0.000 C 
BRANCH   4   5
ATOM      5  C   UNL     1      -7.363 -52.125   1.260  1.00  0.00     0.000 C 
BRANCH   5   6
ATOM      6  C   UNL     1      -8.447 -51.309   1.987  1.00  0.00     0.006 C 
BRANCH   6   7
ATOM      7  C   UNL     1      -8.647 -51.749   3.443  1.00  0.00     0.053 C 
BRANCH   7   8
ATOM      8  C   UNL     1      -8.370 -50.612   4.375  1.00  0.00     0.041 C 
ATOM      9  O   UNL     1      -7.867 -50.830   5.510  1.00  0.00    -0.550 OA
ATOM     10  O   UNL     1      -8.714 -49.315   4.012  1.00  0.00    -0.550 OA
ENDBRANCH   7   8
ENDBRANCH   6   7
ENDBRANCH   5   6
ENDBRANCH   4   5
ENDBRANCH   3   4
ENDBRANCH   2   3
ENDBRANCH   1   2
BRANCH   1  11
ATOM     11  C   UNL     1      -2.370 -51.966   1.545  1.00  0.00     0.000 C 
BRANCH  11  12
ATOM     12  C   UNL     1      -1.253 -51.546   2.516  1.00  0.00     0.000 C 
BRANCH  12  13
ATOM     13  C   UNL     1      -1.626 -51.776   3.989  1.00  0.00     0.000 C 
BRANCH  13  14
ATOM     14  C   UNL     1      -3.144 -51.923   4.155  1.00  0.00     0.000 C 
BRANCH  14  15
ATOM     15  C   UNL     1      -3.524 -52.060   5.637  1.00  0.00     0.000 C 
BRANCH  15  16
ATOM     16  C   UNL     1      -2.813 -51.029   6.528  1.00  0.00     0.006 C 
BRANCH  16  17
ATOM     17  C   UNL     1      -2.706 -51.484   7.989  1.00  0.00     0.053 C 
BRANCH  17  18
ATOM     18  C   UNL     1      -4.042 -51.410   8.658  1.00  0.00     0.041 C 
ATOM     19  O   UNL     1      -4.123 -51.439   9.914  1.00  0.00    -0.550 OA
ATOM     20  O   UNL     1      -5.201 -51.357   7.894  1.00  0.00    -0.550 OA
ENDBRANCH  17  18
ENDBRANCH  16  17
ENDBRANCH  15  16
ENDBRANCH  14  15
ENDBRANCH  13  14
ENDBRANCH  12  13
ENDBRANCH  11  12
ENDBRANCH   1  11
TORSDOF 15
ENDMDL
MODEL 3
REMARK VINA RESULT:    -3.281      2.873      4.215
REMARK INTER + INTRA:          -7.173
REMARK INTER:                  -6.316
REMARK INTRA:                  -0.856
REMARK UNBOUND:                -1.014
REMARK SMILES O=C([O-])CCCCCCCCCCCCCCC(=O)[O-]
REMARK SMILES IDX 10 1 9 2 8 3 7 4 6 5 5 6 4 7 2 8 1 9 3 10 11 11 12 12 13 13
REMARK SMILES IDX 14 14 15 15 16 16 17 17 18 18 19 19 20 20
REMARK H PARENT
REMARK Flexibility Score: inf
ROOT
ATOM      1  C   UNL     1      -6.505 -51.392   3.726  1.00  0.00     0.000 C 
ENDROOT
BRANCH   1   2
ATOM      2  C   UNL     1      -7.157 -51.997   2.467  1.00  0.00     0.000 C 
BRANCH   2   3
ATOM      3  C   UNL     1      -6.713 -51.359   1.136  1.00  0.00     0.000 C 
BRANCH   3   4
ATOM      4  C   UNL     1      -5.468 -52.002   0.492  1.00  0.00     0.000 C 
BRANCH   4   5
ATOM      5  C   UNL     1      -4.698 -51.096  -0.490  1.00  0.00     0.000 C 
BRANCH   5   6
ATOM      6  C   UNL     1      -3.202 -50.916  -0.172  1.00  0.00     0.006 C 
BRANCH   6   7
ATOM      7  C   UNL     1      -2.886 -51.088   1.319  1.00  0.00     0.053 C 
BRANCH   7   8
ATOM      8  C   UNL     1      -1.407 -51.160   1.533  1.00  0.00     0.041 C 
ATOM      9  O   UNL     1      -0.906 -50.782   2.627  1.00  0.00    -0.550 OA
ATOM     10  O   UNL     1      -0.575 -51.595   0.509  1.00  0.00    -0.550 OA
ENDBRANCH   7   8
ENDBRANCH   6   7
ENDBRANCH   5   6
ENDBRANCH   4   5
ENDBRANCH   3   4
ENDBRANCH   2   3
ENDBRANCH   1   2
BRANCH   1  11
ATOM     11  C   UNL     1      -5.236 -52.118   4.217  1.00  0.00     0.000 C 
BRANCH  11  12
ATOM     12  C   UNL     1      -3.953 -51.269   4.197  1.00  0.00     0.000 C 
BRANCH  12  13
ATOM     13  C   UNL     1      -3.256 -51.209   5.565  1.00  0.00     0.000 C 
BRANCH  13  14
ATOM     14  C   UNL     1      -3.961 -52.116   6.581  1.00  0.00     0.000 C 
BRANCH  14  15
ATOM     15  C   UNL     1      -3.903 -51.511   7.992  1.00  0.00     0.000 C 
BRANCH  15  16
ATOM     16  C   UNL     1      -4.963 -52.102   8.934  1.00  0.00     0.006 C 
BRANCH  16  17
ATOM     17  C   UNL     1      -5.686 -51.029   9.758  1.00  0.00     0.053 C 
BRANCH  17  18
ATOM     18  C   UNL     1      -7.077 -50.826   9.245  1.00  0.00     0.041 C 
ATOM     19  O   UNL     1      -8.026 -50.630  10.050  1.00  0.00    -0.550 OA
ATOM     20  O   UNL     1      -7.334 -50.902   7.882  1.00  0.00    -0.550 OA
ENDBRANCH  17  18
ENDBRANCH  16  17
ENDBRANCH  15  16
ENDBRANCH  14  15
ENDBRANCH  13  14
ENDBRANCH  12  13
ENDBRANCH  11  12
ENDBRANCH   1  11
TORSDOF 15
ENDMDL
MODEL 4
REMARK VINA RESULT:    -2.975      1.331      1.742
REMARK INTER + INTRA:          -6.598
REMARK INTER:                  -5.745
REMARK INTRA:                  -0.854
REMARK UNBOUND:                -1.014
REMARK SMILES O=C([O-])CCCCCCCCCCCCCCC(=O)[O-]
REMARK SMILES IDX 10 1 9 2 8 3 7 4 6 5 5 6 4 7 2 8 1 9 3 10 11 11 12 12 13 13
REMARK SMILES IDX 14 14 15 15 16 16 17 17 18 18 19 19 20 20
REMARK H PARENT
REMARK Flexibility Score: inf
ROOT
ATOM      1  C   UNL     1      -2.019 -51.763   2.114  1.00  0.00     0.000 C 
ENDROOT
BRANCH   1   2
ATOM      2  C   UNL     1      -2.039 -50.318   1.577  1.00  0.00     0.000 C 
BRANCH   2   3
ATOM      3  C   UNL     1      -3.240 -49.977   0.673  1.00  0.00     0.000 C 
BRANCH   3   4
ATOM      4  C   UNL     1      -3.992 -51.198   0.106  1.00  0.00     0.000 C 
BRANCH   4   5
ATOM      5  C   UNL     1      -5.515 -51.011  -0.055  1.00  0.00     0.000 C 
BRANCH   5   6
ATOM      6  C   UNL     1      -6.376 -52.119   0.577  1.00  0.00     0.006 C 
BRANCH   6   7
ATOM      7  C   UNL     1      -6.899 -51.745   1.970  1.00  0.00     0.053 C 
BRANCH   7   8
ATOM      8  C   UNL     1      -8.351 -51.392   1.905  1.00  0.00     0.041 C 
ATOM      9  O   UNL     1      -9.081 -51.875   0.999  1.00  0.00    -0.550 OA
ATOM     10  O   UNL     1      -8.889 -50.490   2.815  1.00  0.00    -0.550 OA
ENDBRANCH   7   8
ENDBRANCH   6   7
ENDBRANCH   5   6
ENDBRANCH   4   5
ENDBRANCH   3   4
ENDBRANCH   2   3
ENDBRANCH   1   2
BRANCH   1  11
ATOM     11  C   UNL     1      -3.180 -52.123   3.062  1.00  0.00     0.000 C 
BRANCH  11  12
ATOM     12  C   UNL     1      -3.319 -51.214   4.295  1.00  0.00     0.000 C 
BRANCH  12  13
ATOM     13  C   UNL     1      -2.661 -51.806   5.551  1.00  0.00     0.000 C 
BRANCH  13  14
ATOM     14  C   UNL     1      -3.165 -51.104   6.819  1.00  0.00     0.000 C 
BRANCH  14  15
ATOM     15  C   UNL     1      -2.440 -51.633   8.065  1.00  0.00     0.000 C 
BRANCH  15  16
ATOM     16  C   UNL     1      -3.411 -52.111   9.157  1.00  0.00     0.006 C 
BRANCH  16  17
ATOM     17  C   UNL     1      -4.878 -52.039   8.715  1.00  0.00     0.053 C 
BRANCH  17  18
ATOM     18  C   UNL     1      -5.574 -50.906   9.402  1.00  0.00     0.041 C 
ATOM     19  O   UNL     1      -4.907 -49.958   9.893  1.00  0.00    -0.550 OA
ATOM     20  O   UNL     1      -6.956 -50.921   9.542  1.00  0.00    -0.550 OA
ENDBRANCH  17  18
ENDBRANCH  16  17
ENDBRANCH  15  16
ENDBRANCH  14  15
ENDBRANCH  13  14
ENDBRANCH  12  13
ENDBRANCH  11  12
ENDBRANCH   1  11
TORSDOF 15
ENDMDL
MODEL 5
REMARK VINA RESULT:    -2.668      2.865      5.906
REMARK INTER + INTRA:          -6.022
REMARK INTER:                  -5.380
REMARK INTRA:                  -0.642
REMARK UNBOUND:                -1.014
REMARK SMILES O=C([O-])CCCCCCCCCCCCCCC(=O)[O-]
REMARK SMILES IDX 10 1 9 2 8 3 7 4 6 5 5 6 4 7 2 8 1 9 3 10 11 11 12 12 13 13
REMARK SMILES IDX 14 14 15 15 16 16 17 17 18 18 19 19 20 20
REMARK H PARENT
REMARK Flexibility Score: inf
ROOT
ATOM      1  C   UNL     1      -4.142 -51.470   7.770  1.00  0.00     0.000 C 
ENDROOT
BRANCH   1   2
ATOM      2  C   UNL     1      -2.975 -50.849   6.978  1.00  0.00     0.000 C 
BRANCH   2   3
ATOM      3  C   UNL     1      -2.237 -51.823   6.039  1.00  0.00     0.000 C 
BRANCH   3   4
ATOM      4  C   UNL     1      -1.313 -51.151   5.002  1.00  0.00     0.000 C 
BRANCH   4   5
ATOM      5  C   UNL     1      -0.899 -52.047   3.817  1.00  0.00     0.000 C 
BRANCH   5   6
ATOM      6  C   UNL     1      -1.924 -52.125   2.672  1.00  0.00     0.006 C 
BRANCH   6   7
ATOM      7  C   UNL     1      -2.193 -50.763   2.020  1.00  0.00     0.053 C 
BRANCH   7   8
ATOM      8  C   UNL     1      -2.110 -50.871   0.530  1.00  0.00     0.041 C 
ATOM      9  O   UNL     1      -3.097 -50.549  -0.185  1.00  0.00    -0.550 OA
ATOM     10  O   UNL     1      -0.963 -51.377  -0.068  1.00  0.00    -0.550 OA
ENDBRANCH   7   8
ENDBRANCH   6   7
ENDBRANCH   5   6
ENDBRANCH   4   5
ENDBRANCH   3   4
ENDBRANCH   2   3
ENDBRANCH   1   2
BRANCH   1  11
ATOM     11  C   UNL     1      -4.038 -51.332   9.302  1.00  0.00     0.000 C 
BRANCH  11  12
ATOM     12  C   UNL     1      -5.001 -50.311   9.931  1.00  0.00     0.000 C 
BRANCH  12  13
ATOM     13  C   UNL     1      -6.396 -50.331   9.288  1.00  0.00     0.000 C 
BRANCH  13  14
ATOM     14  C   UNL     1      -7.080 -51.688   9.501  1.00  0.00     0.000 C 
BRANCH  14  15
ATOM     15  C   UNL     1      -7.842 -52.125   8.241  1.00  0.00     0.000 C 
BRANCH  15  16
ATOM     16  C   UNL     1      -7.205 -51.589   6.949  1.00  0.00     0.006 C 
BRANCH  16  17
ATOM     17  C   UNL     1      -7.999 -51.973   5.694  1.00  0.00     0.053 C 
BRANCH  17  18
ATOM     18  C   UNL     1      -7.626 -51.087   4.549  1.00  0.00     0.041 C 
ATOM     19  O   UNL     1      -6.660 -51.392   3.801  1.00  0.00    -0.550 OA
ATOM     20  O   UNL     1      -8.313 -49.898   4.335  1.00  0.00    -0.550 OA
ENDBRANCH  17  18
ENDBRANCH  16  17
ENDBRANCH  15  16
ENDBRANCH  14  15
ENDBRANCH  13  14
ENDBRANCH  12  13
ENDBRANCH  11  12
ENDBRANCH   1  11
TORSDOF 15
ENDMDL
MODEL 6
REMARK VINA RESULT:    -2.511      2.475      3.944
REMARK INTER + INTRA:          -5.728
REMARK INTER:                  -4.996
REMARK INTRA:                  -0.732
REMARK UNBOUND:                -1.014
REMARK SMILES O=C([O-])CCCCCCCCCCCCCCC(=O)[O-]
REMARK SMILES IDX 10 1 9 2 8 3 7 4 6 5 5 6 4 7 2 8 1 9 3 10 11 11 12 12 13 13
REMARK SMILES IDX 14 14 15 15 16 16 17 17 18 18 19 19 20 20
REMARK H PARENT
REMARK Flexibility Score: inf
ROOT
ATOM      1  C   UNL     1      -7.332 -50.819   4.334  1.00  0.00     0.000 C 
ENDROOT
BRANCH   1   2
ATOM      2  C   UNL     1      -8.738 -51.002   3.728  1.00  0.00     0.000 C 
BRANCH   2   3
ATOM      3  C   UNL     1      -8.759 -51.320   2.220  1.00  0.00     0.000 C 
BRANCH   3   4
ATOM      4  C   UNL     1      -7.476 -51.981   1.678  1.00  0.00     0.000 C 
BRANCH   4   5
ATOM      5  C   UNL     1      -6.899 -51.338   0.400  1.00  0.00     0.000 C 
BRANCH   5   6
ATOM      6  C   UNL     1      -5.422 -51.666   0.117  1.00  0.00     0.006 C 
BRANCH   6   7
ATOM      7  C   UNL     1      -4.559 -51.669   1.385  1.00  0.00     0.053 C 
BRANCH   7   8
ATOM      8  C   UNL     1      -3.205 -51.104   1.096  1.00  0.00     0.041 C 
ATOM      9  O   UNL     1      -2.733 -51.153  -0.071  1.00  0.00    -0.550 OA
ATOM     10  O   UNL     1      -2.441 -50.566   2.125  1.00  0.00    -0.550 OA
ENDBRANCH   7   8
ENDBRANCH   6   7
ENDBRANCH   5   6
ENDBRANCH   4   5
ENDBRANCH   3   4
ENDBRANCH   2   3
ENDBRANCH   1   2
BRANCH   1  11
ATOM     11  C   UNL     1      -6.618 -52.125   4.735  1.00  0.00     0.000 C 
BRANCH  11  12
ATOM     12  C   UNL     1      -5.091 -52.118   4.541  1.00  0.00     0.000 C 
BRANCH  12  13
ATOM     13  C   UNL     1      -4.364 -51.235   5.566  1.00  0.00     0.000 C 
BRANCH  13  14
ATOM     14  C   UNL     1      -3.000 -51.831   5.936  1.00  0.00     0.000 C 
BRANCH  14  15
ATOM     15  C   UNL     1      -2.519 -51.304   7.296  1.00  0.00     0.000 C 
BRANCH  15  16
ATOM     16  C   UNL     1      -3.370 -51.822   8.466  1.00  0.00     0.006 C 
BRANCH  16  17
ATOM     17  C   UNL     1      -4.268 -50.735   9.070  1.00  0.00     0.053 C 
BRANCH  17  18
ATOM     18  C   UNL     1      -5.697 -51.176   9.064  1.00  0.00     0.041 C 
ATOM     19  O   UNL     1      -6.122 -51.933   8.151  1.00  0.00    -0.550 OA
ATOM     20  O   UNL     1      -6.573 -50.713  10.037  1.00  0.00    -0.550 OA
ENDBRANCH  17  18
ENDBRANCH  16  17
ENDBRANCH  15  16
ENDBRANCH  14  15
ENDBRANCH  13  14
ENDBRANCH  12  13
ENDBRANCH  11  12
ENDBRANCH   1  11
TORSDOF 15
ENDMDL
MODEL 7
REMARK VINA RESULT:    -2.089      1.877      3.062
REMARK INTER + INTRA:          -4.935
REMARK INTER:                  -4.034
REMARK INTRA:                  -0.901
REMARK UNBOUND:                -1.014
REMARK SMILES O=C([O-])CCCCCCCCCCCCCCC(=O)[O-]
REMARK SMILES IDX 10 1 9 2 8 3 7 4 6 5 5 6 4 7 2 8 1 9 3 10 11 11 12 12 13 13
REMARK SMILES IDX 14 14 15 15 16 16 17 17 18 18 19 19 20 20
REMARK H PARENT
REMARK Flexibility Score: inf
ROOT
ATOM      1  C   UNL     1      -1.819 -50.562   4.619  1.00  0.00     0.000 C 
ENDROOT
BRANCH   1   2
ATOM      2  C   UNL     1      -0.936 -50.649   3.358  1.00  0.00     0.000 C 
BRANCH   2   3
ATOM      3  C   UNL     1      -1.023 -51.985   2.594  1.00  0.00     0.000 C 
BRANCH   3   4
ATOM      4  C   UNL     1      -2.249 -52.125   1.668  1.00  0.00     0.000 C 
BRANCH   4   5
ATOM      5  C   UNL     1      -2.367 -51.047   0.572  1.00  0.00     0.000 C 
BRANCH   5   6
ATOM      6  C   UNL     1      -3.799 -50.552   0.298  1.00  0.00     0.006 C 
BRANCH   6   7
ATOM      7  C   UNL     1      -4.735 -51.672  -0.176  1.00  0.00     0.053 C 
BRANCH   7   8
ATOM      8  C   UNL     1      -5.967 -51.715   0.670  1.00  0.00     0.041 C 
ATOM      9  O   UNL     1      -7.106 -51.653   0.134  1.00  0.00    -0.550 OA
ATOM     10  O   UNL     1      -5.860 -51.771   2.054  1.00  0.00    -0.550 OA
ENDBRANCH   7   8
ENDBRANCH   6   7
ENDBRANCH   5   6
ENDBRANCH   4   5
ENDBRANCH   3   4
ENDBRANCH   2   3
ENDBRANCH   1   2
BRANCH   1  11
ATOM     11  C   UNL     1      -1.807 -51.819   5.512  1.00  0.00     0.000 C 
BRANCH  11  12
ATOM     12  C   UNL     1      -1.250 -51.605   6.930  1.00  0.00     0.000 C 
BRANCH  12  13
ATOM     13  C   UNL     1      -2.196 -52.118   8.026  1.00  0.00     0.000 C 
BRANCH  13  14
ATOM     14  C   UNL     1      -3.647 -51.715   7.734  1.00  0.00     0.000 C 
BRANCH  14  15
ATOM     15  C   UNL     1      -4.125 -50.631   8.712  1.00  0.00     0.000 C 
BRANCH  15  16
ATOM     16  C   UNL     1      -4.753 -51.219   9.985  1.00  0.00     0.006 C 
BRANCH  16  17
ATOM     17  C   UNL     1      -6.114 -51.875   9.724  1.00  0.00     0.053 C 
BRANCH  17  18
ATOM     18  C   UNL     1      -6.928 -51.036   8.791  1.00  0.00     0.041 C 
ATOM     19  O   UNL     1      -7.435 -49.955   9.191  1.00  0.00    -0.550 OA
ATOM     20  O   UNL     1      -7.167 -51.469   7.493  1.00  0.00    -0.550 OA
ENDBRANCH  17  18
ENDBRANCH  16  17
ENDBRANCH  15  16
ENDBRANCH  14  15
ENDBRANCH  13  14
ENDBRANCH  12  13
ENDBRANCH  11  12
ENDBRANCH   1  11
TORSDOF 15
ENDMDL
MODEL 8
REMARK VINA RESULT:    -1.638      3.115      7.337
REMARK INTER + INTRA:          -4.089
REMARK INTER:                  -4.096
REMARK INTRA:                   0.007
REMARK UNBOUND:                -1.014
REMARK SMILES O=C([O-])CCCCCCCCCCCCCCC(=O)[O-]
REMARK SMILES IDX 10 1 9 2 8 3 7 4 6 5 5 6 4 7 2 8 1 9 3 10 11 11 12 12 13 13
REMARK SMILES IDX 14 14 15 15 16 16 17 17 18 18 19 19 20 20
REMARK H PARENT
REMARK Flexibility Score: inf
ROOT
ATOM      1  C   UNL     1      -7.435 -50.787   4.000  1.00  0.00     0.000 C 
ENDROOT
BRANCH   1   2
ATOM      2  C   UNL     1      -7.648 -50.788   5.527  1.00  0.00     0.000 C 
BRANCH   2   3
ATOM      3  C   UNL     1      -7.205 -52.078   6.244  1.00  0.00     0.000 C 
BRANCH   3   4
ATOM      4  C   UNL     1      -7.509 -52.118   7.755  1.00  0.00     0.000 C 
BRANCH   4   5
ATOM      5  C   UNL     1      -6.370 -51.616   8.665  1.00  0.00     0.000 C 
BRANCH   5   6
ATOM      6  C   UNL     1      -6.817 -51.110  10.048  1.00  0.00     0.006 C 
BRANCH   6   7
ATOM      7  C   UNL     1      -8.262 -50.596  10.055  1.00  0.00     0.053 C 
BRANCH   7   8
ATOM      8  C   UNL     1      -8.335 -49.237   9.434  1.00  0.00     0.041 C 
ATOM      9  O   UNL     1      -7.647 -48.969   8.413  1.00  0.00    -0.550 OA
ATOM     10  O   UNL     1      -9.125 -48.250  10.011  1.00  0.00    -0.550 OA
ENDBRANCH   7   8
ENDBRANCH   6   7
ENDBRANCH   5   6
ENDBRANCH   4   5
ENDBRANCH   3   4
ENDBRANCH   2   3
ENDBRANCH   1   2
BRANCH   1  11
ATOM     11  C   UNL     1      -8.717 -50.604   3.162  1.00  0.00     0.000 C 
BRANCH  11  12
ATOM     12  C   UNL     1      -8.602 -51.044   1.692  1.00  0.00     0.000 C 
BRANCH  12  13
ATOM     13  C   UNL     1      -7.367 -51.918   1.426  1.00  0.00     0.000 C 
BRANCH  13  14
ATOM     14  C   UNL     1      -6.187 -51.069   0.937  1.00  0.00     0.000 C 
BRANCH  14  15
ATOM     15  C   UNL     1      -5.054 -51.958   0.401  1.00  0.00     0.000 C 
BRANCH  15  16
ATOM     16  C   UNL     1      -3.822 -51.964   1.319  1.00  0.00     0.006 C 
BRANCH  16  17
ATOM     17  C   UNL     1      -2.854 -50.813   1.017  1.00  0.00     0.053 C 
BRANCH  17  18
ATOM     18  C   UNL     1      -1.455 -51.198   1.384  1.00  0.00     0.041 C 
ATOM     19  O   UNL     1      -1.080 -51.146   2.585  1.00  0.00    -0.550 OA
ATOM     20  O   UNL     1      -0.552 -51.566   0.395  1.00  0.00    -0.550 OA
ENDBRANCH  17  18
ENDBRANCH  16  17
ENDBRANCH  15  16
ENDBRANCH  14  15
ENDBRANCH  13  14
ENDBRANCH  12  13
ENDBRANCH  11  12
ENDBRANCH   1  11
TORSDOF 15
ENDMDL
