MODEL 1
REMARK VINA RESULT:    -5.048      0.000      0.000
REMARK INTER + INTRA:         -10.033
REMARK INTER:                  -9.179
REMARK INTRA:                  -0.854
REMARK UNBOUND:                -0.854
REMARK SMILES CCCCCCCCCCCCCCCC(=O)[O-]
REMARK SMILES IDX 9 1 10 2 11 3 12 4 13 5 14 6 15 7 16 8 17 9 18 10 8 11 7 12
REMARK SMILES IDX 6 13 5 14 4 15 3 16 2 17 1 18
REMARK H PARENT
REMARK Flexibility Score: inf
ROOT
ATOM      1  C   UNL     1      19.455  21.796  32.571  1.00  0.00     0.000 C 
ENDROOT
BRANCH   1   2
ATOM      2  C   UNL     1      17.926  21.951  32.654  1.00  0.00     0.000 C 
BRANCH   2   3
ATOM      3  C   UNL     1      17.402  21.823  34.093  1.00  0.00     0.000 C 
BRANCH   3   4
ATOM      4  C   UNL     1      15.870  21.947  34.174  1.00  0.00     0.000 C 
BRANCH   4   5
ATOM      5  C   UNL     1      15.326  21.702  35.592  1.00  0.00     0.000 C 
BRANCH   5   6
ATOM      6  C   UNL     1      14.214  20.636  35.682  1.00  0.00     0.006 C 
BRANCH   6   7
ATOM      7  C   UNL     1      13.141  20.740  34.586  1.00  0.00     0.053 C 
BRANCH   7   8
ATOM      8  C   UNL     1      12.210  21.890  34.816  1.00  0.00     0.041 C 
ATOM      9  O   UNL     1      11.997  22.724  33.897  1.00  0.00    -0.550 OA
ATOM     10  O   UNL     1      11.603  22.057  36.051  1.00  0.00    -0.550 OA
ENDBRANCH   7   8
ENDBRANCH   6   7
ENDBRANCH   5   6
ENDBRANCH   4   5
ENDBRANCH   3   4
ENDBRANCH   2   3
ENDBRANCH   1   2
BRANCH   1  11
ATOM     11  C   UNL     1      19.931  20.422  33.072  1.00  0.00     0.000 C 
BRANCH  11  12
ATOM     12  C   UNL     1      20.705  20.522  34.399  1.00  0.00    -0.000 C 
BRANCH  12  13
ATOM     13  C   UNL     1      21.313  21.914  34.634  1.00  0.00    -0.000 C 
BRANCH  13  14
ATOM     14  C   UNL     1      21.243  22.354  36.107  1.00  0.00    -0.000 C 
BRANCH  14  15
ATOM     15  C   UNL     1      22.473  21.915  36.922  1.00  0.00    -0.000 C 
BRANCH  15  16
ATOM     16  C   UNL     1      23.737  22.767  36.710  1.00  0.00    -0.000 C 
BRANCH  16  17
ATOM     17  C   UNL     1      25.017  21.926  36.608  1.00  0.00    -0.003 C 
ATOM     18  C   UNL     1      25.017  20.801  37.639  1.00  0.00     0.004 C 
ENDBRANCH  16  17
ENDBRANCH  15  16
ENDBRANCH  14  15
ENDBRANCH  13  14
ENDBRANCH  12  13
ENDBRANCH  11  12
ENDBRANCH   1  11
TORSDOF 14
ENDMDL
MODEL 2
REMARK VINA RESULT:    -5.024     10.714     14.337
REMARK INTER + INTRA:          -9.989
REMARK INTER:                  -9.350
REMARK INTRA:                  -0.639
REMARK UNBOUND:                -0.854
REMARK SMILES CCCCCCCCCCCCCCCC(=O)[O-]
REMARK SMILES IDX 9 1 10 2 11 3 12 4 13 5 14 6 15 7 16 8 17 9 18 10 8 11 7 12
REMARK SMILES IDX 6 13 5 14 4 15 3 16 2 17 1 18
REMARK H PARENT
REMARK Flexibility Score: inf
ROOT
ATOM      1  C   UNL     1      12.852  22.727  47.240  1.00  0.00     0.000 C 
ENDROOT
BRANCH   1   2
ATOM      2  C   UNL     1      14.267  23.333  47.240  1.00  0.00     0.000 C 
BRANCH   2   3
ATOM      3  C   UNL     1      15.287  22.438  46.519  1.00  0.00     0.000 C 
BRANCH   3   4
ATOM      4  C   UNL     1      16.719  22.995  46.602  1.00  0.00     0.000 C 
BRANCH   4   5
ATOM      5  C   UNL     1      17.244  23.082  48.045  1.00  0.00     0.000 C 
BRANCH   5   6
ATOM      6  C   UNL     1      18.537  22.285  48.312  1.00  0.00     0.006 C 
BRANCH   6   7
ATOM      7  C   UNL     1      19.828  23.116  48.223  1.00  0.00     0.053 C 
BRANCH   7   8
ATOM      8  C   UNL     1      19.590  24.562  48.528  1.00  0.00     0.041 C 
ATOM      9  O   UNL     1      19.674  24.981  49.712  1.00  0.00    -0.550 OA
ATOM     10  O   UNL     1      19.247  25.439  47.510  1.00  0.00    -0.550 OA
ENDBRANCH   7   8
ENDBRANCH   6   7
ENDBRANCH   5   6
ENDBRANCH   4   5
ENDBRANCH   3   4
ENDBRANCH   2   3
ENDBRANCH   1   2
BRANCH   1  11
ATOM     11  C   UNL     1      12.572  21.897  45.976  1.00  0.00     0.000 C 
BRANCH  11  12
ATOM     12  C   UNL     1      12.028  22.758  44.822  1.00  0.00    -0.000 C 
BRANCH  12  13
ATOM     13  C   UNL     1      12.469  22.253  43.439  1.00  0.00    -0.000 C 
BRANCH  13  14
ATOM     14  C   UNL     1      11.737  22.959  42.284  1.00  0.00    -0.000 C 
BRANCH  14  15
ATOM     15  C   UNL     1      10.207  22.965  42.460  1.00  0.00    -0.000 C 
BRANCH  15  16
ATOM     16  C   UNL     1       9.410  22.375  41.282  1.00  0.00    -0.000 C 
BRANCH  16  17
ATOM     17  C   UNL     1      10.159  21.247  40.558  1.00  0.00    -0.003 C 
ATOM     18  C   UNL     1      10.564  21.675  39.150  1.00  0.00     0.004 C 
ENDBRANCH  16  17
ENDBRANCH  15  16
ENDBRANCH  14  15
ENDBRANCH  13  14
ENDBRANCH  12  13
ENDBRANCH  11  12
ENDBRANCH   1  11
TORSDOF 14
ENDMDL
MODEL 3
REMARK VINA RESULT:    -4.980     10.115     11.619
REMARK INTER + INTRA:          -9.910
REMARK INTER:                  -9.145
REMARK INTRA:                  -0.765
REMARK UNBOUND:                -0.854
REMARK SMILES CCCCCCCCCCCCCCCC(=O)[O-]
REMARK SMILES IDX 9 1 10 2 11 3 12 4 13 5 14 6 15 7 16 8 17 9 18 10 8 11 7 12
REMARK SMILES IDX 6 13 5 14 4 15 3 16 2 17 1 18
REMARK H PARENT
REMARK Flexibility Score: inf
ROOT
ATOM      1  C   UNL     1      13.338  22.882  47.291  1.00  0.00     0.000 C 
ENDROOT
BRANCH   1   2
ATOM      2  C   UNL     1      12.544  24.127  46.858  1.00  0.00     0.000 C 
BRANCH   2   3
ATOM      3  C   UNL     1      12.408  24.232  45.330  1.00  0.00     0.000 C 
BRANCH   3   4
ATOM      4  C   UNL     1      12.374  22.855  44.646  1.00  0.00     0.000 C 
BRANCH   4   5
ATOM      5  C   UNL     1      11.382  22.795  43.472  1.00  0.00     0.000 C 
BRANCH   5   6
ATOM      6  C   UNL     1      11.906  22.064  42.219  1.00  0.00     0.006 C 
BRANCH   6   7
ATOM      7  C   UNL     1      11.173  22.425  40.917  1.00  0.00     0.053 C 
BRANCH   7   8
ATOM      8  C   UNL     1       9.776  21.887  40.889  1.00  0.00     0.041 C 
ATOM      9  O   UNL     1       9.565  20.691  40.558  1.00  0.00    -0.550 OA
ATOM     10  O   UNL     1       8.707  22.714  41.200  1.00  0.00    -0.550 OA
ENDBRANCH   7   8
ENDBRANCH   6   7
ENDBRANCH   5   6
ENDBRANCH   4   5
ENDBRANCH   3   4
ENDBRANCH   2   3
ENDBRANCH   1   2
BRANCH   1  11
ATOM     11  C   UNL     1      14.779  23.222  47.707  1.00  0.00     0.000 C 
BRANCH  11  12
ATOM     12  C   UNL     1      15.800  22.877  46.608  1.00  0.00    -0.000 C 
BRANCH  12  13
ATOM     13  C   UNL     1      17.256  23.047  47.071  1.00  0.00    -0.000 C 
BRANCH  13  14
ATOM     14  C   UNL     1      18.190  21.960  46.511  1.00  0.00    -0.000 C 
BRANCH  14  15
ATOM     15  C   UNL     1      19.487  21.805  47.329  1.00  0.00    -0.000 C 
BRANCH  15  16
ATOM     16  C   UNL     1      19.418  22.337  48.772  1.00  0.00    -0.000 C 
BRANCH  16  17
ATOM     17  C   UNL     1      20.368  23.516  49.022  1.00  0.00    -0.003 C 
ATOM     18  C   UNL     1      19.619  24.844  48.970  1.00  0.00     0.004 C 
ENDBRANCH  16  17
ENDBRANCH  15  16
ENDBRANCH  14  15
ENDBRANCH  13  14
ENDBRANCH  12  13
ENDBRANCH  11  12
ENDBRANCH   1  11
TORSDOF 14
ENDMDL
MODEL 4
REMARK VINA RESULT:    -4.910     10.553     14.289
REMARK INTER + INTRA:          -9.782
REMARK INTER:                  -8.981
REMARK INTRA:                  -0.801
REMARK UNBOUND:                -0.854
REMARK SMILES CCCCCCCCCCCCCCCC(=O)[O-]
REMARK SMILES IDX 9 1 10 2 11 3 12 4 13 5 14 6 15 7 16 8 17 9 18 10 8 11 7 12
REMARK SMILES IDX 6 13 5 14 4 15 3 16 2 17 1 18
REMARK H PARENT
REMARK Flexibility Score: inf
ROOT
ATOM      1  C   UNL     1      14.791  22.638  46.061  1.00  0.00     0.000 C 
ENDROOT
BRANCH   1   2
ATOM      2  C   UNL     1      15.520  23.298  47.244  1.00  0.00     0.000 C 
BRANCH   2   3
ATOM      3  C   UNL     1      17.033  23.426  47.003  1.00  0.00     0.000 C 
BRANCH   3   4
ATOM      4  C   UNL     1      17.778  22.099  47.231  1.00  0.00     0.000 C 
BRANCH   4   5
ATOM      5  C   UNL     1      18.789  22.172  48.388  1.00  0.00     0.000 C 
BRANCH   5   6
ATOM      6  C   UNL     1      19.515  23.527  48.528  1.00  0.00     0.006 C 
BRANCH   6   7
ATOM      7  C   UNL     1      21.015  23.483  48.195  1.00  0.00     0.053 C 
BRANCH   7   8
ATOM      8  C   UNL     1      21.263  23.443  46.719  1.00  0.00     0.041 C 
ATOM      9  O   UNL     1      22.279  22.855  46.264  1.00  0.00    -0.550 OA
ATOM     10  O   UNL     1      20.390  24.079  45.850  1.00  0.00    -0.550 OA
ENDBRANCH   7   8
ENDBRANCH   6   7
ENDBRANCH   5   6
ENDBRANCH   4   5
ENDBRANCH   3   4
ENDBRANCH   2   3
ENDBRANCH   1   2
BRANCH   1  11
ATOM     11  C   UNL     1      13.529  21.878  46.502  1.00  0.00     0.000 C 
BRANCH  11  12
ATOM     12  C   UNL     1      12.318  22.187  45.604  1.00  0.00    -0.000 C 
BRANCH  12  13
ATOM     13  C   UNL     1      12.660  23.143  44.449  1.00  0.00    -0.000 C 
BRANCH  13  14
ATOM     14  C   UNL     1      12.099  22.668  43.096  1.00  0.00    -0.000 C 
BRANCH  14  15
ATOM     15  C   UNL     1      10.585  22.913  42.956  1.00  0.00    -0.000 C 
BRANCH  15  16
ATOM     16  C   UNL     1      10.101  23.214  41.526  1.00  0.00    -0.000 C 
BRANCH  16  17
ATOM     17  C   UNL     1       9.240  22.088  40.936  1.00  0.00    -0.003 C 
ATOM     18  C   UNL     1      10.107  21.032  40.258  1.00  0.00     0.004 C 
ENDBRANCH  16  17
ENDBRANCH  15  16
ENDBRANCH  14  15
ENDBRANCH  13  14
ENDBRANCH  12  13
ENDBRANCH  11  12
ENDBRANCH   1  11
TORSDOF 14
ENDMDL
MODEL 5
REMARK VINA RESULT:    -4.905     10.245     13.919
REMARK INTER + INTRA:          -9.774
REMARK INTER:                  -9.027
REMARK INTRA:                  -0.747
REMARK UNBOUND:                -0.854
REMARK SMILES CCCCCCCCCCCCCCCC(=O)[O-]
REMARK SMILES IDX 9 1 10 2 11 3 12 4 13 5 14 6 15 7 16 8 17 9 18 10 8 11 7 12
REMARK SMILES IDX 6 13 5 14 4 15 3 16 2 17 1 18
REMARK H PARENT
REMARK Flexibility Score: inf
ROOT
ATOM      1  C   UNL     1      12.585  23.856  45.505  1.00  0.00     0.000 C 
ENDROOT
BRANCH   1   2
ATOM      2  C   UNL     1      12.781  23.580  47.005  1.00  0.00     0.000 C 
BRANCH   2   3
ATOM      3  C   UNL     1      14.178  23.021  47.320  1.00  0.00     0.000 C 
BRANCH   3   4
ATOM      4  C   UNL     1      15.231  23.454  46.285  1.00  0.00     0.000 C 
BRANCH   4   5
ATOM      5  C   UNL     1      16.606  22.804  46.524  1.00  0.00     0.000 C 
BRANCH   5   6
ATOM      6  C   UNL     1      17.285  23.198  47.852  1.00  0.00     0.006 C 
BRANCH   6   7
ATOM      7  C   UNL     1      18.340  22.198  48.350  1.00  0.00     0.053 C 
BRANCH   7   8
ATOM      8  C   UNL     1      19.735  22.680  48.099  1.00  0.00     0.041 C 
ATOM      9  O   UNL     1      20.302  22.432  47.002  1.00  0.00    -0.550 OA
ATOM     10  O   UNL     1      20.419  23.375  49.085  1.00  0.00    -0.550 OA
ENDBRANCH   7   8
ENDBRANCH   6   7
ENDBRANCH   5   6
ENDBRANCH   4   5
ENDBRANCH   3   4
ENDBRANCH   2   3
ENDBRANCH   1   2
BRANCH   1  11
ATOM     11  C   UNL     1      12.081  22.619  44.744  1.00  0.00     0.000 C 
BRANCH  11  12
ATOM     12  C   UNL     1      11.800  22.920  43.261  1.00  0.00    -0.000 C 
BRANCH  12  13
ATOM     13  C   UNL     1      10.298  23.024  42.946  1.00  0.00    -0.000 C 
BRANCH  13  14
ATOM     14  C   UNL     1      10.016  23.226  41.446  1.00  0.00    -0.000 C 
BRANCH  14  15
ATOM     15  C   UNL     1       9.412  21.977  40.778  1.00  0.00    -0.000 C 
BRANCH  15  16
ATOM     16  C   UNL     1      10.420  21.073  40.047  1.00  0.00    -0.000 C 
BRANCH  16  17
ATOM     17  C   UNL     1      11.555  21.860  39.376  1.00  0.00    -0.003 C 
ATOM     18  C   UNL     1      11.305  22.013  37.879  1.00  0.00     0.004 C 
ENDBRANCH  16  17
ENDBRANCH  15  16
ENDBRANCH  14  15
ENDBRANCH  13  14
ENDBRANCH  12  13
ENDBRANCH  11  12
ENDBRANCH   1  11
TORSDOF 14
ENDMDL
MODEL 6
REMARK VINA RESULT:    -4.901     10.874     13.819
REMARK INTER + INTRA:          -9.767
REMARK INTER:                  -8.105
REMARK INTRA:                  -1.662
REMARK UNBOUND:                -0.854
REMARK SMILES CCCCCCCCCCCCCCCC(=O)[O-]
REMARK SMILES IDX 9 1 10 2 11 3 12 4 13 5 14 6 15 7 16 8 17 9 18 10 8 11 7 12
REMARK SMILES IDX 6 13 5 14 4 15 3 16 2 17 1 18
REMARK H PARENT
REMARK Flexibility Score: inf
ROOT
ATOM      1  C   UNL     1      17.735  23.452  47.750  1.00  0.00     0.000 C 
ENDROOT
BRANCH   1   2
ATOM      2  C   UNL     1      18.329  22.203  48.424  1.00  0.00     0.000 C 
BRANCH   2   3
ATOM      3  C   UNL     1      19.773  22.427  48.902  1.00  0.00     0.000 C 
BRANCH   3   4
ATOM      4  C   UNL     1      20.373  23.739  48.368  1.00  0.00     0.000 C 
BRANCH   4   5
ATOM      5  C   UNL     1      21.419  23.512  47.264  1.00  0.00     0.000 C 
BRANCH   5   6
ATOM      6  C   UNL     1      20.871  23.603  45.825  1.00  0.00     0.006 C 
BRANCH   6   7
ATOM      7  C   UNL     1      20.988  22.303  45.014  1.00  0.00     0.053 C 
BRANCH   7   8
ATOM      8  C   UNL     1      19.648  21.740  44.655  1.00  0.00     0.041 C 
ATOM      9  O   UNL     1      19.041  22.154  43.633  1.00  0.00    -0.550 OA
ATOM     10  O   UNL     1      19.057  20.781  45.464  1.00  0.00    -0.550 OA
ENDBRANCH   7   8
ENDBRANCH   6   7
ENDBRANCH   5   6
ENDBRANCH   4   5
ENDBRANCH   3   4
ENDBRANCH   2   3
ENDBRANCH   1   2
BRANCH   1  11
ATOM     11  C   UNL     1      16.498  23.124  46.897  1.00  0.00     0.000 C 
BRANCH  11  12
ATOM     12  C   UNL     1      16.541  23.811  45.520  1.00  0.00    -0.000 C 
BRANCH  12  13
ATOM     13  C   UNL     1      15.199  23.736  44.773  1.00  0.00    -0.000 C 
BRANCH  13  14
ATOM     14  C   UNL     1      14.231  24.865  45.172  1.00  0.00    -0.000 C 
BRANCH  14  15
ATOM     15  C   UNL     1      12.801  24.359  45.441  1.00  0.00    -0.000 C 
BRANCH  15  16
ATOM     16  C   UNL     1      12.412  24.256  46.926  1.00  0.00    -0.000 C 
BRANCH  16  17
ATOM     17  C   UNL     1      13.000  23.017  47.615  1.00  0.00    -0.003 C 
ATOM     18  C   UNL     1      12.697  21.752  46.818  1.00  0.00     0.004 C 
ENDBRANCH  16  17
ENDBRANCH  15  16
ENDBRANCH  14  15
ENDBRANCH  13  14
ENDBRANCH  12  13
ENDBRANCH  11  12
ENDBRANCH   1  11
TORSDOF 14
ENDMDL
MODEL 7
REMARK VINA RESULT:    -4.851      4.558      9.043
REMARK INTER + INTRA:          -9.675
REMARK INTER:                  -8.814
REMARK INTRA:                  -0.861
REMARK UNBOUND:                -0.854
REMARK SMILES CCCCCCCCCCCCCCCC(=O)[O-]
REMARK SMILES IDX 9 1 10 2 11 3 12 4 13 5 14 6 15 7 16 8 17 9 18 10 8 11 7 12
REMARK SMILES IDX 6 13 5 14 4 15 3 16 2 17 1 18
REMARK H PARENT
REMARK Flexibility Score: inf
ROOT
ATOM      1  C   UNL     1      20.270  20.861  34.420  1.00  0.00     0.000 C 
ENDROOT
BRANCH   1   2
ATOM      2  C   UNL     1      21.447  21.845  34.305  1.00  0.00     0.000 C 
BRANCH   2   3
ATOM      3  C   UNL     1      22.309  21.878  35.578  1.00  0.00     0.000 C 
BRANCH   3   4
ATOM      4  C   UNL     1      21.534  21.420  36.825  1.00  0.00     0.000 C 
BRANCH   4   5
ATOM      5  C   UNL     1      22.430  20.724  37.864  1.00  0.00     0.000 C 
BRANCH   5   6
ATOM      6  C   UNL     1      23.938  20.748  37.535  1.00  0.00     0.006 C 
BRANCH   6   7
ATOM      7  C   UNL     1      24.756  21.751  38.365  1.00  0.00     0.053 C 
BRANCH   7   8
ATOM      8  C   UNL     1      24.819  23.099  37.717  1.00  0.00     0.041 C 
ATOM      9  O   UNL     1      23.988  23.991  38.030  1.00  0.00    -0.550 OA
ATOM     10  O   UNL     1      25.776  23.359  36.748  1.00  0.00    -0.550 OA
ENDBRANCH   7   8
ENDBRANCH   6   7
ENDBRANCH   5   6
ENDBRANCH   4   5
ENDBRANCH   3   4
ENDBRANCH   2   3
ENDBRANCH   1   2
BRANCH   1  11
ATOM     11  C   UNL     1      19.469  20.752  33.112  1.00  0.00     0.000 C 
BRANCH  11  12
ATOM     12  C   UNL     1      18.503  21.935  32.919  1.00  0.00    -0.000 C 
BRANCH  12  13
ATOM     13  C   UNL     1      17.558  22.136  34.116  1.00  0.00    -0.000 C 
BRANCH  13  14
ATOM     14  C   UNL     1      16.079  21.915  33.752  1.00  0.00    -0.000 C 
BRANCH  14  15
ATOM     15  C   UNL     1      15.254  21.342  34.920  1.00  0.00    -0.000 C 
BRANCH  15  16
ATOM     16  C   UNL     1      13.882  20.765  34.530  1.00  0.00    -0.000 C 
BRANCH  16  17
ATOM     17  C   UNL     1      12.708  21.607  35.050  1.00  0.00    -0.003 C 
ATOM     18  C   UNL     1      12.437  22.794  34.131  1.00  0.00     0.004 C 
ENDBRANCH  16  17
ENDBRANCH  15  16
ENDBRANCH  14  15
ENDBRANCH  13  14
ENDBRANCH  12  13
ENDBRANCH  11  12
ENDBRANCH   1  11
TORSDOF 14
ENDMDL
MODEL 8
REMARK VINA RESULT:    -4.769      1.542      2.565
REMARK INTER + INTRA:          -9.526
REMARK INTER:                  -8.855
REMARK INTRA:                  -0.670
REMARK UNBOUND:                -0.854
REMARK SMILES CCCCCCCCCCCCCCCC(=O)[O-]
REMARK SMILES IDX 9 1 10 2 11 3 12 4 13 5 14 6 15 7 16 8 17 9 18 10 8 11 7 12
REMARK SMILES IDX 6 13 5 14 4 15 3 16 2 17 1 18
REMARK H PARENT
REMARK Flexibility Score: inf
ROOT
ATOM      1  C   UNL     1      17.496  21.862  34.094  1.00  0.00     0.000 C 
ENDROOT
BRANCH   1   2
ATOM      2  C   UNL     1      15.971  21.967  33.915  1.00  0.00     0.000 C 
BRANCH   2   3
ATOM      3  C   UNL     1      15.200  21.438  35.135  1.00  0.00     0.000 C 
BRANCH   3   4
ATOM      4  C   UNL     1      13.893  20.728  34.741  1.00  0.00     0.000 C 
BRANCH   4   5
ATOM      5  C   UNL     1      12.739  21.708  34.472  1.00  0.00     0.000 C 
BRANCH   5   6
ATOM      6  C   UNL     1      12.440  22.688  35.625  1.00  0.00     0.006 C 
BRANCH   6   7
ATOM      7  C   UNL     1      11.650  22.076  36.793  1.00  0.00     0.053 C 
BRANCH   7   8
ATOM      8  C   UNL     1      12.315  22.320  38.112  1.00  0.00     0.041 C 
ATOM      9  O   UNL     1      11.654  22.783  39.078  1.00  0.00    -0.550 OA
ATOM     10  O   UNL     1      13.669  22.062  38.266  1.00  0.00    -0.550 OA
ENDBRANCH   7   8
ENDBRANCH   6   7
ENDBRANCH   5   6
ENDBRANCH   4   5
ENDBRANCH   3   4
ENDBRANCH   2   3
ENDBRANCH   1   2
BRANCH   1  11
ATOM     11  C   UNL     1      18.250  21.951  32.757  1.00  0.00     0.000 C 
BRANCH  11  12
ATOM     12  C   UNL     1      19.703  21.457  32.872  1.00  0.00    -0.000 C 
BRANCH  12  13
ATOM     13  C   UNL     1      20.514  22.227  33.927  1.00  0.00    -0.000 C 
BRANCH  13  14
ATOM     14  C   UNL     1      21.608  21.366  34.583  1.00  0.00    -0.000 C 
BRANCH  14  15
ATOM     15  C   UNL     1      22.474  22.158  35.581  1.00  0.00    -0.000 C 
BRANCH  15  16
ATOM     16  C   UNL     1      22.739  21.450  36.922  1.00  0.00    -0.000 C 
BRANCH  16  17
ATOM     17  C   UNL     1      24.230  21.183  37.175  1.00  0.00    -0.003 C 
ATOM     18  C   UNL     1      25.099  22.228  36.482  1.00  0.00     0.004 C 
ENDBRANCH  16  17
ENDBRANCH  15  16
ENDBRANCH  14  15
ENDBRANCH  13  14
ENDBRANCH  12  13
ENDBRANCH  11  12
ENDBRANCH   1  11
TORSDOF 14
ENDMDL
MODEL 9
REMARK VINA RESULT:    -4.762      9.199     10.967
REMARK INTER + INTRA:          -9.513
REMARK INTER:                  -8.746
REMARK INTRA:                  -0.767
REMARK UNBOUND:                -0.854
REMARK SMILES CCCCCCCCCCCCCCCC(=O)[O-]
REMARK SMILES IDX 9 1 10 2 11 3 12 4 13 5 14 6 15 7 16 8 17 9 18 10 8 11 7 12
REMARK SMILES IDX 6 13 5 14 4 15 3 16 2 17 1 18
REMARK H PARENT
REMARK Flexibility Score: inf
ROOT
ATOM      1  C   UNL     1      12.229  23.551  44.832  1.00  0.00     0.000 C 
ENDROOT
BRANCH   1   2
ATOM      2  C   UNL     1      12.406  23.278  43.328  1.00  0.00     0.000 C 
BRANCH   2   3
ATOM      3  C   UNL     1      11.351  22.303  42.782  1.00  0.00     0.000 C 
BRANCH   3   4
ATOM      4  C   UNL     1       9.993  22.984  42.535  1.00  0.00     0.000 C 
BRANCH   4   5
ATOM      5  C   UNL     1       9.364  22.590  41.188  1.00  0.00     0.000 C 
BRANCH   5   6
ATOM      6  C   UNL     1      10.074  21.432  40.456  1.00  0.00     0.006 C 
BRANCH   6   7
ATOM      7  C   UNL     1      10.672  21.811  39.092  1.00  0.00     0.053 C 
BRANCH   7   8
ATOM      8  C   UNL     1      12.130  22.139  39.187  1.00  0.00     0.041 C 
ATOM      9  O   UNL     1      12.499  23.322  39.407  1.00  0.00    -0.550 OA
ATOM     10  O   UNL     1      13.079  21.145  39.005  1.00  0.00    -0.550 OA
ENDBRANCH   7   8
ENDBRANCH   6   7
ENDBRANCH   5   6
ENDBRANCH   4   5
ENDBRANCH   3   4
ENDBRANCH   2   3
ENDBRANCH   1   2
BRANCH   1  11
ATOM     11  C   UNL     1      12.727  22.383  45.701  1.00  0.00     0.000 C 
BRANCH  11  12
ATOM     12  C   UNL     1      13.689  22.849  46.809  1.00  0.00    -0.000 C 
BRANCH  12  13
ATOM     13  C   UNL     1      15.153  22.473  46.528  1.00  0.00    -0.000 C 
BRANCH  13  14
ATOM     14  C   UNL     1      16.131  23.080  47.549  1.00  0.00    -0.000 C 
BRANCH  14  15
ATOM     15  C   UNL     1      17.606  22.796  47.208  1.00  0.00    -0.000 C 
BRANCH  15  16
ATOM     16  C   UNL     1      18.487  22.390  48.403  1.00  0.00    -0.000 C 
BRANCH  16  17
ATOM     17  C   UNL     1      19.782  23.209  48.497  1.00  0.00    -0.003 C 
ATOM     18  C   UNL     1      19.487  24.660  48.862  1.00  0.00     0.004 C 
ENDBRANCH  16  17
ENDBRANCH  15  16
ENDBRANCH  14  15
ENDBRANCH  13  14
ENDBRANCH  12  13
ENDBRANCH  11  12
ENDBRANCH   1  11
TORSDOF 14
ENDMDL
