MODEL 1
REMARK VINA RESULT:    -3.571      0.000      0.000
REMARK INTER + INTRA:          -4.137
REMARK INTER:                  -4.093
REMARK INTRA:                  -0.044
REMARK UNBOUND:                -0.044
REMARK SMILES CC(C)[C@H]([NH3+])C(=O)[O-]
REMARK SMILES IDX 4 1 5 2 6 6 7 7 8 8 2 9 1 10 3 11
REMARK H PARENT 5 3 5 4 5 5
REMARK Flexibility Score: inf
ROOT
ATOM      1  C   UNL     1      35.321  -1.104  24.758  1.00  0.00     0.230 C 
ENDROOT
BRANCH   1   2
ATOM      2  N   UNL     1      35.682  -0.358  23.544  1.00  0.00    -0.350 N 
ATOM      3  H   UNL     1      35.915   0.631  23.788  1.00  0.00     0.345 HD
ATOM      4  H   UNL     1      36.526  -0.792  23.107  1.00  0.00     0.345 HD
ATOM      5  H   UNL     1      34.904  -0.365  22.846  1.00  0.00     0.345 HD
ENDBRANCH   1   2
BRANCH   1   6
ATOM      6  C   UNL     1      36.045  -0.547  25.961  1.00  0.00     0.099 C 
ATOM      7  O   UNL     1      37.245  -0.181  25.860  1.00  0.00    -0.544 OA
ATOM      8  O   UNL     1      35.390  -0.405  27.179  1.00  0.00    -0.544 OA
ENDBRANCH   1   6
BRANCH   1   9
ATOM      9  C   UNL     1      35.543  -2.637  24.581  1.00  0.00     0.047 C 
ATOM     10  C   UNL     1      34.292  -3.390  24.097  1.00  0.00     0.014 C 
ATOM     11  C   UNL     1      36.726  -2.925  23.643  1.00  0.00     0.014 C 
ENDBRANCH   1   9
TORSDOF 3
ENDMDL
MODEL 2
REMARK VINA RESULT:    -3.520      2.481      3.007
REMARK INTER + INTRA:          -4.079
REMARK INTER:                  -4.010
REMARK INTRA:                  -0.069
REMARK UNBOUND:                -0.044
REMARK SMILES CC(C)[C@H]([NH3+])C(=O)[O-]
REMARK SMILES IDX 4 1 5 2 6 6 7 7 8 8 2 9 1 10 3 11
REMARK H PARENT 5 3 5 4 5 5
REMARK Flexibility Score: inf
ROOT
ATOM      1  C   UNL     1      34.525  -2.930  24.734  1.00  0.00     0.230 C 
ENDROOT
BRANCH   1   2
ATOM      2  N   UNL     1      33.960  -4.086  24.022  1.00  0.00    -0.350 N 
ATOM      3  H   UNL     1      34.616  -4.898  24.082  1.00  0.00     0.345 HD
ATOM      4  H   UNL     1      33.058  -4.364  24.471  1.00  0.00     0.345 HD
ATOM      5  H   UNL     1      33.778  -3.865  23.017  1.00  0.00     0.345 HD
ENDBRANCH   1   2
BRANCH   1   6
ATOM      6  C   UNL     1      33.488  -1.843  24.891  1.00  0.00     0.099 C 
ATOM      7  O   UNL     1      32.937  -1.347  23.873  1.00  0.00    -0.544 OA
ATOM      8  O   UNL     1      33.112  -1.399  26.153  1.00  0.00    -0.544 OA
ENDBRANCH   1   6
BRANCH   1   9
ATOM      9  C   UNL     1      35.834  -2.420  24.058  1.00  0.00     0.047 C 
ATOM     10  C   UNL     1      36.644  -1.451  24.935  1.00  0.00     0.014 C 
ATOM     11  C   UNL     1      36.722  -3.589  23.607  1.00  0.00     0.014 C 
ENDBRANCH   1   9
TORSDOF 3
ENDMDL
MODEL 3
REMARK VINA RESULT:    -3.433      2.546      3.513
REMARK INTER + INTRA:          -3.978
REMARK INTER:                  -3.917
REMARK INTRA:                  -0.061
REMARK UNBOUND:                -0.044
REMARK SMILES CC(C)[C@H]([NH3+])C(=O)[O-]
REMARK SMILES IDX 4 1 5 2 6 6 7 7 8 8 2 9 1 10 3 11
REMARK H PARENT 5 3 5 4 5 5
REMARK Flexibility Score: inf
ROOT
ATOM      1  C   UNL     1      35.849  -2.158  24.505  1.00  0.00     0.230 C 
ENDROOT
BRANCH   1   2
ATOM      2  N   UNL     1      36.590  -1.875  23.267  1.00  0.00    -0.350 N 
ATOM      3  H   UNL     1      37.284  -2.636  23.083  1.00  0.00     0.345 HD
ATOM      4  H   UNL     1      35.924  -1.842  22.462  1.00  0.00     0.345 HD
ATOM      5  H   UNL     1      37.092  -0.960  23.322  1.00  0.00     0.345 HD
ENDBRANCH   1   2
BRANCH   1   6
ATOM      6  C   UNL     1      34.905  -3.320  24.306  1.00  0.00     0.099 C 
ATOM      7  O   UNL     1      33.661  -3.140  24.384  1.00  0.00    -0.544 OA
ATOM      8  O   UNL     1      35.393  -4.587  24.009  1.00  0.00    -0.544 OA
ENDBRANCH   1   6
BRANCH   1   9
ATOM      9  C   UNL     1      35.131  -0.887  25.051  1.00  0.00     0.047 C 
ATOM     10  C   UNL     1      35.410  -0.611  26.538  1.00  0.00     0.014 C 
ATOM     11  C   UNL     1      35.476   0.353  24.212  1.00  0.00     0.014 C 
ENDBRANCH   1   9
TORSDOF 3
ENDMDL
MODEL 4
REMARK VINA RESULT:    -3.381      2.688      3.356
REMARK INTER + INTRA:          -3.919
REMARK INTER:                  -3.872
REMARK INTRA:                  -0.046
REMARK UNBOUND:                -0.044
REMARK SMILES CC(C)[C@H]([NH3+])C(=O)[O-]
REMARK SMILES IDX 4 1 5 2 6 6 7 7 8 8 2 9 1 10 3 11
REMARK H PARENT 5 3 5 4 5 5
REMARK Flexibility Score: inf
ROOT
ATOM      1  C   UNL     1      35.563  -2.023  25.093  1.00  0.00     0.230 C 
ENDROOT
BRANCH   1   2
ATOM      2  N   UNL     1      36.833  -2.112  25.828  1.00  0.00    -0.350 N 
ATOM      3  H   UNL     1      36.983  -1.243  26.391  1.00  0.00     0.345 HD
ATOM      4  H   UNL     1      36.798  -2.922  26.488  1.00  0.00     0.345 HD
ATOM      5  H   UNL     1      37.642  -2.245  25.180  1.00  0.00     0.345 HD
ENDBRANCH   1   2
BRANCH   1   6
ATOM      6  C   UNL     1      35.385  -3.221  24.192  1.00  0.00     0.099 C 
ATOM      7  O   UNL     1      36.377  -3.709  23.588  1.00  0.00    -0.544 OA
ATOM      8  O   UNL     1      34.137  -3.815  24.040  1.00  0.00    -0.544 OA
ENDBRANCH   1   6
BRANCH   1   9
ATOM      9  C   UNL     1      35.433  -0.671  24.328  1.00  0.00     0.047 C 
ATOM     10  C   UNL     1      34.033  -0.042  24.421  1.00  0.00     0.014 C 
ATOM     11  C   UNL     1      36.495   0.338  24.792  1.00  0.00     0.014 C 
ENDBRANCH   1   9
TORSDOF 3
ENDMDL
MODEL 5
REMARK VINA RESULT:    -3.373      5.876      6.586
REMARK INTER + INTRA:          -3.910
REMARK INTER:                  -3.834
REMARK INTRA:                  -0.075
REMARK UNBOUND:                -0.044
REMARK SMILES CC(C)[C@H]([NH3+])C(=O)[O-]
REMARK SMILES IDX 4 1 5 2 6 6 7 7 8 8 2 9 1 10 3 11
REMARK H PARENT 5 3 5 4 5 5
REMARK Flexibility Score: inf
ROOT
ATOM      1  C   UNL     1      36.842   3.468  21.021  1.00  0.00     0.230 C 
ENDROOT
BRANCH   1   2
ATOM      2  N   UNL     1      36.393   2.657  19.880  1.00  0.00    -0.350 N 
ATOM      3  H   UNL     1      35.703   3.194  19.307  1.00  0.00     0.345 HD
ATOM      4  H   UNL     1      37.212   2.429  19.272  1.00  0.00     0.345 HD
ATOM      5  H   UNL     1      35.954   1.763  20.196  1.00  0.00     0.345 HD
ENDBRANCH   1   2
BRANCH   1   6
ATOM      6  C   UNL     1      38.350   3.507  21.087  1.00  0.00     0.099 C 
ATOM      7  O   UNL     1      38.956   4.607  20.996  1.00  0.00    -0.544 OA
ATOM      8  O   UNL     1      39.082   2.341  21.276  1.00  0.00    -0.544 OA
ENDBRANCH   1   6
BRANCH   1   9
ATOM      9  C   UNL     1      36.194   2.994  22.357  1.00  0.00     0.047 C 
ATOM     10  C   UNL     1      36.639   3.809  23.582  1.00  0.00     0.014 C 
ATOM     11  C   UNL     1      34.660   2.983  22.261  1.00  0.00     0.014 C 
ENDBRANCH   1   9
TORSDOF 3
ENDMDL
MODEL 6
REMARK VINA RESULT:    -3.345      5.389      6.164
REMARK INTER + INTRA:          -3.878
REMARK INTER:                  -3.862
REMARK INTRA:                  -0.016
REMARK UNBOUND:                -0.044
REMARK SMILES CC(C)[C@H]([NH3+])C(=O)[O-]
REMARK SMILES IDX 4 1 5 2 6 6 7 7 8 8 2 9 1 10 3 11
REMARK H PARENT 5 3 5 4 5 5
REMARK Flexibility Score: inf
ROOT
ATOM      1  C   UNL     1      35.544   3.083  21.565  1.00  0.00     0.230 C 
ENDROOT
BRANCH   1   2
ATOM      2  N   UNL     1      34.687   3.498  20.446  1.00  0.00    -0.350 N 
ATOM      3  H   UNL     1      35.172   4.227  19.874  1.00  0.00     0.345 HD
ATOM      4  H   UNL     1      34.499   2.675  19.828  1.00  0.00     0.345 HD
ATOM      5  H   UNL     1      33.774   3.877  20.783  1.00  0.00     0.345 HD
ENDBRANCH   1   2
BRANCH   1   6
ATOM      6  C   UNL     1      34.709   2.582  22.719  1.00  0.00     0.099 C 
ATOM      7  O   UNL     1      33.736   3.264  23.135  1.00  0.00    -0.544 OA
ATOM      8  O   UNL     1      34.984   1.355  23.313  1.00  0.00    -0.544 OA
ENDBRANCH   1   6
BRANCH   1   9
ATOM      9  C   UNL     1      36.532   4.214  21.986  1.00  0.00     0.047 C 
ATOM     10  C   UNL     1      37.051   4.076  23.426  1.00  0.00     0.014 C 
ATOM     11  C   UNL     1      37.712   4.317  21.008  1.00  0.00     0.014 C 
ENDBRANCH   1   9
TORSDOF 3
ENDMDL
MODEL 7
REMARK VINA RESULT:    -3.340      1.901      2.280
REMARK INTER + INTRA:          -3.872
REMARK INTER:                  -3.849
REMARK INTRA:                  -0.023
REMARK UNBOUND:                -0.044
REMARK SMILES CC(C)[C@H]([NH3+])C(=O)[O-]
REMARK SMILES IDX 4 1 5 2 6 6 7 7 8 8 2 9 1 10 3 11
REMARK H PARENT 5 3 5 4 5 5
REMARK Flexibility Score: inf
ROOT
ATOM      1  C   UNL     1      36.655  -1.507  24.896  1.00  0.00     0.230 C 
ENDROOT
BRANCH   1   2
ATOM      2  N   UNL     1      36.280  -1.801  26.287  1.00  0.00    -0.350 N 
ATOM      3  H   UNL     1      35.254  -1.648  26.421  1.00  0.00     0.345 HD
ATOM      4  H   UNL     1      36.488  -2.803  26.499  1.00  0.00     0.345 HD
ATOM      5  H   UNL     1      36.807  -1.201  26.960  1.00  0.00     0.345 HD
ENDBRANCH   1   2
BRANCH   1   6
ATOM      6  C   UNL     1      36.144  -0.147  24.483  1.00  0.00     0.099 C 
ATOM      7  O   UNL     1      36.934   0.833  24.429  1.00  0.00    -0.544 OA
ATOM      8  O   UNL     1      34.811   0.033  24.132  1.00  0.00    -0.544 OA
ENDBRANCH   1   6
BRANCH   1   9
ATOM      9  C   UNL     1      36.203  -2.639  23.925  1.00  0.00     0.047 C 
ATOM     10  C   UNL     1      37.324  -3.628  23.566  1.00  0.00     0.014 C 
ATOM     11  C   UNL     1      34.988  -3.399  24.480  1.00  0.00     0.014 C 
ENDBRANCH   1   9
TORSDOF 3
ENDMDL
MODEL 8
REMARK VINA RESULT:    -3.313     10.102     10.730
REMARK INTER + INTRA:          -3.842
REMARK INTER:                  -3.795
REMARK INTRA:                  -0.046
REMARK UNBOUND:                -0.044
REMARK SMILES CC(C)[C@H]([NH3+])C(=O)[O-]
REMARK SMILES IDX 4 1 5 2 6 6 7 7 8 8 2 9 1 10 3 11
REMARK H PARENT 5 3 5 4 5 5
REMARK Flexibility Score: inf
ROOT
ATOM      1  C   UNL     1      35.655 -12.299  26.355  1.00  0.00     0.230 C 
ENDROOT
BRANCH   1   2
ATOM      2  N   UNL     1      34.290 -11.754  26.350  1.00  0.00    -0.350 N 
ATOM      3  H   UNL     1      33.641 -12.418  25.868  1.00  0.00     0.345 HD
ATOM      4  H   UNL     1      33.959 -11.635  27.334  1.00  0.00     0.345 HD
ATOM      5  H   UNL     1      34.250 -10.827  25.870  1.00  0.00     0.345 HD
ENDBRANCH   1   2
BRANCH   1   6
ATOM      6  C   UNL     1      36.466 -11.694  27.476  1.00  0.00     0.099 C 
ATOM      7  O   UNL     1      37.624 -12.125  27.719  1.00  0.00    -0.544 OA
ATOM      8  O   UNL     1      35.959 -10.641  28.229  1.00  0.00    -0.544 OA
ENDBRANCH   1   6
BRANCH   1   9
ATOM      9  C   UNL     1      36.343 -12.146  24.964  1.00  0.00     0.047 C 
ATOM     10  C   UNL     1      36.872 -13.469  24.388  1.00  0.00     0.014 C 
ATOM     11  C   UNL     1      35.409 -11.466  23.951  1.00  0.00     0.014 C 
ENDBRANCH   1   9
TORSDOF 3
ENDMDL
MODEL 9
REMARK VINA RESULT:    -3.242     10.380     10.867
REMARK INTER + INTRA:          -3.760
REMARK INTER:                  -3.701
REMARK INTRA:                  -0.059
REMARK UNBOUND:                -0.044
REMARK SMILES CC(C)[C@H]([NH3+])C(=O)[O-]
REMARK SMILES IDX 4 1 5 2 6 6 7 7 8 8 2 9 1 10 3 11
REMARK H PARENT 5 3 5 4 5 5
REMARK Flexibility Score: inf
ROOT
ATOM      1  C   UNL     1      36.264 -11.658  26.331  1.00  0.00     0.230 C 
ENDROOT
BRANCH   1   2
ATOM      2  N   UNL     1      37.529 -12.272  26.761  1.00  0.00    -0.350 N 
ATOM      3  H   UNL     1      38.207 -11.531  27.052  1.00  0.00     0.345 HD
ATOM      4  H   UNL     1      37.353 -12.891  27.585  1.00  0.00     0.345 HD
ATOM      5  H   UNL     1      37.954 -12.846  25.998  1.00  0.00     0.345 HD
ENDBRANCH   1   2
BRANCH   1   6
ATOM      6  C   UNL     1      35.249 -11.694  27.448  1.00  0.00     0.099 C 
ATOM      7  O   UNL     1      34.027 -11.848  27.184  1.00  0.00    -0.544 OA
ATOM      8  O   UNL     1      35.649 -11.586  28.775  1.00  0.00    -0.544 OA
ENDBRANCH   1   6
BRANCH   1   9
ATOM      9  C   UNL     1      35.731 -12.298  25.013  1.00  0.00     0.047 C 
ATOM     10  C   UNL     1      35.642 -11.309  23.839  1.00  0.00     0.014 C 
ATOM     11  C   UNL     1      36.568 -13.522  24.609  1.00  0.00     0.014 C 
ENDBRANCH   1   9
TORSDOF 3
ENDMDL
