MODEL 1
REMARK VINA RESULT:    -4.893      0.000      0.000
REMARK INTER + INTRA:          -7.119
REMARK INTER:                  -6.610
REMARK INTRA:                  -0.509
REMARK UNBOUND:                -0.509
REMARK SMILES O=C[C@H](O)[C@H](O)[C@H](O)CO
REMARK SMILES IDX 7 1 9 2 10 3 5 5 3 6 2 7 1 8 4 9 6 11 8 13
REMARK H PARENT 10 4 4 10 6 12 8 14
REMARK Flexibility Score: inf
ROOT
ATOM      1  C   UNL     1       7.014 -10.580  19.408  1.00  0.00     0.171 C 
ENDROOT
BRANCH   1   2
ATOM      2  C   UNL     1       7.515 -11.671  20.375  1.00  0.00     0.190 C 
BRANCH   2   3
ATOM      3  O   UNL     1       8.200 -12.677  19.679  1.00  0.00    -0.394 OA
ATOM      4  H   UNL     1       8.348 -12.325  18.763  1.00  0.00     0.210 HD
ENDBRANCH   2   3
ENDBRANCH   1   2
BRANCH   1   5
ATOM      5  C   UNL     1       8.157  -9.750  18.760  1.00  0.00     0.181 C 
BRANCH   5   6
ATOM      6  C   UNL     1       8.533 -10.171  17.314  1.00  0.00     0.209 C 
BRANCH   6   7
ATOM      7  C   UNL     1       9.559  -9.267  16.676  1.00  0.00     0.258 C 
ATOM      8  O   UNL     1       9.791  -8.160  17.136  1.00  0.00    -0.300 OA
ENDBRANCH   6   7
BRANCH   6   9
ATOM      9  O   UNL     1       7.385 -10.252  16.505  1.00  0.00    -0.383 OA
ATOM     10  H   UNL     1       6.997  -9.341  16.429  1.00  0.00     0.211 HD
ENDBRANCH   6   9
ENDBRANCH   5   6
BRANCH   5  11
ATOM     11  O   UNL     1       9.298  -9.807  19.581  1.00  0.00    -0.387 OA
ATOM     12  H   UNL     1      10.089  -9.718  18.988  1.00  0.00     0.211 HD
ENDBRANCH   5  11
ENDBRANCH   1   5
BRANCH   1  13
ATOM     13  O   UNL     1       6.093  -9.734  20.048  1.00  0.00    -0.388 OA
ATOM     14  H   UNL     1       5.426  -9.465  19.363  1.00  0.00     0.211 HD
ENDBRANCH   1  13
TORSDOF 8
ENDMDL
MODEL 2
REMARK VINA RESULT:    -4.791      1.437      2.795
REMARK INTER + INTRA:          -6.981
REMARK INTER:                  -6.256
REMARK INTRA:                  -0.725
REMARK UNBOUND:                -0.509
REMARK SMILES O=C[C@H](O)[C@H](O)[C@H](O)CO
REMARK SMILES IDX 7 1 9 2 10 3 5 5 3 6 2 7 1 8 4 9 6 11 8 13
REMARK H PARENT 10 4 4 10 6 12 8 14
REMARK Flexibility Score: inf
ROOT
ATOM      1  C   UNL     1       8.689  -9.743  18.457  1.00  0.00     0.171 C 
ENDROOT
BRANCH   1   2
ATOM      2  C   UNL     1       7.838 -10.393  19.566  1.00  0.00     0.190 C 
BRANCH   2   3
ATOM      3  O   UNL     1       6.510  -9.950  19.498  1.00  0.00    -0.394 OA
ATOM      4  H   UNL     1       6.544  -8.964  19.603  1.00  0.00     0.210 HD
ENDBRANCH   2   3
ENDBRANCH   1   2
BRANCH   1   5
ATOM      5  C   UNL     1       8.612 -10.489  17.096  1.00  0.00     0.181 C 
BRANCH   5   6
ATOM      6  C   UNL     1       9.474  -9.872  15.963  1.00  0.00     0.209 C 
BRANCH   6   7
ATOM      7  C   UNL     1      10.720 -10.668  15.660  1.00  0.00     0.258 C 
ATOM      8  O   UNL     1      11.444 -11.066  16.559  1.00  0.00    -0.300 OA
ENDBRANCH   6   7
BRANCH   6   9
ATOM      9  O   UNL     1       9.808  -8.538  16.260  1.00  0.00    -0.383 OA
ATOM     10  H   UNL     1      10.661  -8.325  15.799  1.00  0.00     0.211 HD
ENDBRANCH   6   9
ENDBRANCH   5   6
BRANCH   5  11
ATOM     11  O   UNL     1       7.270 -10.565  16.682  1.00  0.00    -0.387 OA
ATOM     12  H   UNL     1       6.864 -11.340  17.151  1.00  0.00     0.211 HD
ENDBRANCH   5  11
ENDBRANCH   1   5
BRANCH   1  13
ATOM     13  O   UNL     1      10.025  -9.609  18.871  1.00  0.00    -0.388 OA
ATOM     14  H   UNL     1      10.575 -10.158  18.252  1.00  0.00     0.211 HD
ENDBRANCH   1  13
TORSDOF 8
ENDMDL
MODEL 3
REMARK VINA RESULT:    -4.736      8.892     10.764
REMARK INTER + INTRA:          -6.906
REMARK INTER:                  -6.311
REMARK INTRA:                  -0.595
REMARK UNBOUND:                -0.509
REMARK SMILES O=C[C@H](O)[C@H](O)[C@H](O)CO
REMARK SMILES IDX 7 1 9 2 10 3 5 5 3 6 2 7 1 8 4 9 6 11 8 13
REMARK H PARENT 10 4 4 10 6 12 8 14
REMARK Flexibility Score: inf
ROOT
ATOM      1  C   UNL     1       7.320 -14.541   8.120  1.00  0.00     0.171 C 
ENDROOT
BRANCH   1   2
ATOM      2  C   UNL     1       8.830 -14.422   7.832  1.00  0.00     0.190 C 
BRANCH   2   3
ATOM      3  O   UNL     1       9.222 -13.077   7.783  1.00  0.00    -0.394 OA
ATOM      4  H   UNL     1      10.189 -13.081   7.564  1.00  0.00     0.210 HD
ENDBRANCH   2   3
ENDBRANCH   1   2
BRANCH   1   5
ATOM      5  C   UNL     1       6.899 -13.945   9.492  1.00  0.00     0.181 C 
BRANCH   5   6
ATOM      6  C   UNL     1       5.494 -14.376   9.989  1.00  0.00     0.209 C 
BRANCH   6   7
ATOM      7  C   UNL     1       5.021 -13.595  11.191  1.00  0.00     0.258 C 
ATOM      8  O   UNL     1       4.820 -12.393  11.119  1.00  0.00    -0.300 OA
ENDBRANCH   6   7
BRANCH   6   9
ATOM      9  O   UNL     1       5.462 -15.755  10.261  1.00  0.00    -0.383 OA
ATOM     10  H   UNL     1       5.464 -16.240   9.394  1.00  0.00     0.211 HD
ENDBRANCH   6   9
ENDBRANCH   5   6
BRANCH   5  11
ATOM     11  O   UNL     1       6.972 -12.542   9.432  1.00  0.00    -0.387 OA
ATOM     12  H   UNL     1       7.913 -12.290   9.622  1.00  0.00     0.211 HD
ENDBRANCH   5  11
ENDBRANCH   1   5
BRANCH   1  13
ATOM     13  O   UNL     1       6.898 -15.877   8.012  1.00  0.00    -0.388 OA
ATOM     14  H   UNL     1       6.454 -15.968   7.128  1.00  0.00     0.211 HD
ENDBRANCH   1  13
TORSDOF 8
ENDMDL
MODEL 4
REMARK VINA RESULT:    -4.704      8.763     10.277
REMARK INTER + INTRA:          -6.863
REMARK INTER:                  -6.400
REMARK INTRA:                  -0.463
REMARK UNBOUND:                -0.509
REMARK SMILES O=C[C@H](O)[C@H](O)[C@H](O)CO
REMARK SMILES IDX 7 1 9 2 10 3 5 5 3 6 2 7 1 8 4 9 6 11 8 13
REMARK H PARENT 10 4 4 10 6 12 8 14
REMARK Flexibility Score: inf
ROOT
ATOM      1  C   UNL     1       5.877 -13.280   9.935  1.00  0.00     0.171 C 
ENDROOT
BRANCH   1   2
ATOM      2  C   UNL     1       5.482 -13.084  11.413  1.00  0.00     0.190 C 
BRANCH   2   3
ATOM      3  O   UNL     1       4.684 -11.942  11.567  1.00  0.00    -0.394 OA
ATOM      4  H   UNL     1       4.520 -11.851  12.541  1.00  0.00     0.210 HD
ENDBRANCH   2   3
ENDBRANCH   1   2
BRANCH   1   5
ATOM      5  C   UNL     1       6.562 -14.645   9.650  1.00  0.00     0.181 C 
BRANCH   5   6
ATOM      6  C   UNL     1       7.016 -14.856   8.181  1.00  0.00     0.209 C 
BRANCH   6   7
ATOM      7  C   UNL     1       8.469 -14.521   7.951  1.00  0.00     0.258 C 
ATOM      8  O   UNL     1       8.849 -13.361   7.924  1.00  0.00    -0.300 OA
ENDBRANCH   6   7
BRANCH   6   9
ATOM      9  O   UNL     1       6.201 -14.123   7.298  1.00  0.00    -0.383 OA
ATOM     10  H   UNL     1       6.662 -13.268   7.093  1.00  0.00     0.211 HD
ENDBRANCH   6   9
ENDBRANCH   5   6
BRANCH   5  11
ATOM     11  O   UNL     1       5.701 -15.689  10.034  1.00  0.00    -0.387 OA
ATOM     12  H   UNL     1       4.794 -15.454   9.705  1.00  0.00     0.211 HD
ENDBRANCH   5  11
ENDBRANCH   1   5
BRANCH   1  13
ATOM     13  O   UNL     1       6.686 -12.220   9.492  1.00  0.00    -0.388 OA
ATOM     14  H   UNL     1       7.565 -12.322   9.942  1.00  0.00     0.211 HD
ENDBRANCH   1  13
TORSDOF 8
ENDMDL
MODEL 5
REMARK VINA RESULT:    -4.688      8.708     10.256
REMARK INTER + INTRA:          -6.842
REMARK INTER:                  -6.166
REMARK INTRA:                  -0.676
REMARK UNBOUND:                -0.509
REMARK SMILES O=C[C@H](O)[C@H](O)[C@H](O)CO
REMARK SMILES IDX 7 1 9 2 10 3 5 5 3 6 2 7 1 8 4 9 6 11 8 13
REMARK H PARENT 10 4 4 10 6 12 8 14
REMARK Flexibility Score: inf
ROOT
ATOM      1  C   UNL     1       6.115 -13.396  10.166  1.00  0.00     0.171 C 
ENDROOT
BRANCH   1   2
ATOM      2  C   UNL     1       6.927 -14.077   9.046  1.00  0.00     0.190 C 
BRANCH   2   3
ATOM      3  O   UNL     1       6.178 -14.152   7.864  1.00  0.00    -0.394 OA
ATOM      4  H   UNL     1       5.945 -13.218   7.626  1.00  0.00     0.210 HD
ENDBRANCH   2   3
ENDBRANCH   1   2
BRANCH   1   5
ATOM      5  C   UNL     1       4.754 -14.088  10.455  1.00  0.00     0.181 C 
BRANCH   5   6
ATOM      6  C   UNL     1       4.098 -13.701  11.808  1.00  0.00     0.209 C 
BRANCH   6   7
ATOM      7  C   UNL     1       2.884 -14.533  12.142  1.00  0.00     0.258 C 
ATOM      8  O   UNL     1       2.151 -14.954  11.261  1.00  0.00    -0.300 OA
ENDBRANCH   6   7
BRANCH   6   9
ATOM      9  O   UNL     1       3.773 -12.333  11.831  1.00  0.00    -0.383 OA
ATOM     10  H   UNL     1       2.921 -12.210  11.334  1.00  0.00     0.211 HD
ENDBRANCH   6   9
ENDBRANCH   5   6
BRANCH   5  11
ATOM     11  O   UNL     1       4.916 -15.483  10.389  1.00  0.00    -0.387 OA
ATOM     12  H   UNL     1       4.739 -15.841  11.298  1.00  0.00     0.211 HD
ENDBRANCH   5  11
ENDBRANCH   1   5
BRANCH   1  13
ATOM     13  O   UNL     1       5.926 -12.033   9.885  1.00  0.00    -0.388 OA
ATOM     14  H   UNL     1       5.410 -11.652  10.642  1.00  0.00     0.211 HD
ENDBRANCH   1  13
TORSDOF 8
ENDMDL
MODEL 6
REMARK VINA RESULT:    -4.678      8.865     10.776
REMARK INTER + INTRA:          -6.828
REMARK INTER:                  -6.315
REMARK INTRA:                  -0.513
REMARK UNBOUND:                -0.509
REMARK SMILES O=C[C@H](O)[C@H](O)[C@H](O)CO
REMARK SMILES IDX 7 1 9 2 10 3 5 5 3 6 2 7 1 8 4 9 6 11 8 13
REMARK H PARENT 10 4 4 10 6 12 8 14
REMARK Flexibility Score: inf
ROOT
ATOM      1  C   UNL     1       7.489 -14.486   8.597  1.00  0.00     0.171 C 
ENDROOT
BRANCH   1   2
ATOM      2  C   UNL     1       7.370 -15.089   7.184  1.00  0.00     0.190 C 
BRANCH   2   3
ATOM      3  O   UNL     1       6.403 -14.407   6.431  1.00  0.00    -0.394 OA
ATOM      4  H   UNL     1       5.632 -15.025   6.350  1.00  0.00     0.210 HD
ENDBRANCH   2   3
ENDBRANCH   1   2
BRANCH   1   5
ATOM      5  C   UNL     1       6.123 -14.313   9.317  1.00  0.00     0.181 C 
BRANCH   5   6
ATOM      6  C   UNL     1       6.086 -13.195  10.393  1.00  0.00     0.209 C 
BRANCH   6   7
ATOM      7  C   UNL     1       4.957 -13.354  11.381  1.00  0.00     0.258 C 
ATOM      8  O   UNL     1       5.069 -14.091  12.348  1.00  0.00    -0.300 OA
ENDBRANCH   6   7
BRANCH   6   9
ATOM      9  O   UNL     1       6.031 -11.925   9.789  1.00  0.00    -0.383 OA
ATOM     10  H   UNL     1       5.774 -12.047   8.838  1.00  0.00     0.211 HD
ENDBRANCH   6   9
ENDBRANCH   5   6
BRANCH   5  11
ATOM     11  O   UNL     1       5.742 -15.538   9.894  1.00  0.00    -0.387 OA
ATOM     12  H   UNL     1       4.879 -15.800   9.480  1.00  0.00     0.211 HD
ENDBRANCH   5  11
ENDBRANCH   1   5
BRANCH   1  13
ATOM     13  O   UNL     1       8.184 -13.265   8.559  1.00  0.00    -0.388 OA
ATOM     14  H   UNL     1       7.504 -12.550   8.450  1.00  0.00     0.211 HD
ENDBRANCH   1  13
TORSDOF 8
ENDMDL
MODEL 7
REMARK VINA RESULT:    -4.568      8.840     10.517
REMARK INTER + INTRA:          -6.680
REMARK INTER:                  -5.992
REMARK INTRA:                  -0.688
REMARK UNBOUND:                -0.509
REMARK SMILES O=C[C@H](O)[C@H](O)[C@H](O)CO
REMARK SMILES IDX 7 1 9 2 10 3 5 5 3 6 2 7 1 8 4 9 6 11 8 13
REMARK H PARENT 10 4 4 10 6 12 8 14
REMARK Flexibility Score: inf
ROOT
ATOM      1  C   UNL     1       4.676 -13.648  11.345  1.00  0.00     0.171 C 
ENDROOT
BRANCH   1   2
ATOM      2  C   UNL     1       5.856 -13.337  10.403  1.00  0.00     0.190 C 
BRANCH   2   3
ATOM      3  O   UNL     1       5.710 -14.013   9.184  1.00  0.00    -0.394 OA
ATOM      4  H   UNL     1       6.521 -14.575   9.083  1.00  0.00     0.210 HD
ENDBRANCH   2   3
ENDBRANCH   1   2
BRANCH   1   5
ATOM      5  C   UNL     1       3.727 -14.755  10.809  1.00  0.00     0.181 C 
BRANCH   5   6
ATOM      6  C   UNL     1       2.434 -14.970  11.642  1.00  0.00     0.209 C 
BRANCH   6   7
ATOM      7  C   UNL     1       1.792 -16.316  11.412  1.00  0.00     0.258 C 
ATOM      8  O   UNL     1       2.135 -17.293  12.059  1.00  0.00    -0.300 OA
ENDBRANCH   6   7
BRANCH   6   9
ATOM      9  O   UNL     1       1.508 -13.939  11.398  1.00  0.00    -0.383 OA
ATOM     10  H   UNL     1       1.845 -13.113  11.833  1.00  0.00     0.211 HD
ENDBRANCH   6   9
ENDBRANCH   5   6
BRANCH   5  11
ATOM     11  O   UNL     1       4.433 -15.967  10.710  1.00  0.00    -0.387 OA
ATOM     12  H   UNL     1       4.976 -15.921   9.880  1.00  0.00     0.211 HD
ENDBRANCH   5  11
ENDBRANCH   1   5
BRANCH   1  13
ATOM     13  O   UNL     1       3.954 -12.479  11.640  1.00  0.00    -0.388 OA
ATOM     14  H   UNL     1       4.271 -11.779  11.011  1.00  0.00     0.211 HD
ENDBRANCH   1  13
TORSDOF 8
ENDMDL
MODEL 8
REMARK VINA RESULT:    -4.554      8.599      9.886
REMARK INTER + INTRA:          -6.661
REMARK INTER:                  -5.855
REMARK INTRA:                  -0.806
REMARK UNBOUND:                -0.509
REMARK SMILES O=C[C@H](O)[C@H](O)[C@H](O)CO
REMARK SMILES IDX 7 1 9 2 10 3 5 5 3 6 2 7 1 8 4 9 6 11 8 13
REMARK H PARENT 10 4 4 10 6 12 8 14
REMARK Flexibility Score: inf
ROOT
ATOM      1  C   UNL     1       2.253 -14.394  12.358  1.00  0.00     0.171 C 
ENDROOT
BRANCH   1   2
ATOM      2  C   UNL     1       3.232 -13.297  12.823  1.00  0.00     0.190 C 
BRANCH   2   3
ATOM      3  O   UNL     1       3.614 -12.483  11.748  1.00  0.00    -0.394 OA
ATOM      4  H   UNL     1       4.091 -11.709  12.145  1.00  0.00     0.210 HD
ENDBRANCH   2   3
ENDBRANCH   1   2
BRANCH   1   5
ATOM      5  C   UNL     1       2.904 -15.454  11.426  1.00  0.00     0.181 C 
BRANCH   5   6
ATOM      6  C   UNL     1       4.338 -15.888  11.831  1.00  0.00     0.209 C 
BRANCH   6   7
ATOM      7  C   UNL     1       5.381 -15.540  10.798  1.00  0.00     0.258 C 
ATOM      8  O   UNL     1       5.727 -14.382  10.622  1.00  0.00    -0.300 OA
ENDBRANCH   6   7
BRANCH   6   9
ATOM      9  O   UNL     1       4.378 -17.265  12.119  1.00  0.00    -0.383 OA
ATOM     10  H   UNL     1       5.117 -17.668  11.592  1.00  0.00     0.211 HD
ENDBRANCH   6   9
ENDBRANCH   5   6
BRANCH   5  11
ATOM     11  O   UNL     1       2.910 -14.972  10.105  1.00  0.00    -0.387 OA
ATOM     12  H   UNL     1       2.375 -15.607   9.561  1.00  0.00     0.211 HD
ENDBRANCH   5  11
ENDBRANCH   1   5
BRANCH   1  13
ATOM     13  O   UNL     1       1.124 -13.825  11.745  1.00  0.00    -0.388 OA
ATOM     14  H   UNL     1       0.591 -13.397  12.465  1.00  0.00     0.211 HD
ENDBRANCH   1  13
TORSDOF 8
ENDMDL
MODEL 9
REMARK VINA RESULT:    -4.546      7.889      9.066
REMARK INTER + INTRA:          -6.650
REMARK INTER:                  -6.186
REMARK INTRA:                  -0.464
REMARK UNBOUND:                -0.509
REMARK SMILES O=C[C@H](O)[C@H](O)[C@H](O)CO
REMARK SMILES IDX 7 1 9 2 10 3 5 5 3 6 2 7 1 8 4 9 6 11 8 13
REMARK H PARENT 10 4 4 10 6 12 8 14
REMARK Flexibility Score: inf
ROOT
ATOM      1  C   UNL     1       4.304 -13.352  12.524  1.00  0.00     0.171 C 
ENDROOT
BRANCH   1   2
ATOM      2  C   UNL     1       2.792 -13.634  12.624  1.00  0.00     0.190 C 
BRANCH   2   3
ATOM      3  O   UNL     1       2.142 -12.614  13.332  1.00  0.00    -0.394 OA
ATOM      4  H   UNL     1       2.855 -12.096  13.786  1.00  0.00     0.210 HD
ENDBRANCH   2   3
ENDBRANCH   1   2
BRANCH   1   5
ATOM      5  C   UNL     1       4.825 -13.263  11.063  1.00  0.00     0.181 C 
BRANCH   5   6
ATOM      6  C   UNL     1       5.761 -14.423  10.630  1.00  0.00     0.209 C 
BRANCH   6   7
ATOM      7  C   UNL     1       6.578 -14.104   9.401  1.00  0.00     0.258 C 
ATOM      8  O   UNL     1       6.036 -13.819   8.345  1.00  0.00    -0.300 OA
ENDBRANCH   6   7
BRANCH   6   9
ATOM      9  O   UNL     1       5.027 -15.608  10.434  1.00  0.00    -0.383 OA
ATOM     10  H   UNL     1       4.409 -15.718  11.203  1.00  0.00     0.211 HD
ENDBRANCH   6   9
ENDBRANCH   5   6
BRANCH   5  11
ATOM     11  O   UNL     1       5.479 -12.032  10.876  1.00  0.00    -0.387 OA
ATOM     12  H   UNL     1       6.365 -12.231  10.475  1.00  0.00     0.211 HD
ENDBRANCH   5  11
ENDBRANCH   1   5
BRANCH   1  13
ATOM     13  O   UNL     1       5.036 -14.305  13.252  1.00  0.00    -0.388 OA
ATOM     14  H   UNL     1       4.628 -14.353  14.156  1.00  0.00     0.211 HD
ENDBRANCH   1  13
TORSDOF 8
ENDMDL
