MODEL 1
REMARK VINA RESULT:    -5.843      0.000      0.000
REMARK INTER + INTRA:          -8.579
REMARK INTER:                  -7.892
REMARK INTRA:                  -0.687
REMARK UNBOUND:                -0.687
REMARK SMILES COc1ccc(-c2cc(=O)c3c(OC)c(OC)c(OC)c(OC)c3o2)cc1
REMARK SMILES IDX 7 1 8 2 9 3 10 4 11 5 24 6 25 7 21 8 18 9 15 10 12 11 6 12
REMARK SMILES IDX 3 13 4 14 27 15 5 16 26 17 2 18 1 19 22 20 23 21 13 22 14 23
REMARK SMILES IDX 19 24 20 25 16 26 17 27
REMARK H PARENT
REMARK Flexibility Score: inf
ROOT
ATOM      1  C   UNL     1      10.839  22.317  51.232  1.00  0.00     0.138 A 
ATOM      2  C   UNL     1      10.533  21.915  49.924  1.00  0.00     0.100 A 
ATOM      3  C   UNL     1       9.925  22.822  49.056  1.00  0.00     0.197 A 
ATOM      4  O   UNL     1       9.627  22.438  47.893  1.00  0.00    -0.289 OA
ATOM      5  C   UNL     1       9.636  24.131  49.499  1.00  0.00     0.115 A 
ATOM      6  C   UNL     1       9.948  24.452  50.834  1.00  0.00     0.188 A 
ATOM      7  O   UNL     1      10.529  23.550  51.624  1.00  0.00    -0.452 OA
ATOM      8  C   UNL     1       9.665  25.717  51.357  1.00  0.00     0.209 A 
ATOM      9  C   UNL     1       9.013  26.688  50.553  1.00  0.00     0.211 A 
ATOM     10  C   UNL     1       8.671  26.366  49.210  1.00  0.00     0.208 A 
ATOM     11  C   UNL     1       9.051  25.113  48.671  1.00  0.00     0.179 A 
ENDROOT
BRANCH   1  12
ATOM     12  C   UNL     1      11.483  21.400  52.210  1.00  0.00     0.018 A 
ATOM     13  C   UNL     1      12.693  19.695  54.111  1.00  0.00     0.118 A 
ATOM     14  C   UNL     1      11.854  20.744  54.527  1.00  0.00     0.047 A 
ATOM     15  C   UNL     1      12.931  19.515  52.746  1.00  0.00     0.047 A 
ATOM     16  C   UNL     1      11.258  21.588  53.585  1.00  0.00     0.016 A 
ATOM     17  C   UNL     1      12.342  20.361  51.802  1.00  0.00     0.016 A 
BRANCH  13  18
ATOM     18  O   UNL     1      13.309  18.817  55.017  1.00  0.00    -0.497 OA
ATOM     19  C   UNL     1      12.683  17.665  55.569  1.00  0.00     0.278 C 
ENDBRANCH  13  18
ENDBRANCH   1  12
BRANCH   8  20
ATOM     20  O   UNL     1      10.050  25.938  52.696  1.00  0.00    -0.490 OA
ATOM     21  C   UNL     1      11.264  26.522  53.157  1.00  0.00     0.278 C 
ENDBRANCH   8  20
BRANCH  11  22
ATOM     22  O   UNL     1       8.883  24.862  47.307  1.00  0.00    -0.492 OA
ATOM     23  C   UNL     1       9.797  25.384  46.347  1.00  0.00     0.278 C 
ENDBRANCH  11  22
BRANCH   9  24
ATOM     24  O   UNL     1       8.718  27.936  51.134  1.00  0.00    -0.490 OA
ATOM     25  C   UNL     1       9.550  29.091  51.181  1.00  0.00     0.279 C 
ENDBRANCH   9  24
BRANCH  10  26
ATOM     26  O   UNL     1       7.961  27.309  48.446  1.00  0.00    -0.490 OA
ATOM     27  C   UNL     1       8.521  28.406  47.728  1.00  0.00     0.278 C 
ENDBRANCH  10  26
TORSDOF 6
ENDMDL
MODEL 2
REMARK VINA RESULT:    -5.823      2.513      7.463
REMARK INTER + INTRA:          -8.552
REMARK INTER:                  -8.034
REMARK INTRA:                  -0.518
REMARK UNBOUND:                -0.687
REMARK SMILES COc1ccc(-c2cc(=O)c3c(OC)c(OC)c(OC)c(OC)c3o2)cc1
REMARK SMILES IDX 7 1 8 2 9 3 10 4 11 5 24 6 25 7 21 8 18 9 15 10 12 11 6 12
REMARK SMILES IDX 3 13 4 14 27 15 5 16 26 17 2 18 1 19 22 20 23 21 13 22 14 23
REMARK SMILES IDX 19 24 20 25 16 26 17 27
REMARK H PARENT
REMARK Flexibility Score: inf
ROOT
ATOM      1  C   UNL     1       9.602  23.035  50.049  1.00  0.00     0.138 A 
ATOM      2  C   UNL     1       9.485  24.301  50.640  1.00  0.00     0.100 A 
ATOM      3  C   UNL     1      10.215  24.585  51.794  1.00  0.00     0.197 A 
ATOM      4  O   UNL     1      10.078  25.717  52.334  1.00  0.00    -0.289 OA
ATOM      5  C   UNL     1      11.068  23.604  52.344  1.00  0.00     0.115 A 
ATOM      6  C   UNL     1      11.112  22.348  51.709  1.00  0.00     0.188 A 
ATOM      7  O   UNL     1      10.395  22.125  50.609  1.00  0.00    -0.452 OA
ATOM      8  C   UNL     1      11.908  21.314  52.211  1.00  0.00     0.209 A 
ATOM      9  C   UNL     1      12.654  21.506  53.402  1.00  0.00     0.211 A 
ATOM     10  C   UNL     1      12.599  22.764  54.065  1.00  0.00     0.208 A 
ATOM     11  C   UNL     1      11.862  23.827  53.490  1.00  0.00     0.179 A 
ENDROOT
BRANCH   1  12
ATOM     12  C   UNL     1       8.849  22.664  48.821  1.00  0.00     0.018 A 
ATOM     13  C   UNL     1       7.420  22.014  46.472  1.00  0.00     0.118 A 
ATOM     14  C   UNL     1       8.043  23.269  46.603  1.00  0.00     0.047 A 
ATOM     15  C   UNL     1       7.506  21.099  47.524  1.00  0.00     0.047 A 
ATOM     16  C   UNL     1       8.748  23.588  47.768  1.00  0.00     0.016 A 
ATOM     17  C   UNL     1       8.204  21.419  48.692  1.00  0.00     0.016 A 
BRANCH  13  18
ATOM     18  O   UNL     1       6.707  21.643  45.321  1.00  0.00    -0.497 OA
ATOM     19  C   UNL     1       6.402  20.300  44.964  1.00  0.00     0.278 C 
ENDBRANCH  13  18
ENDBRANCH   1  12
BRANCH   8  20
ATOM     20  O   UNL     1      11.898  20.109  51.477  1.00  0.00    -0.490 OA
ATOM     21  C   UNL     1      12.410  19.897  50.164  1.00  0.00     0.278 C 
ENDBRANCH   8  20
BRANCH  11  22
ATOM     22  O   UNL     1      11.951  25.111  54.035  1.00  0.00    -0.492 OA
ATOM     23  C   UNL     1      13.107  25.917  53.827  1.00  0.00     0.278 C 
ENDBRANCH  11  22
BRANCH   9  24
ATOM     24  O   UNL     1      13.414  20.424  53.887  1.00  0.00    -0.490 OA
ATOM     25  C   UNL     1      12.984  19.378  54.753  1.00  0.00     0.279 C 
ENDBRANCH   9  24
BRANCH  10  26
ATOM     26  O   UNL     1      13.284  22.920  55.283  1.00  0.00    -0.490 OA
ATOM     27  C   UNL     1      12.735  22.746  56.587  1.00  0.00     0.278 C 
ENDBRANCH  10  26
TORSDOF 6
ENDMDL
MODEL 3
REMARK VINA RESULT:    -5.709      3.580      8.842
REMARK INTER + INTRA:          -8.398
REMARK INTER:                  -7.644
REMARK INTRA:                  -0.754
REMARK UNBOUND:                -0.687
REMARK SMILES COc1ccc(-c2cc(=O)c3c(OC)c(OC)c(OC)c(OC)c3o2)cc1
REMARK SMILES IDX 7 1 8 2 9 3 10 4 11 5 24 6 25 7 21 8 18 9 15 10 12 11 6 12
REMARK SMILES IDX 3 13 4 14 27 15 5 16 26 17 2 18 1 19 22 20 23 21 13 22 14 23
REMARK SMILES IDX 19 24 20 25 16 26 17 27
REMARK H PARENT
REMARK Flexibility Score: inf
ROOT
ATOM      1  C   UNL     1      12.834  20.745  51.567  1.00  0.00     0.138 A 
ATOM      2  C   UNL     1      12.754  19.418  52.011  1.00  0.00     0.100 A 
ATOM      3  C   UNL     1      13.809  18.881  52.749  1.00  0.00     0.197 A 
ATOM      4  O   UNL     1      13.739  17.677  53.116  1.00  0.00    -0.289 OA
ATOM      5  C   UNL     1      14.935  19.679  53.047  1.00  0.00     0.115 A 
ATOM      6  C   UNL     1      14.954  20.994  52.543  1.00  0.00     0.188 A 
ATOM      7  O   UNL     1      13.921  21.461  51.843  1.00  0.00    -0.452 OA
ATOM      8  C   UNL     1      16.046  21.837  52.768  1.00  0.00     0.209 A 
ATOM      9  C   UNL     1      17.178  21.357  53.476  1.00  0.00     0.211 A 
ATOM     10  C   UNL     1      17.180  20.023  53.970  1.00  0.00     0.208 A 
ATOM     11  C   UNL     1      16.026  19.217  53.813  1.00  0.00     0.179 A 
ENDROOT
BRANCH   1  12
ATOM     12  C   UNL     1      11.747  21.379  50.773  1.00  0.00     0.018 A 
ATOM     13  C   UNL     1       9.709  22.566  49.217  1.00  0.00     0.118 A 
ATOM     14  C   UNL     1      10.620  21.667  48.633  1.00  0.00     0.047 A 
ATOM     15  C   UNL     1       9.834  22.875  50.574  1.00  0.00     0.047 A 
ATOM     16  C   UNL     1      11.629  21.083  49.404  1.00  0.00     0.016 A 
ATOM     17  C   UNL     1      10.846  22.297  51.346  1.00  0.00     0.016 A 
BRANCH  13  18
ATOM     18  O   UNL     1       8.676  23.174  48.487  1.00  0.00    -0.497 OA
ATOM     19  C   UNL     1       8.255  22.757  47.193  1.00  0.00     0.278 C 
ENDBRANCH  13  18
ENDBRANCH   1  12
BRANCH   8  20
ATOM     20  O   UNL     1      15.944  23.143  52.243  1.00  0.00    -0.490 OA
ATOM     21  C   UNL     1      15.624  24.333  52.956  1.00  0.00     0.278 C 
ENDBRANCH   8  20
BRANCH  11  22
ATOM     22  O   UNL     1      15.952  17.976  54.451  1.00  0.00    -0.492 OA
ATOM     23  C   UNL     1      15.688  17.885  55.848  1.00  0.00     0.278 C 
ENDBRANCH  11  22
BRANCH   9  24
ATOM     24  O   UNL     1      18.268  22.233  53.649  1.00  0.00    -0.490 OA
ATOM     25  C   UNL     1      19.390  22.404  52.788  1.00  0.00     0.279 C 
ENDBRANCH   9  24
BRANCH  10  26
ATOM     26  O   UNL     1      18.335  19.536  54.606  1.00  0.00    -0.490 OA
ATOM     27  C   UNL     1      19.401  18.821  53.986  1.00  0.00     0.278 C 
ENDBRANCH  10  26
TORSDOF 6
ENDMDL
MODEL 4
REMARK VINA RESULT:    -5.698      2.591      7.370
REMARK INTER + INTRA:          -8.384
REMARK INTER:                  -7.800
REMARK INTRA:                  -0.584
REMARK UNBOUND:                -0.687
REMARK SMILES COc1ccc(-c2cc(=O)c3c(OC)c(OC)c(OC)c(OC)c3o2)cc1
REMARK SMILES IDX 7 1 8 2 9 3 10 4 11 5 24 6 25 7 21 8 18 9 15 10 12 11 6 12
REMARK SMILES IDX 3 13 4 14 27 15 5 16 26 17 2 18 1 19 22 20 23 21 13 22 14 23
REMARK SMILES IDX 19 24 20 25 16 26 17 27
REMARK H PARENT
REMARK Flexibility Score: inf
ROOT
ATOM      1  C   UNL     1      10.922  21.639  50.304  1.00  0.00     0.138 A 
ATOM      2  C   UNL     1      11.629  20.428  50.302  1.00  0.00     0.100 A 
ATOM      3  C   UNL     1      12.492  20.140  51.359  1.00  0.00     0.197 A 
ATOM      4  O   UNL     1      13.145  19.062  51.329  1.00  0.00    -0.289 OA
ATOM      5  C   UNL     1      12.636  21.061  52.419  1.00  0.00     0.115 A 
ATOM      6  C   UNL     1      11.913  22.267  52.337  1.00  0.00     0.188 A 
ATOM      7  O   UNL     1      11.101  22.496  51.306  1.00  0.00    -0.452 OA
ATOM      8  C   UNL     1      12.025  23.243  53.331  1.00  0.00     0.209 A 
ATOM      9  C   UNL     1      12.911  23.047  54.423  1.00  0.00     0.211 A 
ATOM     10  C   UNL     1      13.663  21.842  54.503  1.00  0.00     0.208 A 
ATOM     11  C   UNL     1      13.465  20.827  53.537  1.00  0.00     0.179 A 
ENDROOT
BRANCH   1  12
ATOM     12  C   UNL     1       9.989  22.012  49.208  1.00  0.00     0.018 A 
ATOM     13  C   UNL     1       8.240  22.772  47.123  1.00  0.00     0.118 A 
ATOM     14  C   UNL     1       9.357  23.565  47.441  1.00  0.00     0.047 A 
ATOM     15  C   UNL     1       7.999  21.609  47.860  1.00  0.00     0.047 A 
ATOM     16  C   UNL     1      10.219  23.188  48.475  1.00  0.00     0.016 A 
ATOM     17  C   UNL     1       8.856  21.234  48.898  1.00  0.00     0.016 A 
BRANCH  13  18
ATOM     18  O   UNL     1       7.348  23.104  46.091  1.00  0.00    -0.497 OA
ATOM     19  C   UNL     1       6.689  22.152  45.263  1.00  0.00     0.278 C 
ENDBRANCH  13  18
ENDBRANCH   1  12
BRANCH   8  20
ATOM     20  O   UNL     1      11.232  24.398  53.162  1.00  0.00    -0.490 OA
ATOM     21  C   UNL     1      11.688  25.725  52.918  1.00  0.00     0.278 C 
ENDBRANCH   8  20
BRANCH  11  22
ATOM     22  O   UNL     1      14.061  19.575  53.710  1.00  0.00    -0.492 OA
ATOM     23  C   UNL     1      13.544  18.641  54.653  1.00  0.00     0.278 C 
ENDBRANCH  11  22
BRANCH   9  24
ATOM     24  O   UNL     1      13.015  24.073  55.381  1.00  0.00    -0.490 OA
ATOM     25  C   UNL     1      14.048  25.046  55.506  1.00  0.00     0.279 C 
ENDBRANCH   9  24
BRANCH  10  26
ATOM     26  O   UNL     1      14.590  21.690  55.549  1.00  0.00    -0.490 OA
ATOM     27  C   UNL     1      16.000  21.883  55.460  1.00  0.00     0.278 C 
ENDBRANCH  10  26
TORSDOF 6
ENDMDL
MODEL 5
REMARK VINA RESULT:    -5.687      1.665      2.412
REMARK INTER + INTRA:          -8.369
REMARK INTER:                  -7.851
REMARK INTRA:                  -0.518
REMARK UNBOUND:                -0.687
REMARK SMILES COc1ccc(-c2cc(=O)c3c(OC)c(OC)c(OC)c(OC)c3o2)cc1
REMARK SMILES IDX 7 1 8 2 9 3 10 4 11 5 24 6 25 7 21 8 18 9 15 10 12 11 6 12
REMARK SMILES IDX 3 13 4 14 27 15 5 16 26 17 2 18 1 19 22 20 23 21 13 22 14 23
REMARK SMILES IDX 19 24 20 25 16 26 17 27
REMARK H PARENT
REMARK Flexibility Score: inf
ROOT
ATOM      1  C   UNL     1      10.326  22.586  49.410  1.00  0.00     0.138 A 
ATOM      2  C   UNL     1       9.742  22.018  48.269  1.00  0.00     0.100 A 
ATOM      3  C   UNL     1       9.092  22.843  47.352  1.00  0.00     0.197 A 
ATOM      4  O   UNL     1       8.545  22.316  46.345  1.00  0.00    -0.289 OA
ATOM      5  C   UNL     1       9.038  24.236  47.576  1.00  0.00     0.115 A 
ATOM      6  C   UNL     1       9.624  24.729  48.758  1.00  0.00     0.188 A 
ATOM      7  O   UNL     1      10.233  23.899  49.603  1.00  0.00    -0.452 OA
ATOM      8  C   UNL     1       9.585  26.092  49.068  1.00  0.00     0.209 A 
ATOM      9  C   UNL     1       8.910  26.996  48.208  1.00  0.00     0.211 A 
ATOM     10  C   UNL     1       8.295  26.506  47.023  1.00  0.00     0.208 A 
ATOM     11  C   UNL     1       8.426  25.139  46.680  1.00  0.00     0.179 A 
ENDROOT
BRANCH   1  12
ATOM     12  C   UNL     1      11.030  21.764  50.430  1.00  0.00     0.018 A 
ATOM     13  C   UNL     1      12.375  20.161  52.328  1.00  0.00     0.118 A 
ATOM     14  C   UNL     1      12.394  19.817  50.964  1.00  0.00     0.047 A 
ATOM     15  C   UNL     1      11.673  21.298  52.734  1.00  0.00     0.047 A 
ATOM     16  C   UNL     1      11.725  20.611  50.027  1.00  0.00     0.016 A 
ATOM     17  C   UNL     1      10.998  22.090  51.800  1.00  0.00     0.016 A 
BRANCH  13  18
ATOM     18  O   UNL     1      13.036  19.401  53.306  1.00  0.00    -0.497 OA
ATOM     19  C   UNL     1      13.650  18.140  53.063  1.00  0.00     0.278 C 
ENDBRANCH  13  18
ENDBRANCH   1  12
BRANCH   8  20
ATOM     20  O   UNL     1      10.230  26.477  50.263  1.00  0.00    -0.490 OA
ATOM     21  C   UNL     1       9.624  26.711  51.530  1.00  0.00     0.278 C 
ENDBRANCH   8  20
BRANCH  11  22
ATOM     22  O   UNL     1       7.984  24.688  45.433  1.00  0.00    -0.492 OA
ATOM     23  C   UNL     1       6.595  24.530  45.161  1.00  0.00     0.278 C 
ENDBRANCH  11  22
BRANCH   9  24
ATOM     24  O   UNL     1       8.869  28.354  48.580  1.00  0.00    -0.490 OA
ATOM     25  C   UNL     1       9.858  29.351  48.343  1.00  0.00     0.279 C 
ENDBRANCH   9  24
BRANCH  10  26
ATOM     26  O   UNL     1       7.567  27.399  46.216  1.00  0.00    -0.490 OA
ATOM     27  C   UNL     1       8.111  28.297  45.252  1.00  0.00     0.278 C 
ENDBRANCH  10  26
TORSDOF 6
ENDMDL
MODEL 6
REMARK VINA RESULT:    -5.603      2.393      6.402
REMARK INTER + INTRA:          -8.256
REMARK INTER:                  -7.730
REMARK INTRA:                  -0.526
REMARK UNBOUND:                -0.687
REMARK SMILES COc1ccc(-c2cc(=O)c3c(OC)c(OC)c(OC)c(OC)c3o2)cc1
REMARK SMILES IDX 7 1 8 2 9 3 10 4 11 5 24 6 25 7 21 8 18 9 15 10 12 11 6 12
REMARK SMILES IDX 3 13 4 14 27 15 5 16 26 17 2 18 1 19 22 20 23 21 13 22 14 23
REMARK SMILES IDX 19 24 20 25 16 26 17 27
REMARK H PARENT
REMARK Flexibility Score: inf
ROOT
ATOM      1  C   UNL     1       9.829  27.231  52.087  1.00  0.00     0.138 A 
ATOM      2  C   UNL     1       9.428  27.863  50.902  1.00  0.00     0.100 A 
ATOM      3  C   UNL     1       9.207  27.094  49.760  1.00  0.00     0.197 A 
ATOM      4  O   UNL     1       8.877  27.678  48.692  1.00  0.00    -0.289 OA
ATOM      5  C   UNL     1       9.379  25.694  49.812  1.00  0.00     0.115 A 
ATOM      6  C   UNL     1       9.810  25.135  51.031  1.00  0.00     0.188 A 
ATOM      7  O   UNL     1      10.007  25.913  52.094  1.00  0.00    -0.452 OA
ATOM      8  C   UNL     1      10.032  23.761  51.156  1.00  0.00     0.209 A 
ATOM      9  C   UNL     1       9.868  22.910  50.031  1.00  0.00     0.211 A 
ATOM     10  C   UNL     1       9.456  23.467  48.789  1.00  0.00     0.208 A 
ATOM     11  C   UNL     1       9.145  24.846  48.708  1.00  0.00     0.179 A 
ENDROOT
BRANCH   1  12
ATOM     12  C   UNL     1      10.086  27.991  53.340  1.00  0.00     0.018 A 
ATOM     13  C   UNL     1      10.540  29.478  55.699  1.00  0.00     0.118 A 
ATOM     14  C   UNL     1       9.545  29.874  54.788  1.00  0.00     0.047 A 
ATOM     15  C   UNL     1      11.310  28.346  55.417  1.00  0.00     0.047 A 
ATOM     16  C   UNL     1       9.324  29.138  53.620  1.00  0.00     0.016 A 
ATOM     17  C   UNL     1      11.095  27.612  54.246  1.00  0.00     0.016 A 
BRANCH  13  18
ATOM     18  O   UNL     1      10.797  30.179  56.888  1.00  0.00    -0.497 OA
ATOM     19  C   UNL     1       9.997  30.089  58.062  1.00  0.00     0.278 C 
ENDBRANCH  13  18
ENDBRANCH   1  12
BRANCH   8  20
ATOM     20  O   UNL     1      10.432  23.308  52.431  1.00  0.00    -0.490 OA
ATOM     21  C   UNL     1      11.761  23.048  52.873  1.00  0.00     0.278 C 
ENDBRANCH   8  20
BRANCH  11  22
ATOM     22  O   UNL     1       8.568  25.363  47.545  1.00  0.00    -0.492 OA
ATOM     23  C   UNL     1       9.331  25.512  46.352  1.00  0.00     0.278 C 
ENDBRANCH  11  22
BRANCH   9  24
ATOM     24  O   UNL     1      10.138  21.538  50.197  1.00  0.00    -0.490 OA
ATOM     25  C   UNL     1      11.332  20.839  49.860  1.00  0.00     0.279 C 
ENDBRANCH   9  24
BRANCH  10  26
ATOM     26  O   UNL     1       9.367  22.627  47.665  1.00  0.00    -0.490 OA
ATOM     27  C   UNL     1       8.204  21.933  47.222  1.00  0.00     0.278 C 
ENDBRANCH  10  26
TORSDOF 6
ENDMDL
MODEL 7
REMARK VINA RESULT:    -5.535      1.842      2.597
REMARK INTER + INTRA:          -8.163
REMARK INTER:                  -7.603
REMARK INTRA:                  -0.560
REMARK UNBOUND:                -0.687
REMARK SMILES COc1ccc(-c2cc(=O)c3c(OC)c(OC)c(OC)c(OC)c3o2)cc1
REMARK SMILES IDX 7 1 8 2 9 3 10 4 11 5 24 6 25 7 21 8 18 9 15 10 12 11 6 12
REMARK SMILES IDX 3 13 4 14 27 15 5 16 26 17 2 18 1 19 22 20 23 21 13 22 14 23
REMARK SMILES IDX 19 24 20 25 16 26 17 27
REMARK H PARENT
REMARK Flexibility Score: inf
ROOT
ATOM      1  C   UNL     1      11.380  22.265  52.853  1.00  0.00     0.138 A 
ATOM      2  C   UNL     1      11.392  21.286  51.850  1.00  0.00     0.100 A 
ATOM      3  C   UNL     1      10.839  21.579  50.604  1.00  0.00     0.197 A 
ATOM      4  O   UNL     1      10.828  20.680  49.720  1.00  0.00    -0.289 OA
ATOM      5  C   UNL     1      10.285  22.856  50.365  1.00  0.00     0.115 A 
ATOM      6  C   UNL     1      10.285  23.777  51.430  1.00  0.00     0.188 A 
ATOM      7  O   UNL     1      10.826  23.448  52.602  1.00  0.00    -0.452 OA
ATOM      8  C   UNL     1       9.728  25.050  51.282  1.00  0.00     0.209 A 
ATOM      9  C   UNL     1       9.110  25.417  50.059  1.00  0.00     0.211 A 
ATOM     10  C   UNL     1       9.083  24.486  48.984  1.00  0.00     0.208 A 
ATOM     11  C   UNL     1       9.735  23.237  49.122  1.00  0.00     0.179 A 
ENDROOT
BRANCH   1  12
ATOM     12  C   UNL     1      11.949  22.018  54.205  1.00  0.00     0.018 A 
ATOM     13  C   UNL     1      12.999  21.500  56.777  1.00  0.00     0.118 A 
ATOM     14  C   UNL     1      12.310  20.495  56.072  1.00  0.00     0.047 A 
ATOM     15  C   UNL     1      13.146  22.761  56.193  1.00  0.00     0.047 A 
ATOM     16  C   UNL     1      11.789  20.755  54.801  1.00  0.00     0.016 A 
ATOM     17  C   UNL     1      12.620  23.025  54.925  1.00  0.00     0.016 A 
BRANCH  13  18
ATOM     18  O   UNL     1      13.546  21.287  58.052  1.00  0.00    -0.497 OA
ATOM     19  C   UNL     1      12.784  20.945  59.205  1.00  0.00     0.278 C 
ENDBRANCH  13  18
ENDBRANCH   1  12
BRANCH   8  20
ATOM     20  O   UNL     1       9.812  25.900  52.405  1.00  0.00    -0.490 OA
ATOM     21  C   UNL     1      10.814  26.877  52.672  1.00  0.00     0.278 C 
ENDBRANCH   8  20
BRANCH  11  22
ATOM     22  O   UNL     1       9.870  22.396  48.014  1.00  0.00    -0.492 OA
ATOM     23  C   UNL     1       8.733  21.776  47.421  1.00  0.00     0.278 C 
ENDBRANCH  11  22
BRANCH   9  24
ATOM     24  O   UNL     1       8.532  26.698  49.969  1.00  0.00    -0.490 OA
ATOM     25  C   UNL     1       9.144  27.897  49.503  1.00  0.00     0.279 C 
ENDBRANCH   9  24
BRANCH  10  26
ATOM     26  O   UNL     1       8.404  24.834  47.802  1.00  0.00    -0.490 OA
ATOM     27  C   UNL     1       8.977  25.454  46.653  1.00  0.00     0.278 C 
ENDBRANCH  10  26
TORSDOF 6
ENDMDL
MODEL 8
REMARK VINA RESULT:    -5.502      4.212     10.835
REMARK INTER + INTRA:          -8.118
REMARK INTER:                  -7.365
REMARK INTRA:                  -0.754
REMARK UNBOUND:                -0.687
REMARK SMILES COc1ccc(-c2cc(=O)c3c(OC)c(OC)c(OC)c(OC)c3o2)cc1
REMARK SMILES IDX 7 1 8 2 9 3 10 4 11 5 24 6 25 7 21 8 18 9 15 10 12 11 6 12
REMARK SMILES IDX 3 13 4 14 27 15 5 16 26 17 2 18 1 19 22 20 23 21 13 22 14 23
REMARK SMILES IDX 19 24 20 25 16 26 17 27
REMARK H PARENT
REMARK Flexibility Score: inf
ROOT
ATOM      1  C   UNL     1      13.523  18.462  52.921  1.00  0.00     0.138 A 
ATOM      2  C   UNL     1      12.926  17.252  53.304  1.00  0.00     0.100 A 
ATOM      3  C   UNL     1      13.736  16.167  53.637  1.00  0.00     0.197 A 
ATOM      4  O   UNL     1      13.188  15.076  53.950  1.00  0.00    -0.289 OA
ATOM      5  C   UNL     1      15.142  16.302  53.596  1.00  0.00     0.115 A 
ATOM      6  C   UNL     1      15.666  17.539  53.176  1.00  0.00     0.188 A 
ATOM      7  O   UNL     1      14.849  18.545  52.868  1.00  0.00    -0.452 OA
ATOM      8  C   UNL     1      17.046  17.742  53.079  1.00  0.00     0.209 A 
ATOM      9  C   UNL     1      17.941  16.678  53.364  1.00  0.00     0.211 A 
ATOM     10  C   UNL     1      17.421  15.417  53.766  1.00  0.00     0.208 A 
ATOM     11  C   UNL     1      16.026  15.260  53.949  1.00  0.00     0.179 A 
ENDROOT
BRANCH   1  12
ATOM     12  C   UNL     1      12.719  19.656  52.549  1.00  0.00     0.018 A 
ATOM     13  C   UNL     1      11.207  21.918  51.787  1.00  0.00     0.118 A 
ATOM     14  C   UNL     1      11.698  21.029  50.814  1.00  0.00     0.047 A 
ATOM     15  C   UNL     1      11.488  21.676  53.134  1.00  0.00     0.047 A 
ATOM     16  C   UNL     1      12.448  19.912  51.194  1.00  0.00     0.016 A 
ATOM     17  C   UNL     1      12.242  20.563  53.515  1.00  0.00     0.016 A 
BRANCH  13  18
ATOM     18  O   UNL     1      10.444  23.050  51.457  1.00  0.00    -0.497 OA
ATOM     19  C   UNL     1       9.708  23.198  50.249  1.00  0.00     0.278 C 
ENDBRANCH  13  18
ENDBRANCH   1  12
BRANCH   8  20
ATOM     20  O   UNL     1      17.459  19.030  52.678  1.00  0.00    -0.490 OA
ATOM     21  C   UNL     1      17.893  20.094  53.519  1.00  0.00     0.278 C 
ENDBRANCH   8  20
BRANCH  11  22
ATOM     22  O   UNL     1      15.526  14.086  54.517  1.00  0.00    -0.492 OA
ATOM     23  C   UNL     1      15.656  13.833  55.913  1.00  0.00     0.278 C 
ENDBRANCH  11  22
BRANCH   9  24
ATOM     24  O   UNL     1      19.321  16.921  53.219  1.00  0.00    -0.490 OA
ATOM     25  C   UNL     1      20.117  16.744  52.051  1.00  0.00     0.279 C 
ENDBRANCH   9  24
BRANCH  10  26
ATOM     26  O   UNL     1      18.314  14.350  53.975  1.00  0.00    -0.490 OA
ATOM     27  C   UNL     1      18.664  13.347  53.025  1.00  0.00     0.278 C 
ENDBRANCH  10  26
TORSDOF 6
ENDMDL
MODEL 9
REMARK VINA RESULT:    -5.451      3.396      9.414
REMARK INTER + INTRA:          -8.049
REMARK INTER:                  -7.287
REMARK INTRA:                  -0.762
REMARK UNBOUND:                -0.687
REMARK SMILES COc1ccc(-c2cc(=O)c3c(OC)c(OC)c(OC)c(OC)c3o2)cc1
REMARK SMILES IDX 7 1 8 2 9 3 10 4 11 5 24 6 25 7 21 8 18 9 15 10 12 11 6 12
REMARK SMILES IDX 3 13 4 14 27 15 5 16 26 17 2 18 1 19 22 20 23 21 13 22 14 23
REMARK SMILES IDX 19 24 20 25 16 26 17 27
REMARK H PARENT
REMARK Flexibility Score: inf
ROOT
ATOM      1  C   UNL     1      11.916  21.319  53.202  1.00  0.00     0.138 A 
ATOM      2  C   UNL     1      12.159  22.394  54.069  1.00  0.00     0.100 A 
ATOM      3  C   UNL     1      12.609  22.137  55.364  1.00  0.00     0.197 A 
ATOM      4  O   UNL     1      12.794  23.110  56.144  1.00  0.00    -0.289 OA
ATOM      5  C   UNL     1      12.824  20.805  55.781  1.00  0.00     0.115 A 
ATOM      6  C   UNL     1      12.532  19.779  54.862  1.00  0.00     0.188 A 
ATOM      7  O   UNL     1      12.104  20.076  53.636  1.00  0.00    -0.452 OA
ATOM      8  C   UNL     1      12.689  18.434  55.210  1.00  0.00     0.209 A 
ATOM      9  C   UNL     1      13.105  18.083  56.520  1.00  0.00     0.211 A 
ATOM     10  C   UNL     1      13.380  19.111  57.464  1.00  0.00     0.208 A 
ATOM     11  C   UNL     1      13.307  20.468  57.064  1.00  0.00     0.179 A 
ENDROOT
BRANCH   1  12
ATOM     12  C   UNL     1      11.432  21.521  51.810  1.00  0.00     0.018 A 
ATOM     13  C   UNL     1      10.557  21.873  49.147  1.00  0.00     0.118 A 
ATOM     14  C   UNL     1      11.515  20.891  49.458  1.00  0.00     0.047 A 
ATOM     15  C   UNL     1      10.053  22.681  50.169  1.00  0.00     0.047 A 
ATOM     16  C   UNL     1      11.948  20.721  50.776  1.00  0.00     0.016 A 
ATOM     17  C   UNL     1      10.490  22.516  51.487  1.00  0.00     0.016 A 
BRANCH  13  18
ATOM     18  O   UNL     1      10.085  22.078  47.841  1.00  0.00    -0.497 OA
ATOM     19  C   UNL     1       8.801  22.605  47.525  1.00  0.00     0.278 C 
ENDBRANCH  13  18
ENDBRANCH   1  12
BRANCH   8  20
ATOM     20  O   UNL     1      12.396  17.492  54.200  1.00  0.00    -0.490 OA
ATOM     21  C   UNL     1      13.329  16.755  53.416  1.00  0.00     0.278 C 
ENDBRANCH   8  20
BRANCH  11  22
ATOM     22  O   UNL     1      13.750  21.473  57.927  1.00  0.00    -0.492 OA
ATOM     23  C   UNL     1      15.141  21.704  58.131  1.00  0.00     0.278 C 
ENDBRANCH  11  22
BRANCH   9  24
ATOM     24  O   UNL     1      13.216  16.715  56.833  1.00  0.00    -0.490 OA
ATOM     25  C   UNL     1      12.182  15.835  57.265  1.00  0.00     0.279 C 
ENDBRANCH   9  24
BRANCH  10  26
ATOM     26  O   UNL     1      13.722  18.751  58.779  1.00  0.00    -0.490 OA
ATOM     27  C   UNL     1      12.821  18.603  59.874  1.00  0.00     0.278 C 
ENDBRANCH  10  26
TORSDOF 6
ENDMDL
