MODEL 1
REMARK VINA RESULT:    -3.873      0.000      0.000
REMARK INTER + INTRA:          -6.558
REMARK INTER:                  -5.910
REMARK INTRA:                  -0.648
REMARK UNBOUND:                -0.648
REMARK SMILES O=C([O-])CCCCCCCCC(=O)[O-]
REMARK SMILES IDX 7 1 6 2 5 3 4 4 2 5 1 6 3 7 8 8 9 9 10 10 11 11 12 12 13 13
REMARK SMILES IDX 14 14
REMARK H PARENT
REMARK Flexibility Score: inf
ROOT
ATOM      1  C   UNL     1      76.673 -72.464  -3.773  1.00  0.00     0.000 C 
ENDROOT
BRANCH   1   2
ATOM      2  C   UNL     1      76.657 -73.963  -3.424  1.00  0.00     0.000 C 
BRANCH   2   3
ATOM      3  C   UNL     1      77.151 -74.237  -1.989  1.00  0.00     0.006 C 
BRANCH   3   4
ATOM      4  C   UNL     1      78.267 -75.292  -1.914  1.00  0.00     0.053 C 
BRANCH   4   5
ATOM      5  C   UNL     1      77.913 -76.429  -1.007  1.00  0.00     0.041 C 
ATOM      6  O   UNL     1      77.029 -76.281  -0.122  1.00  0.00    -0.550 OA
ATOM      7  O   UNL     1      78.575 -77.643  -1.122  1.00  0.00    -0.550 OA
ENDBRANCH   4   5
ENDBRANCH   3   4
ENDBRANCH   2   3
ENDBRANCH   1   2
BRANCH   1   8
ATOM      8  C   UNL     1      75.351 -71.761  -3.424  1.00  0.00     0.000 C 
BRANCH   8   9
ATOM      9  C   UNL     1      74.138 -72.699  -3.508  1.00  0.00     0.000 C 
BRANCH   9  10
ATOM     10  C   UNL     1      73.357 -72.706  -2.186  1.00  0.00     0.006 C 
BRANCH  10  11
ATOM     11  C   UNL     1      74.186 -72.159  -1.017  1.00  0.00     0.053 C 
BRANCH  11  12
ATOM     12  C   UNL     1      73.452 -71.090  -0.267  1.00  0.00     0.041 C 
ATOM     13  O   UNL     1      74.047 -70.031   0.069  1.00  0.00    -0.550 OA
ATOM     14  O   UNL     1      72.123 -71.276   0.091  1.00  0.00    -0.550 OA
ENDBRANCH  11  12
ENDBRANCH  10  11
ENDBRANCH   9  10
ENDBRANCH   8   9
ENDBRANCH   1   8
TORSDOF 9
ENDMDL
MODEL 2
REMARK VINA RESULT:    -3.805      1.050      1.475
REMARK INTER + INTRA:          -6.455
REMARK INTER:                  -5.826
REMARK INTRA:                  -0.628
REMARK UNBOUND:                -0.648
REMARK SMILES O=C([O-])CCCCCCCCC(=O)[O-]
REMARK SMILES IDX 7 1 6 2 5 3 4 4 2 5 1 6 3 7 8 8 9 9 10 10 11 11 12 12 13 13
REMARK SMILES IDX 14 14
REMARK H PARENT
REMARK Flexibility Score: inf
ROOT
ATOM      1  C   UNL     1      75.993 -72.112  -4.095  1.00  0.00     0.000 C 
ENDROOT
BRANCH   1   2
ATOM      2  C   UNL     1      77.083 -72.863  -3.308  1.00  0.00     0.000 C 
BRANCH   2   3
ATOM      3  C   UNL     1      76.963 -74.393  -3.452  1.00  0.00     0.006 C 
BRANCH   3   4
ATOM      4  C   UNL     1      76.458 -75.093  -2.180  1.00  0.00     0.053 C 
BRANCH   4   5
ATOM      5  C   UNL     1      77.575 -75.661  -1.363  1.00  0.00     0.041 C 
ATOM      6  O   UNL     1      78.770 -75.505  -1.729  1.00  0.00    -0.550 OA
ATOM      7  O   UNL     1      77.296 -76.384  -0.211  1.00  0.00    -0.550 OA
ENDBRANCH   4   5
ENDBRANCH   3   4
ENDBRANCH   2   3
ENDBRANCH   1   2
BRANCH   1   8
ATOM      8  C   UNL     1      74.982 -71.404  -3.179  1.00  0.00     0.000 C 
BRANCH   8   9
ATOM      9  C   UNL     1      74.045 -72.385  -2.459  1.00  0.00     0.000 C 
BRANCH   9  10
ATOM     10  C   UNL     1      74.135 -72.213  -0.936  1.00  0.00     0.006 C 
BRANCH  10  11
ATOM     11  C   UNL     1      72.876 -71.563  -0.348  1.00  0.00     0.053 C 
BRANCH  11  12
ATOM     12  C   UNL     1      73.200 -70.317   0.419  1.00  0.00     0.041 C 
ATOM     13  O   UNL     1      74.171 -69.594   0.071  1.00  0.00    -0.550 OA
ATOM     14  O   UNL     1      72.451 -69.972   1.537  1.00  0.00    -0.550 OA
ENDBRANCH  11  12
ENDBRANCH  10  11
ENDBRANCH   9  10
ENDBRANCH   8   9
ENDBRANCH   1   8
TORSDOF 9
ENDMDL
MODEL 3
REMARK VINA RESULT:    -3.788      1.965      2.233
REMARK INTER + INTRA:          -6.428
REMARK INTER:                  -5.568
REMARK INTRA:                  -0.860
REMARK UNBOUND:                -0.648
REMARK SMILES O=C([O-])CCCCCCCCC(=O)[O-]
REMARK SMILES IDX 7 1 6 2 5 3 4 4 2 5 1 6 3 7 8 8 9 9 10 10 11 11 12 12 13 13
REMARK SMILES IDX 14 14
REMARK H PARENT
REMARK Flexibility Score: inf
ROOT
ATOM      1  C   UNL     1      77.155 -72.873  -3.757  1.00  0.00     0.000 C 
ENDROOT
BRANCH   1   2
ATOM      2  C   UNL     1      77.481 -74.348  -3.465  1.00  0.00     0.000 C 
BRANCH   2   3
ATOM      3  C   UNL     1      77.932 -74.573  -2.008  1.00  0.00     0.006 C 
BRANCH   3   4
ATOM      4  C   UNL     1      78.644 -75.917  -1.785  1.00  0.00     0.053 C 
BRANCH   4   5
ATOM      5  C   UNL     1      77.892 -76.808  -0.847  1.00  0.00     0.041 C 
ATOM      6  O   UNL     1      77.057 -76.319  -0.042  1.00  0.00    -0.550 OA
ATOM      7  O   UNL     1      78.132 -78.176  -0.845  1.00  0.00    -0.550 OA
ENDBRANCH   4   5
ENDBRANCH   3   4
ENDBRANCH   2   3
ENDBRANCH   1   2
BRANCH   1   8
ATOM      8  C   UNL     1      75.666 -72.644  -4.063  1.00  0.00     0.000 C 
BRANCH   8   9
ATOM      9  C   UNL     1      75.006 -71.652  -3.094  1.00  0.00     0.000 C 
BRANCH   9  10
ATOM     10  C   UNL     1      74.008 -72.366  -2.172  1.00  0.00     0.006 C 
BRANCH  10  11
ATOM     11  C   UNL     1      74.703 -73.118  -1.031  1.00  0.00     0.053 C 
BRANCH  11  12
ATOM     12  C   UNL     1      74.267 -74.550  -0.960  1.00  0.00     0.041 C 
ATOM     13  O   UNL     1      74.466 -75.321  -1.935  1.00  0.00    -0.550 OA
ATOM     14  O   UNL     1      73.610 -75.023   0.169  1.00  0.00    -0.550 OA
ENDBRANCH  11  12
ENDBRANCH  10  11
ENDBRANCH   9  10
ENDBRANCH   8   9
ENDBRANCH   1   8
TORSDOF 9
ENDMDL
MODEL 4
REMARK VINA RESULT:    -3.776      0.927      5.634
REMARK INTER + INTRA:          -6.411
REMARK INTER:                  -5.607
REMARK INTRA:                  -0.803
REMARK UNBOUND:                -0.648
REMARK SMILES O=C([O-])CCCCCCCCC(=O)[O-]
REMARK SMILES IDX 7 1 6 2 5 3 4 4 2 5 1 6 3 7 8 8 9 9 10 10 11 11 12 12 13 13
REMARK SMILES IDX 14 14
REMARK H PARENT
REMARK Flexibility Score: inf
ROOT
ATOM      1  C   UNL     1      75.022 -74.470  -3.270  1.00  0.00     0.000 C 
ENDROOT
BRANCH   1   2
ATOM      2  C   UNL     1      74.550 -73.099  -3.787  1.00  0.00     0.000 C 
BRANCH   2   3
ATOM      3  C   UNL     1      74.736 -71.981  -2.742  1.00  0.00     0.006 C 
BRANCH   3   4
ATOM      4  C   UNL     1      74.477 -72.440  -1.298  1.00  0.00     0.053 C 
BRANCH   4   5
ATOM      5  C   UNL     1      73.575 -71.503  -0.558  1.00  0.00     0.041 C 
ATOM      6  O   UNL     1      74.058 -70.653   0.237  1.00  0.00    -0.550 OA
ATOM      7  O   UNL     1      72.199 -71.583  -0.728  1.00  0.00    -0.550 OA
ENDBRANCH   4   5
ENDBRANCH   3   4
ENDBRANCH   2   3
ENDBRANCH   1   2
BRANCH   1   8
ATOM      8  C   UNL     1      76.196 -75.038  -4.084  1.00  0.00     0.000 C 
BRANCH   8   9
ATOM      9  C   UNL     1      77.524 -74.330  -3.784  1.00  0.00     0.000 C 
BRANCH   9  10
ATOM     10  C   UNL     1      77.764 -74.230  -2.270  1.00  0.00     0.006 C 
BRANCH  10  11
ATOM     11  C   UNL     1      78.543 -75.432  -1.723  1.00  0.00     0.053 C 
BRANCH  11  12
ATOM     12  C   UNL     1      77.678 -76.323  -0.886  1.00  0.00     0.041 C 
ATOM     13  O   UNL     1      77.981 -77.536  -0.731  1.00  0.00    -0.550 OA
ATOM     14  O   UNL     1      76.519 -75.824  -0.305  1.00  0.00    -0.550 OA
ENDBRANCH  11  12
ENDBRANCH  10  11
ENDBRANCH   9  10
ENDBRANCH   8   9
ENDBRANCH   1   8
TORSDOF 9
ENDMDL
MODEL 5
REMARK VINA RESULT:    -3.753      1.714      2.991
REMARK INTER + INTRA:          -6.375
REMARK INTER:                  -5.625
REMARK INTRA:                  -0.750
REMARK UNBOUND:                -0.648
REMARK SMILES O=C([O-])CCCCCCCCC(=O)[O-]
REMARK SMILES IDX 7 1 6 2 5 3 4 4 2 5 1 6 3 7 8 8 9 9 10 10 11 11 12 12 13 13
REMARK SMILES IDX 14 14
REMARK H PARENT
REMARK Flexibility Score: inf
ROOT
ATOM      1  C   UNL     1      78.023 -75.873  -3.299  1.00  0.00     0.000 C 
ENDROOT
BRANCH   1   2
ATOM      2  C   UNL     1      78.365 -75.492  -1.847  1.00  0.00     0.000 C 
BRANCH   2   3
ATOM      3  C   UNL     1      77.672 -76.410  -0.820  1.00  0.00     0.006 C 
BRANCH   3   4
ATOM      4  C   UNL     1      77.428 -77.838  -1.337  1.00  0.00     0.053 C 
BRANCH   4   5
ATOM      5  C   UNL     1      78.593 -78.741  -1.079  1.00  0.00     0.041 C 
ATOM      6  O   UNL     1      78.641 -79.426  -0.023  1.00  0.00    -0.550 OA
ATOM      7  O   UNL     1      79.636 -78.809  -1.992  1.00  0.00    -0.550 OA
ENDBRANCH   4   5
ENDBRANCH   3   4
ENDBRANCH   2   3
ENDBRANCH   1   2
BRANCH   1   8
ATOM      8  C   UNL     1      77.361 -74.721  -4.073  1.00  0.00     0.000 C 
BRANCH   8   9
ATOM      9  C   UNL     1      77.542 -73.361  -3.384  1.00  0.00     0.000 C 
BRANCH   9  10
ATOM     10  C   UNL     1      76.268 -72.512  -3.501  1.00  0.00     0.006 C 
BRANCH  10  11
ATOM     11  C   UNL     1      75.046 -73.209  -2.891  1.00  0.00     0.053 C 
BRANCH  11  12
ATOM     12  C   UNL     1      74.883 -72.879  -1.438  1.00  0.00     0.041 C 
ATOM     13  O   UNL     1      75.366 -73.641  -0.559  1.00  0.00    -0.550 OA
ATOM     14  O   UNL     1      74.171 -71.750  -1.055  1.00  0.00    -0.550 OA
ENDBRANCH  11  12
ENDBRANCH  10  11
ENDBRANCH   9  10
ENDBRANCH   8   9
ENDBRANCH   1   8
TORSDOF 9
ENDMDL
MODEL 6
REMARK VINA RESULT:    -3.727      1.651      6.198
REMARK INTER + INTRA:          -6.335
REMARK INTER:                  -5.588
REMARK INTRA:                  -0.747
REMARK UNBOUND:                -0.648
REMARK SMILES O=C([O-])CCCCCCCCC(=O)[O-]
REMARK SMILES IDX 7 1 6 2 5 3 4 4 2 5 1 6 3 7 8 8 9 9 10 10 11 11 12 12 13 13
REMARK SMILES IDX 14 14
REMARK H PARENT
REMARK Flexibility Score: inf
ROOT
ATOM      1  C   UNL     1      77.537 -74.361  -4.117  1.00  0.00     0.000 C 
ENDROOT
BRANCH   1   2
ATOM      2  C   UNL     1      77.366 -73.023  -3.376  1.00  0.00     0.000 C 
BRANCH   2   3
ATOM      3  C   UNL     1      75.970 -72.405  -3.592  1.00  0.00     0.006 C 
BRANCH   3   4
ATOM      4  C   UNL     1      74.846 -73.157  -2.860  1.00  0.00     0.053 C 
BRANCH   4   5
ATOM      5  C   UNL     1      74.813 -72.844  -1.397  1.00  0.00     0.041 C 
ATOM      6  O   UNL     1      75.315 -73.647  -0.567  1.00  0.00    -0.550 OA
ATOM      7  O   UNL     1      74.209 -71.677  -0.949  1.00  0.00    -0.550 OA
ENDBRANCH   4   5
ENDBRANCH   3   4
ENDBRANCH   2   3
ENDBRANCH   1   2
BRANCH   1   8
ATOM      8  C   UNL     1      77.577 -75.566  -3.162  1.00  0.00     0.000 C 
BRANCH   8   9
ATOM      9  C   UNL     1      78.221 -75.229  -1.809  1.00  0.00     0.000 C 
BRANCH   9  10
ATOM     10  C   UNL     1      77.780 -76.226  -0.728  1.00  0.00     0.006 C 
BRANCH  10  11
ATOM     11  C   UNL     1      77.466 -77.612  -1.306  1.00  0.00     0.053 C 
BRANCH  11  12
ATOM     12  C   UNL     1      78.616 -78.558  -1.142  1.00  0.00     0.041 C 
ATOM     13  O   UNL     1      79.543 -78.580  -1.995  1.00  0.00    -0.550 OA
ATOM     14  O   UNL     1      78.647 -79.437  -0.067  1.00  0.00    -0.550 OA
ENDBRANCH  11  12
ENDBRANCH  10  11
ENDBRANCH   9  10
ENDBRANCH   8   9
ENDBRANCH   1   8
TORSDOF 9
ENDMDL
MODEL 7
REMARK VINA RESULT:    -3.690      1.330      2.161
REMARK INTER + INTRA:          -6.280
REMARK INTER:                  -5.459
REMARK INTRA:                  -0.820
REMARK UNBOUND:                -0.648
REMARK SMILES O=C([O-])CCCCCCCCC(=O)[O-]
REMARK SMILES IDX 7 1 6 2 5 3 4 4 2 5 1 6 3 7 8 8 9 9 10 10 11 11 12 12 13 13
REMARK SMILES IDX 14 14
REMARK H PARENT
REMARK Flexibility Score: inf
ROOT
ATOM      1  C   UNL     1      77.497 -74.671  -4.093  1.00  0.00     0.000 C 
ENDROOT
BRANCH   1   2
ATOM      2  C   UNL     1      78.069 -75.817  -3.239  1.00  0.00     0.000 C 
BRANCH   2   3
ATOM      3  C   UNL     1      78.382 -75.374  -1.795  1.00  0.00     0.006 C 
BRANCH   3   4
ATOM      4  C   UNL     1      77.535 -76.096  -0.734  1.00  0.00     0.053 C 
BRANCH   4   5
ATOM      5  C   UNL     1      77.443 -77.568  -0.987  1.00  0.00     0.041 C 
ATOM      6  O   UNL     1      78.437 -78.310  -0.772  1.00  0.00    -0.550 OA
ATOM      7  O   UNL     1      76.267 -78.117  -1.481  1.00  0.00    -0.550 OA
ENDBRANCH   4   5
ENDBRANCH   3   4
ENDBRANCH   2   3
ENDBRANCH   1   2
BRANCH   1   8
ATOM      8  C   UNL     1      77.514 -73.320  -3.360  1.00  0.00     0.000 C 
BRANCH   8   9
ATOM      9  C   UNL     1      76.224 -72.513  -3.571  1.00  0.00     0.000 C 
BRANCH   9  10
ATOM     10  C   UNL     1      75.015 -73.247  -2.974  1.00  0.00     0.006 C 
BRANCH  10  11
ATOM     11  C   UNL     1      75.072 -73.316  -1.443  1.00  0.00     0.053 C 
BRANCH  11  12
ATOM     12  C   UNL     1      73.993 -72.495  -0.808  1.00  0.00     0.041 C 
ATOM     13  O   UNL     1      72.976 -73.055  -0.319  1.00  0.00    -0.550 OA
ATOM     14  O   UNL     1      74.092 -71.109  -0.785  1.00  0.00    -0.550 OA
ENDBRANCH  11  12
ENDBRANCH  10  11
ENDBRANCH   9  10
ENDBRANCH   8   9
ENDBRANCH   1   8
TORSDOF 9
ENDMDL
MODEL 8
REMARK VINA RESULT:    -3.678      2.313      3.635
REMARK INTER + INTRA:          -6.260
REMARK INTER:                  -5.266
REMARK INTRA:                  -0.994
REMARK UNBOUND:                -0.648
REMARK SMILES O=C([O-])CCCCCCCCC(=O)[O-]
REMARK SMILES IDX 7 1 6 2 5 3 4 4 2 5 1 6 3 7 8 8 9 9 10 10 11 11 12 12 13 13
REMARK SMILES IDX 14 14
REMARK H PARENT
REMARK Flexibility Score: inf
ROOT
ATOM      1  C   UNL     1      78.304 -75.196  -2.096  1.00  0.00     0.000 C 
ENDROOT
BRANCH   1   2
ATOM      2  C   UNL     1      78.082 -76.462  -1.249  1.00  0.00     0.000 C 
BRANCH   2   3
ATOM      3  C   UNL     1      76.977 -76.275  -0.190  1.00  0.00     0.006 C 
BRANCH   3   4
ATOM      4  C   UNL     1      75.559 -76.513  -0.734  1.00  0.00     0.053 C 
BRANCH   4   5
ATOM      5  C   UNL     1      74.833 -75.232  -1.004  1.00  0.00     0.041 C 
ATOM      6  O   UNL     1      75.124 -74.191  -0.358  1.00  0.00    -0.550 OA
ATOM      7  O   UNL     1      73.818 -75.194  -1.950  1.00  0.00    -0.550 OA
ENDBRANCH   4   5
ENDBRANCH   3   4
ENDBRANCH   2   3
ENDBRANCH   1   2
BRANCH   1   8
ATOM      8  C   UNL     1      77.860 -75.375  -3.557  1.00  0.00     0.000 C 
BRANCH   8   9
ATOM      9  C   UNL     1      76.831 -74.324  -3.998  1.00  0.00     0.000 C 
BRANCH   9  10
ATOM     10  C   UNL     1      77.020 -73.012  -3.223  1.00  0.00     0.006 C 
BRANCH  10  11
ATOM     11  C   UNL     1      76.167 -71.871  -3.792  1.00  0.00     0.053 C 
BRANCH  11  12
ATOM     12  C   UNL     1      74.790 -71.857  -3.201  1.00  0.00     0.041 C 
ATOM     13  O   UNL     1      74.595 -71.348  -2.065  1.00  0.00    -0.550 OA
ATOM     14  O   UNL     1      73.730 -72.435  -3.888  1.00  0.00    -0.550 OA
ENDBRANCH  11  12
ENDBRANCH  10  11
ENDBRANCH   9  10
ENDBRANCH   8   9
ENDBRANCH   1   8
TORSDOF 9
ENDMDL
MODEL 9
REMARK VINA RESULT:    -3.573      0.794      5.747
REMARK INTER + INTRA:          -6.100
REMARK INTER:                  -5.265
REMARK INTRA:                  -0.835
REMARK UNBOUND:                -0.648
REMARK SMILES O=C([O-])CCCCCCCCC(=O)[O-]
REMARK SMILES IDX 7 1 6 2 5 3 4 4 2 5 1 6 3 7 8 8 9 9 10 10 11 11 12 12 13 13
REMARK SMILES IDX 14 14
REMARK H PARENT
REMARK Flexibility Score: inf
ROOT
ATOM      1  C   UNL     1      75.062 -71.768  -3.171  1.00  0.00     0.000 C 
ENDROOT
BRANCH   1   2
ATOM      2  C   UNL     1      73.831 -72.667  -2.959  1.00  0.00     0.000 C 
BRANCH   2   3
ATOM      3  C   UNL     1      73.363 -72.686  -1.490  1.00  0.00     0.006 C 
BRANCH   3   4
ATOM      4  C   UNL     1      74.120 -71.695  -0.591  1.00  0.00     0.053 C 
BRANCH   4   5
ATOM      5  C   UNL     1      73.201 -70.733   0.094  1.00  0.00     0.041 C 
ATOM      6  O   UNL     1      71.986 -71.024   0.256  1.00  0.00    -0.550 OA
ATOM      7  O   UNL     1      73.679 -69.506   0.533  1.00  0.00    -0.550 OA
ENDBRANCH   4   5
ENDBRANCH   3   4
ENDBRANCH   2   3
ENDBRANCH   1   2
BRANCH   1   8
ATOM      8  C   UNL     1      76.094 -72.391  -4.125  1.00  0.00     0.000 C 
BRANCH   8   9
ATOM      9  C   UNL     1      76.529 -73.799  -3.693  1.00  0.00     0.000 C 
BRANCH   9  10
ATOM     10  C   UNL     1      77.270 -73.756  -2.349  1.00  0.00     0.006 C 
BRANCH  10  11
ATOM     11  C   UNL     1      76.706 -74.765  -1.340  1.00  0.00     0.053 C 
BRANCH  11  12
ATOM     12  C   UNL     1      77.664 -75.888  -1.082  1.00  0.00     0.041 C 
ATOM     13  O   UNL     1      78.835 -75.840  -1.543  1.00  0.00    -0.550 OA
ATOM     14  O   UNL     1      77.253 -77.003  -0.362  1.00  0.00    -0.550 OA
ENDBRANCH  11  12
ENDBRANCH  10  11
ENDBRANCH   9  10
ENDBRANCH   8   9
ENDBRANCH   1   8
TORSDOF 9
ENDMDL
