MODEL 1
REMARK VINA RESULT:    -6.728      0.000      0.000
REMARK INTER + INTRA:         -10.359
REMARK INTER:                  -8.892
REMARK INTRA:                  -1.467
REMARK UNBOUND:                -1.467
REMARK SMILES C=C(CC[C@@H](C)[C@@H]1CC[C@@]2(C)[C@@H]3CC[C@@H]4C(C)(C)[C@H](O)CC[C@]45C[C@]35CC[C@@]12C)C(C)C
REMARK SMILES IDX 4 1 3 2 2 3 1 4 30 5 31 6 32 7 5 8 6 9 7 10 8 11 28 12 9 13
REMARK SMILES IDX 10 14 27 15 29 16 11 17 12 18 26 19 25 20 13 21 23 22 24 23
REMARK SMILES IDX 14 24 15 25 22 26 16 27 21 28 19 29 17 30 18 31 20 32
REMARK H PARENT 20 33
REMARK Flexibility Score: inf
ROOT
ATOM      1  C   UNL     1     113.496 121.658 124.628  1.00  0.00     0.008 C 
ENDROOT
BRANCH   1   2
ATOM      2  C   UNL     1     113.362 120.179 124.211  1.00  0.00     0.031 C 
BRANCH   2   3
ATOM      3  C   UNL     1     113.256 119.212 125.378  1.00  0.00    -0.075 C 
ATOM      4  C   UNL     1     112.204 118.382 125.437  1.00  0.00     0.008 C 
BRANCH   3   5
ATOM      5  C   UNL     1     114.254 119.194 126.540  1.00  0.00     0.008 C 
ATOM      6  C   UNL     1     113.936 118.035 127.499  1.00  0.00     0.012 C 
ATOM      7  C   UNL     1     115.732 119.151 126.109  1.00  0.00     0.012 C 
ENDBRANCH   3   5
ENDBRANCH   2   3
ENDBRANCH   1   2
BRANCH   1   8
ATOM      8  C   UNL     1     114.495 122.550 123.828  1.00  0.00    -0.010 C 
ATOM      9  C   UNL     1     114.470 124.004 124.331  1.00  0.00     0.008 C 
BRANCH   8  10
ATOM     10  C   UNL     1     115.934 121.896 123.641  1.00  0.00    -0.002 C 
ATOM     11  C   UNL     1     117.113 122.724 124.188  1.00  0.00     0.005 C 
ATOM     12  C   UNL     1     116.377 121.396 122.193  1.00  0.00    -0.024 C 
ATOM     13  C   UNL     1     118.322 122.320 123.365  1.00  0.00     0.008 C 
ATOM     14  C   UNL     1     117.805 122.040 121.936  1.00  0.00    -0.024 C 
ATOM     15  C   UNL     1     116.513 119.848 122.249  1.00  0.00     0.008 C 
ATOM     16  C   UNL     1     115.357 121.727 121.059  1.00  0.00     0.012 C 
ATOM     17  C   UNL     1     117.653 123.427 121.214  1.00  0.00     0.012 C 
ATOM     18  C   UNL     1     118.850 121.085 121.186  1.00  0.00     0.002 C 
ATOM     19  C   UNL     1     116.984 119.225 120.938  1.00  0.00     0.008 C 
ATOM     20  C   UNL     1     118.177 119.993 120.307  1.00  0.00    -0.020 C 
ATOM     21  C   UNL     1     119.996 121.866 120.490  1.00  0.00     0.005 C 
ATOM     22  C   UNL     1     119.143 119.162 119.423  1.00  0.00    -0.020 C 
ATOM     23  C   UNL     1     118.167 120.152 118.780  1.00  0.00     0.015 C 
ATOM     24  C   UNL     1     120.977 121.038 119.653  1.00  0.00     0.005 C 
ATOM     25  C   UNL     1     120.658 119.520 119.531  1.00  0.00     0.004 C 
ATOM     26  C   UNL     1     118.817 117.654 119.258  1.00  0.00     0.010 C 
ATOM     27  C   UNL     1     121.489 118.809 118.395  1.00  0.00    -0.006 C 
ATOM     28  C   UNL     1     119.735 116.940 118.266  1.00  0.00     0.033 C 
ATOM     29  C   UNL     1     121.217 117.273 118.483  1.00  0.00     0.120 C 
ATOM     30  C   UNL     1     123.007 119.048 118.607  1.00  0.00     0.014 C 
ATOM     31  C   UNL     1     121.111 119.342 116.979  1.00  0.00     0.014 C 
BRANCH  29  32
ATOM     32  O   UNL     1     121.964 116.562 117.526  1.00  0.00    -0.393 OA
ATOM     33  H   UNL     1     122.497 115.884 118.015  1.00  0.00     0.210 HD
ENDBRANCH  29  32
ENDBRANCH   8  10
ENDBRANCH   1   8
TORSDOF 6
ENDMDL
MODEL 2
REMARK VINA RESULT:    -6.681      3.658      5.431
REMARK INTER + INTRA:         -10.296
REMARK INTER:                  -8.913
REMARK INTRA:                  -1.384
REMARK UNBOUND:                -1.467
REMARK SMILES C=C(CC[C@@H](C)[C@@H]1CC[C@@]2(C)[C@@H]3CC[C@@H]4C(C)(C)[C@H](O)CC[C@]45C[C@]35CC[C@@]12C)C(C)C
REMARK SMILES IDX 4 1 3 2 2 3 1 4 30 5 31 6 32 7 5 8 6 9 7 10 8 11 28 12 9 13
REMARK SMILES IDX 10 14 27 15 29 16 11 17 12 18 26 19 25 20 13 21 23 22 24 23
REMARK SMILES IDX 14 24 15 25 22 26 16 27 21 28 19 29 17 30 18 31 20 32
REMARK H PARENT 20 33
REMARK Flexibility Score: inf
ROOT
ATOM      1  C   UNL     1     114.252 124.429 123.294  1.00  0.00     0.008 C 
ENDROOT
BRANCH   1   2
ATOM      2  C   UNL     1     115.003 124.468 124.642  1.00  0.00     0.031 C 
BRANCH   2   3
ATOM      3  C   UNL     1     115.358 125.867 125.113  1.00  0.00    -0.075 C 
ATOM      4  C   UNL     1     116.143 126.631 124.339  1.00  0.00     0.008 C 
BRANCH   3   5
ATOM      5  C   UNL     1     114.928 126.425 126.474  1.00  0.00     0.008 C 
ATOM      6  C   UNL     1     115.976 127.419 127.000  1.00  0.00     0.012 C 
ATOM      7  C   UNL     1     113.525 127.059 126.488  1.00  0.00     0.012 C 
ENDBRANCH   3   5
ENDBRANCH   2   3
ENDBRANCH   1   2
BRANCH   1   8
ATOM      8  C   UNL     1     114.889 123.605 122.133  1.00  0.00    -0.010 C 
ATOM      9  C   UNL     1     113.955 123.550 120.911  1.00  0.00     0.008 C 
BRANCH   8  10
ATOM     10  C   UNL     1     116.410 123.976 121.838  1.00  0.00    -0.002 C 
ATOM     11  C   UNL     1     116.715 124.411 120.392  1.00  0.00     0.005 C 
ATOM     12  C   UNL     1     117.553 122.940 122.241  1.00  0.00    -0.024 C 
ATOM     13  C   UNL     1     118.173 124.066 120.154  1.00  0.00     0.008 C 
ATOM     14  C   UNL     1     118.450 122.768 120.943  1.00  0.00    -0.024 C 
ATOM     15  C   UNL     1     118.401 123.590 123.371  1.00  0.00     0.008 C 
ATOM     16  C   UNL     1     117.022 121.579 122.789  1.00  0.00     0.012 C 
ATOM     17  C   UNL     1     117.922 121.570 120.073  1.00  0.00     0.012 C 
ATOM     18  C   UNL     1     120.024 122.657 121.221  1.00  0.00     0.002 C 
ATOM     19  C   UNL     1     119.576 122.729 123.828  1.00  0.00     0.008 C 
ATOM     20  C   UNL     1     120.370 122.123 122.640  1.00  0.00    -0.020 C 
ATOM     21  C   UNL     1     120.801 121.977 120.063  1.00  0.00     0.005 C 
ATOM     22  C   UNL     1     121.872 121.830 122.893  1.00  0.00    -0.020 C 
ATOM     23  C   UNL     1     120.865 120.678 122.805  1.00  0.00     0.015 C 
ATOM     24  C   UNL     1     122.294 121.728 120.296  1.00  0.00     0.005 C 
ATOM     25  C   UNL     1     122.840 122.110 121.701  1.00  0.00     0.004 C 
ATOM     26  C   UNL     1     122.423 122.168 124.303  1.00  0.00     0.010 C 
ATOM     27  C   UNL     1     124.273 121.516 121.985  1.00  0.00    -0.006 C 
ATOM     28  C   UNL     1     123.871 121.723 124.511  1.00  0.00     0.033 C 
ATOM     29  C   UNL     1     124.783 122.105 123.339  1.00  0.00     0.120 C 
ATOM     30  C   UNL     1     125.262 121.936 120.867  1.00  0.00     0.014 C 
ATOM     31  C   UNL     1     124.252 119.958 122.049  1.00  0.00     0.014 C 
BRANCH  29  32
ATOM     32  O   UNL     1     126.083 121.655 123.638  1.00  0.00    -0.393 OA
ATOM     33  H   UNL     1     126.508 121.397 122.781  1.00  0.00     0.210 HD
ENDBRANCH  29  32
ENDBRANCH   8  10
ENDBRANCH   1   8
TORSDOF 6
ENDMDL
MODEL 3
REMARK VINA RESULT:    -6.489      4.284     11.007
REMARK INTER + INTRA:         -10.043
REMARK INTER:                  -8.184
REMARK INTRA:                  -1.859
REMARK UNBOUND:                -1.467
REMARK SMILES C=C(CC[C@@H](C)[C@@H]1CC[C@@]2(C)[C@@H]3CC[C@@H]4C(C)(C)[C@H](O)CC[C@]45C[C@]35CC[C@@]12C)C(C)C
REMARK SMILES IDX 4 1 3 2 2 3 1 4 30 5 31 6 32 7 5 8 6 9 7 10 8 11 28 12 9 13
REMARK SMILES IDX 10 14 27 15 29 16 11 17 12 18 26 19 25 20 13 21 23 22 24 23
REMARK SMILES IDX 14 24 15 25 22 26 16 27 21 28 19 29 17 30 18 31 20 32
REMARK H PARENT 20 33
REMARK Flexibility Score: inf
ROOT
ATOM      1  C   UNL     1     127.076 120.067 113.359  1.00  0.00     0.008 C 
ENDROOT
BRANCH   1   2
ATOM      2  C   UNL     1     126.218 120.236 112.087  1.00  0.00     0.031 C 
BRANCH   2   3
ATOM      3  C   UNL     1     124.841 120.823 112.343  1.00  0.00    -0.075 C 
ATOM      4  C   UNL     1     124.734 122.136 112.596  1.00  0.00     0.008 C 
BRANCH   3   5
ATOM      5  C   UNL     1     123.569 119.972 112.408  1.00  0.00     0.008 C 
ATOM      6  C   UNL     1     122.455 120.610 111.562  1.00  0.00     0.012 C 
ATOM      7  C   UNL     1     123.770 118.496 112.015  1.00  0.00     0.012 C 
ENDBRANCH   3   5
ENDBRANCH   2   3
ENDBRANCH   1   2
BRANCH   1   8
ATOM      8  C   UNL     1     126.583 119.053 114.437  1.00  0.00    -0.010 C 
ATOM      9  C   UNL     1     127.714 118.100 114.864  1.00  0.00     0.008 C 
BRANCH   8  10
ATOM     10  C   UNL     1     125.746 119.721 115.615  1.00  0.00    -0.002 C 
ATOM     11  C   UNL     1     126.546 120.052 116.890  1.00  0.00     0.005 C 
ATOM     12  C   UNL     1     124.400 119.020 116.104  1.00  0.00    -0.024 C 
ATOM     13  C   UNL     1     125.544 120.019 118.028  1.00  0.00     0.008 C 
ATOM     14  C   UNL     1     124.524 118.911 117.682  1.00  0.00    -0.024 C 
ATOM     15  C   UNL     1     123.218 119.965 115.744  1.00  0.00     0.008 C 
ATOM     16  C   UNL     1     124.110 117.644 115.428  1.00  0.00     0.012 C 
ATOM     17  C   UNL     1     125.173 117.537 118.083  1.00  0.00     0.012 C 
ATOM     18  C   UNL     1     123.167 119.189 118.487  1.00  0.00     0.002 C 
ATOM     19  C   UNL     1     121.857 119.446 116.201  1.00  0.00     0.008 C 
ATOM     20  C   UNL     1     121.882 118.907 117.656  1.00  0.00    -0.020 C 
ATOM     21  C   UNL     1     123.167 118.577 119.913  1.00  0.00     0.005 C 
ATOM     22  C   UNL     1     120.549 118.988 118.446  1.00  0.00    -0.020 C 
ATOM     23  C   UNL     1     121.064 117.638 117.937  1.00  0.00     0.015 C 
ATOM     24  C   UNL     1     121.864 118.697 120.708  1.00  0.00     0.005 C 
ATOM     25  C   UNL     1     120.664 119.345 119.960  1.00  0.00     0.004 C 
ATOM     26  C   UNL     1     119.332 119.596 117.700  1.00  0.00     0.010 C 
ATOM     27  C   UNL     1     119.289 119.124 120.699  1.00  0.00    -0.006 C 
ATOM     28  C   UNL     1     118.030 119.513 118.497  1.00  0.00     0.033 C 
ATOM     29  C   UNL     1     118.198 119.959 119.955  1.00  0.00     0.120 C 
ATOM     30  C   UNL     1     119.376 119.629 122.163  1.00  0.00     0.014 C 
ATOM     31  C   UNL     1     118.885 117.619 120.733  1.00  0.00     0.014 C 
BRANCH  29  32
ATOM     32  O   UNL     1     116.945 119.849 120.588  1.00  0.00    -0.393 OA
ATOM     33  H   UNL     1     116.633 120.769 120.781  1.00  0.00     0.210 HD
ENDBRANCH  29  32
ENDBRANCH   8  10
ENDBRANCH   1   8
TORSDOF 6
ENDMDL
MODEL 4
REMARK VINA RESULT:    -6.403      3.486      9.267
REMARK INTER + INTRA:          -9.929
REMARK INTER:                  -8.691
REMARK INTRA:                  -1.237
REMARK UNBOUND:                -1.467
REMARK SMILES C=C(CC[C@@H](C)[C@@H]1CC[C@@]2(C)[C@@H]3CC[C@@H]4C(C)(C)[C@H](O)CC[C@]45C[C@]35CC[C@@]12C)C(C)C
REMARK SMILES IDX 4 1 3 2 2 3 1 4 30 5 31 6 32 7 5 8 6 9 7 10 8 11 28 12 9 13
REMARK SMILES IDX 10 14 27 15 29 16 11 17 12 18 26 19 25 20 13 21 23 22 24 23
REMARK SMILES IDX 14 24 15 25 22 26 16 27 21 28 19 29 17 30 18 31 20 32
REMARK H PARENT 20 33
REMARK Flexibility Score: inf
ROOT
ATOM      1  C   UNL     1     121.120 117.885 116.557  1.00  0.00     0.008 C 
ENDROOT
BRANCH   1   2
ATOM      2  C   UNL     1     120.845 119.064 115.599  1.00  0.00     0.031 C 
BRANCH   2   3
ATOM      3  C   UNL     1     121.932 119.286 114.562  1.00  0.00    -0.075 C 
ATOM      4  C   UNL     1     123.085 119.855 114.945  1.00  0.00     0.008 C 
BRANCH   3   5
ATOM      5  C   UNL     1     121.748 118.965 113.076  1.00  0.00     0.008 C 
ATOM      6  C   UNL     1     122.256 120.129 112.210  1.00  0.00     0.012 C 
ATOM      7  C   UNL     1     122.385 117.636 112.627  1.00  0.00     0.012 C 
ENDBRANCH   3   5
ENDBRANCH   2   3
ENDBRANCH   1   2
BRANCH   1   8
ATOM      8  C   UNL     1     121.280 118.206 118.074  1.00  0.00    -0.010 C 
ATOM      9  C   UNL     1     122.650 117.742 118.601  1.00  0.00     0.008 C 
BRANCH   8  10
ATOM     10  C   UNL     1     120.840 119.684 118.470  1.00  0.00    -0.002 C 
ATOM     11  C   UNL     1     121.972 120.598 118.977  1.00  0.00     0.005 C 
ATOM     12  C   UNL     1     119.621 119.887 119.478  1.00  0.00    -0.024 C 
ATOM     13  C   UNL     1     121.308 121.618 119.883  1.00  0.00     0.008 C 
ATOM     14  C   UNL     1     120.150 120.884 120.594  1.00  0.00    -0.024 C 
ATOM     15  C   UNL     1     118.464 120.563 118.690  1.00  0.00     0.008 C 
ATOM     16  C   UNL     1     119.055 118.561 120.077  1.00  0.00     0.012 C 
ATOM     17  C   UNL     1     120.772 120.079 121.791  1.00  0.00     0.012 C 
ATOM     18  C   UNL     1     119.080 121.968 121.092  1.00  0.00     0.002 C 
ATOM     19  C   UNL     1     117.237 120.870 119.543  1.00  0.00     0.008 C 
ATOM     20  C   UNL     1     117.604 121.516 120.906  1.00  0.00    -0.020 C 
ATOM     21  C   UNL     1     119.411 122.550 122.492  1.00  0.00     0.005 C 
ATOM     22  C   UNL     1     116.538 122.451 121.536  1.00  0.00    -0.020 C 
ATOM     23  C   UNL     1     116.792 121.061 122.128  1.00  0.00     0.015 C 
ATOM     24  C   UNL     1     118.378 123.509 123.094  1.00  0.00     0.005 C 
ATOM     25  C   UNL     1     117.078 123.719 122.267  1.00  0.00     0.004 C 
ATOM     26  C   UNL     1     115.218 122.641 120.743  1.00  0.00     0.010 C 
ATOM     27  C   UNL     1     115.935 124.426 123.092  1.00  0.00    -0.006 C 
ATOM     28  C   UNL     1     114.172 123.463 121.495  1.00  0.00     0.033 C 
ATOM     29  C   UNL     1     114.755 124.739 122.117  1.00  0.00     0.120 C 
ATOM     30  C   UNL     1     116.446 125.765 123.684  1.00  0.00     0.014 C 
ATOM     31  C   UNL     1     115.437 123.537 124.272  1.00  0.00     0.014 C 
BRANCH  29  32
ATOM     32  O   UNL     1     113.710 125.415 122.774  1.00  0.00    -0.393 OA
ATOM     33  H   UNL     1     112.859 125.078 122.395  1.00  0.00     0.210 HD
ENDBRANCH  29  32
ENDBRANCH   8  10
ENDBRANCH   1   8
TORSDOF 6
ENDMDL
MODEL 5
REMARK VINA RESULT:    -6.384      2.888      4.217
REMARK INTER + INTRA:          -9.903
REMARK INTER:                  -8.734
REMARK INTRA:                  -1.170
REMARK UNBOUND:                -1.467
REMARK SMILES C=C(CC[C@@H](C)[C@@H]1CC[C@@]2(C)[C@@H]3CC[C@@H]4C(C)(C)[C@H](O)CC[C@]45C[C@]35CC[C@@]12C)C(C)C
REMARK SMILES IDX 4 1 3 2 2 3 1 4 30 5 31 6 32 7 5 8 6 9 7 10 8 11 28 12 9 13
REMARK SMILES IDX 10 14 27 15 29 16 11 17 12 18 26 19 25 20 13 21 23 22 24 23
REMARK SMILES IDX 14 24 15 25 22 26 16 27 21 28 19 29 17 30 18 31 20 32
REMARK H PARENT 20 33
REMARK Flexibility Score: inf
ROOT
ATOM      1  C   UNL     1     113.723 121.457 123.147  1.00  0.00     0.008 C 
ENDROOT
BRANCH   1   2
ATOM      2  C   UNL     1     113.599 119.968 123.534  1.00  0.00     0.031 C 
BRANCH   2   3
ATOM      3  C   UNL     1     114.062 119.654 124.946  1.00  0.00    -0.075 C 
ATOM      4  C   UNL     1     115.351 119.850 125.262  1.00  0.00     0.008 C 
BRANCH   3   5
ATOM      5  C   UNL     1     113.145 119.044 126.010  1.00  0.00     0.008 C 
ATOM      6  C   UNL     1     111.950 118.341 125.348  1.00  0.00     0.012 C 
ATOM      7  C   UNL     1     113.856 118.095 126.994  1.00  0.00     0.012 C 
ENDBRANCH   3   5
ENDBRANCH   2   3
ENDBRANCH   1   2
BRANCH   1   8
ATOM      8  C   UNL     1     114.317 121.794 121.745  1.00  0.00    -0.010 C 
ATOM      9  C   UNL     1     113.242 122.375 120.809  1.00  0.00     0.008 C 
BRANCH   8  10
ATOM     10  C   UNL     1     115.698 122.584 121.802  1.00  0.00    -0.002 C 
ATOM     11  C   UNL     1     115.962 123.543 120.625  1.00  0.00     0.005 C 
ATOM     12  C   UNL     1     117.050 121.768 122.022  1.00  0.00    -0.024 C 
ATOM     13  C   UNL     1     117.470 123.646 120.504  1.00  0.00     0.008 C 
ATOM     14  C   UNL     1     118.036 122.259 120.878  1.00  0.00    -0.024 C 
ATOM     15  C   UNL     1     117.627 122.173 123.408  1.00  0.00     0.008 C 
ATOM     16  C   UNL     1     116.870 120.218 122.034  1.00  0.00     0.012 C 
ATOM     17  C   UNL     1     117.898 121.340 119.611  1.00  0.00     0.012 C 
ATOM     18  C   UNL     1     119.563 122.428 121.331  1.00  0.00     0.002 C 
ATOM     19  C   UNL     1     118.959 121.505 123.737  1.00  0.00     0.008 C 
ATOM     20  C   UNL     1     119.954 121.540 122.546  1.00  0.00    -0.020 C 
ATOM     21  C   UNL     1     120.560 122.380 120.143  1.00  0.00     0.005 C 
ATOM     22  C   UNL     1     121.463 121.534 122.907  1.00  0.00    -0.020 C 
ATOM     23  C   UNL     1     120.805 120.281 122.320  1.00  0.00     0.015 C 
ATOM     24  C   UNL     1     122.049 122.420 120.498  1.00  0.00     0.005 C 
ATOM     25  C   UNL     1     122.389 122.418 122.016  1.00  0.00     0.004 C 
ATOM     26  C   UNL     1     121.820 121.492 124.416  1.00  0.00     0.010 C 
ATOM     27  C   UNL     1     123.910 122.112 122.303  1.00  0.00    -0.006 C 
ATOM     28  C   UNL     1     123.319 121.350 124.681  1.00  0.00     0.033 C 
ATOM     29  C   UNL     1     124.164 122.308 123.831  1.00  0.00     0.120 C 
ATOM     30  C   UNL     1     124.815 123.103 121.526  1.00  0.00     0.014 C 
ATOM     31  C   UNL     1     124.301 120.665 121.873  1.00  0.00     0.014 C 
BRANCH  29  32
ATOM     32  O   UNL     1     125.517 122.097 124.159  1.00  0.00    -0.393 OA
ATOM     33  H   UNL     1     125.539 121.444 124.904  1.00  0.00     0.210 HD
ENDBRANCH  29  32
ENDBRANCH   8  10
ENDBRANCH   1   8
TORSDOF 6
ENDMDL
MODEL 6
REMARK VINA RESULT:    -6.308      7.488     11.094
REMARK INTER + INTRA:          -9.803
REMARK INTER:                  -8.138
REMARK INTRA:                  -1.665
REMARK UNBOUND:                -1.467
REMARK SMILES C=C(CC[C@@H](C)[C@@H]1CC[C@@]2(C)[C@@H]3CC[C@@H]4C(C)(C)[C@H](O)CC[C@]45C[C@]35CC[C@@]12C)C(C)C
REMARK SMILES IDX 4 1 3 2 2 3 1 4 30 5 31 6 32 7 5 8 6 9 7 10 8 11 28 12 9 13
REMARK SMILES IDX 10 14 27 15 29 16 11 17 12 18 26 19 25 20 13 21 23 22 24 23
REMARK SMILES IDX 14 24 15 25 22 26 16 27 21 28 19 29 17 30 18 31 20 32
REMARK H PARENT 20 33
REMARK Flexibility Score: inf
ROOT
ATOM      1  C   UNL     1     121.406 118.284 113.518  1.00  0.00     0.008 C 
ENDROOT
BRANCH   1   2
ATOM      2  C   UNL     1     122.635 118.495 112.609  1.00  0.00     0.031 C 
BRANCH   2   3
ATOM      3  C   UNL     1     123.044 119.948 112.447  1.00  0.00    -0.075 C 
ATOM      4  C   UNL     1     122.396 120.706 111.550  1.00  0.00     0.008 C 
BRANCH   3   5
ATOM      5  C   UNL     1     124.220 120.575 113.202  1.00  0.00     0.008 C 
ATOM      6  C   UNL     1     125.346 119.545 113.389  1.00  0.00     0.012 C 
ATOM      7  C   UNL     1     124.768 121.868 112.568  1.00  0.00     0.012 C 
ENDBRANCH   3   5
ENDBRANCH   2   3
ENDBRANCH   1   2
BRANCH   1   8
ATOM      8  C   UNL     1     121.556 118.628 115.032  1.00  0.00    -0.010 C 
ATOM      9  C   UNL     1     120.254 119.218 115.601  1.00  0.00     0.008 C 
BRANCH   8  10
ATOM     10  C   UNL     1     122.237 117.472 115.891  1.00  0.00    -0.002 C 
ATOM     11  C   UNL     1     121.275 116.641 116.761  1.00  0.00     0.005 C 
ATOM     12  C   UNL     1     123.482 117.828 116.820  1.00  0.00    -0.024 C 
ATOM     13  C   UNL     1     122.106 116.124 117.920  1.00  0.00     0.008 C 
ATOM     14  C   UNL     1     123.135 117.228 118.248  1.00  0.00    -0.024 C 
ATOM     15  C   UNL     1     124.727 117.096 116.243  1.00  0.00     0.008 C 
ATOM     16  C   UNL     1     123.829 119.349 116.877  1.00  0.00     0.012 C 
ATOM     17  C   UNL     1     122.402 118.305 119.126  1.00  0.00     0.012 C 
ATOM     18  C   UNL     1     124.373 116.567 119.021  1.00  0.00     0.002 C 
ATOM     19  C   UNL     1     125.996 117.302 117.064  1.00  0.00     0.008 C 
ATOM     20  C   UNL     1     125.754 117.139 118.589  1.00  0.00    -0.020 C 
ATOM     21  C   UNL     1     124.157 116.481 120.555  1.00  0.00     0.005 C 
ATOM     22  C   UNL     1     126.965 116.661 119.433  1.00  0.00    -0.020 C 
ATOM     23  C   UNL     1     126.491 118.116 119.515  1.00  0.00     0.015 C 
ATOM     24  C   UNL     1     125.338 115.967 121.384  1.00  0.00     0.005 C 
ATOM     25  C   UNL     1     126.648 115.673 120.597  1.00  0.00     0.004 C 
ATOM     26  C   UNL     1     128.290 116.402 118.670  1.00  0.00     0.010 C 
ATOM     27  C   UNL     1     127.900 115.487 121.538  1.00  0.00    -0.006 C 
ATOM     28  C   UNL     1     129.465 116.069 119.590  1.00  0.00     0.033 C 
ATOM     29  C   UNL     1     129.105 115.027 120.657  1.00  0.00     0.120 C 
ATOM     30  C   UNL     1     127.621 114.387 122.596  1.00  0.00     0.014 C 
ATOM     31  C   UNL     1     128.256 116.803 122.295  1.00  0.00     0.014 C 
BRANCH  29  32
ATOM     32  O   UNL     1     130.253 114.795 121.438  1.00  0.00    -0.393 OA
ATOM     33  H   UNL     1     129.948 114.421 122.303  1.00  0.00     0.210 HD
ENDBRANCH  29  32
ENDBRANCH   8  10
ENDBRANCH   1   8
TORSDOF 6
ENDMDL
MODEL 7
REMARK VINA RESULT:    -6.143      3.403     10.055
REMARK INTER + INTRA:          -9.586
REMARK INTER:                  -8.180
REMARK INTRA:                  -1.406
REMARK UNBOUND:                -1.467
REMARK SMILES C=C(CC[C@@H](C)[C@@H]1CC[C@@]2(C)[C@@H]3CC[C@@H]4C(C)(C)[C@H](O)CC[C@]45C[C@]35CC[C@@]12C)C(C)C
REMARK SMILES IDX 4 1 3 2 2 3 1 4 30 5 31 6 32 7 5 8 6 9 7 10 8 11 28 12 9 13
REMARK SMILES IDX 10 14 27 15 29 16 11 17 12 18 26 19 25 20 13 21 23 22 24 23
REMARK SMILES IDX 14 24 15 25 22 26 16 27 21 28 19 29 17 30 18 31 20 32
REMARK H PARENT 20 33
REMARK Flexibility Score: inf
ROOT
ATOM      1  C   UNL     1     121.415 117.899 113.177  1.00  0.00     0.008 C 
ENDROOT
BRANCH   1   2
ATOM      2  C   UNL     1     122.638 118.203 112.286  1.00  0.00     0.031 C 
BRANCH   2   3
ATOM      3  C   UNL     1     123.029 119.670 112.252  1.00  0.00    -0.075 C 
ATOM      4  C   UNL     1     122.166 120.558 111.736  1.00  0.00     0.008 C 
BRANCH   3   5
ATOM      5  C   UNL     1     124.401 120.180 112.704  1.00  0.00     0.008 C 
ATOM      6  C   UNL     1     125.521 119.389 112.009  1.00  0.00     0.012 C 
ATOM      7  C   UNL     1     124.610 121.695 112.519  1.00  0.00     0.012 C 
ENDBRANCH   3   5
ENDBRANCH   2   3
ENDBRANCH   1   2
BRANCH   1   8
ATOM      8  C   UNL     1     121.673 117.618 114.690  1.00  0.00    -0.010 C 
ATOM      9  C   UNL     1     122.966 116.808 114.895  1.00  0.00     0.008 C 
BRANCH   8  10
ATOM     10  C   UNL     1     121.490 118.896 115.623  1.00  0.00    -0.002 C 
ATOM     11  C   UNL     1     122.791 119.630 116.001  1.00  0.00     0.005 C 
ATOM     12  C   UNL     1     120.649 118.758 116.970  1.00  0.00    -0.024 C 
ATOM     13  C   UNL     1     122.512 120.312 117.327  1.00  0.00     0.008 C 
ATOM     14  C   UNL     1     121.566 119.375 118.110  1.00  0.00    -0.024 C 
ATOM     15  C   UNL     1     119.366 119.623 116.817  1.00  0.00     0.008 C 
ATOM     16  C   UNL     1     120.186 117.303 117.294  1.00  0.00     0.012 C 
ATOM     17  C   UNL     1     122.452 118.252 118.761  1.00  0.00     0.012 C 
ATOM     18  C   UNL     1     120.784 120.234 119.213  1.00  0.00     0.002 C 
ATOM     19  C   UNL     1     118.480 119.632 118.059  1.00  0.00     0.008 C 
ATOM     20  C   UNL     1     119.289 119.835 119.368  1.00  0.00    -0.020 C 
ATOM     21  C   UNL     1     121.564 120.366 120.548  1.00  0.00     0.005 C 
ATOM     22  C   UNL     1     118.538 120.514 120.545  1.00  0.00    -0.020 C 
ATOM     23  C   UNL     1     118.848 119.013 120.589  1.00  0.00     0.015 C 
ATOM     24  C   UNL     1     120.839 121.075 121.696  1.00  0.00     0.005 C 
ATOM     25  C   UNL     1     119.371 121.506 121.414  1.00  0.00     0.004 C 
ATOM     26  C   UNL     1     117.061 120.913 120.294  1.00  0.00     0.010 C 
ATOM     27  C   UNL     1     118.587 121.905 122.723  1.00  0.00    -0.006 C 
ATOM     28  C   UNL     1     116.356 121.447 121.541  1.00  0.00     0.033 C 
ATOM     29  C   UNL     1     117.198 122.481 122.301  1.00  0.00     0.120 C 
ATOM     30  C   UNL     1     119.357 123.008 123.497  1.00  0.00     0.014 C 
ATOM     31  C   UNL     1     118.398 120.689 123.680  1.00  0.00     0.014 C 
BRANCH  29  32
ATOM     32  O   UNL     1     116.455 122.905 123.419  1.00  0.00    -0.393 OA
ATOM     33  H   UNL     1     116.735 122.343 124.186  1.00  0.00     0.210 HD
ENDBRANCH  29  32
ENDBRANCH   8  10
ENDBRANCH   1   8
TORSDOF 6
ENDMDL
MODEL 8
REMARK VINA RESULT:    -6.041      1.305      2.025
REMARK INTER + INTRA:          -9.450
REMARK INTER:                  -7.885
REMARK INTRA:                  -1.566
REMARK UNBOUND:                -1.467
REMARK SMILES C=C(CC[C@@H](C)[C@@H]1CC[C@@]2(C)[C@@H]3CC[C@@H]4C(C)(C)[C@H](O)CC[C@]45C[C@]35CC[C@@]12C)C(C)C
REMARK SMILES IDX 4 1 3 2 2 3 1 4 30 5 31 6 32 7 5 8 6 9 7 10 8 11 28 12 9 13
REMARK SMILES IDX 10 14 27 15 29 16 11 17 12 18 26 19 25 20 13 21 23 22 24 23
REMARK SMILES IDX 14 24 15 25 22 26 16 27 21 28 19 29 17 30 18 31 20 32
REMARK H PARENT 20 33
REMARK Flexibility Score: inf
ROOT
ATOM      1  C   UNL     1     114.248 123.035 124.112  1.00  0.00     0.008 C 
ENDROOT
BRANCH   1   2
ATOM      2  C   UNL     1     114.290 121.510 124.342  1.00  0.00     0.031 C 
BRANCH   2   3
ATOM      3  C   UNL     1     113.031 120.782 123.906  1.00  0.00    -0.075 C 
ATOM      4  C   UNL     1     112.332 120.094 124.821  1.00  0.00     0.008 C 
BRANCH   3   5
ATOM      5  C   UNL     1     112.559 120.725 122.450  1.00  0.00     0.008 C 
ATOM      6  C   UNL     1     113.514 119.861 121.611  1.00  0.00     0.012 C 
ATOM      7  C   UNL     1     111.103 120.256 122.270  1.00  0.00     0.012 C 
ENDBRANCH   3   5
ENDBRANCH   2   3
ENDBRANCH   1   2
BRANCH   1   8
ATOM      8  C   UNL     1     115.392 123.673 123.265  1.00  0.00    -0.010 C 
ATOM      9  C   UNL     1     115.629 125.140 123.665  1.00  0.00     0.008 C 
BRANCH   8  10
ATOM     10  C   UNL     1     116.690 122.760 123.144  1.00  0.00    -0.002 C 
ATOM     11  C   UNL     1     118.009 123.423 123.586  1.00  0.00     0.005 C 
ATOM     12  C   UNL     1     117.001 122.033 121.759  1.00  0.00    -0.024 C 
ATOM     13  C   UNL     1     119.107 122.723 122.807  1.00  0.00     0.008 C 
ATOM     14  C   UNL     1     118.512 122.383 121.423  1.00  0.00    -0.024 C 
ATOM     15  C   UNL     1     116.866 120.501 121.989  1.00  0.00     0.008 C 
ATOM     16  C   UNL     1     116.025 122.411 120.602  1.00  0.00     0.012 C 
ATOM     17  C   UNL     1     118.585 123.687 120.548  1.00  0.00     0.012 C 
ATOM     18  C   UNL     1     119.355 121.183 120.779  1.00  0.00     0.002 C 
ATOM     19  C   UNL     1     117.188 119.664 120.754  1.00  0.00     0.008 C 
ATOM     20  C   UNL     1     118.479 120.136 120.033  1.00  0.00    -0.020 C 
ATOM     21  C   UNL     1     120.601 121.668 119.991  1.00  0.00     0.005 C 
ATOM     22  C   UNL     1     119.262 119.055 119.243  1.00  0.00    -0.020 C 
ATOM     23  C   UNL     1     118.457 120.125 118.497  1.00  0.00     0.015 C 
ATOM     24  C   UNL     1     121.400 120.593 119.247  1.00  0.00     0.005 C 
ATOM     25  C   UNL     1     120.818 119.151 119.299  1.00  0.00     0.004 C 
ATOM     26  C   UNL     1     118.674 117.620 119.251  1.00  0.00     0.010 C 
ATOM     27  C   UNL     1     121.483 118.183 118.246  1.00  0.00    -0.006 C 
ATOM     28  C   UNL     1     119.427 116.650 118.340  1.00  0.00     0.033 C 
ATOM     29  C   UNL     1     120.950 116.739 118.510  1.00  0.00     0.120 C 
ATOM     30  C   UNL     1     123.024 118.173 118.420  1.00  0.00     0.014 C 
ATOM     31  C   UNL     1     121.167 118.615 116.782  1.00  0.00     0.014 C 
BRANCH  29  32
ATOM     32  O   UNL     1     121.536 115.806 117.634  1.00  0.00    -0.393 OA
ATOM     33  H   UNL     1     121.943 115.096 118.192  1.00  0.00     0.210 HD
ENDBRANCH  29  32
ENDBRANCH   8  10
ENDBRANCH   1   8
TORSDOF 6
ENDMDL
MODEL 9
REMARK VINA RESULT:    -6.028      2.805      5.077
REMARK INTER + INTRA:          -9.433
REMARK INTER:                  -7.348
REMARK INTRA:                  -2.085
REMARK UNBOUND:                -1.467
REMARK SMILES C=C(CC[C@@H](C)[C@@H]1CC[C@@]2(C)[C@@H]3CC[C@@H]4C(C)(C)[C@H](O)CC[C@]45C[C@]35CC[C@@]12C)C(C)C
REMARK SMILES IDX 4 1 3 2 2 3 1 4 30 5 31 6 32 7 5 8 6 9 7 10 8 11 28 12 9 13
REMARK SMILES IDX 10 14 27 15 29 16 11 17 12 18 26 19 25 20 13 21 23 22 24 23
REMARK SMILES IDX 14 24 15 25 22 26 16 27 21 28 19 29 17 30 18 31 20 32
REMARK H PARENT 20 33
REMARK Flexibility Score: inf
ROOT
ATOM      1  C   UNL     1     113.992 121.778 121.157  1.00  0.00     0.008 C 
ENDROOT
BRANCH   1   2
ATOM      2  C   UNL     1     113.639 123.241 121.497  1.00  0.00     0.031 C 
BRANCH   2   3
ATOM      3  C   UNL     1     114.825 124.188 121.470  1.00  0.00    -0.075 C 
ATOM      4  C   UNL     1     115.500 124.347 120.321  1.00  0.00     0.008 C 
BRANCH   3   5
ATOM      5  C   UNL     1     115.345 124.914 122.715  1.00  0.00     0.008 C 
ATOM      6  C   UNL     1     114.915 124.167 123.988  1.00  0.00     0.012 C 
ATOM      7  C   UNL     1     116.865 125.162 122.719  1.00  0.00     0.012 C 
ENDBRANCH   3   5
ENDBRANCH   2   3
ENDBRANCH   1   2
BRANCH   1   8
ATOM      8  C   UNL     1     115.070 121.070 122.035  1.00  0.00    -0.010 C 
ATOM      9  C   UNL     1     114.444 119.965 122.904  1.00  0.00     0.008 C 
BRANCH   8  10
ATOM     10  C   UNL     1     116.390 120.672 121.238  1.00  0.00    -0.002 C 
ATOM     11  C   UNL     1     116.507 119.185 120.852  1.00  0.00     0.005 C 
ATOM     12  C   UNL     1     117.810 121.090 121.831  1.00  0.00    -0.024 C 
ATOM     13  C   UNL     1     117.993 118.899 120.748  1.00  0.00     0.008 C 
ATOM     14  C   UNL     1     118.682 119.764 121.826  1.00  0.00    -0.024 C 
ATOM     15  C   UNL     1     118.442 122.126 120.859  1.00  0.00     0.008 C 
ATOM     16  C   UNL     1     117.746 121.761 123.239  1.00  0.00     0.012 C 
ATOM     17  C   UNL     1     118.533 119.010 123.197  1.00  0.00     0.012 C 
ATOM     18  C   UNL     1     120.219 119.969 121.420  1.00  0.00     0.002 C 
ATOM     19  C   UNL     1     119.838 122.583 121.272  1.00  0.00     0.008 C 
ATOM     20  C   UNL     1     120.751 121.403 121.700  1.00  0.00    -0.020 C 
ATOM     21  C   UNL     1     121.139 118.824 121.922  1.00  0.00     0.005 C 
ATOM     22  C   UNL     1     122.276 121.599 121.492  1.00  0.00    -0.020 C 
ATOM     23  C   UNL     1     121.676 121.645 122.901  1.00  0.00     0.015 C 
ATOM     24  C   UNL     1     122.641 118.998 121.676  1.00  0.00     0.005 C 
ATOM     25  C   UNL     1     123.076 120.343 121.027  1.00  0.00     0.004 C 
ATOM     26  C   UNL     1     122.730 122.951 120.883  1.00  0.00     0.010 C 
ATOM     27  C   UNL     1     124.630 120.595 121.123  1.00  0.00    -0.006 C 
ATOM     28  C   UNL     1     124.249 123.117 120.839  1.00  0.00     0.033 C 
ATOM     29  C   UNL     1     124.965 121.875 120.292  1.00  0.00     0.120 C 
ATOM     30  C   UNL     1     125.408 119.401 120.512  1.00  0.00     0.014 C 
ATOM     31  C   UNL     1     125.098 120.772 122.599  1.00  0.00     0.014 C 
BRANCH  29  32
ATOM     32  O   UNL     1     126.348 122.140 120.292  1.00  0.00    -0.393 OA
ATOM     33  H   UNL     1     126.493 122.940 120.858  1.00  0.00     0.210 HD
ENDBRANCH  29  32
ENDBRANCH   8  10
ENDBRANCH   1   8
TORSDOF 6
ENDMDL
