MODEL 1
REMARK VINA RESULT:    -2.974      0.000      0.000
REMARK INTER + INTRA:          -3.448
REMARK INTER:                  -3.235
REMARK INTRA:                  -0.213
REMARK UNBOUND:                -0.213
REMARK SMILES O=C([O-])c1ccccc1O
REMARK SMILES IDX 4 1 9 2 5 3 8 4 6 5 7 6 2 7 1 8 3 9 10 10
REMARK H PARENT 10 11
REMARK Flexibility Score: inf
ROOT
ATOM      1  C   UNL     1      -9.019   8.804  -0.401  1.00  0.00     0.039 A 
ATOM      2  C   UNL     1      -7.771   9.035  -1.037  1.00  0.00     0.124 A 
ATOM      3  C   UNL     1     -10.125   8.430  -1.187  1.00  0.00     0.014 A 
ATOM      4  C   UNL     1      -7.649   8.826  -2.416  1.00  0.00     0.047 A 
ATOM      5  C   UNL     1      -9.989   8.247  -2.565  1.00  0.00     0.001 A 
ATOM      6  C   UNL     1      -8.751   8.435  -3.177  1.00  0.00     0.004 A 
ENDROOT
BRANCH   1   7
ATOM      7  C   UNL     1      -9.204   8.907   1.064  1.00  0.00     0.075 C 
ATOM      8  O   UNL     1     -10.037   9.712   1.557  1.00  0.00    -0.545 OA
ATOM      9  O   UNL     1      -8.404   8.159   1.920  1.00  0.00    -0.545 OA
ENDBRANCH   1   7
BRANCH   2  10
ATOM     10  O   UNL     1      -6.649   9.500  -0.349  1.00  0.00    -0.507 OA
ATOM     11  H   UNL     1      -6.126   8.941   0.311  1.00  0.00     0.293 HD
ENDBRANCH   2  10
TORSDOF 2
ENDMDL
MODEL 2
REMARK VINA RESULT:    -2.886     11.959     13.027
REMARK INTER + INTRA:          -3.353
REMARK INTER:                  -3.124
REMARK INTRA:                  -0.229
REMARK UNBOUND:                -0.213
REMARK SMILES O=C([O-])c1ccccc1O
REMARK SMILES IDX 4 1 9 2 5 3 8 4 6 5 7 6 2 7 1 8 3 9 10 10
REMARK H PARENT 10 11
REMARK Flexibility Score: inf
ROOT
ATOM      1  C   UNL     1       0.631   9.007  -9.427  1.00  0.00     0.039 A 
ATOM      2  C   UNL     1       0.019   7.753  -9.687  1.00  0.00     0.124 A 
ATOM      3  C   UNL     1      -0.188  10.125  -9.180  1.00  0.00     0.014 A 
ATOM      4  C   UNL     1      -1.376   7.639  -9.630  1.00  0.00     0.047 A 
ATOM      5  C   UNL     1      -1.578   9.997  -9.148  1.00  0.00     0.001 A 
ATOM      6  C   UNL     1      -2.170   8.753  -9.363  1.00  0.00     0.004 A 
ENDROOT
BRANCH   1   7
ATOM      7  C   UNL     1       2.098   9.187  -9.372  1.00  0.00     0.075 C 
ATOM      8  O   UNL     1       2.674  10.044 -10.093  1.00  0.00    -0.545 OA
ATOM      9  O   UNL     1       2.871   8.357  -8.567  1.00  0.00    -0.545 OA
ENDBRANCH   1   7
BRANCH   2  10
ATOM     10  O   UNL     1       0.750   6.615 -10.035  1.00  0.00    -0.507 OA
ATOM     11  H   UNL     1       0.861   6.292 -10.986  1.00  0.00     0.293 HD
ENDBRANCH   2  10
TORSDOF 2
ENDMDL
MODEL 3
REMARK VINA RESULT:    -2.860     19.963     20.896
REMARK INTER + INTRA:          -3.324
REMARK INTER:                  -3.072
REMARK INTRA:                  -0.252
REMARK UNBOUND:                -0.213
REMARK SMILES O=C([O-])c1ccccc1O
REMARK SMILES IDX 4 1 9 2 5 3 8 4 6 5 7 6 2 7 1 8 3 9 10 10
REMARK H PARENT 10 11
REMARK Flexibility Score: inf
ROOT
ATOM      1  C   UNL     1      -1.073  -7.552   8.990  1.00  0.00     0.039 A 
ATOM      2  C   UNL     1      -1.877  -8.687   8.704  1.00  0.00     0.124 A 
ATOM      3  C   UNL     1       0.327  -7.690   8.972  1.00  0.00     0.014 A 
ATOM      4  C   UNL     1      -1.266  -9.896   8.351  1.00  0.00     0.047 A 
ATOM      5  C   UNL     1       0.919  -8.909   8.638  1.00  0.00     0.001 A 
ATOM      6  C   UNL     1       0.124 -10.009   8.319  1.00  0.00     0.004 A 
ENDROOT
BRANCH   1   7
ATOM      7  C   UNL     1      -1.643  -6.217   9.274  1.00  0.00     0.075 C 
ATOM      8  O   UNL     1      -1.078  -5.170   8.862  1.00  0.00    -0.545 OA
ATOM      9  O   UNL     1      -2.781  -6.100  10.065  1.00  0.00    -0.545 OA
ENDBRANCH   1   7
BRANCH   2  10
ATOM     10  O   UNL     1      -3.271  -8.665   8.792  1.00  0.00    -0.507 OA
ATOM     11  H   UNL     1      -3.785  -8.991   9.599  1.00  0.00     0.293 HD
ENDBRANCH   2  10
TORSDOF 2
ENDMDL
MODEL 4
REMARK VINA RESULT:    -2.825     19.368     20.357
REMARK INTER + INTRA:          -3.286
REMARK INTER:                  -3.049
REMARK INTRA:                  -0.238
REMARK UNBOUND:                -0.213
REMARK SMILES O=C([O-])c1ccccc1O
REMARK SMILES IDX 4 1 9 2 5 3 8 4 6 5 7 6 2 7 1 8 3 9 10 10
REMARK H PARENT 10 11
REMARK Flexibility Score: inf
ROOT
ATOM      1  C   UNL     1      -2.055  -7.078   9.474  1.00  0.00     0.039 A 
ATOM      2  C   UNL     1      -1.708  -8.299   8.838  1.00  0.00     0.124 A 
ATOM      3  C   UNL     1      -1.041  -6.140   9.744  1.00  0.00     0.014 A 
ATOM      4  C   UNL     1      -0.384  -8.518   8.437  1.00  0.00     0.047 A 
ATOM      5  C   UNL     1       0.278  -6.385   9.356  1.00  0.00     0.001 A 
ATOM      6  C   UNL     1       0.604  -7.568   8.695  1.00  0.00     0.004 A 
ENDROOT
BRANCH   1   7
ATOM      7  C   UNL     1      -3.446  -6.731   9.838  1.00  0.00     0.075 C 
ATOM      8  O   UNL     1      -4.283  -7.627  10.125  1.00  0.00    -0.545 OA
ATOM      9  O   UNL     1      -3.866  -5.406   9.800  1.00  0.00    -0.545 OA
ENDBRANCH   1   7
BRANCH   2  10
ATOM     10  O   UNL     1      -2.630  -9.324   8.618  1.00  0.00    -0.507 OA
ATOM     11  H   UNL     1      -2.375 -10.244   8.288  1.00  0.00     0.293 HD
ENDBRANCH   2  10
TORSDOF 2
ENDMDL
MODEL 5
REMARK VINA RESULT:    -2.806     17.445     17.983
REMARK INTER + INTRA:          -3.265
REMARK INTER:                  -3.057
REMARK INTRA:                  -0.209
REMARK UNBOUND:                -0.213
REMARK SMILES O=C([O-])c1ccccc1O
REMARK SMILES IDX 4 1 9 2 5 3 8 4 6 5 7 6 2 7 1 8 3 9 10 10
REMARK H PARENT 10 11
REMARK Flexibility Score: inf
ROOT
ATOM      1  C   UNL     1      -8.969  -8.796  -0.531  1.00  0.00     0.039 A 
ATOM      2  C   UNL     1      -7.751  -9.072   0.144  1.00  0.00     0.124 A 
ATOM      3  C   UNL     1     -10.125  -8.538   0.230  1.00  0.00     0.014 A 
ATOM      4  C   UNL     1      -7.709  -9.020   1.543  1.00  0.00     0.047 A 
ATOM      5  C   UNL     1     -10.068  -8.511   1.625  1.00  0.00     0.001 A 
ATOM      6  C   UNL     1      -8.860  -8.742   2.280  1.00  0.00     0.004 A 
ENDROOT
BRANCH   1   7
ATOM      7  C   UNL     1      -9.073  -8.736  -2.005  1.00  0.00     0.075 C 
ATOM      8  O   UNL     1      -8.357  -7.943  -2.673  1.00  0.00    -0.545 OA
ATOM      9  O   UNL     1     -10.018  -9.510  -2.669  1.00  0.00    -0.545 OA
ENDBRANCH   1   7
BRANCH   2  10
ATOM     10  O   UNL     1      -6.581  -9.432  -0.528  1.00  0.00    -0.507 OA
ATOM     11  H   UNL     1      -6.278 -10.388  -0.650  1.00  0.00     0.293 HD
ENDBRANCH   2  10
TORSDOF 2
ENDMDL
MODEL 6
REMARK VINA RESULT:    -2.791     21.143     22.026
REMARK INTER + INTRA:          -3.249
REMARK INTER:                  -3.036
REMARK INTRA:                  -0.213
REMARK UNBOUND:                -0.213
REMARK SMILES O=C([O-])c1ccccc1O
REMARK SMILES IDX 4 1 9 2 5 3 8 4 6 5 7 6 2 7 1 8 3 9 10 10
REMARK H PARENT 10 11
REMARK Flexibility Score: inf
ROOT
ATOM      1  C   UNL     1       0.458  -9.040   8.655  1.00  0.00     0.039 A 
ATOM      2  C   UNL     1      -0.132  -7.789   8.977  1.00  0.00     0.124 A 
ATOM      3  C   UNL     1      -0.378 -10.117   8.306  1.00  0.00     0.014 A 
ATOM      4  C   UNL     1      -1.521  -7.635   8.880  1.00  0.00     0.047 A 
ATOM      5  C   UNL     1      -1.763  -9.950   8.235  1.00  0.00     0.001 A 
ATOM      6  C   UNL     1      -2.332  -8.708   8.512  1.00  0.00     0.004 A 
ENDROOT
BRANCH   1   7
ATOM      7  C   UNL     1       1.922  -9.254   8.638  1.00  0.00     0.075 C 
ATOM      8  O   UNL     1       2.458 -10.125   9.373  1.00  0.00    -0.545 OA
ATOM      9  O   UNL     1       2.735  -8.443   7.855  1.00  0.00    -0.545 OA
ENDBRANCH   1   7
BRANCH   2  10
ATOM     10  O   UNL     1       0.613  -6.697   9.425  1.00  0.00    -0.507 OA
ATOM     11  H   UNL     1       1.615  -6.625   9.325  1.00  0.00     0.293 HD
ENDBRANCH   2  10
TORSDOF 2
ENDMDL
MODEL 7
REMARK VINA RESULT:    -2.782     20.674     21.688
REMARK INTER + INTRA:          -3.239
REMARK INTER:                  -3.009
REMARK INTRA:                  -0.230
REMARK UNBOUND:                -0.213
REMARK SMILES O=C([O-])c1ccccc1O
REMARK SMILES IDX 4 1 9 2 5 3 8 4 6 5 7 6 2 7 1 8 3 9 10 10
REMARK H PARENT 10 11
REMARK Flexibility Score: inf
ROOT
ATOM      1  C   UNL     1      -0.033  -8.511   8.710  1.00  0.00     0.039 A 
ATOM      2  C   UNL     1      -1.425  -8.791   8.739  1.00  0.00     0.124 A 
ATOM      3  C   UNL     1       0.408  -7.221   9.059  1.00  0.00     0.014 A 
ATOM      4  C   UNL     1      -2.319  -7.804   9.173  1.00  0.00     0.047 A 
ATOM      5  C   UNL     1      -0.500  -6.243   9.469  1.00  0.00     0.001 A 
ATOM      6  C   UNL     1      -1.861  -6.538   9.535  1.00  0.00     0.004 A 
ENDROOT
BRANCH   1   7
ATOM      7  C   UNL     1       0.981  -9.528   8.358  1.00  0.00     0.075 C 
ATOM      8  O   UNL     1       0.945 -10.124   7.249  1.00  0.00    -0.545 OA
ATOM      9  O   UNL     1       1.954  -9.890   9.284  1.00  0.00    -0.545 OA
ENDBRANCH   1   7
BRANCH   2  10
ATOM     10  O   UNL     1      -1.958 -10.010   8.318  1.00  0.00    -0.507 OA
ATOM     11  H   UNL     1      -2.642 -10.534   8.847  1.00  0.00     0.293 HD
ENDBRANCH   2  10
TORSDOF 2
ENDMDL
MODEL 8
REMARK VINA RESULT:    -2.740     19.897     20.736
REMARK INTER + INTRA:          -3.194
REMARK INTER:                  -2.946
REMARK INTRA:                  -0.248
REMARK UNBOUND:                -0.213
REMARK SMILES O=C([O-])c1ccccc1O
REMARK SMILES IDX 4 1 9 2 5 3 8 4 6 5 7 6 2 7 1 8 3 9 10 10
REMARK H PARENT 10 11
REMARK Flexibility Score: inf
ROOT
ATOM      1  C   UNL     1      -1.384  -7.643   8.979  1.00  0.00     0.039 A 
ATOM      2  C   UNL     1       0.022  -7.459   9.051  1.00  0.00     0.124 A 
ATOM      3  C   UNL     1      -1.887  -8.895   8.578  1.00  0.00     0.014 A 
ATOM      4  C   UNL     1       0.875  -8.537   8.784  1.00  0.00     0.047 A 
ATOM      5  C   UNL     1      -1.020  -9.953   8.295  1.00  0.00     0.001 A 
ATOM      6  C   UNL     1       0.358  -9.777   8.407  1.00  0.00     0.004 A 
ENDROOT
BRANCH   1   7
ATOM      7  C   UNL     1      -2.351  -6.582   9.341  1.00  0.00     0.075 C 
ATOM      8  O   UNL     1      -3.460  -6.868   9.862  1.00  0.00    -0.545 OA
ATOM      9  O   UNL     1      -2.069  -5.254   9.042  1.00  0.00    -0.545 OA
ENDBRANCH   1   7
BRANCH   2  10
ATOM     10  O   UNL     1       0.607  -6.226   9.346  1.00  0.00    -0.507 OA
ATOM     11  H   UNL     1       0.144  -5.339   9.206  1.00  0.00     0.293 HD
ENDBRANCH   2  10
TORSDOF 2
ENDMDL
MODEL 9
REMARK VINA RESULT:    -2.672     17.404     17.974
REMARK INTER + INTRA:          -3.119
REMARK INTER:                  -2.870
REMARK INTRA:                  -0.249
REMARK UNBOUND:                -0.213
REMARK SMILES O=C([O-])c1ccccc1O
REMARK SMILES IDX 4 1 9 2 5 3 8 4 6 5 7 6 2 7 1 8 3 9 10 10
REMARK H PARENT 10 11
REMARK Flexibility Score: inf
ROOT
ATOM      1  C   UNL     1      -7.771  -8.985   1.175  1.00  0.00     0.039 A 
ATOM      2  C   UNL     1      -8.934  -8.632   1.908  1.00  0.00     0.124 A 
ATOM      3  C   UNL     1      -7.829  -8.996  -0.231  1.00  0.00     0.014 A 
ATOM      4  C   UNL     1     -10.091  -8.242   1.222  1.00  0.00     0.047 A 
ATOM      5  C   UNL     1      -8.999  -8.624  -0.898  1.00  0.00     0.001 A 
ATOM      6  C   UNL     1     -10.125  -8.239  -0.173  1.00  0.00     0.004 A 
ENDROOT
BRANCH   1   7
ATOM      7  C   UNL     1      -6.483  -9.313   1.826  1.00  0.00     0.075 C 
ATOM      8  O   UNL     1      -6.443 -10.029   2.861  1.00  0.00    -0.545 OA
ATOM      9  O   UNL     1      -5.299  -8.772   1.336  1.00  0.00    -0.545 OA
ENDBRANCH   1   7
BRANCH   2  10
ATOM     10  O   UNL     1      -8.994  -8.687   3.302  1.00  0.00    -0.507 OA
ATOM     11  H   UNL     1      -8.191  -8.555   3.901  1.00  0.00     0.293 HD
ENDBRANCH   2  10
TORSDOF 2
ENDMDL
