MODEL 1
REMARK VINA RESULT:    -4.751      0.000      0.000
REMARK INTER + INTRA:          -8.358
REMARK INTER:                  -7.528
REMARK INTRA:                  -0.830
REMARK UNBOUND:                -0.830
REMARK SMILES CCCCCCCCCCCC(=O)[O-]
REMARK SMILES IDX 7 1 8 2 9 3 10 4 11 5 12 6 13 7 14 8 6 9 5 10 4 11 3 12 2 13
REMARK SMILES IDX 1 14
REMARK H PARENT
REMARK Flexibility Score: inf
ROOT
ATOM      1  C   UNL     1      -4.074  -1.055  27.938  1.00  0.00     0.000 C 
ENDROOT
BRANCH   1   2
ATOM      2  C   UNL     1      -3.337  -0.203  28.983  1.00  0.00     0.000 C 
BRANCH   2   3
ATOM      3  C   UNL     1      -1.912   0.121  28.521  1.00  0.00     0.000 C 
BRANCH   3   4
ATOM      4  C   UNL     1      -1.559  -0.652  27.241  1.00  0.00     0.006 C 
BRANCH   4   5
ATOM      5  C   UNL     1      -0.266  -1.463  27.391  1.00  0.00     0.053 C 
BRANCH   5   6
ATOM      6  C   UNL     1      -0.365  -2.468  28.497  1.00  0.00     0.041 C 
ATOM      7  O   UNL     1       0.548  -2.556  29.359  1.00  0.00    -0.550 OA
ATOM      8  O   UNL     1      -1.452  -3.332  28.555  1.00  0.00    -0.550 OA
ENDBRANCH   5   6
ENDBRANCH   4   5
ENDBRANCH   3   4
ENDBRANCH   2   3
ENDBRANCH   1   2
BRANCH   1   9
ATOM      9  C   UNL     1      -5.286  -1.802  28.523  1.00  0.00     0.000 C 
BRANCH   9  10
ATOM     10  C   UNL     1      -4.982  -2.678  29.755  1.00  0.00    -0.000 C 
BRANCH  10  11
ATOM     11  C   UNL     1      -5.402  -4.153  29.629  1.00  0.00    -0.000 C 
BRANCH  11  12
ATOM     12  C   UNL     1      -4.787  -4.845  28.403  1.00  0.00    -0.000 C 
BRANCH  12  13
ATOM     13  C   UNL     1      -5.779  -5.831  27.776  1.00  0.00    -0.003 C 
ATOM     14  C   UNL     1      -5.982  -7.051  28.669  1.00  0.00     0.004 C 
ENDBRANCH  12  13
ENDBRANCH  11  12
ENDBRANCH  10  11
ENDBRANCH   9  10
ENDBRANCH   1   9
TORSDOF 10
ENDMDL
MODEL 2
REMARK VINA RESULT:    -4.538      1.714      5.434
REMARK INTER + INTRA:          -8.021
REMARK INTER:                  -7.131
REMARK INTRA:                  -0.890
REMARK UNBOUND:                -0.830
REMARK SMILES CCCCCCCCCCCC(=O)[O-]
REMARK SMILES IDX 7 1 8 2 9 3 10 4 11 5 12 6 13 7 14 8 6 9 5 10 4 11 3 12 2 13
REMARK SMILES IDX 1 14
REMARK H PARENT
REMARK Flexibility Score: inf
ROOT
ATOM      1  C   UNL     1      -2.889  -1.173  28.508  1.00  0.00     0.000 C 
ENDROOT
BRANCH   1   2
ATOM      2  C   UNL     1      -4.307  -1.084  27.924  1.00  0.00     0.000 C 
BRANCH   2   3
ATOM      3  C   UNL     1      -5.358  -1.448  28.979  1.00  0.00     0.000 C 
BRANCH   3   4
ATOM      4  C   UNL     1      -4.941  -2.703  29.762  1.00  0.00     0.006 C 
BRANCH   4   5
ATOM      5  C   UNL     1      -5.746  -3.941  29.345  1.00  0.00     0.053 C 
BRANCH   5   6
ATOM      6  C   UNL     1      -4.948  -4.852  28.465  1.00  0.00     0.041 C 
ATOM      7  O   UNL     1      -5.509  -5.804  27.862  1.00  0.00    -0.550 OA
ATOM      8  O   UNL     1      -3.577  -4.669  28.337  1.00  0.00    -0.550 OA
ENDBRANCH   5   6
ENDBRANCH   4   5
ENDBRANCH   3   4
ENDBRANCH   2   3
ENDBRANCH   1   2
BRANCH   1   9
ATOM      9  C   UNL     1      -1.947  -0.086  27.960  1.00  0.00     0.000 C 
BRANCH   9  10
ATOM     10  C   UNL     1      -1.107  -0.505  26.737  1.00  0.00    -0.000 C 
BRANCH  10  11
ATOM     11  C   UNL     1      -0.057  -1.596  27.007  1.00  0.00    -0.000 C 
BRANCH  11  12
ATOM     12  C   UNL     1       1.050  -1.133  27.967  1.00  0.00    -0.000 C 
BRANCH  12  13
ATOM     13  C   UNL     1       1.160  -2.075  29.171  1.00  0.00    -0.003 C 
ATOM     14  C   UNL     1       0.108  -3.179  29.105  1.00  0.00     0.004 C 
ENDBRANCH  12  13
ENDBRANCH  11  12
ENDBRANCH  10  11
ENDBRANCH   9  10
ENDBRANCH   1   9
TORSDOF 10
ENDMDL
MODEL 3
REMARK VINA RESULT:    -4.508      1.047      1.641
REMARK INTER + INTRA:          -7.973
REMARK INTER:                  -7.320
REMARK INTRA:                  -0.653
REMARK UNBOUND:                -0.830
REMARK SMILES CCCCCCCCCCCC(=O)[O-]
REMARK SMILES IDX 7 1 8 2 9 3 10 4 11 5 12 6 13 7 14 8 6 9 5 10 4 11 3 12 2 13
REMARK SMILES IDX 1 14
REMARK H PARENT
REMARK Flexibility Score: inf
ROOT
ATOM      1  C   UNL     1      -2.819  -1.125  28.438  1.00  0.00     0.000 C 
ENDROOT
BRANCH   1   2
ATOM      2  C   UNL     1      -1.964   0.145  28.309  1.00  0.00     0.000 C 
BRANCH   2   3
ATOM      3  C   UNL     1      -1.028   0.055  27.099  1.00  0.00     0.000 C 
BRANCH   3   4
ATOM      4  C   UNL     1      -0.508  -1.379  26.909  1.00  0.00     0.006 C 
BRANCH   4   5
ATOM      5  C   UNL     1       0.935  -1.543  27.404  1.00  0.00     0.053 C 
BRANCH   5   6
ATOM      6  C   UNL     1       0.986  -1.912  28.855  1.00  0.00     0.041 C 
ATOM      7  O   UNL     1       0.907  -3.118  29.206  1.00  0.00    -0.550 OA
ATOM      8  O   UNL     1       1.086  -0.918  29.821  1.00  0.00    -0.550 OA
ENDBRANCH   5   6
ENDBRANCH   4   5
ENDBRANCH   3   4
ENDBRANCH   2   3
ENDBRANCH   1   2
BRANCH   1   9
ATOM      9  C   UNL     1      -4.284  -0.904  28.019  1.00  0.00     0.000 C 
BRANCH   9  10
ATOM     10  C   UNL     1      -5.334  -1.346  29.059  1.00  0.00    -0.000 C 
BRANCH  10  11
ATOM     11  C   UNL     1      -5.323  -2.845  29.403  1.00  0.00    -0.000 C 
BRANCH  11  12
ATOM     12  C   UNL     1      -5.813  -3.727  28.244  1.00  0.00    -0.000 C 
BRANCH  12  13
ATOM     13  C   UNL     1      -4.970  -5.002  28.132  1.00  0.00    -0.003 C 
ATOM     14  C   UNL     1      -5.827  -6.249  28.332  1.00  0.00     0.004 C 
ENDBRANCH  12  13
ENDBRANCH  11  12
ENDBRANCH  10  11
ENDBRANCH   9  10
ENDBRANCH   1   9
TORSDOF 10
ENDMDL
MODEL 4
REMARK VINA RESULT:    -4.483      2.582      3.189
REMARK INTER + INTRA:          -7.933
REMARK INTER:                  -7.113
REMARK INTRA:                  -0.821
REMARK UNBOUND:                -0.830
REMARK SMILES CCCCCCCCCCCC(=O)[O-]
REMARK SMILES IDX 7 1 8 2 9 3 10 4 11 5 12 6 13 7 14 8 6 9 5 10 4 11 3 12 2 13
REMARK SMILES IDX 1 14
REMARK H PARENT
REMARK Flexibility Score: inf
ROOT
ATOM      1  C   UNL     1      -2.592  -1.819  28.346  1.00  0.00     0.000 C 
ENDROOT
BRANCH   1   2
ATOM      2  C   UNL     1      -1.216  -1.213  28.031  1.00  0.00     0.000 C 
BRANCH   2   3
ATOM      3  C   UNL     1      -1.313  -0.195  26.890  1.00  0.00     0.000 C 
BRANCH   3   4
ATOM      4  C   UNL     1      -0.787   1.180  27.332  1.00  0.00     0.006 C 
BRANCH   4   5
ATOM      5  C   UNL     1      -0.824   1.353  28.856  1.00  0.00     0.053 C 
BRANCH   5   6
ATOM      6  C   UNL     1      -1.884   2.322  29.280  1.00  0.00     0.041 C 
ATOM      7  O   UNL     1      -1.718   3.558  29.112  1.00  0.00    -0.550 OA
ATOM      8  O   UNL     1      -3.043   1.860  29.892  1.00  0.00    -0.550 OA
ENDBRANCH   5   6
ENDBRANCH   4   5
ENDBRANCH   3   4
ENDBRANCH   2   3
ENDBRANCH   1   2
BRANCH   1   9
ATOM      9  C   UNL     1      -3.758  -0.913  27.912  1.00  0.00     0.000 C 
BRANCH   9  10
ATOM     10  C   UNL     1      -5.082  -1.144  28.668  1.00  0.00    -0.000 C 
BRANCH  10  11
ATOM     11  C   UNL     1      -5.212  -2.515  29.354  1.00  0.00    -0.000 C 
BRANCH  11  12
ATOM     12  C   UNL     1      -5.862  -3.574  28.451  1.00  0.00    -0.000 C 
BRANCH  12  13
ATOM     13  C   UNL     1      -4.957  -4.803  28.309  1.00  0.00    -0.003 C 
ATOM     14  C   UNL     1      -5.780  -6.082  28.181  1.00  0.00     0.004 C 
ENDBRANCH  12  13
ENDBRANCH  11  12
ENDBRANCH  10  11
ENDBRANCH   9  10
ENDBRANCH   1   9
TORSDOF 10
ENDMDL
MODEL 5
REMARK VINA RESULT:    -4.475      2.636      3.389
REMARK INTER + INTRA:          -7.920
REMARK INTER:                  -6.882
REMARK INTRA:                  -1.038
REMARK UNBOUND:                -0.830
REMARK SMILES CCCCCCCCCCCC(=O)[O-]
REMARK SMILES IDX 7 1 8 2 9 3 10 4 11 5 12 6 13 7 14 8 6 9 5 10 4 11 3 12 2 13
REMARK SMILES IDX 1 14
REMARK H PARENT
REMARK Flexibility Score: inf
ROOT
ATOM      1  C   UNL     1      -5.076  -0.579  28.956  1.00  0.00     0.000 C 
ENDROOT
BRANCH   1   2
ATOM      2  C   UNL     1      -3.649  -0.045  29.147  1.00  0.00     0.000 C 
BRANCH   2   3
ATOM      3  C   UNL     1      -2.716  -0.570  28.050  1.00  0.00     0.000 C 
BRANCH   3   4
ATOM      4  C   UNL     1      -1.278  -0.068  28.262  1.00  0.00     0.006 C 
BRANCH   4   5
ATOM      5  C   UNL     1      -0.703   0.594  27.004  1.00  0.00     0.053 C 
BRANCH   5   6
ATOM      6  C   UNL     1      -0.726   2.088  27.102  1.00  0.00     0.041 C 
ATOM      7  O   UNL     1      -0.182   2.791  26.211  1.00  0.00    -0.550 OA
ATOM      8  O   UNL     1      -1.320   2.703  28.197  1.00  0.00    -0.550 OA
ENDBRANCH   5   6
ENDBRANCH   4   5
ENDBRANCH   3   4
ENDBRANCH   2   3
ENDBRANCH   1   2
BRANCH   1   9
ATOM      9  C   UNL     1      -5.116  -1.932  28.222  1.00  0.00     0.000 C 
BRANCH   9  10
ATOM     10  C   UNL     1      -5.818  -3.071  28.989  1.00  0.00    -0.000 C 
BRANCH  10  11
ATOM     11  C   UNL     1      -5.054  -4.407  29.019  1.00  0.00    -0.000 C 
BRANCH  11  12
ATOM     12  C   UNL     1      -3.674  -4.319  28.350  1.00  0.00    -0.000 C 
BRANCH  12  13
ATOM     13  C   UNL     1      -2.560  -4.255  29.402  1.00  0.00    -0.003 C 
ATOM     14  C   UNL     1      -1.264  -3.716  28.801  1.00  0.00     0.004 C 
ENDBRANCH  12  13
ENDBRANCH  11  12
ENDBRANCH  10  11
ENDBRANCH   9  10
ENDBRANCH   1   9
TORSDOF 10
ENDMDL
MODEL 6
REMARK VINA RESULT:    -4.418      1.621      2.463
REMARK INTER + INTRA:          -7.831
REMARK INTER:                  -6.615
REMARK INTRA:                  -1.216
REMARK UNBOUND:                -0.830
REMARK SMILES CCCCCCCCCCCC(=O)[O-]
REMARK SMILES IDX 7 1 8 2 9 3 10 4 11 5 12 6 13 7 14 8 6 9 5 10 4 11 3 12 2 13
REMARK SMILES IDX 1 14
REMARK H PARENT
REMARK Flexibility Score: inf
ROOT
ATOM      1  C   UNL     1      -4.949  -0.698  28.675  1.00  0.00     0.000 C 
ENDROOT
BRANCH   1   2
ATOM      2  C   UNL     1      -3.432  -0.573  28.884  1.00  0.00     0.000 C 
BRANCH   2   3
ATOM      3  C   UNL     1      -2.688  -0.623  27.546  1.00  0.00     0.000 C 
BRANCH   3   4
ATOM      4  C   UNL     1      -1.443   0.279  27.573  1.00  0.00     0.006 C 
BRANCH   4   5
ATOM      5  C   UNL     1      -0.538  -0.018  28.775  1.00  0.00     0.053 C 
BRANCH   5   6
ATOM      6  C   UNL     1       0.688  -0.779  28.373  1.00  0.00     0.041 C 
ATOM      7  O   UNL     1       0.842  -1.148  27.179  1.00  0.00    -0.550 OA
ATOM      8  O   UNL     1       1.644  -1.109  29.325  1.00  0.00    -0.550 OA
ENDBRANCH   5   6
ENDBRANCH   4   5
ENDBRANCH   3   4
ENDBRANCH   2   3
ENDBRANCH   1   2
BRANCH   1   9
ATOM      9  C   UNL     1      -5.374  -2.102  28.207  1.00  0.00     0.000 C 
BRANCH   9  10
ATOM     10  C   UNL     1      -5.570  -3.135  29.335  1.00  0.00    -0.000 C 
BRANCH  10  11
ATOM     11  C   UNL     1      -5.098  -4.562  29.004  1.00  0.00    -0.000 C 
BRANCH  11  12
ATOM     12  C   UNL     1      -3.700  -4.594  28.366  1.00  0.00    -0.000 C 
BRANCH  12  13
ATOM     13  C   UNL     1      -2.621  -4.247  29.397  1.00  0.00    -0.003 C 
ATOM     14  C   UNL     1      -1.340  -3.771  28.715  1.00  0.00     0.004 C 
ENDBRANCH  12  13
ENDBRANCH  11  12
ENDBRANCH  10  11
ENDBRANCH   9  10
ENDBRANCH   1   9
TORSDOF 10
ENDMDL
MODEL 7
REMARK VINA RESULT:    -4.412      2.058      6.115
REMARK INTER + INTRA:          -7.821
REMARK INTER:                  -6.811
REMARK INTRA:                  -1.011
REMARK UNBOUND:                -0.830
REMARK SMILES CCCCCCCCCCCC(=O)[O-]
REMARK SMILES IDX 7 1 8 2 9 3 10 4 11 5 12 6 13 7 14 8 6 9 5 10 4 11 3 12 2 13
REMARK SMILES IDX 1 14
REMARK H PARENT
REMARK Flexibility Score: inf
ROOT
ATOM      1  C   UNL     1      -2.645  -1.017  28.704  1.00  0.00     0.000 C 
ENDROOT
BRANCH   1   2
ATOM      2  C   UNL     1      -3.926  -0.884  27.867  1.00  0.00     0.000 C 
BRANCH   2   3
ATOM      3  C   UNL     1      -5.173  -0.995  28.752  1.00  0.00     0.000 C 
BRANCH   3   4
ATOM      4  C   UNL     1      -5.295  -2.402  29.358  1.00  0.00     0.006 C 
BRANCH   4   5
ATOM      5  C   UNL     1      -5.796  -3.432  28.338  1.00  0.00     0.053 C 
BRANCH   5   6
ATOM      6  C   UNL     1      -4.961  -4.675  28.348  1.00  0.00     0.041 C 
ATOM      7  O   UNL     1      -5.493  -5.798  28.145  1.00  0.00    -0.550 OA
ATOM      8  O   UNL     1      -3.600  -4.596  28.615  1.00  0.00    -0.550 OA
ENDBRANCH   5   6
ENDBRANCH   4   5
ENDBRANCH   3   4
ENDBRANCH   2   3
ENDBRANCH   1   2
BRANCH   1   9
ATOM      9  C   UNL     1      -1.411  -1.374  27.856  1.00  0.00     0.000 C 
BRANCH   9  10
ATOM     10  C   UNL     1      -1.067  -0.362  26.744  1.00  0.00    -0.000 C 
BRANCH  10  11
ATOM     11  C   UNL     1      -0.166   0.807  27.180  1.00  0.00    -0.000 C 
BRANCH  11  12
ATOM     12  C   UNL     1      -0.946   2.113  27.394  1.00  0.00    -0.000 C 
BRANCH  12  13
ATOM     13  C   UNL     1      -0.905   2.540  28.866  1.00  0.00    -0.003 C 
ATOM     14  C   UNL     1      -2.305   2.571  29.471  1.00  0.00     0.004 C 
ENDBRANCH  12  13
ENDBRANCH  11  12
ENDBRANCH  10  11
ENDBRANCH   9  10
ENDBRANCH   1   9
TORSDOF 10
ENDMDL
MODEL 8
REMARK VINA RESULT:    -4.378      1.425      2.094
REMARK INTER + INTRA:          -7.767
REMARK INTER:                  -6.837
REMARK INTRA:                  -0.930
REMARK UNBOUND:                -0.830
REMARK SMILES CCCCCCCCCCCC(=O)[O-]
REMARK SMILES IDX 7 1 8 2 9 3 10 4 11 5 12 6 13 7 14 8 6 9 5 10 4 11 3 12 2 13
REMARK SMILES IDX 1 14
REMARK H PARENT
REMARK Flexibility Score: inf
ROOT
ATOM      1  C   UNL     1      -4.296   1.304  29.751  1.00  0.00     0.000 C 
ENDROOT
BRANCH   1   2
ATOM      2  C   UNL     1      -2.886   0.703  29.659  1.00  0.00     0.000 C 
BRANCH   2   3
ATOM      3  C   UNL     1      -1.947   1.625  28.873  1.00  0.00     0.000 C 
BRANCH   3   4
ATOM      4  C   UNL     1      -0.863   0.816  28.144  1.00  0.00     0.006 C 
BRANCH   4   5
ATOM      5  C   UNL     1      -1.445  -0.386  27.390  1.00  0.00     0.053 C 
BRANCH   5   6
ATOM      6  C   UNL     1      -0.545  -1.581  27.471  1.00  0.00     0.041 C 
ATOM      7  O   UNL     1       0.233  -1.854  26.520  1.00  0.00    -0.550 OA
ATOM      8  O   UNL     1      -0.590  -2.411  28.583  1.00  0.00    -0.550 OA
ENDBRANCH   5   6
ENDBRANCH   4   5
ENDBRANCH   3   4
ENDBRANCH   2   3
ENDBRANCH   1   2
BRANCH   1   9
ATOM      9  C   UNL     1      -5.397   0.314  29.329  1.00  0.00     0.000 C 
BRANCH   9  10
ATOM     10  C   UNL     1      -4.955  -0.760  28.313  1.00  0.00    -0.000 C 
BRANCH  10  11
ATOM     11  C   UNL     1      -5.287  -2.210  28.708  1.00  0.00    -0.000 C 
BRANCH  11  12
ATOM     12  C   UNL     1      -4.040  -3.024  29.085  1.00  0.00    -0.000 C 
BRANCH  12  13
ATOM     13  C   UNL     1      -4.225  -4.504  28.731  1.00  0.00    -0.003 C 
ATOM     14  C   UNL     1      -5.629  -4.771  28.195  1.00  0.00     0.004 C 
ENDBRANCH  12  13
ENDBRANCH  11  12
ENDBRANCH  10  11
ENDBRANCH   9  10
ENDBRANCH   1   9
TORSDOF 10
ENDMDL
MODEL 9
REMARK VINA RESULT:    -4.374      1.929      5.235
REMARK INTER + INTRA:          -7.761
REMARK INTER:                  -6.786
REMARK INTRA:                  -0.975
REMARK UNBOUND:                -0.830
REMARK SMILES CCCCCCCCCCCC(=O)[O-]
REMARK SMILES IDX 7 1 8 2 9 3 10 4 11 5 12 6 13 7 14 8 6 9 5 10 4 11 3 12 2 13
REMARK SMILES IDX 1 14
REMARK H PARENT
REMARK Flexibility Score: inf
ROOT
ATOM      1  C   UNL     1      -4.519   1.431  29.724  1.00  0.00     0.000 C 
ENDROOT
BRANCH   1   2
ATOM      2  C   UNL     1      -5.583   0.389  29.348  1.00  0.00     0.000 C 
BRANCH   2   3
ATOM      3  C   UNL     1      -4.970  -0.748  28.522  1.00  0.00     0.000 C 
BRANCH   3   4
ATOM      4  C   UNL     1      -5.117  -2.096  29.245  1.00  0.00     0.006 C 
BRANCH   4   5
ATOM      5  C   UNL     1      -5.655  -3.195  28.319  1.00  0.00     0.053 C 
BRANCH   5   6
ATOM      6  C   UNL     1      -4.971  -4.505  28.557  1.00  0.00     0.041 C 
ATOM      7  O   UNL     1      -5.643  -5.525  28.864  1.00  0.00    -0.550 OA
ATOM      8  O   UNL     1      -3.587  -4.593  28.473  1.00  0.00    -0.550 OA
ENDBRANCH   5   6
ENDBRANCH   4   5
ENDBRANCH   3   4
ENDBRANCH   2   3
ENDBRANCH   1   2
BRANCH   1   9
ATOM      9  C   UNL     1      -3.087   0.866  29.682  1.00  0.00     0.000 C 
BRANCH   9  10
ATOM     10  C   UNL     1      -2.009   1.856  29.197  1.00  0.00    -0.000 C 
BRANCH  10  11
ATOM     11  C   UNL     1      -1.025   1.293  28.156  1.00  0.00    -0.000 C 
BRANCH  11  12
ATOM     12  C   UNL     1      -1.632   0.162  27.312  1.00  0.00    -0.000 C 
BRANCH  12  13
ATOM     13  C   UNL     1      -0.707  -1.059  27.286  1.00  0.00    -0.003 C 
ATOM     14  C   UNL     1      -1.086  -2.061  28.373  1.00  0.00     0.004 C 
ENDBRANCH  12  13
ENDBRANCH  11  12
ENDBRANCH  10  11
ENDBRANCH   9  10
ENDBRANCH   1   9
TORSDOF 10
ENDMDL
