MODEL 1
REMARK VINA RESULT:     0.683      0.000      0.000
REMARK INTER + INTRA:           0.580
REMARK INTER:                   0.763
REMARK INTRA:                  -0.182
REMARK UNBOUND:                -0.182
REMARK SMILES CC=C(C)C=CC=C(C)C
REMARK SMILES IDX 5 1 6 2 3 3 1 4 2 5 4 6 7 7 8 8 9 9 10 10
REMARK H PARENT
REMARK Flexibility Score: inf
ROOT
ATOM      1  C   UNL     1       6.221   6.824  13.162  1.00  0.00     0.003 C 
ATOM      2  C   UNL     1       6.938   7.765  12.535  1.00  0.00     0.000 C 
ENDROOT
BRANCH   1   3
ATOM      3  C   UNL     1       4.739   6.736  13.082  1.00  0.00    -0.055 C 
ATOM      4  C   UNL     1       2.522   7.837  13.521  1.00  0.00     0.036 C 
ATOM      5  C   UNL     1       4.018   7.759  13.581  1.00  0.00    -0.027 C 
ATOM      6  C   UNL     1       4.078   5.559  12.399  1.00  0.00     0.044 C 
ENDBRANCH   1   3
BRANCH   2   7
ATOM      7  C   UNL     1       8.412   7.800  12.665  1.00  0.00    -0.001 C 
ATOM      8  C   UNL     1       9.059   8.306  13.731  1.00  0.00    -0.076 C 
ATOM      9  C   UNL     1      10.563   8.282  13.737  1.00  0.00     0.039 C 
ATOM     10  C   UNL     1       8.322   8.889  14.911  1.00  0.00     0.039 C 
ENDBRANCH   2   7
TORSDOF 2
ENDMDL
MODEL 2
REMARK VINA RESULT:     0.817      1.994      3.594
REMARK INTER + INTRA:           0.730
REMARK INTER:                   0.928
REMARK INTRA:                  -0.199
REMARK UNBOUND:                -0.182
REMARK SMILES CC=C(C)C=CC=C(C)C
REMARK SMILES IDX 5 1 6 2 3 3 1 4 2 5 4 6 7 7 8 8 9 9 10 10
REMARK H PARENT
REMARK Flexibility Score: inf
ROOT
ATOM      1  C   UNL     1       8.678   8.198  14.153  1.00  0.00     0.003 C 
ATOM      2  C   UNL     1      10.007   8.218  13.995  1.00  0.00     0.000 C 
ENDROOT
BRANCH   1   3
ATOM      3  C   UNL     1       7.735   7.742  13.097  1.00  0.00    -0.055 C 
ATOM      4  C   UNL     1       5.642   8.199  11.781  1.00  0.00     0.036 C 
ATOM      5  C   UNL     1       6.648   8.500  12.851  1.00  0.00    -0.027 C 
ATOM      6  C   UNL     1       8.035   6.499  12.289  1.00  0.00     0.044 C 
ENDBRANCH   1   3
BRANCH   2   7
ATOM      7  C   UNL     1      10.889   8.693  15.084  1.00  0.00    -0.001 C 
ATOM      8  C   UNL     1      12.194   8.383  15.182  1.00  0.00    -0.076 C 
ATOM      9  C   UNL     1      12.979   8.932  16.342  1.00  0.00     0.039 C 
ATOM     10  C   UNL     1      12.885   7.507  14.167  1.00  0.00     0.039 C 
ENDBRANCH   2   7
TORSDOF 2
ENDMDL
MODEL 3
REMARK VINA RESULT:     1.480      2.022      6.489
REMARK INTER + INTRA:           1.471
REMARK INTER:                   1.682
REMARK INTRA:                  -0.212
REMARK UNBOUND:                -0.182
REMARK SMILES CC=C(C)C=CC=C(C)C
REMARK SMILES IDX 5 1 6 2 3 3 1 4 2 5 4 6 7 7 8 8 9 9 10 10
REMARK H PARENT
REMARK Flexibility Score: inf
ROOT
ATOM      1  C   UNL     1      10.302   8.531  14.760  1.00  0.00     0.003 C 
ATOM      2  C   UNL     1       9.673   8.182  13.631  1.00  0.00     0.000 C 
ENDROOT
BRANCH   1   3
ATOM      3  C   UNL     1      11.772   8.413  14.947  1.00  0.00    -0.055 C 
ATOM      4  C   UNL     1      13.771   8.885  16.398  1.00  0.00     0.036 C 
ATOM      5  C   UNL     1      12.316   8.972  16.046  1.00  0.00    -0.027 C 
ATOM      6  C   UNL     1      12.609   7.630  13.959  1.00  0.00     0.044 C 
ENDBRANCH   1   3
BRANCH   2   7
ATOM      7  C   UNL     1       8.203   8.316  13.515  1.00  0.00    -0.001 C 
ATOM      8  C   UNL     1       7.421   7.447  12.849  1.00  0.00    -0.076 C 
ATOM      9  C   UNL     1       5.939   7.701  12.806  1.00  0.00     0.039 C 
ATOM     10  C   UNL     1       7.986   6.235  12.152  1.00  0.00     0.039 C 
ENDBRANCH   2   7
TORSDOF 2
ENDMDL
MODEL 4
REMARK VINA RESULT:     1.672      1.546      2.048
REMARK INTER + INTRA:           1.685
REMARK INTER:                   1.716
REMARK INTRA:                  -0.032
REMARK UNBOUND:                -0.182
REMARK SMILES CC=C(C)C=CC=C(C)C
REMARK SMILES IDX 5 1 6 2 3 3 1 4 2 5 4 6 7 7 8 8 9 9 10 10
REMARK H PARENT
REMARK Flexibility Score: inf
ROOT
ATOM      1  C   UNL     1       7.253   7.340  13.529  1.00  0.00     0.003 C 
ATOM      2  C   UNL     1       7.615   8.498  14.094  1.00  0.00     0.000 C 
ENDROOT
BRANCH   1   3
ATOM      3  C   UNL     1       6.015   7.177  12.721  1.00  0.00    -0.055 C 
ATOM      4  C   UNL     1       4.385   8.205  11.106  1.00  0.00     0.036 C 
ATOM      5  C   UNL     1       5.581   8.236  12.010  1.00  0.00    -0.027 C 
ATOM      6  C   UNL     1       5.314   5.838  12.656  1.00  0.00     0.044 C 
ENDBRANCH   1   3
BRANCH   2   7
ATOM      7  C   UNL     1       8.857   8.589  14.896  1.00  0.00    -0.001 C 
ATOM      8  C   UNL     1      10.091   8.426  14.386  1.00  0.00    -0.076 C 
ATOM      9  C   UNL     1      11.272   8.544  15.312  1.00  0.00     0.039 C 
ATOM     10  C   UNL     1      10.321   8.133  12.925  1.00  0.00     0.039 C 
ENDBRANCH   2   7
TORSDOF 2
ENDMDL
MODEL 5
REMARK VINA RESULT:     2.148      1.243      5.635
REMARK INTER + INTRA:           2.216
REMARK INTER:                   2.445
REMARK INTRA:                  -0.228
REMARK UNBOUND:                -0.182
REMARK SMILES CC=C(C)C=CC=C(C)C
REMARK SMILES IDX 5 1 6 2 3 3 1 4 2 5 4 6 7 7 8 8 9 9 10 10
REMARK H PARENT
REMARK Flexibility Score: inf
ROOT
ATOM      1  C   UNL     1       8.495   8.188  13.790  1.00  0.00     0.003 C 
ATOM      2  C   UNL     1       7.942   7.442  12.825  1.00  0.00     0.000 C 
ENDROOT
BRANCH   1   3
ATOM      3  C   UNL     1       9.964   8.301  13.995  1.00  0.00    -0.055 C 
ATOM      4  C   UNL     1      11.857   8.693  15.603  1.00  0.00     0.036 C 
ATOM      5  C   UNL     1      10.407   8.601  15.232  1.00  0.00    -0.027 C 
ATOM      6  C   UNL     1      10.920   8.021  12.857  1.00  0.00     0.044 C 
ENDBRANCH   1   3
BRANCH   2   7
ATOM      7  C   UNL     1       6.471   7.366  12.682  1.00  0.00    -0.001 C 
ATOM      8  C   UNL     1       5.775   6.215  12.707  1.00  0.00    -0.076 C 
ATOM      9  C   UNL     1       4.279   6.277  12.549  1.00  0.00     0.039 C 
ATOM     10  C   UNL     1       6.446   4.878  12.888  1.00  0.00     0.039 C 
ENDBRANCH   2   7
TORSDOF 2
ENDMDL
MODEL 6
REMARK VINA RESULT:     3.020      1.054      5.143
REMARK INTER + INTRA:           3.191
REMARK INTER:                   3.395
REMARK INTRA:                  -0.204
REMARK UNBOUND:                -0.182
REMARK SMILES CC=C(C)C=CC=C(C)C
REMARK SMILES IDX 5 1 6 2 3 3 1 4 2 5 4 6 7 7 8 8 9 9 10 10
REMARK H PARENT
REMARK Flexibility Score: inf
ROOT
ATOM      1  C   UNL     1       6.155   7.966  12.673  1.00  0.00     0.003 C 
ATOM      2  C   UNL     1       5.179   7.099  12.970  1.00  0.00     0.000 C 
ENDROOT
BRANCH   1   3
ATOM      3  C   UNL     1       7.601   7.634  12.769  1.00  0.00    -0.055 C 
ATOM      4  C   UNL     1       9.862   8.244  13.684  1.00  0.00     0.036 C 
ATOM      5  C   UNL     1       8.399   8.476  13.455  1.00  0.00    -0.027 C 
ATOM      6  C   UNL     1       8.133   6.353  12.165  1.00  0.00     0.044 C 
ENDBRANCH   1   3
BRANCH   2   7
ATOM      7  C   UNL     1       3.758   7.498  12.862  1.00  0.00    -0.001 C 
ATOM      8  C   UNL     1       3.070   8.096  13.852  1.00  0.00    -0.076 C 
ATOM      9  C   UNL     1       1.627   8.449  13.612  1.00  0.00     0.039 C 
ATOM     10  C   UNL     1       3.702   8.419  15.182  1.00  0.00     0.039 C 
ENDBRANCH   2   7
TORSDOF 2
ENDMDL
