MODEL 1
REMARK VINA RESULT:    -4.417      0.000      0.000
REMARK INTER + INTRA:          -4.417
REMARK INTER:                  -4.417
REMARK INTRA:                   0.000
REMARK UNBOUND:                 0.000
REMARK SMILES c1ccc2ccccc2c1
REMARK SMILES IDX 2 1 1 2 10 3 9 4 8 5 7 6 6 7 5 8 4 9 3 10
REMARK H PARENT
REMARK Flexibility Score: inf
ROOT
ATOM      1  C   UNL     1       3.136  58.725 133.268  1.00  0.00     0.001 A 
ATOM      2  C   UNL     1       2.988  59.678 132.256  1.00  0.00     0.001 A 
ATOM      3  C   UNL     1       1.787  60.378 132.119  1.00  0.00     0.009 A 
ATOM      4  C   UNL     1       0.721  60.128 132.996  1.00  0.00    -0.018 A 
ATOM      5  C   UNL     1      -0.491  60.824 132.869  1.00  0.00     0.009 A 
ATOM      6  C   UNL     1      -1.545  60.564 133.751  1.00  0.00     0.001 A 
ATOM      7  C   UNL     1      -1.398  59.612 134.762  1.00  0.00     0.001 A 
ATOM      8  C   UNL     1      -0.196  58.911 134.899  1.00  0.00     0.009 A 
ATOM      9  C   UNL     1       0.870  59.160 134.022  1.00  0.00    -0.018 A 
ATOM     10  C   UNL     1       2.082  58.465 134.149  1.00  0.00     0.009 A 
ENDROOT
TORSDOF 0
ENDMDL
MODEL 2
REMARK VINA RESULT:    -4.402      0.095      2.083
REMARK INTER + INTRA:          -4.402
REMARK INTER:                  -4.402
REMARK INTRA:                   0.000
REMARK UNBOUND:                 0.000
REMARK SMILES c1ccc2ccccc2c1
REMARK SMILES IDX 2 1 1 2 10 3 9 4 8 5 7 6 6 7 5 8 4 9 3 10
REMARK H PARENT
REMARK Flexibility Score: inf
ROOT
ATOM      1  C   UNL     1       2.968  59.604 132.232  1.00  0.00     0.001 A 
ATOM      2  C   UNL     1       3.122  58.630 133.223  1.00  0.00     0.001 A 
ATOM      3  C   UNL     1       2.079  58.359 134.113  1.00  0.00     0.009 A 
ATOM      4  C   UNL     1       0.870  59.064 134.017  1.00  0.00    -0.018 A 
ATOM      5  C   UNL     1      -0.186  58.802 134.904  1.00  0.00     0.009 A 
ATOM      6  C   UNL     1      -1.386  59.512 134.796  1.00  0.00     0.001 A 
ATOM      7  C   UNL     1      -1.541  60.485 133.805  1.00  0.00     0.001 A 
ATOM      8  C   UNL     1      -0.497  60.756 132.915  1.00  0.00     0.009 A 
ATOM      9  C   UNL     1       0.712  60.052 133.012  1.00  0.00    -0.018 A 
ATOM     10  C   UNL     1       1.767  60.314 132.125  1.00  0.00     0.009 A 
ENDROOT
TORSDOF 0
ENDMDL
MODEL 3
REMARK VINA RESULT:    -4.401      0.092      3.438
REMARK INTER + INTRA:          -4.401
REMARK INTER:                  -4.401
REMARK INTRA:                   0.000
REMARK UNBOUND:                 0.000
REMARK SMILES c1ccc2ccccc2c1
REMARK SMILES IDX 2 1 1 2 10 3 9 4 8 5 7 6 6 7 5 8 4 9 3 10
REMARK H PARENT
REMARK Flexibility Score: inf
ROOT
ATOM      1  C   UNL     1      -1.421  59.566 134.847  1.00  0.00     0.001 A 
ATOM      2  C   UNL     1      -1.572  60.524 133.841  1.00  0.00     0.001 A 
ATOM      3  C   UNL     1      -0.526  60.780 132.950  1.00  0.00     0.009 A 
ATOM      4  C   UNL     1       0.683  60.077 133.062  1.00  0.00    -0.018 A 
ATOM      5  C   UNL     1       1.741  60.325 132.174  1.00  0.00     0.009 A 
ATOM      6  C   UNL     1       2.941  59.616 132.297  1.00  0.00     0.001 A 
ATOM      7  C   UNL     1       3.092  58.659 133.303  1.00  0.00     0.001 A 
ATOM      8  C   UNL     1       2.046  58.403 134.195  1.00  0.00     0.009 A 
ATOM      9  C   UNL     1       0.838  59.106 134.083  1.00  0.00    -0.018 A 
ATOM     10  C   UNL     1      -0.221  58.858 134.971  1.00  0.00     0.009 A 
ENDROOT
TORSDOF 0
ENDMDL
MODEL 4
REMARK VINA RESULT:    -4.396      0.120      4.019
REMARK INTER + INTRA:          -4.396
REMARK INTER:                  -4.396
REMARK INTRA:                   0.000
REMARK UNBOUND:                 0.000
REMARK SMILES c1ccc2ccccc2c1
REMARK SMILES IDX 2 1 1 2 10 3 9 4 8 5 7 6 6 7 5 8 4 9 3 10
REMARK H PARENT
REMARK Flexibility Score: inf
ROOT
ATOM      1  C   UNL     1      -1.594  60.503 133.860  1.00  0.00     0.001 A 
ATOM      2  C   UNL     1      -1.439  59.541 134.862  1.00  0.00     0.001 A 
ATOM      3  C   UNL     1      -0.239  58.834 134.980  1.00  0.00     0.009 A 
ATOM      4  C   UNL     1       0.817  59.085 134.090  1.00  0.00    -0.018 A 
ATOM      5  C   UNL     1       2.027  58.382 134.196  1.00  0.00     0.009 A 
ATOM      6  C   UNL     1       3.071  58.643 133.303  1.00  0.00     0.001 A 
ATOM      7  C   UNL     1       2.915  59.605 132.301  1.00  0.00     0.001 A 
ATOM      8  C   UNL     1       1.715  60.312 132.184  1.00  0.00     0.009 A 
ATOM      9  C   UNL     1       0.659  60.060 133.073  1.00  0.00    -0.018 A 
ATOM     10  C   UNL     1      -0.550  60.764 132.967  1.00  0.00     0.009 A 
ENDROOT
TORSDOF 0
ENDMDL
MODEL 5
REMARK VINA RESULT:    -4.389      1.737      3.593
REMARK INTER + INTRA:          -4.389
REMARK INTER:                  -4.389
REMARK INTRA:                   0.000
REMARK UNBOUND:                 0.000
REMARK SMILES c1ccc2ccccc2c1
REMARK SMILES IDX 2 1 1 2 10 3 9 4 8 5 7 6 6 7 5 8 4 9 3 10
REMARK H PARENT
REMARK Flexibility Score: inf
ROOT
ATOM      1  C   UNL     1      -0.047  59.234 134.176  1.00  0.00     0.001 A 
ATOM      2  C   UNL     1      -0.364  59.944 133.015  1.00  0.00     0.001 A 
ATOM      3  C   UNL     1       0.577  60.798 132.433  1.00  0.00     0.009 A 
ATOM      4  C   UNL     1       1.845  60.949 133.012  1.00  0.00    -0.018 A 
ATOM      5  C   UNL     1       2.799  61.803 132.439  1.00  0.00     0.009 A 
ATOM      6  C   UNL     1       4.060  61.944 133.027  1.00  0.00     0.001 A 
ATOM      7  C   UNL     1       4.377  61.234 134.188  1.00  0.00     0.001 A 
ATOM      8  C   UNL     1       3.437  60.380 134.770  1.00  0.00     0.009 A 
ATOM      9  C   UNL     1       2.168  60.230 134.191  1.00  0.00    -0.018 A 
ATOM     10  C   UNL     1       1.214  59.374 134.765  1.00  0.00     0.009 A 
ENDROOT
TORSDOF 0
ENDMDL
MODEL 6
REMARK VINA RESULT:    -4.338      2.632      3.852
REMARK INTER + INTRA:          -4.338
REMARK INTER:                  -4.338
REMARK INTRA:                   0.000
REMARK UNBOUND:                 0.000
REMARK SMILES c1ccc2ccccc2c1
REMARK SMILES IDX 2 1 1 2 10 3 9 4 8 5 7 6 6 7 5 8 4 9 3 10
REMARK H PARENT
REMARK Flexibility Score: inf
ROOT
ATOM      1  C   UNL     1       5.189  57.579 133.234  1.00  0.00     0.001 A 
ATOM      2  C   UNL     1       6.178  58.520 133.534  1.00  0.00     0.001 A 
ATOM      3  C   UNL     1       5.891  59.887 133.471  1.00  0.00     0.009 A 
ATOM      4  C   UNL     1       4.609  60.322 133.104  1.00  0.00    -0.018 A 
ATOM      5  C   UNL     1       4.308  61.691 133.036  1.00  0.00     0.009 A 
ATOM      6  C   UNL     1       3.025  62.110 132.669  1.00  0.00     0.001 A 
ATOM      7  C   UNL     1       2.037  61.170 132.370  1.00  0.00     0.001 A 
ATOM      8  C   UNL     1       2.323  59.803 132.433  1.00  0.00     0.009 A 
ATOM      9  C   UNL     1       3.605  59.368 132.799  1.00  0.00    -0.018 A 
ATOM     10  C   UNL     1       3.906  57.999 132.868  1.00  0.00     0.009 A 
ENDROOT
TORSDOF 0
ENDMDL
MODEL 7
REMARK VINA RESULT:    -4.309      6.159      8.960
REMARK INTER + INTRA:          -4.309
REMARK INTER:                  -4.309
REMARK INTRA:                   0.000
REMARK UNBOUND:                 0.000
REMARK SMILES c1ccc2ccccc2c1
REMARK SMILES IDX 2 1 1 2 10 3 9 4 8 5 7 6 6 7 5 8 4 9 3 10
REMARK H PARENT
REMARK Flexibility Score: inf
ROOT
ATOM      1  C   UNL     1       6.460  57.874 133.351  1.00  0.00     0.001 A 
ATOM      2  C   UNL     1       6.570  59.068 132.635  1.00  0.00     0.001 A 
ATOM      3  C   UNL     1       7.823  59.528 132.219  1.00  0.00     0.009 A 
ATOM      4  C   UNL     1       8.978  58.792 132.520  1.00  0.00    -0.018 A 
ATOM      5  C   UNL     1      10.242  59.242 132.109  1.00  0.00     0.009 A 
ATOM      6  C   UNL     1      11.386  58.498 132.416  1.00  0.00     0.001 A 
ATOM      7  C   UNL     1      11.277  57.303 133.132  1.00  0.00     0.001 A 
ATOM      8  C   UNL     1      10.024  56.844 133.548  1.00  0.00     0.009 A 
ATOM      9  C   UNL     1       8.868  57.580 133.248  1.00  0.00    -0.018 A 
ATOM     10  C   UNL     1       7.604  57.130 133.658  1.00  0.00     0.009 A 
ENDROOT
TORSDOF 0
ENDMDL
MODEL 8
REMARK VINA RESULT:    -4.288      2.625      4.905
REMARK INTER + INTRA:          -4.288
REMARK INTER:                  -4.288
REMARK INTRA:                   0.000
REMARK UNBOUND:                 0.000
REMARK SMILES c1ccc2ccccc2c1
REMARK SMILES IDX 2 1 1 2 10 3 9 4 8 5 7 6 6 7 5 8 4 9 3 10
REMARK H PARENT
REMARK Flexibility Score: inf
ROOT
ATOM      1  C   UNL     1       3.070  62.011 132.639  1.00  0.00     0.001 A 
ATOM      2  C   UNL     1       2.076  61.068 132.363  1.00  0.00     0.001 A 
ATOM      3  C   UNL     1       2.355  59.702 132.464  1.00  0.00     0.009 A 
ATOM      4  C   UNL     1       3.635  59.270 132.843  1.00  0.00    -0.018 A 
ATOM      5  C   UNL     1       3.928  57.902 132.948  1.00  0.00     0.009 A 
ATOM      6  C   UNL     1       5.208  57.486 133.327  1.00  0.00     0.001 A 
ATOM      7  C   UNL     1       6.201  58.429 133.603  1.00  0.00     0.001 A 
ATOM      8  C   UNL     1       5.923  59.795 133.501  1.00  0.00     0.009 A 
ATOM      9  C   UNL     1       4.644  60.227 133.122  1.00  0.00    -0.018 A 
ATOM     10  C   UNL     1       4.350  61.595 133.018  1.00  0.00     0.009 A 
ENDROOT
TORSDOF 0
ENDMDL
MODEL 9
REMARK VINA RESULT:    -4.272      2.656      4.056
REMARK INTER + INTRA:          -4.272
REMARK INTER:                  -4.272
REMARK INTRA:                   0.000
REMARK UNBOUND:                 0.000
REMARK SMILES c1ccc2ccccc2c1
REMARK SMILES IDX 2 1 1 2 10 3 9 4 8 5 7 6 6 7 5 8 4 9 3 10
REMARK H PARENT
REMARK Flexibility Score: inf
ROOT
ATOM      1  C   UNL     1       6.260  58.488 133.629  1.00  0.00     0.001 A 
ATOM      2  C   UNL     1       5.265  57.544 133.362  1.00  0.00     0.001 A 
ATOM      3  C   UNL     1       3.984  57.958 132.985  1.00  0.00     0.009 A 
ATOM      4  C   UNL     1       3.690  59.325 132.873  1.00  0.00    -0.018 A 
ATOM      5  C   UNL     1       2.409  59.755 132.496  1.00  0.00     0.009 A 
ATOM      6  C   UNL     1       2.130  61.122 132.388  1.00  0.00     0.001 A 
ATOM      7  C   UNL     1       3.126  62.065 132.655  1.00  0.00     0.001 A 
ATOM      8  C   UNL     1       4.406  61.651 133.032  1.00  0.00     0.009 A 
ATOM      9  C   UNL     1       4.700  60.284 133.145  1.00  0.00    -0.018 A 
ATOM     10  C   UNL     1       5.981  59.854 133.521  1.00  0.00     0.009 A 
ENDROOT
TORSDOF 0
ENDMDL
