MODEL 1
REMARK VINA RESULT:    -2.177      0.000      0.000
REMARK INTER + INTRA:          -3.305
REMARK INTER:                  -2.877
REMARK INTRA:                  -0.428
REMARK UNBOUND:                -0.428
REMARK SMILES C=CCC[C@H](O)CCC
REMARK SMILES IDX 4 1 5 2 7 3 8 4 9 5 6 6 3 8 2 9 1 10
REMARK H PARENT 6 7
REMARK Flexibility Score: inf
ROOT
ATOM      1  C   UNL     1     -39.056  21.424   5.872  1.00  0.00     0.036 C 
ENDROOT
BRANCH   1   2
ATOM      2  C   UNL     1     -38.294  21.120   7.188  1.00  0.00     0.114 C 
BRANCH   2   3
ATOM      3  C   UNL     1     -37.611  22.344   7.847  1.00  0.00     0.031 C 
BRANCH   3   4
ATOM      4  C   UNL     1     -36.073  22.408   7.765  1.00  0.00    -0.001 C 
ATOM      5  C   UNL     1     -35.553  23.340   6.672  1.00  0.00     0.004 C 
ENDBRANCH   3   4
ENDBRANCH   2   3
BRANCH   2   6
ATOM      6  O   UNL     1     -39.102  20.446   8.125  1.00  0.00    -0.393 OA
ATOM      7  H   UNL     1     -38.561  19.757   8.585  1.00  0.00     0.210 HD
ENDBRANCH   2   6
ENDBRANCH   1   2
BRANCH   1   8
ATOM      8  C   UNL     1     -39.125  22.927   5.562  1.00  0.00     0.029 C 
BRANCH   8   9
ATOM      9  C   UNL     1     -38.656  23.215   4.163  1.00  0.00    -0.035 C 
ATOM     10  C   UNL     1     -38.912  24.379   3.561  1.00  0.00     0.004 C 
ENDBRANCH   8   9
ENDBRANCH   1   8
TORSDOF 6
ENDMDL
MODEL 2
REMARK VINA RESULT:    -1.990      0.896      3.384
REMARK INTER + INTRA:          -3.058
REMARK INTER:                  -2.716
REMARK INTRA:                  -0.343
REMARK UNBOUND:                -0.428
REMARK SMILES C=CCC[C@H](O)CCC
REMARK SMILES IDX 4 1 5 2 7 3 8 4 9 5 6 6 3 8 2 9 1 10
REMARK H PARENT 6 7
REMARK Flexibility Score: inf
ROOT
ATOM      1  C   UNL     1     -38.264  22.996   7.177  1.00  0.00     0.036 C 
ENDROOT
BRANCH   1   2
ATOM      2  C   UNL     1     -39.103  21.857   6.544  1.00  0.00     0.114 C 
BRANCH   2   3
ATOM      3  C   UNL     1     -39.046  21.783   4.998  1.00  0.00     0.031 C 
BRANCH   3   4
ATOM      4  C   UNL     1     -38.271  22.904   4.278  1.00  0.00    -0.001 C 
ATOM      5  C   UNL     1     -39.119  24.136   3.968  1.00  0.00     0.004 C 
ENDBRANCH   3   4
ENDBRANCH   2   3
BRANCH   2   6
ATOM      6  O   UNL     1     -38.801  20.601   7.107  1.00  0.00    -0.393 OA
ATOM      7  H   UNL     1     -39.353  20.466   7.918  1.00  0.00     0.210 HD
ENDBRANCH   2   6
ENDBRANCH   1   2
BRANCH   1   8
ATOM      8  C   UNL     1     -36.844  22.546   7.555  1.00  0.00     0.029 C 
BRANCH   8   9
ATOM      9  C   UNL     1     -35.818  23.544   7.093  1.00  0.00    -0.035 C 
ATOM     10  C   UNL     1     -35.133  23.374   5.960  1.00  0.00     0.004 C 
ENDBRANCH   8   9
ENDBRANCH   1   8
TORSDOF 6
ENDMDL
MODEL 3
REMARK VINA RESULT:    -1.919      1.958      2.671
REMARK INTER + INTRA:          -2.964
REMARK INTER:                  -2.847
REMARK INTRA:                  -0.117
REMARK UNBOUND:                -0.428
REMARK SMILES C=CCC[C@H](O)CCC
REMARK SMILES IDX 4 1 5 2 7 3 8 4 9 5 6 6 3 8 2 9 1 10
REMARK H PARENT 6 7
REMARK Flexibility Score: inf
ROOT
ATOM      1  C   UNL     1     -37.232  22.678   5.290  1.00  0.00     0.036 C 
ENDROOT
BRANCH   1   2
ATOM      2  C   UNL     1     -36.945  23.432   6.614  1.00  0.00     0.114 C 
BRANCH   2   3
ATOM      3  C   UNL     1     -37.526  22.767   7.886  1.00  0.00     0.031 C 
BRANCH   3   4
ATOM      4  C   UNL     1     -37.636  21.229   7.877  1.00  0.00    -0.001 C 
ATOM      5  C   UNL     1     -39.071  20.715   7.982  1.00  0.00     0.004 C 
ENDBRANCH   3   4
ENDBRANCH   2   3
BRANCH   2   6
ATOM      6  O   UNL     1     -35.572  23.699   6.784  1.00  0.00    -0.393 OA
ATOM      7  H   UNL     1     -35.441  24.676   6.887  1.00  0.00     0.210 HD
ENDBRANCH   2   6
ENDBRANCH   1   2
BRANCH   1   8
ATOM      8  C   UNL     1     -38.734  22.584   4.977  1.00  0.00     0.029 C 
BRANCH   8   9
ATOM      9  C   UNL     1     -39.124  23.555   3.897  1.00  0.00    -0.035 C 
ATOM     10  C   UNL     1     -39.125  24.874   4.105  1.00  0.00     0.004 C 
ENDBRANCH   8   9
ENDBRANCH   1   8
TORSDOF 6
ENDMDL
MODEL 4
REMARK VINA RESULT:    -1.633      1.764      4.060
REMARK INTER + INTRA:          -2.587
REMARK INTER:                  -3.187
REMARK INTRA:                   0.600
REMARK UNBOUND:                -0.428
REMARK SMILES C=CCC[C@H](O)CCC
REMARK SMILES IDX 4 1 5 2 7 3 8 4 9 5 6 6 3 8 2 9 1 10
REMARK H PARENT 6 7
REMARK Flexibility Score: inf
ROOT
ATOM      1  C   UNL     1     -37.247  23.276   6.281  1.00  0.00     0.036 C 
ENDROOT
BRANCH   1   2
ATOM      2  C   UNL     1     -38.283  24.415   6.458  1.00  0.00     0.114 C 
BRANCH   2   3
ATOM      3  C   UNL     1     -39.123  24.740   5.198  1.00  0.00     0.031 C 
BRANCH   3   4
ATOM      4  C   UNL     1     -39.053  23.727   4.038  1.00  0.00    -0.001 C 
ATOM      5  C   UNL     1     -39.074  22.269   4.493  1.00  0.00     0.004 C 
ENDBRANCH   3   4
ENDBRANCH   2   3
BRANCH   2   6
ATOM      6  O   UNL     1     -39.125  24.198   7.567  1.00  0.00    -0.393 OA
ATOM      7  H   UNL     1     -38.991  24.925   8.225  1.00  0.00     0.210 HD
ENDBRANCH   2   6
ENDBRANCH   1   2
BRANCH   1   8
ATOM      8  C   UNL     1     -36.907  22.574   7.604  1.00  0.00     0.029 C 
BRANCH   8   9
ATOM      9  C   UNL     1     -37.536  21.210   7.673  1.00  0.00    -0.035 C 
ATOM     10  C   UNL     1     -38.815  21.043   8.021  1.00  0.00     0.004 C 
ENDBRANCH   8   9
ENDBRANCH   1   8
TORSDOF 6
ENDMDL
MODEL 5
REMARK VINA RESULT:    -1.481      2.172      3.401
REMARK INTER + INTRA:          -2.385
REMARK INTER:                  -2.610
REMARK INTRA:                   0.225
REMARK UNBOUND:                -0.428
REMARK SMILES C=CCC[C@H](O)CCC
REMARK SMILES IDX 4 1 5 2 7 3 8 4 9 5 6 6 3 8 2 9 1 10
REMARK H PARENT 6 7
REMARK Flexibility Score: inf
ROOT
ATOM      1  C   UNL     1     -38.416  22.488   4.877  1.00  0.00     0.036 C 
ENDROOT
BRANCH   1   2
ATOM      2  C   UNL     1     -38.774  23.848   5.530  1.00  0.00     0.114 C 
BRANCH   2   3
ATOM      3  C   UNL     1     -37.820  24.302   6.662  1.00  0.00     0.031 C 
BRANCH   3   4
ATOM      4  C   UNL     1     -36.399  23.706   6.653  1.00  0.00    -0.001 C 
ATOM      5  C   UNL     1     -36.192  22.592   7.677  1.00  0.00     0.004 C 
ENDBRANCH   3   4
ENDBRANCH   2   3
BRANCH   2   6
ATOM      6  O   UNL     1     -38.924  24.872   4.574  1.00  0.00    -0.393 OA
ATOM      7  H   UNL     1     -38.573  25.719   4.947  1.00  0.00     0.210 HD
ENDBRANCH   2   6
ENDBRANCH   1   2
BRANCH   1   8
ATOM      8  C   UNL     1     -39.120  21.302   5.555  1.00  0.00     0.029 C 
BRANCH   8   9
ATOM      9  C   UNL     1     -39.124  21.457   7.050  1.00  0.00    -0.035 C 
ATOM     10  C   UNL     1     -39.037  20.403   7.866  1.00  0.00     0.004 C 
ENDBRANCH   8   9
ENDBRANCH   1   8
TORSDOF 6
ENDMDL
MODEL 6
REMARK VINA RESULT:    -0.883      0.967      3.401
REMARK INTER + INTRA:          -1.595
REMARK INTER:                  -1.414
REMARK INTRA:                  -0.181
REMARK UNBOUND:                -0.428
REMARK SMILES C=CCC[C@H](O)CCC
REMARK SMILES IDX 4 1 5 2 7 3 8 4 9 5 6 6 3 8 2 9 1 10
REMARK H PARENT 6 7
REMARK Flexibility Score: inf
ROOT
ATOM      1  C   UNL     1     -36.948  22.349   7.717  1.00  0.00     0.036 C 
ENDROOT
BRANCH   1   2
ATOM      2  C   UNL     1     -38.431  21.979   7.458  1.00  0.00     0.114 C 
BRANCH   2   3
ATOM      3  C   UNL     1     -39.124  22.793   6.338  1.00  0.00     0.031 C 
BRANCH   3   4
ATOM      4  C   UNL     1     -38.764  22.422   4.886  1.00  0.00    -0.001 C 
ATOM      5  C   UNL     1     -38.701  23.621   3.942  1.00  0.00     0.004 C 
ENDBRANCH   3   4
ENDBRANCH   2   3
BRANCH   2   6
ATOM      6  O   UNL     1     -38.602  20.597   7.238  1.00  0.00    -0.393 OA
ATOM      7  H   UNL     1     -38.149  20.094   7.961  1.00  0.00     0.210 HD
ENDBRANCH   2   6
ENDBRANCH   1   2
BRANCH   1   8
ATOM      8  C   UNL     1     -36.527  23.640   7.000  1.00  0.00     0.029 C 
BRANCH   8   9
ATOM      9  C   UNL     1     -35.185  23.482   6.340  1.00  0.00    -0.035 C 
ATOM     10  C   UNL     1     -34.263  24.447   6.382  1.00  0.00     0.004 C 
ENDBRANCH   8   9
ENDBRANCH   1   8
TORSDOF 6
ENDMDL
MODEL 7
REMARK VINA RESULT:     0.026      2.078      3.432
REMARK INTER + INTRA:          -0.394
REMARK INTER:                  -0.452
REMARK INTRA:                   0.058
REMARK UNBOUND:                -0.428
REMARK SMILES C=CCC[C@H](O)CCC
REMARK SMILES IDX 4 1 5 2 7 3 8 4 9 5 6 6 3 8 2 9 1 10
REMARK H PARENT 6 7
REMARK Flexibility Score: inf
ROOT
ATOM      1  C   UNL     1     -37.186  23.369   5.978  1.00  0.00     0.036 C 
ENDROOT
BRANCH   1   2
ATOM      2  C   UNL     1     -35.834  23.006   6.645  1.00  0.00     0.114 C 
BRANCH   2   3
ATOM      3  C   UNL     1     -34.912  24.210   6.956  1.00  0.00     0.031 C 
BRANCH   3   4
ATOM      4  C   UNL     1     -33.816  24.531   5.921  1.00  0.00    -0.001 C 
ATOM      5  C   UNL     1     -33.125  25.874   6.153  1.00  0.00     0.004 C 
ENDBRANCH   3   4
ENDBRANCH   2   3
BRANCH   2   6
ATOM      6  O   UNL     1     -36.008  22.211   7.795  1.00  0.00    -0.393 OA
ATOM      7  H   UNL     1     -36.975  22.055   7.940  1.00  0.00     0.210 HD
ENDBRANCH   2   6
ENDBRANCH   1   2
BRANCH   1   8
ATOM      8  C   UNL     1     -38.371  23.272   6.952  1.00  0.00     0.029 C 
BRANCH   8   9
ATOM      9  C   UNL     1     -39.124  21.984   6.763  1.00  0.00    -0.035 C 
ATOM     10  C   UNL     1     -38.900  20.919   7.537  1.00  0.00     0.004 C 
ENDBRANCH   8   9
ENDBRANCH   1   8
TORSDOF 6
ENDMDL
MODEL 8
REMARK VINA RESULT:     0.267     16.084     18.387
REMARK INTER + INTRA:          -0.075
REMARK INTER:                   0.152
REMARK INTRA:                  -0.227
REMARK UNBOUND:                -0.428
REMARK SMILES C=CCC[C@H](O)CCC
REMARK SMILES IDX 4 1 5 2 7 3 8 4 9 5 6 6 3 8 2 9 1 10
REMARK H PARENT 6 7
REMARK Flexibility Score: inf
ROOT
ATOM      1  C   UNL     1     -21.740  30.194   8.037  1.00  0.00     0.036 C 
ENDROOT
BRANCH   1   2
ATOM      2  C   UNL     1     -22.684  30.665   6.902  1.00  0.00     0.114 C 
BRANCH   2   3
ATOM      3  C   UNL     1     -22.979  29.605   5.812  1.00  0.00     0.031 C 
BRANCH   3   4
ATOM      4  C   UNL     1     -22.410  28.192   6.046  1.00  0.00    -0.001 C 
ATOM      5  C   UNL     1     -23.020  27.126   5.139  1.00  0.00     0.004 C 
ENDBRANCH   3   4
ENDBRANCH   2   3
BRANCH   2   6
ATOM      6  O   UNL     1     -23.887  31.202   7.403  1.00  0.00    -0.393 OA
ATOM      7  H   UNL     1     -24.145  30.712   8.224  1.00  0.00     0.210 HD
ENDBRANCH   2   6
ENDBRANCH   1   2
BRANCH   1   8
ATOM      8  C   UNL     1     -20.454  31.031   8.123  1.00  0.00     0.029 C 
BRANCH   8   9
ATOM      9  C   UNL     1     -20.761  32.502   8.088  1.00  0.00    -0.035 C 
ATOM     10  C   UNL     1     -19.794  33.423   8.125  1.00  0.00     0.004 C 
ENDBRANCH   8   9
ENDBRANCH   1   8
TORSDOF 6
ENDMDL
