MODEL 1
REMARK VINA RESULT:    -4.390      0.000      0.000
REMARK INTER + INTRA:          -5.010
REMARK INTER:                  -4.775
REMARK INTRA:                  -0.235
REMARK UNBOUND:                -0.235
REMARK SMILES O=C([O-])c1ccccc1O
REMARK SMILES IDX 4 1 9 2 5 3 8 4 6 5 7 6 2 7 1 8 3 9 10 10
REMARK H PARENT 10 11
REMARK Flexibility Score: inf
ROOT
ATOM      1  C   UNL     1       7.545  32.918  68.964  1.00  0.00     0.039 A 
ATOM      2  C   UNL     1       7.296  33.940  69.915  1.00  0.00     0.124 A 
ATOM      3  C   UNL     1       7.599  31.581  69.400  1.00  0.00     0.014 A 
ATOM      4  C   UNL     1       7.172  33.609  71.271  1.00  0.00     0.047 A 
ATOM      5  C   UNL     1       7.453  31.266  70.753  1.00  0.00     0.001 A 
ATOM      6  C   UNL     1       7.249  32.280  71.688  1.00  0.00     0.004 A 
ENDROOT
BRANCH   1   7
ATOM      7  C   UNL     1       7.788  33.207  67.534  1.00  0.00     0.075 C 
ATOM      8  O   UNL     1       8.536  32.457  66.854  1.00  0.00    -0.545 OA
ATOM      9  O   UNL     1       7.253  34.344  66.938  1.00  0.00    -0.545 OA
ENDBRANCH   1   7
BRANCH   2  10
ATOM     10  O   UNL     1       7.130  35.279  69.555  1.00  0.00    -0.507 OA
ATOM     11  H   UNL     1       7.830  35.812  69.058  1.00  0.00     0.293 HD
ENDBRANCH   2  10
TORSDOF 2
ENDMDL
MODEL 2
REMARK VINA RESULT:    -4.390     14.225     14.836
REMARK INTER + INTRA:          -5.010
REMARK INTER:                  -4.758
REMARK INTRA:                  -0.252
REMARK UNBOUND:                -0.235
REMARK SMILES O=C([O-])c1ccccc1O
REMARK SMILES IDX 4 1 9 2 5 3 8 4 6 5 7 6 2 7 1 8 3 9 10 10
REMARK H PARENT 10 11
REMARK Flexibility Score: inf
ROOT
ATOM      1  C   UNL     1       8.069  47.633  69.370  1.00  0.00     0.039 A 
ATOM      2  C   UNL     1       9.221  47.437  68.567  1.00  0.00     0.124 A 
ATOM      3  C   UNL     1       8.226  48.142  70.672  1.00  0.00     0.014 A 
ATOM      4  C   UNL     1      10.490  47.691  69.103  1.00  0.00     0.047 A 
ATOM      5  C   UNL     1       9.497  48.410  71.185  1.00  0.00     0.001 A 
ATOM      6  C   UNL     1      10.628  48.175  70.404  1.00  0.00     0.004 A 
ENDROOT
BRANCH   1   7
ATOM      7  C   UNL     1       6.708  47.289  68.902  1.00  0.00     0.075 C 
ATOM      8  O   UNL     1       5.954  46.578  69.618  1.00  0.00    -0.545 OA
ATOM      9  O   UNL     1       6.268  47.683  67.644  1.00  0.00    -0.545 OA
ENDBRANCH   1   7
BRANCH   2  10
ATOM     10  O   UNL     1       9.149  47.030  67.233  1.00  0.00    -0.507 OA
ATOM     11  H   UNL     1       9.933  46.643  66.726  1.00  0.00     0.293 HD
ENDBRANCH   2  10
TORSDOF 2
ENDMDL
MODEL 3
REMARK VINA RESULT:    -4.388      1.413      3.217
REMARK INTER + INTRA:          -5.007
REMARK INTER:                  -4.758
REMARK INTRA:                  -0.249
REMARK UNBOUND:                -0.235
REMARK SMILES O=C([O-])c1ccccc1O
REMARK SMILES IDX 4 1 9 2 5 3 8 4 6 5 7 6 2 7 1 8 3 9 10 10
REMARK H PARENT 10 11
REMARK Flexibility Score: inf
ROOT
ATOM      1  C   UNL     1       7.539  33.023  69.500  1.00  0.00     0.039 A 
ATOM      2  C   UNL     1       7.967  33.626  68.290  1.00  0.00     0.124 A 
ATOM      3  C   UNL     1       7.490  31.619  69.580  1.00  0.00     0.014 A 
ATOM      4  C   UNL     1       8.270  32.821  67.184  1.00  0.00     0.047 A 
ATOM      5  C   UNL     1       7.816  30.830  68.475  1.00  0.00     0.001 A 
ATOM      6  C   UNL     1       8.196  31.431  67.275  1.00  0.00     0.004 A 
ENDROOT
BRANCH   1   7
ATOM      7  C   UNL     1       7.107  33.816  70.672  1.00  0.00     0.075 C 
ATOM      8  O   UNL     1       7.428  33.454  71.834  1.00  0.00    -0.545 OA
ATOM      9  O   UNL     1       6.286  34.926  70.515  1.00  0.00    -0.545 OA
ENDBRANCH   1   7
BRANCH   2  10
ATOM     10  O   UNL     1       8.138  35.006  68.156  1.00  0.00    -0.507 OA
ATOM     11  H   UNL     1       8.964  35.427  67.752  1.00  0.00     0.293 HD
ENDBRANCH   2  10
TORSDOF 2
ENDMDL
MODEL 4
REMARK VINA RESULT:    -4.296      1.185      1.889
REMARK INTER + INTRA:          -4.907
REMARK INTER:                  -4.772
REMARK INTRA:                  -0.135
REMARK UNBOUND:                -0.235
REMARK SMILES O=C([O-])c1ccccc1O
REMARK SMILES IDX 4 1 9 2 5 3 8 4 6 5 7 6 2 7 1 8 3 9 10 10
REMARK H PARENT 10 11
REMARK Flexibility Score: inf
ROOT
ATOM      1  C   UNL     1       7.807  32.626  68.371  1.00  0.00     0.039 A 
ATOM      2  C   UNL     1       7.508  34.010  68.291  1.00  0.00     0.124 A 
ATOM      3  C   UNL     1       7.593  31.953  69.588  1.00  0.00     0.014 A 
ATOM      4  C   UNL     1       7.068  34.690  69.434  1.00  0.00     0.047 A 
ATOM      5  C   UNL     1       7.134  32.642  70.713  1.00  0.00     0.001 A 
ATOM      6  C   UNL     1       6.882  34.011  70.638  1.00  0.00     0.004 A 
ENDROOT
BRANCH   1   7
ATOM      7  C   UNL     1       8.371  31.870  67.231  1.00  0.00     0.075 C 
ATOM      8  O   UNL     1       9.560  32.068  66.867  1.00  0.00    -0.545 OA
ATOM      9  O   UNL     1       7.582  30.984  66.506  1.00  0.00    -0.545 OA
ENDBRANCH   1   7
BRANCH   2  10
ATOM     10  O   UNL     1       7.597  34.732  67.099  1.00  0.00    -0.507 OA
ATOM     11  H   UNL     1       7.048  34.519  66.278  1.00  0.00     0.293 HD
ENDBRANCH   2  10
TORSDOF 2
ENDMDL
MODEL 5
REMARK VINA RESULT:    -4.248     12.886     13.722
REMARK INTER + INTRA:          -4.855
REMARK INTER:                  -4.628
REMARK INTRA:                  -0.228
REMARK UNBOUND:                -0.235
REMARK SMILES O=C([O-])c1ccccc1O
REMARK SMILES IDX 4 1 9 2 5 3 8 4 6 5 7 6 2 7 1 8 3 9 10 10
REMARK H PARENT 10 11
REMARK Flexibility Score: inf
ROOT
ATOM      1  C   UNL     1      17.851  38.989  75.484  1.00  0.00     0.039 A 
ATOM      2  C   UNL     1      18.567  37.851  75.033  1.00  0.00     0.124 A 
ATOM      3  C   UNL     1      18.057  39.445  76.799  1.00  0.00     0.014 A 
ATOM      4  C   UNL     1      19.413  37.170  75.918  1.00  0.00     0.047 A 
ATOM      5  C   UNL     1      18.920  38.766  77.662  1.00  0.00     0.001 A 
ATOM      6  C   UNL     1      19.589  37.624  77.225  1.00  0.00     0.004 A 
ENDROOT
BRANCH   1   7
ATOM      7  C   UNL     1      16.866  39.694  74.635  1.00  0.00     0.075 C 
ATOM      8  O   UNL     1      15.906  39.062  74.121  1.00  0.00    -0.545 OA
ATOM      9  O   UNL     1      17.022  41.043  74.336  1.00  0.00    -0.545 OA
ENDBRANCH   1   7
BRANCH   2  10
ATOM     10  O   UNL     1      18.497  37.391  73.716  1.00  0.00    -0.507 OA
ATOM     11  H   UNL     1      19.164  37.647  73.002  1.00  0.00     0.293 HD
ENDBRANCH   2  10
TORSDOF 2
ENDMDL
MODEL 6
REMARK VINA RESULT:    -4.239     14.269     14.755
REMARK INTER + INTRA:          -4.846
REMARK INTER:                  -4.598
REMARK INTRA:                  -0.248
REMARK UNBOUND:                -0.235
REMARK SMILES O=C([O-])c1ccccc1O
REMARK SMILES IDX 4 1 9 2 5 3 8 4 6 5 7 6 2 7 1 8 3 9 10 10
REMARK H PARENT 10 11
REMARK Flexibility Score: inf
ROOT
ATOM      1  C   UNL     1       8.139  47.541  68.431  1.00  0.00     0.039 A 
ATOM      2  C   UNL     1       6.984  47.320  69.222  1.00  0.00     0.124 A 
ATOM      3  C   UNL     1       7.981  47.841  67.065  1.00  0.00     0.014 A 
ATOM      4  C   UNL     1       5.719  47.342  68.622  1.00  0.00     0.047 A 
ATOM      5  C   UNL     1       6.710  47.879  66.486  1.00  0.00     0.001 A 
ATOM      6  C   UNL     1       5.581  47.620  67.262  1.00  0.00     0.004 A 
ENDROOT
BRANCH   1   7
ATOM      7  C   UNL     1       9.509  47.432  68.978  1.00  0.00     0.075 C 
ATOM      8  O   UNL     1      10.352  46.675  68.429  1.00  0.00    -0.545 OA
ATOM      9  O   UNL     1       9.865  48.105  70.141  1.00  0.00    -0.545 OA
ENDBRANCH   1   7
BRANCH   2  10
ATOM     10  O   UNL     1       7.045  47.115  70.603  1.00  0.00    -0.507 OA
ATOM     11  H   UNL     1       6.347  46.598  71.119  1.00  0.00     0.293 HD
ENDBRANCH   2  10
TORSDOF 2
ENDMDL
MODEL 7
REMARK VINA RESULT:    -4.231     12.741     13.649
REMARK INTER + INTRA:          -4.837
REMARK INTER:                  -4.595
REMARK INTRA:                  -0.242
REMARK UNBOUND:                -0.235
REMARK SMILES O=C([O-])c1ccccc1O
REMARK SMILES IDX 4 1 9 2 5 3 8 4 6 5 7 6 2 7 1 8 3 9 10 10
REMARK H PARENT 10 11
REMARK Flexibility Score: inf
ROOT
ATOM      1  C   UNL     1      16.935  40.869  74.368  1.00  0.00     0.039 A 
ATOM      2  C   UNL     1      15.962  41.847  74.039  1.00  0.00     0.124 A 
ATOM      3  C   UNL     1      18.167  41.288  74.904  1.00  0.00     0.014 A 
ATOM      4  C   UNL     1      16.266  43.205  74.193  1.00  0.00     0.047 A 
ATOM      5  C   UNL     1      18.446  42.647  75.070  1.00  0.00     0.001 A 
ATOM      6  C   UNL     1      17.500  43.604  74.706  1.00  0.00     0.004 A 
ENDROOT
BRANCH   1   7
ATOM      7  C   UNL     1      16.719  39.424  74.135  1.00  0.00     0.075 C 
ATOM      8  O   UNL     1      15.579  38.918  74.310  1.00  0.00    -0.545 OA
ATOM      9  O   UNL     1      17.778  38.594  73.788  1.00  0.00    -0.545 OA
ENDBRANCH   1   7
BRANCH   2  10
ATOM     10  O   UNL     1      14.680  41.513  73.597  1.00  0.00    -0.507 OA
ATOM     11  H   UNL     1      14.097  40.822  74.050  1.00  0.00     0.293 HD
ENDBRANCH   2  10
TORSDOF 2
ENDMDL
MODEL 8
REMARK VINA RESULT:    -4.169     13.758     14.504
REMARK INTER + INTRA:          -4.770
REMARK INTER:                  -4.519
REMARK INTRA:                  -0.250
REMARK UNBOUND:                -0.235
REMARK SMILES O=C([O-])c1ccccc1O
REMARK SMILES IDX 4 1 9 2 5 3 8 4 6 5 7 6 2 7 1 8 3 9 10 10
REMARK H PARENT 10 11
REMARK Flexibility Score: inf
ROOT
ATOM      1  C   UNL     1      19.381  37.130  76.393  1.00  0.00     0.039 A 
ATOM      2  C   UNL     1      19.377  36.229  75.298  1.00  0.00     0.124 A 
ATOM      3  C   UNL     1      19.742  36.651  77.667  1.00  0.00     0.014 A 
ATOM      4  C   UNL     1      19.669  34.876  75.513  1.00  0.00     0.047 A 
ATOM      5  C   UNL     1      20.050  35.303  77.860  1.00  0.00     0.001 A 
ATOM      6  C   UNL     1      20.004  34.415  76.786  1.00  0.00     0.004 A 
ENDROOT
BRANCH   1   7
ATOM      7  C   UNL     1      18.985  38.549  76.256  1.00  0.00     0.075 C 
ATOM      8  O   UNL     1      19.607  39.444  76.886  1.00  0.00    -0.545 OA
ATOM      9  O   UNL     1      17.883  38.907  75.488  1.00  0.00    -0.545 OA
ENDBRANCH   1   7
BRANCH   2  10
ATOM     10  O   UNL     1      19.129  36.640  73.987  1.00  0.00    -0.507 OA
ATOM     11  H   UNL     1      18.299  36.380  73.471  1.00  0.00     0.293 HD
ENDBRANCH   2  10
TORSDOF 2
ENDMDL
MODEL 9
REMARK VINA RESULT:    -4.149      0.895      2.254
REMARK INTER + INTRA:          -4.748
REMARK INTER:                  -4.516
REMARK INTRA:                  -0.232
REMARK UNBOUND:                -0.235
REMARK SMILES O=C([O-])c1ccccc1O
REMARK SMILES IDX 4 1 9 2 5 3 8 4 6 5 7 6 2 7 1 8 3 9 10 10
REMARK H PARENT 10 11
REMARK Flexibility Score: inf
ROOT
ATOM      1  C   UNL     1       7.697  32.702  68.974  1.00  0.00     0.039 A 
ATOM      2  C   UNL     1       7.775  31.346  69.381  1.00  0.00     0.124 A 
ATOM      3  C   UNL     1       7.371  33.682  69.931  1.00  0.00     0.014 A 
ATOM      4  C   UNL     1       7.467  31.001  70.703  1.00  0.00     0.047 A 
ATOM      5  C   UNL     1       7.087  33.322  71.250  1.00  0.00     0.001 A 
ATOM      6  C   UNL     1       7.126  31.983  71.633  1.00  0.00     0.004 A 
ENDROOT
BRANCH   1   7
ATOM      7  C   UNL     1       7.909  33.124  67.572  1.00  0.00     0.075 C 
ATOM      8  O   UNL     1       8.687  32.473  66.826  1.00  0.00    -0.545 OA
ATOM      9  O   UNL     1       7.310  34.278  67.079  1.00  0.00    -0.545 OA
ENDBRANCH   1   7
BRANCH   2  10
ATOM     10  O   UNL     1       8.187  30.325  68.521  1.00  0.00    -0.507 OA
ATOM     11  H   UNL     1       8.525  30.491  67.583  1.00  0.00     0.293 HD
ENDBRANCH   2  10
TORSDOF 2
ENDMDL
