MODEL 1
REMARK VINA RESULT:    -2.989      0.000      0.000
REMARK INTER + INTRA:          -4.267
REMARK INTER:                  -4.038
REMARK INTRA:                  -0.229
REMARK UNBOUND:                -0.229
REMARK SMILES CCCCCCCC=O
REMARK SMILES IDX 5 1 4 2 3 3 2 4 1 5 6 6 7 7 8 8 9 9
REMARK H PARENT
REMARK Flexibility Score: inf
ROOT
ATOM      1  C   UNL     1       2.587  -4.961  -7.288  1.00  0.00     0.000 C 
ENDROOT
BRANCH   1   2
ATOM      2  C   UNL     1       4.090  -4.877  -6.970  1.00  0.00     0.000 C 
BRANCH   2   3
ATOM      3  C   UNL     1       4.520  -5.843  -5.851  1.00  0.00    -0.000 C 
BRANCH   3   4
ATOM      4  C   UNL     1       3.731  -7.164  -5.793  1.00  0.00    -0.003 C 
ATOM      5  C   UNL     1       4.410  -8.230  -4.934  1.00  0.00     0.004 C 
ENDBRANCH   3   4
ENDBRANCH   2   3
ENDBRANCH   1   2
BRANCH   1   6
ATOM      6  C   UNL     1       1.914  -3.580  -7.327  1.00  0.00     0.008 C 
BRANCH   6   7
ATOM      7  C   UNL     1       2.923  -2.426  -7.224  1.00  0.00     0.072 C 
BRANCH   7   8
ATOM      8  C   UNL     1       2.217  -1.113  -7.064  1.00  0.00     0.224 C 
ATOM      9  O   UNL     1       1.038  -1.079  -6.748  1.00  0.00    -0.303 OA
ENDBRANCH   7   8
ENDBRANCH   6   7
ENDBRANCH   1   6
TORSDOF 6
ENDMDL
MODEL 2
REMARK VINA RESULT:    -2.982     14.216     14.757
REMARK INTER + INTRA:          -4.257
REMARK INTER:                  -4.027
REMARK INTRA:                  -0.230
REMARK UNBOUND:                -0.229
REMARK SMILES CCCCCCCC=O
REMARK SMILES IDX 5 1 4 2 3 3 2 4 1 5 6 6 7 7 8 8 9 9
REMARK H PARENT
REMARK Flexibility Score: inf
ROOT
ATOM      1  C   UNL     1       7.020   2.494   6.584  1.00  0.00     0.000 C 
ENDROOT
BRANCH   1   2
ATOM      2  C   UNL     1       7.493   1.030   6.592  1.00  0.00     0.000 C 
BRANCH   2   3
ATOM      3  C   UNL     1       8.567   0.741   5.527  1.00  0.00    -0.000 C 
BRANCH   3   4
ATOM      4  C   UNL     1       9.187  -0.666   5.595  1.00  0.00    -0.003 C 
ATOM      5  C   UNL     1      10.035  -0.887   6.848  1.00  0.00     0.004 C 
ENDBRANCH   3   4
ENDBRANCH   2   3
ENDBRANCH   1   2
BRANCH   1   6
ATOM      6  C   UNL     1       7.485   3.256   5.333  1.00  0.00     0.008 C 
BRANCH   6   7
ATOM      7  C   UNL     1       6.769   4.603   5.159  1.00  0.00     0.072 C 
BRANCH   7   8
ATOM      8  C   UNL     1       5.399   4.561   5.768  1.00  0.00     0.224 C 
ATOM      9  O   UNL     1       4.406   4.673   5.067  1.00  0.00    -0.303 OA
ENDBRANCH   7   8
ENDBRANCH   6   7
ENDBRANCH   1   6
TORSDOF 6
ENDMDL
MODEL 3
REMARK VINA RESULT:    -2.902      2.288      3.502
REMARK INTER + INTRA:          -4.148
REMARK INTER:                  -3.819
REMARK INTRA:                  -0.330
REMARK UNBOUND:                -0.229
REMARK SMILES CCCCCCCC=O
REMARK SMILES IDX 5 1 4 2 3 3 2 4 1 5 6 6 7 7 8 8 9 9
REMARK H PARENT
REMARK Flexibility Score: inf
ROOT
ATOM      1  C   UNL     1       4.655  -6.177  -5.571  1.00  0.00     0.000 C 
ENDROOT
BRANCH   1   2
ATOM      2  C   UNL     1       5.688  -5.061  -5.341  1.00  0.00     0.000 C 
BRANCH   2   3
ATOM      3  C   UNL     1       5.928  -4.765  -3.849  1.00  0.00    -0.000 C 
BRANCH   3   4
ATOM      4  C   UNL     1       6.296  -3.306  -3.527  1.00  0.00    -0.003 C 
ATOM      5  C   UNL     1       5.586  -2.296  -4.428  1.00  0.00     0.004 C 
ENDBRANCH   3   4
ENDBRANCH   2   3
ENDBRANCH   1   2
BRANCH   1   6
ATOM      6  C   UNL     1       3.588  -5.789  -6.608  1.00  0.00     0.008 C 
BRANCH   6   7
ATOM      7  C   UNL     1       3.683  -4.316  -7.033  1.00  0.00     0.072 C 
BRANCH   7   8
ATOM      8  C   UNL     1       2.403  -3.861  -7.669  1.00  0.00     0.224 C 
ATOM      9  O   UNL     1       1.522  -3.356  -6.992  1.00  0.00    -0.303 OA
ENDBRANCH   7   8
ENDBRANCH   6   7
ENDBRANCH   1   6
TORSDOF 6
ENDMDL
MODEL 4
REMARK VINA RESULT:    -2.901     13.773     15.494
REMARK INTER + INTRA:          -4.147
REMARK INTER:                  -3.855
REMARK INTRA:                  -0.292
REMARK UNBOUND:                -0.229
REMARK SMILES CCCCCCCC=O
REMARK SMILES IDX 5 1 4 2 3 3 2 4 1 5 6 6 7 7 8 8 9 9
REMARK H PARENT
REMARK Flexibility Score: inf
ROOT
ATOM      1  C   UNL     1      -8.702   1.356   3.280  1.00  0.00     0.000 C 
ENDROOT
BRANCH   1   2
ATOM      2  C   UNL     1      -8.366   2.047   1.947  1.00  0.00     0.000 C 
BRANCH   2   3
ATOM      3  C   UNL     1      -7.729   1.092   0.921  1.00  0.00    -0.000 C 
BRANCH   3   4
ATOM      4  C   UNL     1      -6.794   1.765  -0.101  1.00  0.00    -0.003 C 
ATOM      5  C   UNL     1      -6.838   3.292  -0.037  1.00  0.00     0.004 C 
ENDBRANCH   3   4
ENDBRANCH   2   3
ENDBRANCH   1   2
BRANCH   1   6
ATOM      6  C   UNL     1      -7.794   0.148   3.562  1.00  0.00     0.008 C 
BRANCH   6   7
ATOM      7  C   UNL     1      -8.588  -1.133   3.861  1.00  0.00     0.072 C 
BRANCH   7   8
ATOM      8  C   UNL     1      -7.815  -2.348   3.442  1.00  0.00     0.224 C 
ATOM      9  O   UNL     1      -7.132  -2.329   2.431  1.00  0.00    -0.303 OA
ENDBRANCH   7   8
ENDBRANCH   6   7
ENDBRANCH   1   6
TORSDOF 6
ENDMDL
MODEL 5
REMARK VINA RESULT:    -2.889     14.968     15.598
REMARK INTER + INTRA:          -4.132
REMARK INTER:                  -3.600
REMARK INTRA:                  -0.532
REMARK UNBOUND:                -0.229
REMARK SMILES CCCCCCCC=O
REMARK SMILES IDX 5 1 4 2 3 3 2 4 1 5 6 6 7 7 8 8 9 9
REMARK H PARENT
REMARK Flexibility Score: inf
ROOT
ATOM      1  C   UNL     1       8.071   3.690   5.642  1.00  0.00     0.000 C 
ENDROOT
BRANCH   1   2
ATOM      2  C   UNL     1       8.140   2.304   4.978  1.00  0.00     0.000 C 
BRANCH   2   3
ATOM      3  C   UNL     1       7.419   1.214   5.791  1.00  0.00    -0.000 C 
BRANCH   3   4
ATOM      4  C   UNL     1       7.380   1.456   7.311  1.00  0.00    -0.003 C 
ATOM      5  C   UNL     1       5.961   1.462   7.880  1.00  0.00     0.004 C 
ENDBRANCH   3   4
ENDBRANCH   2   3
ENDBRANCH   1   2
BRANCH   1   6
ATOM      6  C   UNL     1       7.019   4.603   4.992  1.00  0.00     0.008 C 
BRANCH   6   7
ATOM      7  C   UNL     1       5.656   4.532   5.697  1.00  0.00     0.072 C 
BRANCH   7   8
ATOM      8  C   UNL     1       5.632   5.424   6.902  1.00  0.00     0.224 C 
ATOM      9  O   UNL     1       5.701   4.950   8.024  1.00  0.00    -0.303 OA
ENDBRANCH   7   8
ENDBRANCH   6   7
ENDBRANCH   1   6
TORSDOF 6
ENDMDL
MODEL 6
REMARK VINA RESULT:    -2.858      1.622      2.475
REMARK INTER + INTRA:          -4.089
REMARK INTER:                  -3.874
REMARK INTRA:                  -0.216
REMARK UNBOUND:                -0.229
REMARK SMILES CCCCCCCC=O
REMARK SMILES IDX 5 1 4 2 3 3 2 4 1 5 6 6 7 7 8 8 9 9
REMARK H PARENT
REMARK Flexibility Score: inf
ROOT
ATOM      1  C   UNL     1       3.556  -6.679  -6.295  1.00  0.00     0.000 C 
ENDROOT
BRANCH   1   2
ATOM      2  C   UNL     1       4.682  -6.888  -5.268  1.00  0.00     0.000 C 
BRANCH   2   3
ATOM      3  C   UNL     1       5.405  -5.580  -4.897  1.00  0.00    -0.000 C 
BRANCH   3   4
ATOM      4  C   UNL     1       6.289  -5.660  -3.639  1.00  0.00    -0.003 C 
ATOM      5  C   UNL     1       6.149  -6.987  -2.893  1.00  0.00     0.004 C 
ENDBRANCH   3   4
ENDBRANCH   2   3
ENDBRANCH   1   2
BRANCH   1   6
ATOM      6  C   UNL     1       3.608  -5.290  -6.952  1.00  0.00     0.008 C 
BRANCH   6   7
ATOM      7  C   UNL     1       2.215  -4.744  -7.295  1.00  0.00     0.072 C 
BRANCH   7   8
ATOM      8  C   UNL     1       2.233  -3.246  -7.371  1.00  0.00     0.224 C 
ATOM      9  O   UNL     1       1.212  -2.604  -7.184  1.00  0.00    -0.303 OA
ENDBRANCH   7   8
ENDBRANCH   6   7
ENDBRANCH   1   6
TORSDOF 6
ENDMDL
MODEL 7
REMARK VINA RESULT:    -2.853      3.678      4.470
REMARK INTER + INTRA:          -4.083
REMARK INTER:                  -3.923
REMARK INTRA:                  -0.160
REMARK UNBOUND:                -0.229
REMARK SMILES CCCCCCCC=O
REMARK SMILES IDX 5 1 4 2 3 3 2 4 1 5 6 6 7 7 8 8 9 9
REMARK H PARENT
REMARK Flexibility Score: inf
ROOT
ATOM      1  C   UNL     1       5.068  -5.771  -5.341  1.00  0.00     0.000 C 
ENDROOT
BRANCH   1   2
ATOM      2  C   UNL     1       4.691  -7.248  -5.134  1.00  0.00     0.000 C 
BRANCH   2   3
ATOM      3  C   UNL     1       3.461  -7.673  -5.957  1.00  0.00    -0.000 C 
BRANCH   3   4
ATOM      4  C   UNL     1       2.888  -6.582  -6.880  1.00  0.00    -0.003 C 
ATOM      5  C   UNL     1       1.523  -6.948  -7.464  1.00  0.00     0.004 C 
ENDBRANCH   3   4
ENDBRANCH   2   3
ENDBRANCH   1   2
BRANCH   1   6
ATOM      6  C   UNL     1       5.861  -5.194  -4.157  1.00  0.00     0.008 C 
BRANCH   6   7
ATOM      7  C   UNL     1       6.477  -3.822  -4.469  1.00  0.00     0.072 C 
BRANCH   7   8
ATOM      8  C   UNL     1       6.143  -2.832  -3.394  1.00  0.00     0.224 C 
ATOM      9  O   UNL     1       7.001  -2.455  -2.611  1.00  0.00    -0.303 OA
ENDBRANCH   7   8
ENDBRANCH   6   7
ENDBRANCH   1   6
TORSDOF 6
ENDMDL
MODEL 8
REMARK VINA RESULT:    -2.842      1.427      2.116
REMARK INTER + INTRA:          -4.068
REMARK INTER:                  -3.866
REMARK INTRA:                  -0.202
REMARK UNBOUND:                -0.229
REMARK SMILES CCCCCCCC=O
REMARK SMILES IDX 5 1 4 2 3 3 2 4 1 5 6 6 7 7 8 8 9 9
REMARK H PARENT
REMARK Flexibility Score: inf
ROOT
ATOM      1  C   UNL     1       2.951  -5.589  -7.044  1.00  0.00     0.000 C 
ENDROOT
BRANCH   1   2
ATOM      2  C   UNL     1       4.028  -6.143  -6.095  1.00  0.00     0.000 C 
BRANCH   2   3
ATOM      3  C   UNL     1       5.122  -5.112  -5.764  1.00  0.00    -0.000 C 
BRANCH   3   4
ATOM      4  C   UNL     1       5.810  -5.309  -4.401  1.00  0.00    -0.003 C 
ATOM      5  C   UNL     1       6.075  -3.994  -3.668  1.00  0.00     0.004 C 
ENDBRANCH   3   4
ENDBRANCH   2   3
ENDBRANCH   1   2
BRANCH   1   6
ATOM      6  C   UNL     1       3.164  -4.103  -7.373  1.00  0.00     0.008 C 
BRANCH   6   7
ATOM      7  C   UNL     1       1.850  -3.307  -7.401  1.00  0.00     0.072 C 
BRANCH   7   8
ATOM      8  C   UNL     1       2.114  -1.838  -7.255  1.00  0.00     0.224 C 
ATOM      9  O   UNL     1       1.252  -1.096  -6.813  1.00  0.00    -0.303 OA
ENDBRANCH   7   8
ENDBRANCH   6   7
ENDBRANCH   1   6
TORSDOF 6
ENDMDL
MODEL 9
REMARK VINA RESULT:    -2.816     14.389     15.480
REMARK INTER + INTRA:          -4.033
REMARK INTER:                  -3.578
REMARK INTRA:                  -0.455
REMARK UNBOUND:                -0.229
REMARK SMILES CCCCCCCC=O
REMARK SMILES IDX 5 1 4 2 3 3 2 4 1 5 6 6 7 7 8 8 9 9
REMARK H PARENT
REMARK Flexibility Score: inf
ROOT
ATOM      1  C   UNL     1       7.553   1.629   7.167  1.00  0.00     0.000 C 
ENDROOT
BRANCH   1   2
ATOM      2  C   UNL     1       7.048   3.072   7.340  1.00  0.00     0.000 C 
BRANCH   2   3
ATOM      3  C   UNL     1       5.714   3.330   6.616  1.00  0.00    -0.000 C 
BRANCH   3   4
ATOM      4  C   UNL     1       5.723   4.521   5.640  1.00  0.00    -0.003 C 
ATOM      5  C   UNL     1       7.097   4.774   5.018  1.00  0.00     0.004 C 
ENDBRANCH   3   4
ENDBRANCH   2   3
ENDBRANCH   1   2
BRANCH   1   6
ATOM      6  C   UNL     1       7.374   1.110   5.732  1.00  0.00     0.008 C 
BRANCH   6   7
ATOM      7  C   UNL     1       8.632   1.300   4.871  1.00  0.00     0.072 C 
BRANCH   7   8
ATOM      8  C   UNL     1       9.520   0.094   4.952  1.00  0.00     0.224 C 
ATOM      9  O   UNL     1       9.041  -1.028   4.959  1.00  0.00    -0.303 OA
ENDBRANCH   7   8
ENDBRANCH   6   7
ENDBRANCH   1   6
TORSDOF 6
ENDMDL
