MODEL 1
REMARK VINA RESULT:    -2.421      0.000      0.000
REMARK INTER + INTRA:          -4.238
REMARK INTER:                  -3.412
REMARK INTRA:                  -0.826
REMARK UNBOUND:                -0.826
REMARK SMILES CCCCCCCCC=O
REMARK SMILES IDX 5 1 4 2 3 3 2 4 1 5 6 6 7 7 8 8 9 9 10 10
REMARK H PARENT
REMARK Flexibility Score: inf
ROOT
ATOM      1  C   UNL     1     135.932 139.131 144.692  1.00  0.00     0.000 C 
ENDROOT
BRANCH   1   2
ATOM      2  C   UNL     1     134.460 139.516 144.906  1.00  0.00    -0.000 C 
BRANCH   2   3
ATOM      3  C   UNL     1     133.820 138.785 146.097  1.00  0.00    -0.000 C 
BRANCH   3   4
ATOM      4  C   UNL     1     132.680 137.872 145.633  1.00  0.00    -0.003 C 
ATOM      5  C   UNL     1     132.326 138.131 144.172  1.00  0.00     0.004 C 
ENDBRANCH   3   4
ENDBRANCH   2   3
ENDBRANCH   1   2
BRANCH   1   6
ATOM      6  C   UNL     1     136.155 138.350 143.385  1.00  0.00     0.000 C 
BRANCH   6   7
ATOM      7  C   UNL     1     136.179 136.829 143.604  1.00  0.00     0.008 C 
BRANCH   7   8
ATOM      8  C   UNL     1     136.639 136.440 145.016  1.00  0.00     0.072 C 
BRANCH   8   9
ATOM      9  C   UNL     1     135.708 135.433 145.622  1.00  0.00     0.224 C 
ATOM     10  O   UNL     1     134.688 135.102 145.038  1.00  0.00    -0.303 OA
ENDBRANCH   8   9
ENDBRANCH   7   8
ENDBRANCH   6   7
ENDBRANCH   1   6
TORSDOF 7
ENDMDL
MODEL 2
REMARK VINA RESULT:    -2.413      8.518      9.963
REMARK INTER + INTRA:          -4.227
REMARK INTER:                  -3.412
REMARK INTRA:                  -0.815
REMARK UNBOUND:                -0.826
REMARK SMILES CCCCCCCCC=O
REMARK SMILES IDX 5 1 4 2 3 3 2 4 1 5 6 6 7 7 8 8 9 9 10 10
REMARK H PARENT
REMARK Flexibility Score: inf
ROOT
ATOM      1  C   UNL     1     142.489 135.936 144.660  1.00  0.00     0.000 C 
ENDROOT
BRANCH   1   2
ATOM      2  C   UNL     1     142.026 134.480 144.825  1.00  0.00    -0.000 C 
BRANCH   2   3
ATOM      3  C   UNL     1     142.681 133.779 146.026  1.00  0.00    -0.000 C 
BRANCH   3   4
ATOM      4  C   UNL     1     143.650 132.686 145.561  1.00  0.00    -0.003 C 
ATOM      5  C   UNL     1     143.413 132.323 144.099  1.00  0.00     0.004 C 
ENDBRANCH   3   4
ENDBRANCH   2   3
ENDBRANCH   1   2
BRANCH   1   6
ATOM      6  C   UNL     1     143.291 136.158 143.366  1.00  0.00     0.000 C 
BRANCH   6   7
ATOM      7  C   UNL     1     144.806 136.221 143.616  1.00  0.00     0.008 C 
BRANCH   7   8
ATOM      8  C   UNL     1     145.153 136.652 145.047  1.00  0.00     0.072 C 
BRANCH   8   9
ATOM      9  C   UNL     1     146.054 135.648 145.702  1.00  0.00     0.224 C 
ATOM     10  O   UNL     1     146.480 134.693 145.072  1.00  0.00    -0.303 OA
ENDBRANCH   8   9
ENDBRANCH   7   8
ENDBRANCH   6   7
ENDBRANCH   1   6
TORSDOF 7
ENDMDL
MODEL 3
REMARK VINA RESULT:    -2.402      1.438      3.667
REMARK INTER + INTRA:          -4.211
REMARK INTER:                  -3.582
REMARK INTRA:                  -0.629
REMARK UNBOUND:                -0.826
REMARK SMILES CCCCCCCCC=O
REMARK SMILES IDX 5 1 4 2 3 3 2 4 1 5 6 6 7 7 8 8 9 9 10 10
REMARK H PARENT
REMARK Flexibility Score: inf
ROOT
ATOM      1  C   UNL     1     134.337 139.042 145.088  1.00  0.00     0.000 C 
ENDROOT
BRANCH   1   2
ATOM      2  C   UNL     1     134.690 138.705 143.631  1.00  0.00    -0.000 C 
BRANCH   2   3
ATOM      3  C   UNL     1     136.120 138.164 143.475  1.00  0.00    -0.000 C 
BRANCH   3   4
ATOM      4  C   UNL     1     136.147 136.638 143.616  1.00  0.00    -0.003 C 
ATOM      5  C   UNL     1     136.850 136.215 144.902  1.00  0.00     0.004 C 
ENDBRANCH   3   4
ENDBRANCH   2   3
ENDBRANCH   1   2
BRANCH   1   6
ATOM      6  C   UNL     1     133.107 138.267 145.592  1.00  0.00     0.000 C 
BRANCH   6   7
ATOM      7  C   UNL     1     132.157 137.863 144.453  1.00  0.00     0.008 C 
BRANCH   7   8
ATOM      8  C   UNL     1     131.617 136.435 144.610  1.00  0.00     0.072 C 
BRANCH   8   9
ATOM      9  C   UNL     1     132.694 135.425 144.347  1.00  0.00     0.224 C 
ATOM     10  O   UNL     1     132.969 135.097 143.203  1.00  0.00    -0.303 OA
ENDBRANCH   8   9
ENDBRANCH   7   8
ENDBRANCH   6   7
ENDBRANCH   1   6
TORSDOF 7
ENDMDL
MODEL 4
REMARK VINA RESULT:    -2.390      1.721      2.810
REMARK INTER + INTRA:          -4.194
REMARK INTER:                  -3.500
REMARK INTRA:                  -0.694
REMARK UNBOUND:                -0.826
REMARK SMILES CCCCCCCCC=O
REMARK SMILES IDX 5 1 4 2 3 3 2 4 1 5 6 6 7 7 8 8 9 9 10 10
REMARK H PARENT
REMARK Flexibility Score: inf
ROOT
ATOM      1  C   UNL     1     132.965 138.273 145.500  1.00  0.00     0.000 C 
ENDROOT
BRANCH   1   2
ATOM      2  C   UNL     1     132.045 137.692 144.415  1.00  0.00    -0.000 C 
BRANCH   2   3
ATOM      3  C   UNL     1     131.438 136.337 144.812  1.00  0.00    -0.000 C 
BRANCH   3   4
ATOM      4  C   UNL     1     132.476 135.215 144.692  1.00  0.00    -0.003 C 
ATOM      5  C   UNL     1     132.940 135.045 143.249  1.00  0.00     0.004 C 
ENDBRANCH   3   4
ENDBRANCH   2   3
ENDBRANCH   1   2
BRANCH   1   6
ATOM      6  C   UNL     1     134.115 139.112 144.914  1.00  0.00     0.000 C 
BRANCH   6   7
ATOM      7  C   UNL     1     134.560 138.614 143.529  1.00  0.00     0.008 C 
BRANCH   7   8
ATOM      8  C   UNL     1     136.034 138.188 143.498  1.00  0.00     0.072 C 
BRANCH   8   9
ATOM      9  C   UNL     1     136.162 136.700 143.626  1.00  0.00     0.224 C 
ATOM     10  O   UNL     1     135.986 136.153 144.703  1.00  0.00    -0.303 OA
ENDBRANCH   8   9
ENDBRANCH   7   8
ENDBRANCH   6   7
ENDBRANCH   1   6
TORSDOF 7
ENDMDL
MODEL 5
REMARK VINA RESULT:    -2.378      9.077     10.363
REMARK INTER + INTRA:          -4.177
REMARK INTER:                  -3.562
REMARK INTRA:                  -0.615
REMARK UNBOUND:                -0.826
REMARK SMILES CCCCCCCCC=O
REMARK SMILES IDX 5 1 4 2 3 3 2 4 1 5 6 6 7 7 8 8 9 9 10 10
REMARK H PARENT
REMARK Flexibility Score: inf
ROOT
ATOM      1  C   UNL     1     138.388 148.589 145.500  1.00  0.00     0.000 C 
ENDROOT
BRANCH   1   2
ATOM      2  C   UNL     1     137.827 149.437 144.347  1.00  0.00    -0.000 C 
BRANCH   2   3
ATOM      3  C   UNL     1     136.500 150.125 144.705  1.00  0.00    -0.000 C 
BRANCH   3   4
ATOM      4  C   UNL     1     135.346 149.116 144.716  1.00  0.00    -0.003 C 
ATOM      5  C   UNL     1     135.100 148.542 143.325  1.00  0.00     0.004 C 
ENDBRANCH   3   4
ENDBRANCH   2   3
ENDBRANCH   1   2
BRANCH   1   6
ATOM      6  C   UNL     1     139.012 147.269 145.014  1.00  0.00     0.000 C 
BRANCH   6   7
ATOM      7  C   UNL     1     138.605 146.921 143.573  1.00  0.00     0.008 C 
BRANCH   7   8
ATOM      8  C   UNL     1     138.159 145.461 143.420  1.00  0.00     0.072 C 
BRANCH   8   9
ATOM      9  C   UNL     1     136.698 145.315 143.724  1.00  0.00     0.224 C 
ATOM     10  O   UNL     1     136.321 144.560 144.606  1.00  0.00    -0.303 OA
ENDBRANCH   8   9
ENDBRANCH   7   8
ENDBRANCH   6   7
ENDBRANCH   1   6
TORSDOF 7
ENDMDL
MODEL 6
REMARK VINA RESULT:    -2.373     13.564     14.971
REMARK INTER + INTRA:          -4.170
REMARK INTER:                  -3.502
REMARK INTRA:                  -0.669
REMARK UNBOUND:                -0.826
REMARK SMILES CCCCCCCCC=O
REMARK SMILES IDX 5 1 4 2 3 3 2 4 1 5 6 6 7 7 8 8 9 9 10 10
REMARK H PARENT
REMARK Flexibility Score: inf
ROOT
ATOM      1  C   UNL     1     147.871 143.323 144.775  1.00  0.00     0.000 C 
ENDROOT
BRANCH   1   2
ATOM      2  C   UNL     1     147.023 142.878 143.572  1.00  0.00    -0.000 C 
BRANCH   2   3
ATOM      3  C   UNL     1     145.560 143.339 143.672  1.00  0.00    -0.000 C 
BRANCH   3   4
ATOM      4  C   UNL     1     145.460 144.866 143.586  1.00  0.00    -0.003 C 
ATOM      5  C   UNL     1     144.731 145.441 144.796  1.00  0.00     0.004 C 
ENDBRANCH   3   4
ENDBRANCH   2   3
ENDBRANCH   1   2
BRANCH   1   6
ATOM      6  C   UNL     1     149.354 143.511 144.414  1.00  0.00     0.000 C 
BRANCH   6   7
ATOM      7  C   UNL     1     149.865 144.924 144.740  1.00  0.00     0.008 C 
BRANCH   7   8
ATOM      8  C   UNL     1     148.742 145.872 145.184  1.00  0.00     0.072 C 
BRANCH   8   9
ATOM      9  C   UNL     1     148.512 146.943 144.161  1.00  0.00     0.224 C 
ATOM     10  O   UNL     1     148.579 146.687 142.969  1.00  0.00    -0.303 OA
ENDBRANCH   8   9
ENDBRANCH   7   8
ENDBRANCH   6   7
ENDBRANCH   1   6
TORSDOF 7
ENDMDL
MODEL 7
REMARK VINA RESULT:    -2.364      8.687     10.413
REMARK INTER + INTRA:          -4.158
REMARK INTER:                  -3.461
REMARK INTRA:                  -0.697
REMARK UNBOUND:                -0.826
REMARK SMILES CCCCCCCCC=O
REMARK SMILES IDX 5 1 4 2 3 3 2 4 1 5 6 6 7 7 8 8 9 9 10 10
REMARK H PARENT
REMARK Flexibility Score: inf
ROOT
ATOM      1  C   UNL     1     142.034 134.296 144.701  1.00  0.00     0.000 C 
ENDROOT
BRANCH   1   2
ATOM      2  C   UNL     1     142.734 135.660 144.820  1.00  0.00    -0.000 C 
BRANCH   2   3
ATOM      3  C   UNL     1     143.331 136.141 143.488  1.00  0.00    -0.000 C 
BRANCH   3   4
ATOM      4  C   UNL     1     144.863 136.140 143.542  1.00  0.00    -0.003 C 
ATOM      5  C   UNL     1     145.365 136.156 144.982  1.00  0.00     0.004 C 
ENDBRANCH   3   4
ENDBRANCH   2   3
ENDBRANCH   1   2
BRANCH   1   6
ATOM      6  C   UNL     1     142.883 133.145 145.266  1.00  0.00     0.000 C 
BRANCH   6   7
ATOM      7  C   UNL     1     143.684 132.413 144.177  1.00  0.00     0.008 C 
BRANCH   7   8
ATOM      8  C   UNL     1     144.955 131.747 144.721  1.00  0.00     0.072 C 
BRANCH   8   9
ATOM      9  C   UNL     1     146.175 132.522 144.323  1.00  0.00     0.224 C 
ATOM     10  O   UNL     1     146.290 132.956 143.187  1.00  0.00    -0.303 OA
ENDBRANCH   8   9
ENDBRANCH   7   8
ENDBRANCH   6   7
ENDBRANCH   1   6
TORSDOF 7
ENDMDL
MODEL 8
REMARK VINA RESULT:    -2.331      9.066     10.716
REMARK INTER + INTRA:          -4.111
REMARK INTER:                  -3.391
REMARK INTRA:                  -0.719
REMARK UNBOUND:                -0.826
REMARK SMILES CCCCCCCCC=O
REMARK SMILES IDX 5 1 4 2 3 3 2 4 1 5 6 6 7 7 8 8 9 9 10 10
REMARK H PARENT
REMARK Flexibility Score: inf
ROOT
ATOM      1  C   UNL     1     138.607 147.763 143.766  1.00  0.00     0.000 C 
ENDROOT
BRANCH   1   2
ATOM      2  C   UNL     1     139.043 146.443 144.420  1.00  0.00    -0.000 C 
BRANCH   2   3
ATOM      3  C   UNL     1     138.379 145.213 143.780  1.00  0.00    -0.000 C 
BRANCH   3   4
ATOM      4  C   UNL     1     136.886 145.461 143.537  1.00  0.00    -0.003 C 
ATOM      5  C   UNL     1     136.039 144.879 144.663  1.00  0.00     0.004 C 
ENDBRANCH   3   4
ENDBRANCH   2   3
ENDBRANCH   1   2
BRANCH   1   6
ATOM      6  C   UNL     1     138.379 148.885 144.794  1.00  0.00     0.000 C 
BRANCH   6   7
ATOM      7  C   UNL     1     137.005 149.558 144.638  1.00  0.00     0.008 C 
BRANCH   7   8
ATOM      8  C   UNL     1     135.859 148.698 145.187  1.00  0.00     0.072 C 
BRANCH   8   9
ATOM      9  C   UNL     1     134.725 148.632 144.208  1.00  0.00     0.224 C 
ATOM     10  O   UNL     1     134.934 148.369 143.034  1.00  0.00    -0.303 OA
ENDBRANCH   8   9
ENDBRANCH   7   8
ENDBRANCH   6   7
ENDBRANCH   1   6
TORSDOF 7
ENDMDL
MODEL 9
REMARK VINA RESULT:    -2.314      8.575     10.012
REMARK INTER + INTRA:          -4.087
REMARK INTER:                  -3.278
REMARK INTRA:                  -0.809
REMARK UNBOUND:                -0.826
REMARK SMILES CCCCCCCCC=O
REMARK SMILES IDX 5 1 4 2 3 3 2 4 1 5 6 6 7 7 8 8 9 9 10 10
REMARK H PARENT
REMARK Flexibility Score: inf
ROOT
ATOM      1  C   UNL     1     140.164 146.341 145.100  1.00  0.00     0.000 C 
ENDROOT
BRANCH   1   2
ATOM      2  C   UNL     1     139.776 147.795 145.412  1.00  0.00    -0.000 C 
BRANCH   2   3
ATOM      3  C   UNL     1     138.418 147.909 146.124  1.00  0.00    -0.000 C 
BRANCH   3   4
ATOM      4  C   UNL     1     137.497 148.891 145.391  1.00  0.00    -0.003 C 
ATOM      5  C   UNL     1     138.118 149.357 144.079  1.00  0.00     0.004 C 
ENDBRANCH   3   4
ENDBRANCH   2   3
ENDBRANCH   1   2
BRANCH   1   6
ATOM      6  C   UNL     1     138.945 145.403 145.043  1.00  0.00     0.000 C 
BRANCH   6   7
ATOM      7  C   UNL     1     138.412 145.216 143.613  1.00  0.00     0.008 C 
BRANCH   7   8
ATOM      8  C   UNL     1     136.923 145.563 143.485  1.00  0.00     0.072 C 
BRANCH   8   9
ATOM      9  C   UNL     1     136.141 144.986 144.627  1.00  0.00     0.224 C 
ATOM     10  O   UNL     1     135.419 145.699 145.306  1.00  0.00    -0.303 OA
ENDBRANCH   8   9
ENDBRANCH   7   8
ENDBRANCH   6   7
ENDBRANCH   1   6
TORSDOF 7
ENDMDL
