MODEL 1
REMARK VINA RESULT:    -6.806      0.000      0.000
REMARK INTER + INTRA:          -7.603
REMARK INTER:                  -7.402
REMARK INTRA:                  -0.200
REMARK UNBOUND:                -0.200
REMARK SMILES CC(=O)[C@H]1CC[C@H]2[C@H]3CC=C4C[C@@H](O)CC[C@@]4(C)[C@H]3CC[C@]12C
REMARK SMILES IDX 4 1 5 2 6 3 7 4 22 5 21 6 20 7 19 8 8 9 9 10 10 11 11 12
REMARK SMILES IDX 17 13 16 14 15 15 13 16 12 17 18 18 23 19 2 20 1 21 3 22
REMARK SMILES IDX 14 23
REMARK H PARENT 14 24
REMARK Flexibility Score: inf
ROOT
ATOM      1  C   UNL     1     182.301 184.642 172.194  1.00  0.00     0.062 C 
ATOM      2  C   UNL     1     181.840 183.829 170.957  1.00  0.00     0.012 C 
ATOM      3  C   UNL     1     180.966 182.679 171.489  1.00  0.00     0.005 C 
ATOM      4  C   UNL     1     180.832 182.972 172.980  1.00  0.00    -0.001 C 
ATOM      5  C   UNL     1     182.134 183.668 173.389  1.00  0.00    -0.020 C 
ATOM      6  C   UNL     1     181.882 184.362 174.741  1.00  0.00     0.008 C 
ATOM      7  C   UNL     1     181.412 183.356 175.815  1.00  0.00     0.005 C 
ATOM      8  C   UNL     1     180.185 182.472 175.398  1.00  0.00     0.003 C 
ATOM      9  C   UNL     1     180.318 181.882 173.947  1.00  0.00     0.000 C 
ATOM     10  C   UNL     1     181.038 180.500 173.861  1.00  0.00     0.031 C 
ATOM     11  C   UNL     1     181.527 179.955 175.180  1.00  0.00    -0.027 C 
ATOM     12  C   UNL     1     180.961 180.275 176.360  1.00  0.00    -0.065 C 
ATOM     13  C   UNL     1     179.862 181.327 176.431  1.00  0.00    -0.008 C 
ATOM     14  C   UNL     1     179.775 181.880 177.888  1.00  0.00     0.014 C 
ATOM     15  C   UNL     1     179.607 180.785 178.963  1.00  0.00     0.033 C 
ATOM     16  C   UNL     1     180.408 179.490 178.678  1.00  0.00     0.118 C 
ATOM     17  C   UNL     1     181.525 179.695 177.640  1.00  0.00     0.063 C 
ATOM     18  C   UNL     1     178.498 180.670 176.076  1.00  0.00     0.016 C 
ATOM     19  C   UNL     1     183.365 182.718 173.493  1.00  0.00     0.012 C 
ENDROOT
BRANCH   1  20
ATOM     20  C   UNL     1     183.680 185.263 172.049  1.00  0.00     0.133 C 
ATOM     21  C   UNL     1     184.548 184.932 170.870  1.00  0.00     0.088 C 
ATOM     22  O   UNL     1     184.091 186.062 172.877  1.00  0.00    -0.300 OA
ENDBRANCH   1  20
BRANCH  16  23
ATOM     23  O   UNL     1     180.956 179.010 179.879  1.00  0.00    -0.393 OA
ATOM     24  H   UNL     1     181.409 178.152 179.666  1.00  0.00     0.210 HD
ENDBRANCH  16  23
TORSDOF 2
ENDMDL
MODEL 2
REMARK VINA RESULT:    -6.800      3.907      6.538
REMARK INTER + INTRA:          -7.597
REMARK INTER:                  -7.394
REMARK INTRA:                  -0.203
REMARK UNBOUND:                -0.200
REMARK SMILES CC(=O)[C@H]1CC[C@H]2[C@H]3CC=C4C[C@@H](O)CC[C@@]4(C)[C@H]3CC[C@]12C
REMARK SMILES IDX 4 1 5 2 6 3 7 4 22 5 21 6 20 7 19 8 8 9 9 10 10 11 11 12
REMARK SMILES IDX 17 13 16 14 15 15 13 16 12 17 18 18 23 19 2 20 1 21 3 22
REMARK SMILES IDX 14 23
REMARK H PARENT 14 24
REMARK Flexibility Score: inf
ROOT
ATOM      1  C   UNL     1     178.440 176.141 172.143  1.00  0.00     0.062 C 
ATOM      2  C   UNL     1     178.836 176.991 170.909  1.00  0.00     0.012 C 
ATOM      3  C   UNL     1     179.678 178.167 171.438  1.00  0.00     0.005 C 
ATOM      4  C   UNL     1     179.861 177.856 172.920  1.00  0.00    -0.001 C 
ATOM      5  C   UNL     1     178.598 177.102 173.349  1.00  0.00    -0.020 C 
ATOM      6  C   UNL     1     178.911 176.398 174.683  1.00  0.00     0.008 C 
ATOM      7  C   UNL     1     179.369 177.405 175.762  1.00  0.00     0.005 C 
ATOM      8  C   UNL     1     180.549 178.343 175.329  1.00  0.00     0.003 C 
ATOM      9  C   UNL     1     180.356 178.950 173.892  1.00  0.00     0.000 C 
ATOM     10  C   UNL     1     179.581 180.303 173.847  1.00  0.00     0.031 C 
ATOM     11  C   UNL     1     179.105 180.808 175.186  1.00  0.00    -0.027 C 
ATOM     12  C   UNL     1     179.713 180.493 176.346  1.00  0.00    -0.065 C 
ATOM     13  C   UNL     1     180.854 179.484 176.373  1.00  0.00    -0.008 C 
ATOM     14  C   UNL     1     180.999 178.911 177.817  1.00  0.00     0.014 C 
ATOM     15  C   UNL     1     181.152 179.996 178.906  1.00  0.00     0.033 C 
ATOM     16  C   UNL     1     180.293 181.262 178.662  1.00  0.00     0.118 C 
ATOM     17  C   UNL     1     179.159 181.030 177.649  1.00  0.00     0.063 C 
ATOM     18  C   UNL     1     182.182 180.199 175.995  1.00  0.00     0.016 C 
ATOM     19  C   UNL     1     177.335 178.001 173.500  1.00  0.00     0.012 C 
ENDROOT
BRANCH   1  20
ATOM     20  C   UNL     1     177.083 175.469 172.022  1.00  0.00     0.133 C 
ATOM     21  C   UNL     1     176.169 175.790 170.875  1.00  0.00     0.088 C 
ATOM     22  O   UNL     1     176.727 174.636 172.843  1.00  0.00    -0.300 OA
ENDBRANCH   1  20
BRANCH  16  23
ATOM     23  O   UNL     1     179.758 181.701 179.885  1.00  0.00    -0.393 OA
ATOM     24  H   UNL     1     180.503 181.697 180.543  1.00  0.00     0.210 HD
ENDBRANCH  16  23
TORSDOF 2
ENDMDL
MODEL 3
REMARK VINA RESULT:    -6.714      3.787      6.358
REMARK INTER + INTRA:          -7.503
REMARK INTER:                  -7.316
REMARK INTRA:                  -0.187
REMARK UNBOUND:                -0.200
REMARK SMILES CC(=O)[C@H]1CC[C@H]2[C@H]3CC=C4C[C@@H](O)CC[C@@]4(C)[C@H]3CC[C@]12C
REMARK SMILES IDX 4 1 5 2 6 3 7 4 22 5 21 6 20 7 19 8 8 9 9 10 10 11 11 12
REMARK SMILES IDX 17 13 16 14 15 15 13 16 12 17 18 18 23 19 2 20 1 21 3 22
REMARK SMILES IDX 14 23
REMARK H PARENT 14 24
REMARK Flexibility Score: inf
ROOT
ATOM      1  C   UNL     1     182.014 178.892 175.298  1.00  0.00     0.062 C 
ATOM      2  C   UNL     1     181.859 179.300 176.786  1.00  0.00     0.012 C 
ATOM      3  C   UNL     1     180.421 179.825 176.949  1.00  0.00     0.005 C 
ATOM      4  C   UNL     1     179.768 179.549 175.599  1.00  0.00    -0.001 C 
ATOM      5  C   UNL     1     180.889 179.664 174.561  1.00  0.00    -0.020 C 
ATOM      6  C   UNL     1     180.396 178.982 173.271  1.00  0.00     0.008 C 
ATOM      7  C   UNL     1     179.081 179.615 172.762  1.00  0.00     0.005 C 
ATOM      8  C   UNL     1     177.935 179.700 173.830  1.00  0.00     0.003 C 
ATOM      9  C   UNL     1     178.432 180.228 175.225  1.00  0.00     0.000 C 
ATOM     10  C   UNL     1     178.381 181.777 175.399  1.00  0.00     0.031 C 
ATOM     11  C   UNL     1     177.895 182.538 174.190  1.00  0.00    -0.027 C 
ATOM     12  C   UNL     1     177.069 182.001 173.271  1.00  0.00    -0.065 C 
ATOM     13  C   UNL     1     176.686 180.528 173.341  1.00  0.00    -0.008 C 
ATOM     14  C   UNL     1     176.205 180.056 171.933  1.00  0.00     0.014 C 
ATOM     15  C   UNL     1     175.078 180.926 171.335  1.00  0.00     0.033 C 
ATOM     16  C   UNL     1     175.222 182.439 171.631  1.00  0.00     0.118 C 
ATOM     17  C   UNL     1     176.641 182.829 172.077  1.00  0.00     0.063 C 
ATOM     18  C   UNL     1     175.512 180.349 174.344  1.00  0.00     0.016 C 
ATOM     19  C   UNL     1     181.338 181.124 174.258  1.00  0.00     0.012 C 
ENDROOT
BRANCH   1  20
ATOM     20  C   UNL     1     183.414 179.095 174.743  1.00  0.00     0.133 C 
ATOM     21  C   UNL     1     184.399 179.976 175.454  1.00  0.00     0.088 C 
ATOM     22  O   UNL     1     183.766 178.522 173.723  1.00  0.00    -0.300 OA
ENDBRANCH   1  20
BRANCH  16  23
ATOM     23  O   UNL     1     174.864 183.172 170.487  1.00  0.00    -0.393 OA
ATOM     24  H   UNL     1     173.874 183.125 170.414  1.00  0.00     0.210 HD
ENDBRANCH  16  23
TORSDOF 2
ENDMDL
MODEL 4
REMARK VINA RESULT:    -6.699      3.443      6.367
REMARK INTER + INTRA:          -7.487
REMARK INTER:                  -7.280
REMARK INTRA:                  -0.206
REMARK UNBOUND:                -0.200
REMARK SMILES CC(=O)[C@H]1CC[C@H]2[C@H]3CC=C4C[C@@H](O)CC[C@@]4(C)[C@H]3CC[C@]12C
REMARK SMILES IDX 4 1 5 2 6 3 7 4 22 5 21 6 20 7 19 8 8 9 9 10 10 11 11 12
REMARK SMILES IDX 17 13 16 14 15 15 13 16 12 17 18 18 23 19 2 20 1 21 3 22
REMARK SMILES IDX 14 23
REMARK H PARENT 14 24
REMARK Flexibility Score: inf
ROOT
ATOM      1  C   UNL     1     178.758 181.901 175.461  1.00  0.00     0.062 C 
ATOM      2  C   UNL     1     178.941 181.485 176.943  1.00  0.00     0.012 C 
ATOM      3  C   UNL     1     180.376 180.943 177.073  1.00  0.00     0.005 C 
ATOM      4  C   UNL     1     181.002 181.217 175.710  1.00  0.00    -0.001 C 
ATOM      5  C   UNL     1     179.857 181.121 174.696  1.00  0.00    -0.020 C 
ATOM      6  C   UNL     1     180.330 181.802 173.398  1.00  0.00     0.008 C 
ATOM      7  C   UNL     1     181.626 181.156 172.858  1.00  0.00     0.005 C 
ATOM      8  C   UNL     1     182.794 181.053 173.900  1.00  0.00     0.003 C 
ATOM      9  C   UNL     1     182.322 180.525 175.303  1.00  0.00     0.000 C 
ATOM     10  C   UNL     1     182.358 178.974 175.470  1.00  0.00     0.031 C 
ATOM     11  C   UNL     1     182.809 178.214 174.247  1.00  0.00    -0.027 C 
ATOM     12  C   UNL     1     183.620 178.745 173.312  1.00  0.00    -0.065 C 
ATOM     13  C   UNL     1     184.022 180.213 173.379  1.00  0.00    -0.008 C 
ATOM     14  C   UNL     1     184.477 180.686 171.963  1.00  0.00     0.014 C 
ATOM     15  C   UNL     1     185.580 179.806 171.337  1.00  0.00     0.033 C 
ATOM     16  C   UNL     1     185.426 178.293 171.630  1.00  0.00     0.118 C 
ATOM     17  C   UNL     1     184.012 177.918 172.106  1.00  0.00     0.063 C 
ATOM     18  C   UNL     1     185.220 180.375 174.357  1.00  0.00     0.016 C 
ATOM     19  C   UNL     1     179.385 179.666 174.397  1.00  0.00     0.012 C 
ENDROOT
BRANCH   1  20
ATOM     20  C   UNL     1     177.344 181.717 174.936  1.00  0.00     0.133 C 
ATOM     21  C   UNL     1     176.330 180.940 175.724  1.00  0.00     0.088 C 
ATOM     22  O   UNL     1     177.005 182.223 173.876  1.00  0.00    -0.300 OA
ENDBRANCH   1  20
BRANCH  16  23
ATOM     23  O   UNL     1     185.750 177.562 170.475  1.00  0.00    -0.393 OA
ATOM     24  H   UNL     1     186.632 177.135 170.643  1.00  0.00     0.210 HD
ENDBRANCH  16  23
TORSDOF 2
ENDMDL
MODEL 5
REMARK VINA RESULT:    -6.685      3.423      6.898
REMARK INTER + INTRA:          -7.472
REMARK INTER:                  -7.266
REMARK INTRA:                  -0.205
REMARK UNBOUND:                -0.200
REMARK SMILES CC(=O)[C@H]1CC[C@H]2[C@H]3CC=C4C[C@@H](O)CC[C@@]4(C)[C@H]3CC[C@]12C
REMARK SMILES IDX 4 1 5 2 6 3 7 4 22 5 21 6 20 7 19 8 8 9 9 10 10 11 11 12
REMARK SMILES IDX 17 13 16 14 15 15 13 16 12 17 18 18 23 19 2 20 1 21 3 22
REMARK SMILES IDX 14 23
REMARK H PARENT 14 24
REMARK Flexibility Score: inf
ROOT
ATOM      1  C   UNL     1     179.806 180.243 177.804  1.00  0.00     0.062 C 
ATOM      2  C   UNL     1     180.138 181.753 177.696  1.00  0.00     0.012 C 
ATOM      3  C   UNL     1     180.617 181.994 176.253  1.00  0.00     0.005 C 
ATOM      4  C   UNL     1     180.389 180.657 175.556  1.00  0.00    -0.001 C 
ATOM      5  C   UNL     1     180.582 179.585 176.634  1.00  0.00    -0.020 C 
ATOM      6  C   UNL     1     179.950 178.283 176.109  1.00  0.00     0.008 C 
ATOM      7  C   UNL     1     180.572 177.853 174.762  1.00  0.00     0.005 C 
ATOM      8  C   UNL     1     180.576 178.965 173.655  1.00  0.00     0.003 C 
ATOM      9  C   UNL     1     181.050 180.365 174.191  1.00  0.00     0.000 C 
ATOM     10  C   UNL     1     182.588 180.615 174.109  1.00  0.00     0.031 C 
ATOM     11  C   UNL     1     183.391 179.464 173.559  1.00  0.00    -0.027 C 
ATOM     12  C   UNL     1     182.877 178.549 172.713  1.00  0.00    -0.065 C 
ATOM     13  C   UNL     1     181.394 178.562 172.369  1.00  0.00    -0.008 C 
ATOM     14  C   UNL     1     180.977 177.151 171.847  1.00  0.00     0.014 C 
ATOM     15  C   UNL     1     181.844 176.637 170.678  1.00  0.00     0.033 C 
ATOM     16  C   UNL     1     183.345 177.001 170.796  1.00  0.00     0.118 C 
ATOM     17  C   UNL     1     183.750 177.414 172.221  1.00  0.00     0.063 C 
ATOM     18  C   UNL     1     181.136 179.597 171.238  1.00  0.00     0.016 C 
ATOM     19  C   UNL     1     182.067 179.338 177.036  1.00  0.00     0.012 C 
ENDROOT
BRANCH   1  20
ATOM     20  C   UNL     1     180.071 179.648 179.177  1.00  0.00     0.133 C 
ATOM     21  C   UNL     1     180.797 180.438 180.226  1.00  0.00     0.088 C 
ATOM     22  O   UNL     1     179.673 178.526 179.454  1.00  0.00    -0.300 OA
ENDBRANCH   1  20
BRANCH  16  23
ATOM     23  O   UNL     1     184.121 175.908 170.377  1.00  0.00    -0.393 OA
ATOM     24  H   UNL     1     185.055 176.236 170.285  1.00  0.00     0.210 HD
ENDBRANCH  16  23
TORSDOF 2
ENDMDL
MODEL 6
REMARK VINA RESULT:    -6.673      2.728      6.723
REMARK INTER + INTRA:          -7.459
REMARK INTER:                  -7.253
REMARK INTRA:                  -0.205
REMARK UNBOUND:                -0.200
REMARK SMILES CC(=O)[C@H]1CC[C@H]2[C@H]3CC=C4C[C@@H](O)CC[C@@]4(C)[C@H]3CC[C@]12C
REMARK SMILES IDX 4 1 5 2 6 3 7 4 22 5 21 6 20 7 19 8 8 9 9 10 10 11 11 12
REMARK SMILES IDX 17 13 16 14 15 15 13 16 12 17 18 18 23 19 2 20 1 21 3 22
REMARK SMILES IDX 14 23
REMARK H PARENT 14 24
REMARK Flexibility Score: inf
ROOT
ATOM      1  C   UNL     1     180.897 180.512 177.813  1.00  0.00     0.062 C 
ATOM      2  C   UNL     1     180.535 179.008 177.716  1.00  0.00     0.012 C 
ATOM      3  C   UNL     1     180.050 178.766 176.275  1.00  0.00     0.005 C 
ATOM      4  C   UNL     1     180.304 180.094 175.569  1.00  0.00    -0.001 C 
ATOM      5  C   UNL     1     180.133 181.177 176.640  1.00  0.00    -0.020 C 
ATOM      6  C   UNL     1     180.791 182.463 176.105  1.00  0.00     0.008 C 
ATOM      7  C   UNL     1     180.176 182.895 174.755  1.00  0.00     0.005 C 
ATOM      8  C   UNL     1     180.149 181.776 173.655  1.00  0.00     0.003 C 
ATOM      9  C   UNL     1     179.648 180.390 174.202  1.00  0.00     0.000 C 
ATOM     10  C   UNL     1     178.106 180.169 174.123  1.00  0.00     0.031 C 
ATOM     11  C   UNL     1     177.324 181.333 173.565  1.00  0.00    -0.027 C 
ATOM     12  C   UNL     1     177.856 182.230 172.713  1.00  0.00    -0.065 C 
ATOM     13  C   UNL     1     179.339 182.187 172.368  1.00  0.00    -0.008 C 
ATOM     14  C   UNL     1     179.783 183.585 171.835  1.00  0.00     0.014 C 
ATOM     15  C   UNL     1     178.925 184.108 170.663  1.00  0.00     0.033 C 
ATOM     16  C   UNL     1     177.417 183.774 170.785  1.00  0.00     0.118 C 
ATOM     17  C   UNL     1     177.006 183.379 172.213  1.00  0.00     0.063 C 
ATOM     18  C   UNL     1     179.575 181.139 171.244  1.00  0.00     0.016 C 
ATOM     19  C   UNL     1     178.654 181.456 177.040  1.00  0.00     0.012 C 
ENDROOT
BRANCH   1  20
ATOM     20  C   UNL     1     180.645 181.122 179.182  1.00  0.00     0.133 C 
ATOM     21  C   UNL     1     179.905 180.353 180.238  1.00  0.00     0.088 C 
ATOM     22  O   UNL     1     181.064 182.237 179.451  1.00  0.00    -0.300 OA
ENDBRANCH   1  20
BRANCH  16  23
ATOM     23  O   UNL     1     176.662 184.880 170.359  1.00  0.00    -0.393 OA
ATOM     24  H   UNL     1     177.049 185.680 170.803  1.00  0.00     0.210 HD
ENDBRANCH  16  23
TORSDOF 2
ENDMDL
MODEL 7
REMARK VINA RESULT:    -6.498      2.899      4.581
REMARK INTER + INTRA:          -7.268
REMARK INTER:                  -7.132
REMARK INTRA:                  -0.137
REMARK UNBOUND:                -0.200
REMARK SMILES CC(=O)[C@H]1CC[C@H]2[C@H]3CC=C4C[C@@H](O)CC[C@@]4(C)[C@H]3CC[C@]12C
REMARK SMILES IDX 4 1 5 2 6 3 7 4 22 5 21 6 20 7 19 8 8 9 9 10 10 11 11 12
REMARK SMILES IDX 17 13 16 14 15 15 13 16 12 17 18 18 23 19 2 20 1 21 3 22
REMARK SMILES IDX 14 23
REMARK H PARENT 14 24
REMARK Flexibility Score: inf
ROOT
ATOM      1  C   UNL     1     177.372 181.560 171.721  1.00  0.00     0.062 C 
ATOM      2  C   UNL     1     178.489 182.253 170.899  1.00  0.00     0.012 C 
ATOM      3  C   UNL     1     179.798 182.058 171.685  1.00  0.00     0.005 C 
ATOM      4  C   UNL     1     179.408 181.132 172.832  1.00  0.00    -0.001 C 
ATOM      5  C   UNL     1     177.947 181.460 173.157  1.00  0.00    -0.020 C 
ATOM      6  C   UNL     1     177.383 180.289 173.983  1.00  0.00     0.008 C 
ATOM      7  C   UNL     1     178.211 180.049 175.266  1.00  0.00     0.005 C 
ATOM      8  C   UNL     1     179.754 179.883 175.031  1.00  0.00     0.003 C 
ATOM      9  C   UNL     1     180.345 180.958 174.048  1.00  0.00     0.000 C 
ATOM     10  C   UNL     1     180.833 182.275 174.728  1.00  0.00     0.031 C 
ATOM     11  C   UNL     1     180.632 182.332 176.222  1.00  0.00    -0.027 C 
ATOM     12  C   UNL     1     180.578 181.231 176.996  1.00  0.00    -0.065 C 
ATOM     13  C   UNL     1     180.586 179.842 176.369  1.00  0.00    -0.008 C 
ATOM     14  C   UNL     1     179.987 178.818 177.383  1.00  0.00     0.014 C 
ATOM     15  C   UNL     1     180.670 178.838 178.767  1.00  0.00     0.033 C 
ATOM     16  C   UNL     1     181.077 180.252 179.252  1.00  0.00     0.118 C 
ATOM     17  C   UNL     1     180.357 181.376 178.487  1.00  0.00     0.063 C 
ATOM     18  C   UNL     1     182.052 179.425 176.061  1.00  0.00     0.016 C 
ATOM     19  C   UNL     1     177.744 182.802 173.920  1.00  0.00     0.012 C 
ENDROOT
BRANCH   1  20
ATOM     20  C   UNL     1     176.014 182.232 171.609  1.00  0.00     0.133 C 
ATOM     21  C   UNL     1     174.762 181.494 171.986  1.00  0.00     0.088 C 
ATOM     22  O   UNL     1     175.924 183.392 171.235  1.00  0.00    -0.300 OA
ENDBRANCH   1  20
BRANCH  16  23
ATOM     23  O   UNL     1     180.812 180.365 180.627  1.00  0.00    -0.393 OA
ATOM     24  H   UNL     1     179.824 180.399 180.727  1.00  0.00     0.210 HD
ENDBRANCH  16  23
TORSDOF 2
ENDMDL
MODEL 8
REMARK VINA RESULT:    -6.497      3.322      3.913
REMARK INTER + INTRA:          -7.267
REMARK INTER:                  -7.125
REMARK INTRA:                  -0.142
REMARK UNBOUND:                -0.200
REMARK SMILES CC(=O)[C@H]1CC[C@H]2[C@H]3CC=C4C[C@@H](O)CC[C@@]4(C)[C@H]3CC[C@]12C
REMARK SMILES IDX 4 1 5 2 6 3 7 4 22 5 21 6 20 7 19 8 8 9 9 10 10 11 11 12
REMARK SMILES IDX 17 13 16 14 15 15 13 16 12 17 18 18 23 19 2 20 1 21 3 22
REMARK SMILES IDX 14 23
REMARK H PARENT 14 24
REMARK Flexibility Score: inf
ROOT
ATOM      1  C   UNL     1     183.329 179.167 171.683  1.00  0.00     0.062 C 
ATOM      2  C   UNL     1     182.217 178.460 170.867  1.00  0.00     0.012 C 
ATOM      3  C   UNL     1     180.910 178.637 171.660  1.00  0.00     0.005 C 
ATOM      4  C   UNL     1     181.294 179.568 172.806  1.00  0.00    -0.001 C 
ATOM      5  C   UNL     1     182.761 179.260 173.122  1.00  0.00    -0.020 C 
ATOM      6  C   UNL     1     183.314 180.438 173.946  1.00  0.00     0.008 C 
ATOM      7  C   UNL     1     182.489 180.667 175.233  1.00  0.00     0.005 C 
ATOM      8  C   UNL     1     180.943 180.812 175.007  1.00  0.00     0.003 C 
ATOM      9  C   UNL     1     180.362 179.730 174.027  1.00  0.00     0.000 C 
ATOM     10  C   UNL     1     179.895 178.406 174.709  1.00  0.00     0.031 C 
ATOM     11  C   UNL     1     180.104 178.352 176.201  1.00  0.00    -0.027 C 
ATOM     12  C   UNL     1     180.148 179.453 176.976  1.00  0.00    -0.065 C 
ATOM     13  C   UNL     1     180.118 180.841 176.349  1.00  0.00    -0.008 C 
ATOM     14  C   UNL     1     180.708 181.874 177.360  1.00  0.00     0.014 C 
ATOM     15  C   UNL     1     180.033 181.844 178.748  1.00  0.00     0.033 C 
ATOM     16  C   UNL     1     179.648 180.424 179.234  1.00  0.00     0.118 C 
ATOM     17  C   UNL     1     180.379 179.311 178.465  1.00  0.00     0.063 C 
ATOM     18  C   UNL     1     178.645 181.239 176.049  1.00  0.00     0.016 C 
ATOM     19  C   UNL     1     182.986 177.920 173.884  1.00  0.00     0.012 C 
ENDROOT
BRANCH   1  20
ATOM     20  C   UNL     1     184.696 178.514 171.564  1.00  0.00     0.133 C 
ATOM     21  C   UNL     1     185.934 179.245 171.994  1.00  0.00     0.088 C 
ATOM     22  O   UNL     1     184.803 177.373 171.139  1.00  0.00    -0.300 OA
ENDBRANCH   1  20
BRANCH  16  23
ATOM     23  O   UNL     1     179.922 180.315 180.608  1.00  0.00    -0.393 OA
ATOM     24  H   UNL     1     180.873 180.037 180.690  1.00  0.00     0.210 HD
ENDBRANCH  16  23
TORSDOF 2
ENDMDL
MODEL 9
REMARK VINA RESULT:    -6.297      2.794      6.593
REMARK INTER + INTRA:          -7.049
REMARK INTER:                  -6.907
REMARK INTRA:                  -0.142
REMARK UNBOUND:                -0.200
REMARK SMILES CC(=O)[C@H]1CC[C@H]2[C@H]3CC=C4C[C@@H](O)CC[C@@]4(C)[C@H]3CC[C@]12C
REMARK SMILES IDX 4 1 5 2 6 3 7 4 22 5 21 6 20 7 19 8 8 9 9 10 10 11 11 12
REMARK SMILES IDX 17 13 16 14 15 15 13 16 12 17 18 18 23 19 2 20 1 21 3 22
REMARK SMILES IDX 14 23
REMARK H PARENT 14 24
REMARK Flexibility Score: inf
ROOT
ATOM      1  C   UNL     1     179.439 180.335 177.159  1.00  0.00     0.062 C 
ATOM      2  C   UNL     1     178.240 181.036 176.470  1.00  0.00     0.012 C 
ATOM      3  C   UNL     1     178.494 180.950 174.954  1.00  0.00     0.005 C 
ATOM      4  C   UNL     1     179.735 180.071 174.834  1.00  0.00    -0.001 C 
ATOM      5  C   UNL     1     180.564 180.343 176.093  1.00  0.00    -0.020 C 
ATOM      6  C   UNL     1     181.579 179.193 176.235  1.00  0.00     0.008 C 
ATOM      7  C   UNL     1     182.472 179.067 174.980  1.00  0.00     0.005 C 
ATOM      8  C   UNL     1     181.691 178.966 173.624  1.00  0.00     0.003 C 
ATOM      9  C   UNL     1     180.524 180.012 173.507  1.00  0.00     0.000 C 
ATOM     10  C   UNL     1     180.931 181.388 172.893  1.00  0.00     0.031 C 
ATOM     11  C   UNL     1     182.391 181.517 172.536  1.00  0.00    -0.027 C 
ATOM     12  C   UNL     1     183.167 180.460 172.229  1.00  0.00    -0.065 C 
ATOM     13  C   UNL     1     182.628 179.041 172.358  1.00  0.00    -0.008 C 
ATOM     14  C   UNL     1     183.825 178.046 172.474  1.00  0.00     0.014 C 
ATOM     15  C   UNL     1     184.858 178.177 171.334  1.00  0.00     0.033 C 
ATOM     16  C   UNL     1     185.110 179.635 170.874  1.00  0.00     0.118 C 
ATOM     17  C   UNL     1     184.628 180.677 171.897  1.00  0.00     0.063 C 
ATOM     18  C   UNL     1     181.815 178.681 171.083  1.00  0.00     0.016 C 
ATOM     19  C   UNL     1     181.303 181.715 176.091  1.00  0.00     0.012 C 
ENDROOT
BRANCH   1  20
ATOM     20  C   UNL     1     179.814 180.931 178.505  1.00  0.00     0.133 C 
ATOM     21  C   UNL     1     180.703 180.180 179.453  1.00  0.00     0.088 C 
ATOM     22  O   UNL     1     179.417 182.042 178.824  1.00  0.00    -0.300 OA
ENDBRANCH   1  20
BRANCH  16  23
ATOM     23  O   UNL     1     186.481 179.810 170.624  1.00  0.00    -0.393 OA
ATOM     24  H   UNL     1     186.557 180.286 169.754  1.00  0.00     0.210 HD
ENDBRANCH  16  23
TORSDOF 2
ENDMDL
