MODEL 1
REMARK VINA RESULT:    -5.695      0.000      0.000
REMARK INTER + INTRA:          -7.261
REMARK INTER:                  -7.026
REMARK INTRA:                  -0.235
REMARK UNBOUND:                -0.235
REMARK SMILES C=CCc1ccc(OC)c(OC)c1
REMARK SMILES IDX 7 1 10 2 13 3 4 4 5 5 6 6 8 7 9 8 11 9 12 10 3 11 2 12 1 13
REMARK H PARENT
REMARK Flexibility Score: inf
ROOT
ATOM      1  C   UNL     1      16.041  33.649  34.563  1.00  0.00     0.160 A 
ATOM      2  C   UNL     1      14.823  33.941  35.197  1.00  0.00     0.160 A 
ATOM      3  C   UNL     1      13.754  34.468  34.445  1.00  0.00     0.054 A 
ATOM      4  C   UNL     1      13.895  34.695  33.068  1.00  0.00    -0.040 A 
ATOM      5  C   UNL     1      15.118  34.411  32.444  1.00  0.00     0.008 A 
ATOM      6  C   UNL     1      16.181  33.888  33.183  1.00  0.00     0.051 A 
ENDROOT
BRANCH   1   7
ATOM      7  O   UNL     1      17.088  33.124  35.338  1.00  0.00    -0.493 OA
ATOM      8  C   UNL     1      17.271  31.739  35.612  1.00  0.00     0.278 C 
ENDBRANCH   1   7
BRANCH   2   9
ATOM      9  O   UNL     1      14.715  33.697  36.576  1.00  0.00    -0.493 OA
ATOM     10  C   UNL     1      14.017  34.536  37.491  1.00  0.00     0.278 C 
ENDBRANCH   2   9
BRANCH   4  11
ATOM     11  C   UNL     1      12.762  35.287  32.272  1.00  0.00     0.062 C 
BRANCH  11  12
ATOM     12  C   UNL     1      12.891  36.783  32.194  1.00  0.00    -0.030 C 
ATOM     13  C   UNL     1      13.241  37.399  31.061  1.00  0.00     0.004 C 
ENDBRANCH  11  12
ENDBRANCH   4  11
TORSDOF 4
ENDMDL
MODEL 2
REMARK VINA RESULT:    -5.013      2.328      6.143
REMARK INTER + INTRA:          -6.420
REMARK INTER:                  -6.186
REMARK INTRA:                  -0.234
REMARK UNBOUND:                -0.235
REMARK SMILES C=CCc1ccc(OC)c(OC)c1
REMARK SMILES IDX 7 1 10 2 13 3 4 4 5 5 6 6 8 7 9 8 11 9 12 10 3 11 2 12 1 13
REMARK H PARENT
REMARK Flexibility Score: inf
ROOT
ATOM      1  C   UNL     1      16.002  33.518  35.972  1.00  0.00     0.160 A 
ATOM      2  C   UNL     1      16.804  33.161  34.877  1.00  0.00     0.160 A 
ATOM      3  C   UNL     1      17.430  31.898  34.853  1.00  0.00     0.054 A 
ATOM      4  C   UNL     1      17.252  30.994  35.910  1.00  0.00    -0.040 A 
ATOM      5  C   UNL     1      16.459  31.363  37.006  1.00  0.00     0.008 A 
ATOM      6  C   UNL     1      15.834  32.611  37.036  1.00  0.00     0.051 A 
ENDROOT
BRANCH   1   7
ATOM      7  O   UNL     1      15.391  34.782  35.968  1.00  0.00    -0.493 OA
ATOM      8  C   UNL     1      14.003  35.006  36.193  1.00  0.00     0.278 C 
ENDBRANCH   1   7
BRANCH   2   9
ATOM      9  O   UNL     1      16.957  34.088  33.834  1.00  0.00    -0.493 OA
ATOM     10  C   UNL     1      16.057  34.227  32.738  1.00  0.00     0.278 C 
ENDBRANCH   2   9
BRANCH   4  11
ATOM     11  C   UNL     1      17.946  29.658  35.897  1.00  0.00     0.062 C 
BRANCH  11  12
ATOM     12  C   UNL     1      16.954  28.541  36.062  1.00  0.00    -0.030 C 
ATOM     13  C   UNL     1      16.948  27.761  37.147  1.00  0.00     0.004 C 
ENDBRANCH  11  12
ENDBRANCH   4  11
TORSDOF 4
ENDMDL
MODEL 3
REMARK VINA RESULT:    -4.799      2.442      5.826
REMARK INTER + INTRA:          -6.156
REMARK INTER:                  -5.907
REMARK INTRA:                  -0.250
REMARK UNBOUND:                -0.235
REMARK SMILES C=CCc1ccc(OC)c(OC)c1
REMARK SMILES IDX 7 1 10 2 13 3 4 4 5 5 6 6 8 7 9 8 11 9 12 10 3 11 2 12 1 13
REMARK H PARENT
REMARK Flexibility Score: inf
ROOT
ATOM      1  C   UNL     1      17.013  32.903  34.998  1.00  0.00     0.160 A 
ATOM      2  C   UNL     1      16.297  33.056  36.196  1.00  0.00     0.160 A 
ATOM      3  C   UNL     1      16.185  31.969  37.086  1.00  0.00     0.054 A 
ATOM      4  C   UNL     1      16.788  30.739  36.787  1.00  0.00    -0.040 A 
ATOM      5  C   UNL     1      17.492  30.591  35.584  1.00  0.00     0.008 A 
ATOM      6  C   UNL     1      17.609  31.664  34.699  1.00  0.00     0.051 A 
ENDROOT
BRANCH   1   7
ATOM      7  O   UNL     1      17.108  34.004  34.133  1.00  0.00    -0.493 OA
ATOM      8  C   UNL     1      16.276  34.210  32.996  1.00  0.00     0.278 C 
ENDBRANCH   1   7
BRANCH   2   9
ATOM      9  O   UNL     1      15.709  34.303  36.465  1.00  0.00    -0.493 OA
ATOM     10  C   UNL     1      14.307  34.556  36.441  1.00  0.00     0.278 C 
ENDBRANCH   2   9
BRANCH   4  11
ATOM     11  C   UNL     1      16.641  29.569  37.725  1.00  0.00     0.062 C 
BRANCH  11  12
ATOM     12  C   UNL     1      16.916  28.276  37.009  1.00  0.00    -0.030 C 
ATOM     13  C   UNL     1      15.953  27.612  36.362  1.00  0.00     0.004 C 
ENDBRANCH  11  12
ENDBRANCH   4  11
TORSDOF 4
ENDMDL
MODEL 4
REMARK VINA RESULT:    -4.757      9.776     11.484
REMARK INTER + INTRA:          -6.105
REMARK INTER:                  -5.803
REMARK INTRA:                  -0.302
REMARK UNBOUND:                -0.235
REMARK SMILES C=CCc1ccc(OC)c(OC)c1
REMARK SMILES IDX 7 1 10 2 13 3 4 4 5 5 6 6 8 7 9 8 11 9 12 10 3 11 2 12 1 13
REMARK H PARENT
REMARK Flexibility Score: inf
ROOT
ATOM      1  C   UNL     1      21.933  29.729  26.252  1.00  0.00     0.160 A 
ATOM      2  C   UNL     1      20.571  29.812  25.921  1.00  0.00     0.160 A 
ATOM      3  C   UNL     1      19.685  28.805  26.354  1.00  0.00     0.054 A 
ATOM      4  C   UNL     1      20.152  27.725  27.118  1.00  0.00    -0.040 A 
ATOM      5  C   UNL     1      21.515  27.644  27.435  1.00  0.00     0.008 A 
ATOM      6  C   UNL     1      22.398  28.639  27.011  1.00  0.00     0.051 A 
ENDROOT
BRANCH   1   7
ATOM      7  O   UNL     1      22.791  30.748  25.807  1.00  0.00    -0.493 OA
ATOM      8  C   UNL     1      23.116  31.912  26.559  1.00  0.00     0.278 C 
ENDBRANCH   1   7
BRANCH   2   9
ATOM      9  O   UNL     1      20.137  30.908  25.158  1.00  0.00    -0.493 OA
ATOM     10  C   UNL     1      19.273  31.934  25.637  1.00  0.00     0.278 C 
ENDBRANCH   2   9
BRANCH   4  11
ATOM     11  C   UNL     1      19.209  26.635  27.553  1.00  0.00     0.062 C 
BRANCH  11  12
ATOM     12  C   UNL     1      17.965  27.219  28.162  1.00  0.00    -0.030 C 
ATOM     13  C   UNL     1      17.736  27.168  29.478  1.00  0.00     0.004 C 
ENDBRANCH  11  12
ENDBRANCH   4  11
TORSDOF 4
ENDMDL
MODEL 5
REMARK VINA RESULT:    -4.719      1.338      2.687
REMARK INTER + INTRA:          -6.057
REMARK INTER:                  -5.980
REMARK INTRA:                  -0.078
REMARK UNBOUND:                -0.235
REMARK SMILES C=CCc1ccc(OC)c(OC)c1
REMARK SMILES IDX 7 1 10 2 13 3 4 4 5 5 6 6 8 7 9 8 11 9 12 10 3 11 2 12 1 13
REMARK H PARENT
REMARK Flexibility Score: inf
ROOT
ATOM      1  C   UNL     1      14.386  34.242  34.852  1.00  0.00     0.160 A 
ATOM      2  C   UNL     1      14.907  34.146  33.552  1.00  0.00     0.160 A 
ATOM      3  C   UNL     1      14.283  34.841  32.497  1.00  0.00     0.054 A 
ATOM      4  C   UNL     1      13.149  35.632  32.737  1.00  0.00    -0.040 A 
ATOM      5  C   UNL     1      12.628  35.714  34.036  1.00  0.00     0.008 A 
ATOM      6  C   UNL     1      13.243  35.029  35.086  1.00  0.00     0.051 A 
ENDROOT
BRANCH   1   7
ATOM      7  O   UNL     1      15.030  33.539  35.882  1.00  0.00    -0.493 OA
ATOM      8  C   UNL     1      15.669  34.151  36.997  1.00  0.00     0.278 C 
ENDBRANCH   1   7
BRANCH   2   9
ATOM      9  O   UNL     1      16.045  33.349  33.348  1.00  0.00    -0.493 OA
ATOM     10  C   UNL     1      17.356  33.685  33.792  1.00  0.00     0.278 C 
ENDBRANCH   2   9
BRANCH   4  11
ATOM     11  C   UNL     1      12.465  36.349  31.603  1.00  0.00     0.062 C 
BRANCH  11  12
ATOM     12  C   UNL     1      13.317  37.481  31.098  1.00  0.00    -0.030 C 
ATOM     13  C   UNL     1      13.872  37.455  29.882  1.00  0.00     0.004 C 
ENDBRANCH  11  12
ENDBRANCH   4  11
TORSDOF 4
ENDMDL
MODEL 6
REMARK VINA RESULT:    -4.650     10.349     12.340
REMARK INTER + INTRA:          -5.973
REMARK INTER:                  -5.714
REMARK INTRA:                  -0.259
REMARK UNBOUND:                -0.235
REMARK SMILES C=CCc1ccc(OC)c(OC)c1
REMARK SMILES IDX 7 1 10 2 13 3 4 4 5 5 6 6 8 7 9 8 11 9 12 10 3 11 2 12 1 13
REMARK H PARENT
REMARK Flexibility Score: inf
ROOT
ATOM      1  C   UNL     1      22.062  32.017  26.333  1.00  0.00     0.160 A 
ATOM      2  C   UNL     1      22.741  31.017  25.618  1.00  0.00     0.160 A 
ATOM      3  C   UNL     1      22.543  29.663  25.955  1.00  0.00     0.054 A 
ATOM      4  C   UNL     1      21.670  29.306  26.993  1.00  0.00    -0.040 A 
ATOM      5  C   UNL     1      21.004  30.312  27.709  1.00  0.00     0.008 A 
ATOM      6  C   UNL     1      21.193  31.655  27.380  1.00  0.00     0.051 A 
ENDROOT
BRANCH   1   7
ATOM      7  O   UNL     1      22.278  33.357  25.974  1.00  0.00    -0.493 OA
ATOM      8  C   UNL     1      21.459  34.090  25.070  1.00  0.00     0.278 C 
ENDBRANCH   1   7
BRANCH   2   9
ATOM      9  O   UNL     1      23.605  31.409  24.583  1.00  0.00    -0.493 OA
ATOM     10  C   UNL     1      23.721  30.737  23.332  1.00  0.00     0.278 C 
ENDBRANCH   2   9
BRANCH   4  11
ATOM     11  C   UNL     1      21.484  27.861  27.371  1.00  0.00     0.062 C 
BRANCH  11  12
ATOM     12  C   UNL     1      20.154  27.351  26.889  1.00  0.00    -0.030 C 
ATOM     13  C   UNL     1      19.308  26.715  27.704  1.00  0.00     0.004 C 
ENDBRANCH  11  12
ENDBRANCH   4  11
TORSDOF 4
ENDMDL
MODEL 7
REMARK VINA RESULT:    -4.643      9.524     11.156
REMARK INTER + INTRA:          -5.964
REMARK INTER:                  -5.718
REMARK INTRA:                  -0.246
REMARK UNBOUND:                -0.235
REMARK SMILES C=CCc1ccc(OC)c(OC)c1
REMARK SMILES IDX 7 1 10 2 13 3 4 4 5 5 6 6 8 7 9 8 11 9 12 10 3 11 2 12 1 13
REMARK H PARENT
REMARK Flexibility Score: inf
ROOT
ATOM      1  C   UNL     1      21.753  30.727  27.023  1.00  0.00     0.160 A 
ATOM      2  C   UNL     1      22.511  31.680  26.325  1.00  0.00     0.160 A 
ATOM      3  C   UNL     1      22.595  32.999  26.815  1.00  0.00     0.054 A 
ATOM      4  C   UNL     1      21.933  33.365  27.996  1.00  0.00    -0.040 A 
ATOM      5  C   UNL     1      21.169  32.410  28.681  1.00  0.00     0.008 A 
ATOM      6  C   UNL     1      21.083  31.101  28.204  1.00  0.00     0.051 A 
ENDROOT
BRANCH   1   7
ATOM      7  O   UNL     1      21.689  29.421  26.512  1.00  0.00    -0.493 OA
ATOM      8  C   UNL     1      21.936  28.245  27.275  1.00  0.00     0.278 C 
ENDBRANCH   1   7
BRANCH   2   9
ATOM      9  O   UNL     1      23.164  31.280  25.149  1.00  0.00    -0.493 OA
ATOM     10  C   UNL     1      22.701  31.564  23.832  1.00  0.00     0.278 C 
ENDBRANCH   2   9
BRANCH   4  11
ATOM     11  C   UNL     1      21.999  34.782  28.500  1.00  0.00     0.062 C 
BRANCH  11  12
ATOM     12  C   UNL     1      23.422  35.184  28.773  1.00  0.00    -0.030 C 
ATOM     13  C   UNL     1      23.747  36.437  29.106  1.00  0.00     0.004 C 
ENDBRANCH  11  12
ENDBRANCH   4  11
TORSDOF 4
ENDMDL
MODEL 8
REMARK VINA RESULT:    -4.548      2.126      5.502
REMARK INTER + INTRA:          -5.846
REMARK INTER:                  -5.582
REMARK INTRA:                  -0.264
REMARK UNBOUND:                -0.235
REMARK SMILES C=CCc1ccc(OC)c(OC)c1
REMARK SMILES IDX 7 1 10 2 13 3 4 4 5 5 6 6 8 7 9 8 11 9 12 10 3 11 2 12 1 13
REMARK H PARENT
REMARK Flexibility Score: inf
ROOT
ATOM      1  C   UNL     1      13.987  34.606  34.883  1.00  0.00     0.160 A 
ATOM      2  C   UNL     1      14.838  34.219  33.837  1.00  0.00     0.160 A 
ATOM      3  C   UNL     1      15.984  33.447  34.118  1.00  0.00     0.054 A 
ATOM      4  C   UNL     1      16.275  33.058  35.434  1.00  0.00    -0.040 A 
ATOM      5  C   UNL     1      15.425  33.458  36.475  1.00  0.00     0.008 A 
ATOM      6  C   UNL     1      14.288  34.221  36.203  1.00  0.00     0.051 A 
ENDROOT
BRANCH   1   7
ATOM      7  O   UNL     1      12.853  35.374  34.571  1.00  0.00    -0.493 OA
ATOM      8  C   UNL     1      12.827  36.797  34.541  1.00  0.00     0.278 C 
ENDBRANCH   1   7
BRANCH   2   9
ATOM      9  O   UNL     1      14.515  34.623  32.531  1.00  0.00    -0.493 OA
ATOM     10  C   UNL     1      15.466  35.043  31.557  1.00  0.00     0.278 C 
ENDBRANCH   2   9
BRANCH   4  11
ATOM     11  C   UNL     1      17.515  32.259  35.736  1.00  0.00     0.062 C 
BRANCH  11  12
ATOM     12  C   UNL     1      17.228  30.785  35.672  1.00  0.00    -0.030 C 
ATOM     13  C   UNL     1      17.014  30.062  36.775  1.00  0.00     0.004 C 
ENDBRANCH  11  12
ENDBRANCH   4  11
TORSDOF 4
ENDMDL
MODEL 9
REMARK VINA RESULT:    -4.502      9.873     11.000
REMARK INTER + INTRA:          -5.790
REMARK INTER:                  -5.443
REMARK INTRA:                  -0.347
REMARK UNBOUND:                -0.235
REMARK SMILES C=CCc1ccc(OC)c(OC)c1
REMARK SMILES IDX 7 1 10 2 13 3 4 4 5 5 6 6 8 7 9 8 11 9 12 10 3 11 2 12 1 13
REMARK H PARENT
REMARK Flexibility Score: inf
ROOT
ATOM      1  C   UNL     1      20.041  31.839  26.257  1.00  0.00     0.160 A 
ATOM      2  C   UNL     1      20.911  31.506  27.307  1.00  0.00     0.160 A 
ATOM      3  C   UNL     1      21.144  30.151  27.617  1.00  0.00     0.054 A 
ATOM      4  C   UNL     1      20.518  29.134  26.882  1.00  0.00    -0.040 A 
ATOM      5  C   UNL     1      19.642  29.475  25.842  1.00  0.00     0.008 A 
ATOM      6  C   UNL     1      19.409  30.815  25.528  1.00  0.00     0.051 A 
ENDROOT
BRANCH   1   7
ATOM      7  O   UNL     1      19.831  33.197  25.971  1.00  0.00    -0.493 OA
ATOM      8  C   UNL     1      20.363  33.873  24.837  1.00  0.00     0.278 C 
ENDBRANCH   1   7
BRANCH   2   9
ATOM      9  O   UNL     1      21.524  32.549  28.020  1.00  0.00    -0.493 OA
ATOM     10  C   UNL     1      22.826  33.058  27.747  1.00  0.00     0.278 C 
ENDBRANCH   2   9
BRANCH   4  11
ATOM     11  C   UNL     1      20.743  27.687  27.235  1.00  0.00     0.062 C 
BRANCH  11  12
ATOM     12  C   UNL     1      19.451  26.920  27.184  1.00  0.00    -0.030 C 
ATOM     13  C   UNL     1      18.590  26.926  28.207  1.00  0.00     0.004 C 
ENDBRANCH  11  12
ENDBRANCH   4  11
TORSDOF 4
ENDMDL
