MODEL 1
REMARK VINA RESULT:    -6.279      0.000      0.000
REMARK INTER + INTRA:         -12.544
REMARK INTER:                  -9.582
REMARK INTRA:                  -2.962
REMARK UNBOUND:                -2.962
REMARK SMILES CC(=O)CCC=C(C)CCC=C(C)CCC=C(C)C
REMARK SMILES IDX 10 1 11 2 12 3 13 4 14 5 15 6 16 7 18 8 17 9 19 10 9 11 7 12
REMARK SMILES IDX 6 13 8 14 5 15 4 16 2 17 3 18 1 19
REMARK H PARENT
REMARK Flexibility Score: inf
ROOT
ATOM      1  C   UNL     1      -1.145 -13.753  28.541  1.00  0.00     0.032 C 
ENDROOT
BRANCH   1   2
ATOM      2  C   UNL     1      -0.397 -13.249  29.754  1.00  0.00    -0.028 C 
ATOM      3  C   UNL     1      -0.901 -13.139  31.006  1.00  0.00    -0.077 C 
ATOM      4  C   UNL     1      -0.018 -12.546  32.073  1.00  0.00     0.039 C 
BRANCH   3   5
ATOM      5  C   UNL     1      -2.293 -13.597  31.399  1.00  0.00     0.034 C 
BRANCH   5   6
ATOM      6  C   UNL     1      -3.163 -12.434  31.895  1.00  0.00     0.032 C 
BRANCH   6   7
ATOM      7  C   UNL     1      -4.023 -11.875  30.787  1.00  0.00    -0.028 C 
ATOM      8  C   UNL     1      -4.776 -10.270  29.087  1.00  0.00     0.039 C 
ATOM      9  C   UNL     1      -3.776 -10.727  30.118  1.00  0.00    -0.080 C 
ATOM     10  C   UNL     1      -2.538  -9.901  30.371  1.00  0.00     0.039 C 
ENDBRANCH   6   7
ENDBRANCH   5   6
ENDBRANCH   3   5
ENDBRANCH   1   2
BRANCH   1  11
ATOM     11  C   UNL     1      -1.825 -12.608  27.782  1.00  0.00     0.034 C 
BRANCH  11  12
ATOM     12  C   UNL     1      -3.179 -13.017  27.237  1.00  0.00    -0.077 C 
ATOM     13  C   UNL     1      -3.802 -14.096  27.761  1.00  0.00    -0.028 C 
ATOM     14  C   UNL     1      -3.767 -12.232  26.088  1.00  0.00     0.039 C 
BRANCH  13  15
ATOM     15  C   UNL     1      -5.142 -14.614  27.303  1.00  0.00     0.035 C 
BRANCH  15  16
ATOM     16  C   UNL     1      -6.239 -14.256  28.311  1.00  0.00     0.079 C 
BRANCH  16  17
ATOM     17  C   UNL     1      -6.316 -15.291  29.401  1.00  0.00     0.130 C 
ATOM     18  O   UNL     1      -6.785 -16.393  29.152  1.00  0.00    -0.300 OA
ATOM     19  C   UNL     1      -5.820 -15.006  30.787  1.00  0.00     0.087 C 
ENDBRANCH  16  17
ENDBRANCH  15  16
ENDBRANCH  13  15
ENDBRANCH  11  12
ENDBRANCH   1  11
TORSDOF 9
ENDMDL
MODEL 2
REMARK VINA RESULT:    -5.928      2.018      5.183
REMARK INTER + INTRA:         -12.009
REMARK INTER:                 -10.159
REMARK INTRA:                  -1.849
REMARK UNBOUND:                -2.962
REMARK SMILES CC(=O)CCC=C(C)CCC=C(C)CCC=C(C)C
REMARK SMILES IDX 10 1 11 2 12 3 13 4 14 5 15 6 16 7 18 8 17 9 19 10 9 11 7 12
REMARK SMILES IDX 6 13 8 14 5 15 4 16 2 17 3 18 1 19
REMARK H PARENT
REMARK Flexibility Score: inf
ROOT
ATOM      1  C   UNL     1      -1.738 -14.153  28.348  1.00  0.00     0.032 C 
ENDROOT
BRANCH   1   2
ATOM      2  C   UNL     1      -2.039 -12.889  27.579  1.00  0.00    -0.028 C 
ATOM      3  C   UNL     1      -3.162 -12.645  26.863  1.00  0.00    -0.077 C 
ATOM      4  C   UNL     1      -3.248 -11.346  26.103  1.00  0.00     0.039 C 
BRANCH   3   5
ATOM      5  C   UNL     1      -4.345 -13.592  26.801  1.00  0.00     0.034 C 
BRANCH   5   6
ATOM      6  C   UNL     1      -5.320 -13.374  27.966  1.00  0.00     0.032 C 
BRANCH   6   7
ATOM      7  C   UNL     1      -6.233 -14.561  28.154  1.00  0.00    -0.028 C 
ATOM      8  C   UNL     1      -7.265 -16.473  29.299  1.00  0.00     0.039 C 
ATOM      9  C   UNL     1      -6.362 -15.267  29.299  1.00  0.00    -0.080 C 
ATOM     10  C   UNL     1      -5.634 -14.884  30.565  1.00  0.00     0.039 C 
ENDBRANCH   6   7
ENDBRANCH   5   6
ENDBRANCH   3   5
ENDBRANCH   1   2
BRANCH   1  11
ATOM     11  C   UNL     1      -0.625 -13.934  29.381  1.00  0.00     0.034 C 
BRANCH  11  12
ATOM     12  C   UNL     1      -1.149 -13.285  30.646  1.00  0.00    -0.077 C 
ATOM     13  C   UNL     1      -2.484 -13.227  30.854  1.00  0.00    -0.028 C 
ATOM     14  C   UNL     1      -0.162 -12.676  31.613  1.00  0.00     0.039 C 
BRANCH  13  15
ATOM     15  C   UNL     1      -3.133 -12.600  32.062  1.00  0.00     0.035 C 
BRANCH  15  16
ATOM     16  C   UNL     1      -4.134 -11.519  31.644  1.00  0.00     0.079 C 
BRANCH  16  17
ATOM     17  C   UNL     1      -3.453 -10.454  30.824  1.00  0.00     0.130 C 
ATOM     18  O   UNL     1      -2.475  -9.879  31.279  1.00  0.00    -0.300 OA
ATOM     19  C   UNL     1      -3.942 -10.089  29.455  1.00  0.00     0.087 C 
ENDBRANCH  16  17
ENDBRANCH  15  16
ENDBRANCH  13  15
ENDBRANCH  11  12
ENDBRANCH   1  11
TORSDOF 9
ENDMDL
MODEL 3
REMARK VINA RESULT:    -5.832      2.264      5.334
REMARK INTER + INTRA:         -11.862
REMARK INTER:                  -9.501
REMARK INTRA:                  -2.361
REMARK UNBOUND:                -2.962
REMARK SMILES CC(=O)CCC=C(C)CCC=C(C)CCC=C(C)C
REMARK SMILES IDX 10 1 11 2 12 3 13 4 14 5 15 6 16 7 18 8 17 9 19 10 9 11 7 12
REMARK SMILES IDX 6 13 8 14 5 15 4 16 2 17 3 18 1 19
REMARK H PARENT
REMARK Flexibility Score: inf
ROOT
ATOM      1  C   UNL     1      -4.755 -14.780  32.007  1.00  0.00     0.032 C 
ENDROOT
BRANCH   1   2
ATOM      2  C   UNL     1      -5.914 -15.168  31.118  1.00  0.00    -0.028 C 
ATOM      3  C   UNL     1      -5.975 -14.997  29.776  1.00  0.00    -0.077 C 
ATOM      4  C   UNL     1      -7.250 -15.383  29.072  1.00  0.00     0.039 C 
BRANCH   3   5
ATOM      5  C   UNL     1      -4.829 -14.458  28.941  1.00  0.00     0.034 C 
BRANCH   5   6
ATOM      6  C   UNL     1      -5.266 -13.286  28.051  1.00  0.00     0.032 C 
BRANCH   6   7
ATOM      7  C   UNL     1      -4.624 -11.991  28.486  1.00  0.00    -0.028 C 
ATOM      8  C   UNL     1      -3.092 -10.074  28.394  1.00  0.00     0.039 C 
ATOM      9  C   UNL     1      -3.686 -11.317  27.784  1.00  0.00    -0.080 C 
ATOM     10  C   UNL     1      -3.224 -11.770  26.420  1.00  0.00     0.039 C 
ENDBRANCH   6   7
ENDBRANCH   5   6
ENDBRANCH   3   5
ENDBRANCH   1   2
BRANCH   1  11
ATOM     11  C   UNL     1      -4.867 -13.325  32.476  1.00  0.00     0.034 C 
BRANCH  11  12
ATOM     12  C   UNL     1      -3.777 -12.455  31.883  1.00  0.00    -0.077 C 
ATOM     13  C   UNL     1      -2.614 -13.026  31.496  1.00  0.00    -0.028 C 
ATOM     14  C   UNL     1      -4.007 -10.966  31.788  1.00  0.00     0.039 C 
BRANCH  13  15
ATOM     15  C   UNL     1      -1.449 -12.274  30.904  1.00  0.00     0.035 C 
BRANCH  15  16
ATOM     16  C   UNL     1      -0.281 -13.220  30.612  1.00  0.00     0.079 C 
BRANCH  16  17
ATOM     17  C   UNL     1      -0.240 -13.578  29.149  1.00  0.00     0.130 C 
ATOM     18  O   UNL     1       0.750 -13.298  28.489  1.00  0.00    -0.300 OA
ATOM     19  C   UNL     1      -1.386 -14.278  28.483  1.00  0.00     0.087 C 
ENDBRANCH  16  17
ENDBRANCH  15  16
ENDBRANCH  13  15
ENDBRANCH  11  12
ENDBRANCH   1  11
TORSDOF 9
ENDMDL
MODEL 4
REMARK VINA RESULT:    -5.794      1.137      2.969
REMARK INTER + INTRA:         -11.804
REMARK INTER:                  -9.361
REMARK INTRA:                  -2.443
REMARK UNBOUND:                -2.962
REMARK SMILES CC(=O)CCC=C(C)CCC=C(C)CCC=C(C)C
REMARK SMILES IDX 10 1 11 2 12 3 13 4 14 5 15 6 16 7 18 8 17 9 19 10 9 11 7 12
REMARK SMILES IDX 6 13 8 14 5 15 4 16 2 17 3 18 1 19
REMARK H PARENT
REMARK Flexibility Score: inf
ROOT
ATOM      1  C   UNL     1      -4.513 -10.543  28.726  1.00  0.00     0.032 C 
ENDROOT
BRANCH   1   2
ATOM      2  C   UNL     1      -3.569 -10.023  29.785  1.00  0.00    -0.028 C 
ATOM      3  C   UNL     1      -3.354 -10.584  30.999  1.00  0.00    -0.077 C 
ATOM      4  C   UNL     1      -2.424  -9.875  31.950  1.00  0.00     0.039 C 
BRANCH   3   5
ATOM      5  C   UNL     1      -3.979 -11.892  31.447  1.00  0.00     0.034 C 
BRANCH   5   6
ATOM      6  C   UNL     1      -2.922 -12.973  31.712  1.00  0.00     0.032 C 
BRANCH   6   7
ATOM      7  C   UNL     1      -2.220 -13.385  30.440  1.00  0.00    -0.028 C 
ATOM      8  C   UNL     1      -0.370 -13.619  28.842  1.00  0.00     0.039 C 
ATOM      9  C   UNL     1      -0.902 -13.219  30.194  1.00  0.00    -0.080 C 
ATOM     10  C   UNL     1       0.043 -12.652  31.226  1.00  0.00     0.039 C 
ENDBRANCH   6   7
ENDBRANCH   5   6
ENDBRANCH   3   5
ENDBRANCH   1   2
BRANCH   1  11
ATOM     11  C   UNL     1      -3.751 -11.146  27.539  1.00  0.00     0.034 C 
BRANCH  11  12
ATOM     12  C   UNL     1      -4.122 -12.597  27.309  1.00  0.00    -0.077 C 
ATOM     13  C   UNL     1      -5.036 -13.181  28.117  1.00  0.00    -0.028 C 
ATOM     14  C   UNL     1      -3.420 -13.361  26.212  1.00  0.00     0.039 C 
BRANCH  13  15
ATOM     15  C   UNL     1      -5.482 -14.616  28.002  1.00  0.00     0.035 C 
BRANCH  15  16
ATOM     16  C   UNL     1      -5.997 -15.137  29.348  1.00  0.00     0.079 C 
BRANCH  16  17
ATOM     17  C   UNL     1      -7.168 -16.061  29.147  1.00  0.00     0.130 C 
ATOM     18  O   UNL     1      -7.075 -17.232  29.485  1.00  0.00    -0.300 OA
ATOM     19  C   UNL     1      -8.454 -15.576  28.547  1.00  0.00     0.087 C 
ENDBRANCH  16  17
ENDBRANCH  15  16
ENDBRANCH  13  15
ENDBRANCH  11  12
ENDBRANCH   1  11
TORSDOF 9
ENDMDL
MODEL 5
REMARK VINA RESULT:    -5.657      2.097      5.510
REMARK INTER + INTRA:         -11.596
REMARK INTER:                  -9.963
REMARK INTRA:                  -1.633
REMARK UNBOUND:                -2.962
REMARK SMILES CC(=O)CCC=C(C)CCC=C(C)CCC=C(C)C
REMARK SMILES IDX 10 1 11 2 12 3 13 4 14 5 15 6 16 7 18 8 17 9 19 10 9 11 7 12
REMARK SMILES IDX 6 13 8 14 5 15 4 16 2 17 3 18 1 19
REMARK H PARENT
REMARK Flexibility Score: inf
ROOT
ATOM      1  C   UNL     1      -4.310  -9.900  30.124  1.00  0.00     0.032 C 
ENDROOT
BRANCH   1   2
ATOM      2  C   UNL     1      -3.657 -10.284  28.816  1.00  0.00    -0.028 C 
ATOM      3  C   UNL     1      -4.024 -11.316  28.020  1.00  0.00    -0.077 C 
ATOM      4  C   UNL     1      -3.201 -11.584  26.786  1.00  0.00     0.039 C 
BRANCH   3   5
ATOM      5  C   UNL     1      -5.226 -12.202  28.288  1.00  0.00     0.034 C 
BRANCH   5   6
ATOM      6  C   UNL     1      -4.933 -13.677  27.978  1.00  0.00     0.032 C 
BRANCH   6   7
ATOM      7  C   UNL     1      -6.193 -14.509  28.007  1.00  0.00    -0.028 C 
ATOM      8  C   UNL     1      -7.886 -16.033  28.923  1.00  0.00     0.039 C 
ATOM      9  C   UNL     1      -6.648 -15.190  29.082  1.00  0.00    -0.080 C 
ATOM     10  C   UNL     1      -5.958 -15.127  30.423  1.00  0.00     0.039 C 
ENDBRANCH   6   7
ENDBRANCH   5   6
ENDBRANCH   3   5
ENDBRANCH   1   2
BRANCH   1  11
ATOM     11  C   UNL     1      -3.354 -10.088  31.308  1.00  0.00     0.034 C 
BRANCH  11  12
ATOM     12  C   UNL     1      -2.835 -11.508  31.396  1.00  0.00    -0.077 C 
ATOM     13  C   UNL     1      -1.523 -11.747  31.174  1.00  0.00    -0.028 C 
ATOM     14  C   UNL     1      -3.814 -12.623  31.680  1.00  0.00     0.039 C 
BRANCH  13  15
ATOM     15  C   UNL     1      -0.884 -13.112  31.220  1.00  0.00     0.035 C 
BRANCH  15  16
ATOM     16  C   UNL     1       0.242 -13.222  30.188  1.00  0.00     0.079 C 
BRANCH  16  17
ATOM     17  C   UNL     1      -0.238 -13.936  28.952  1.00  0.00     0.130 C 
ATOM     18  O   UNL     1       0.573 -14.298  28.113  1.00  0.00    -0.300 OA
ATOM     19  C   UNL     1      -1.693 -14.223  28.731  1.00  0.00     0.087 C 
ENDBRANCH  16  17
ENDBRANCH  15  16
ENDBRANCH  13  15
ENDBRANCH  11  12
ENDBRANCH   1  11
TORSDOF 9
ENDMDL
MODEL 6
REMARK VINA RESULT:    -5.585      1.825      4.657
REMARK INTER + INTRA:         -11.485
REMARK INTER:                  -9.994
REMARK INTRA:                  -1.490
REMARK UNBOUND:                -2.962
REMARK SMILES CC(=O)CCC=C(C)CCC=C(C)CCC=C(C)C
REMARK SMILES IDX 10 1 11 2 12 3 13 4 14 5 15 6 16 7 18 8 17 9 19 10 9 11 7 12
REMARK SMILES IDX 6 13 8 14 5 15 4 16 2 17 3 18 1 19
REMARK H PARENT
REMARK Flexibility Score: inf
ROOT
ATOM      1  C   UNL     1      -4.453 -14.583  27.218  1.00  0.00     0.032 C 
ENDROOT
BRANCH   1   2
ATOM      2  C   UNL     1      -3.935 -13.435  26.384  1.00  0.00    -0.028 C 
ATOM      3  C   UNL     1      -3.720 -12.172  26.820  1.00  0.00    -0.077 C 
ATOM      4  C   UNL     1      -3.268 -11.144  25.815  1.00  0.00     0.039 C 
BRANCH   3   5
ATOM      5  C   UNL     1      -3.889 -11.738  28.264  1.00  0.00     0.034 C 
BRANCH   5   6
ATOM      6  C   UNL     1      -2.542 -11.631  28.993  1.00  0.00     0.032 C 
BRANCH   6   7
ATOM      7  C   UNL     1      -1.568 -12.680  28.514  1.00  0.00    -0.028 C 
ATOM      8  C   UNL     1       0.192 -14.386  28.674  1.00  0.00     0.039 C 
ATOM      9  C   UNL     1      -0.781 -13.431  29.317  1.00  0.00    -0.080 C 
ATOM     10  C   UNL     1      -0.851 -13.341  30.821  1.00  0.00     0.039 C 
ENDBRANCH   6   7
ENDBRANCH   5   6
ENDBRANCH   3   5
ENDBRANCH   1   2
BRANCH   1  11
ATOM     11  C   UNL     1      -5.923 -14.383  27.605  1.00  0.00     0.034 C 
BRANCH  11  12
ATOM     12  C   UNL     1      -6.220 -14.914  28.992  1.00  0.00    -0.077 C 
ATOM     13  C   UNL     1      -5.407 -14.573  30.018  1.00  0.00    -0.028 C 
ATOM     14  C   UNL     1      -7.390 -15.851  29.176  1.00  0.00     0.039 C 
BRANCH  13  15
ATOM     15  C   UNL     1      -5.585 -15.041  31.439  1.00  0.00     0.035 C 
BRANCH  15  16
ATOM     16  C   UNL     1      -4.373 -14.659  32.295  1.00  0.00     0.079 C 
BRANCH  16  17
ATOM     17  C   UNL     1      -4.551 -13.284  32.883  1.00  0.00     0.130 C 
ATOM     18  O   UNL     1      -5.116 -13.159  33.960  1.00  0.00    -0.300 OA
ATOM     19  C   UNL     1      -4.043 -12.061  32.180  1.00  0.00     0.087 C 
ENDBRANCH  16  17
ENDBRANCH  15  16
ENDBRANCH  13  15
ENDBRANCH  11  12
ENDBRANCH   1  11
TORSDOF 9
ENDMDL
MODEL 7
REMARK VINA RESULT:    -5.551      2.246      5.311
REMARK INTER + INTRA:         -11.434
REMARK INTER:                  -9.691
REMARK INTRA:                  -1.743
REMARK UNBOUND:                -2.962
REMARK SMILES CC(=O)CCC=C(C)CCC=C(C)CCC=C(C)C
REMARK SMILES IDX 10 1 11 2 12 3 13 4 14 5 15 6 16 7 18 8 17 9 19 10 9 11 7 12
REMARK SMILES IDX 6 13 8 14 5 15 4 16 2 17 3 18 1 19
REMARK H PARENT
REMARK Flexibility Score: inf
ROOT
ATOM      1  C   UNL     1      -4.812 -11.060  28.795  1.00  0.00     0.032 C 
ENDROOT
BRANCH   1   2
ATOM      2  C   UNL     1      -4.319 -12.012  27.731  1.00  0.00    -0.028 C 
ATOM      3  C   UNL     1      -4.827 -13.240  27.469  1.00  0.00    -0.077 C 
ATOM      4  C   UNL     1      -4.151 -14.073  26.410  1.00  0.00     0.039 C 
BRANCH   3   5
ATOM      5  C   UNL     1      -6.047 -13.814  28.164  1.00  0.00     0.034 C 
BRANCH   5   6
ATOM      6  C   UNL     1      -5.665 -14.750  29.318  1.00  0.00     0.032 C 
BRANCH   6   7
ATOM      7  C   UNL     1      -4.710 -14.083  30.279  1.00  0.00    -0.028 C 
ATOM      8  C   UNL     1      -3.726 -13.473  32.445  1.00  0.00     0.039 C 
ATOM      9  C   UNL     1      -4.698 -14.273  31.617  1.00  0.00    -0.080 C 
ATOM     10  C   UNL     1      -5.622 -15.255  32.296  1.00  0.00     0.039 C 
ENDBRANCH   6   7
ENDBRANCH   5   6
ENDBRANCH   3   5
ENDBRANCH   1   2
BRANCH   1  11
ATOM     11  C   UNL     1      -3.773  -9.976  29.107  1.00  0.00     0.034 C 
BRANCH  11  12
ATOM     12  C   UNL     1      -2.819 -10.406  30.202  1.00  0.00    -0.077 C 
ATOM     13  C   UNL     1      -1.801 -11.243  29.900  1.00  0.00    -0.028 C 
ATOM     14  C   UNL     1      -3.067  -9.925  31.612  1.00  0.00     0.039 C 
BRANCH  13  15
ATOM     15  C   UNL     1      -0.792 -11.754  30.897  1.00  0.00     0.035 C 
BRANCH  15  16
ATOM     16  C   UNL     1      -0.618 -13.271  30.767  1.00  0.00     0.079 C 
BRANCH  16  17
ATOM     17  C   UNL     1      -0.413 -13.660  29.327  1.00  0.00     0.130 C 
ATOM     18  O   UNL     1       0.613 -13.326  28.753  1.00  0.00    -0.300 OA
ATOM     19  C   UNL     1      -1.439 -14.460  28.580  1.00  0.00     0.087 C 
ENDBRANCH  16  17
ENDBRANCH  15  16
ENDBRANCH  13  15
ENDBRANCH  11  12
ENDBRANCH   1  11
TORSDOF 9
ENDMDL
MODEL 8
REMARK VINA RESULT:    -5.519      1.757      4.376
REMARK INTER + INTRA:         -11.384
REMARK INTER:                  -9.634
REMARK INTRA:                  -1.750
REMARK UNBOUND:                -2.962
REMARK SMILES CC(=O)CCC=C(C)CCC=C(C)CCC=C(C)C
REMARK SMILES IDX 10 1 11 2 12 3 13 4 14 5 15 6 16 7 18 8 17 9 19 10 9 11 7 12
REMARK SMILES IDX 6 13 8 14 5 15 4 16 2 17 3 18 1 19
REMARK H PARENT
REMARK Flexibility Score: inf
ROOT
ATOM      1  C   UNL     1      -3.967 -13.768  31.686  1.00  0.00     0.032 C 
ENDROOT
BRANCH   1   2
ATOM      2  C   UNL     1      -4.332 -12.457  32.342  1.00  0.00    -0.028 C 
ATOM      3  C   UNL     1      -4.151 -11.226  31.808  1.00  0.00    -0.077 C 
ATOM      4  C   UNL     1      -4.515 -10.030  32.649  1.00  0.00     0.039 C 
BRANCH   3   5
ATOM      5  C   UNL     1      -3.622 -10.984  30.407  1.00  0.00     0.034 C 
BRANCH   5   6
ATOM      6  C   UNL     1      -2.088 -10.970  30.365  1.00  0.00     0.032 C 
BRANCH   6   7
ATOM      7  C   UNL     1      -1.548 -12.066  29.478  1.00  0.00    -0.028 C 
ATOM      8  C   UNL     1      -0.240 -14.052  28.865  1.00  0.00     0.039 C 
ATOM      9  C   UNL     1      -0.754 -13.078  29.893  1.00  0.00    -0.080 C 
ATOM     10  C   UNL     1      -0.375 -13.258  31.343  1.00  0.00     0.039 C 
ENDBRANCH   6   7
ENDBRANCH   5   6
ENDBRANCH   3   5
ENDBRANCH   1   2
BRANCH   1  11
ATOM     11  C   UNL     1      -5.208 -14.627  31.412  1.00  0.00     0.034 C 
BRANCH  11  12
ATOM     12  C   UNL     1      -5.489 -14.756  29.929  1.00  0.00    -0.077 C 
ATOM     13  C   UNL     1      -4.701 -14.099  29.048  1.00  0.00    -0.028 C 
ATOM     14  C   UNL     1      -6.675 -15.577  29.483  1.00  0.00     0.039 C 
BRANCH  13  15
ATOM     15  C   UNL     1      -4.880 -14.134  27.552  1.00  0.00     0.035 C 
BRANCH  15  16
ATOM     16  C   UNL     1      -3.647 -13.565  26.841  1.00  0.00     0.079 C 
BRANCH  16  17
ATOM     17  C   UNL     1      -3.731 -12.064  26.754  1.00  0.00     0.130 C 
ATOM     18  O   UNL     1      -4.454 -11.456  27.530  1.00  0.00    -0.300 OA
ATOM     19  C   UNL     1      -2.939 -11.295  25.740  1.00  0.00     0.087 C 
ENDBRANCH  16  17
ENDBRANCH  15  16
ENDBRANCH  13  15
ENDBRANCH  11  12
ENDBRANCH   1  11
TORSDOF 9
ENDMDL
MODEL 9
REMARK VINA RESULT:    -5.430      1.263      2.525
REMARK INTER + INTRA:         -11.249
REMARK INTER:                 -10.089
REMARK INTRA:                  -1.159
REMARK UNBOUND:                -2.962
REMARK SMILES CC(=O)CCC=C(C)CCC=C(C)CCC=C(C)C
REMARK SMILES IDX 10 1 11 2 12 3 13 4 14 5 15 6 16 7 18 8 17 9 19 10 9 11 7 12
REMARK SMILES IDX 6 13 8 14 5 15 4 16 2 17 3 18 1 19
REMARK H PARENT
REMARK Flexibility Score: inf
ROOT
ATOM      1  C   UNL     1      -2.320 -11.180  28.602  1.00  0.00     0.032 C 
ENDROOT
BRANCH   1   2
ATOM      2  C   UNL     1      -1.783 -12.580  28.419  1.00  0.00    -0.028 C 
ATOM      3  C   UNL     1      -0.787 -13.147  29.139  1.00  0.00    -0.077 C 
ATOM      4  C   UNL     1      -0.341 -14.536  28.758  1.00  0.00     0.039 C 
BRANCH   3   5
ATOM      5  C   UNL     1      -0.110 -12.474  30.318  1.00  0.00     0.034 C 
BRANCH   5   6
ATOM      6  C   UNL     1      -1.111 -12.101  31.420  1.00  0.00     0.032 C 
BRANCH   6   7
ATOM      7  C   UNL     1      -2.076 -13.229  31.697  1.00  0.00    -0.028 C 
ATOM      8  C   UNL     1      -4.221 -14.305  32.217  1.00  0.00     0.039 C 
ATOM      9  C   UNL     1      -3.407 -13.083  31.877  1.00  0.00    -0.080 C 
ATOM     10  C   UNL     1      -4.093 -11.746  31.746  1.00  0.00     0.039 C 
ENDBRANCH   6   7
ENDBRANCH   5   6
ENDBRANCH   3   5
ENDBRANCH   1   2
BRANCH   1  11
ATOM     11  C   UNL     1      -3.728 -11.034  28.011  1.00  0.00     0.034 C 
BRANCH  11  12
ATOM     12  C   UNL     1      -4.286 -12.364  27.546  1.00  0.00    -0.077 C 
ATOM     13  C   UNL     1      -5.096 -13.064  28.371  1.00  0.00    -0.028 C 
ATOM     14  C   UNL     1      -3.876 -12.889  26.191  1.00  0.00     0.039 C 
BRANCH  13  15
ATOM     15  C   UNL     1      -5.706 -14.402  28.035  1.00  0.00     0.035 C 
BRANCH  15  16
ATOM     16  C   UNL     1      -6.026 -15.191  29.308  1.00  0.00     0.079 C 
BRANCH  16  17
ATOM     17  C   UNL     1      -7.179 -16.130  29.075  1.00  0.00     0.130 C 
ATOM     18  O   UNL     1      -7.050 -17.317  29.337  1.00  0.00    -0.300 OA
ATOM     19  C   UNL     1      -8.489 -15.641  28.534  1.00  0.00     0.087 C 
ENDBRANCH  16  17
ENDBRANCH  15  16
ENDBRANCH  13  15
ENDBRANCH  11  12
ENDBRANCH   1  11
TORSDOF 9
ENDMDL
