MODEL 1
REMARK VINA RESULT:    -3.098      0.000      0.000
REMARK INTER + INTRA:          -3.763
REMARK INTER:                  -3.641
REMARK INTRA:                  -0.121
REMARK UNBOUND:                -0.121
REMARK SMILES O=C([O-])CCC(=O)[O-]
REMARK SMILES IDX 4 1 2 2 1 3 3 4 5 5 6 6 7 7 8 8
REMARK H PARENT
REMARK Flexibility Score: inf
ROOT
ATOM      1  C   UNL     1      27.811  -5.535  52.486  1.00  0.00     0.059 C 
ENDROOT
BRANCH   1   2
ATOM      2  C   UNL     1      29.062  -5.170  51.745  1.00  0.00     0.042 C 
ATOM      3  O   UNL     1      29.496  -5.917  50.828  1.00  0.00    -0.550 OA
ATOM      4  O   UNL     1      29.724  -3.985  52.038  1.00  0.00    -0.550 OA
ENDBRANCH   1   2
BRANCH   1   5
ATOM      5  C   UNL     1      26.555  -5.189  51.679  1.00  0.00     0.059 C 
BRANCH   5   6
ATOM      6  C   UNL     1      26.085  -3.795  51.960  1.00  0.00     0.042 C 
ATOM      7  O   UNL     1      25.176  -3.591  52.807  1.00  0.00    -0.550 OA
ATOM      8  O   UNL     1      26.625  -2.725  51.258  1.00  0.00    -0.550 OA
ENDBRANCH   5   6
ENDBRANCH   1   5
TORSDOF 3
ENDMDL
MODEL 2
REMARK VINA RESULT:    -3.068      0.117      3.651
REMARK INTER + INTRA:          -3.727
REMARK INTER:                  -3.603
REMARK INTRA:                  -0.124
REMARK UNBOUND:                -0.121
REMARK SMILES O=C([O-])CCC(=O)[O-]
REMARK SMILES IDX 4 1 2 2 1 3 3 4 5 5 6 6 7 7 8 8
REMARK H PARENT
REMARK Flexibility Score: inf
ROOT
ATOM      1  C   UNL     1      26.537  -5.193  51.685  1.00  0.00     0.059 C 
ENDROOT
BRANCH   1   2
ATOM      2  C   UNL     1      26.029  -3.830  52.048  1.00  0.00     0.042 C 
ATOM      3  O   UNL     1      25.182  -3.694  52.970  1.00  0.00    -0.550 OA
ATOM      4  O   UNL     1      26.522  -2.708  51.396  1.00  0.00    -0.550 OA
ENDBRANCH   1   2
BRANCH   1   5
ATOM      5  C   UNL     1      27.822  -5.538  52.444  1.00  0.00     0.059 C 
BRANCH   5   6
ATOM      6  C   UNL     1      29.042  -5.162  51.661  1.00  0.00     0.042 C 
ATOM      7  O   UNL     1      29.512  -5.953  50.801  1.00  0.00    -0.550 OA
ATOM      8  O   UNL     1      29.684  -3.955  51.910  1.00  0.00    -0.550 OA
ENDBRANCH   5   6
ENDBRANCH   1   5
TORSDOF 3
ENDMDL
MODEL 3
REMARK VINA RESULT:    -3.054      0.112      3.676
REMARK INTER + INTRA:          -3.712
REMARK INTER:                  -3.598
REMARK INTRA:                  -0.114
REMARK UNBOUND:                -0.121
REMARK SMILES O=C([O-])CCC(=O)[O-]
REMARK SMILES IDX 4 1 2 2 1 3 3 4 5 5 6 6 7 7 8 8
REMARK H PARENT
REMARK Flexibility Score: inf
ROOT
ATOM      1  C   UNL     1      26.563  -5.180  51.665  1.00  0.00     0.059 C 
ENDROOT
BRANCH   1   2
ATOM      2  C   UNL     1      26.055  -3.792  51.915  1.00  0.00     0.042 C 
ATOM      3  O   UNL     1      26.535  -2.818  51.278  1.00  0.00    -0.550 OA
ATOM      4  O   UNL     1      25.023  -3.581  52.820  1.00  0.00    -0.550 OA
ENDBRANCH   1   2
BRANCH   1   5
ATOM      5  C   UNL     1      27.783  -5.499  52.535  1.00  0.00     0.059 C 
BRANCH   5   6
ATOM      6  C   UNL     1      29.063  -5.155  51.838  1.00  0.00     0.042 C 
ATOM      7  O   UNL     1      29.713  -4.130  52.174  1.00  0.00    -0.550 OA
ATOM      8  O   UNL     1      29.518  -5.945  50.789  1.00  0.00    -0.550 OA
ENDBRANCH   5   6
ENDBRANCH   1   5
TORSDOF 3
ENDMDL
MODEL 4
REMARK VINA RESULT:    -2.987      2.413      3.469
REMARK INTER + INTRA:          -3.632
REMARK INTER:                  -3.529
REMARK INTRA:                  -0.103
REMARK UNBOUND:                -0.121
REMARK SMILES O=C([O-])CCC(=O)[O-]
REMARK SMILES IDX 4 1 2 2 1 3 3 4 5 5 6 6 7 7 8 8
REMARK H PARENT
REMARK Flexibility Score: inf
ROOT
ATOM      1  C   UNL     1      25.994  -3.423  52.677  1.00  0.00     0.059 C 
ENDROOT
BRANCH   1   2
ATOM      2  C   UNL     1      26.206  -4.642  51.831  1.00  0.00     0.042 C 
ATOM      3  O   UNL     1      27.033  -5.523  52.185  1.00  0.00    -0.550 OA
ATOM      4  O   UNL     1      25.460  -4.824  50.674  1.00  0.00    -0.550 OA
ENDBRANCH   1   2
BRANCH   1   5
ATOM      5  C   UNL     1      24.657  -3.479  53.424  1.00  0.00     0.059 C 
BRANCH   5   6
ATOM      6  C   UNL     1      24.846  -3.828  54.867  1.00  0.00     0.042 C 
ATOM      7  O   UNL     1      24.421  -3.057  55.768  1.00  0.00    -0.550 OA
ATOM      8  O   UNL     1      25.525  -4.988  55.219  1.00  0.00    -0.550 OA
ENDBRANCH   5   6
ENDBRANCH   1   5
TORSDOF 3
ENDMDL
MODEL 5
REMARK VINA RESULT:    -2.971      2.428      4.293
REMARK INTER + INTRA:          -3.613
REMARK INTER:                  -3.511
REMARK INTRA:                  -0.102
REMARK UNBOUND:                -0.121
REMARK SMILES O=C([O-])CCC(=O)[O-]
REMARK SMILES IDX 4 1 2 2 1 3 3 4 5 5 6 6 7 7 8 8
REMARK H PARENT
REMARK Flexibility Score: inf
ROOT
ATOM      1  C   UNL     1      24.706  -3.589  53.505  1.00  0.00     0.059 C 
ENDROOT
BRANCH   1   2
ATOM      2  C   UNL     1      24.965  -3.958  54.935  1.00  0.00     0.042 C 
ATOM      3  O   UNL     1      24.508  -3.244  55.866  1.00  0.00    -0.550 OA
ATOM      4  O   UNL     1      25.674  -5.113  55.238  1.00  0.00    -0.550 OA
ENDBRANCH   1   2
BRANCH   1   5
ATOM      5  C   UNL     1      26.010  -3.458  52.711  1.00  0.00     0.059 C 
BRANCH   5   6
ATOM      6  C   UNL     1      26.232  -4.640  51.819  1.00  0.00     0.042 C 
ATOM      7  O   UNL     1      27.165  -5.451  52.061  1.00  0.00    -0.550 OA
ATOM      8  O   UNL     1      25.434  -4.825  50.697  1.00  0.00    -0.550 OA
ENDBRANCH   5   6
ENDBRANCH   1   5
TORSDOF 3
ENDMDL
MODEL 6
REMARK VINA RESULT:    -2.935      0.554      1.263
REMARK INTER + INTRA:          -3.571
REMARK INTER:                  -3.458
REMARK INTRA:                  -0.113
REMARK UNBOUND:                -0.121
REMARK SMILES O=C([O-])CCC(=O)[O-]
REMARK SMILES IDX 4 1 2 2 1 3 3 4 5 5 6 6 7 7 8 8
REMARK H PARENT
REMARK Flexibility Score: inf
ROOT
ATOM      1  C   UNL     1      27.517  -5.421  52.338  1.00  0.00     0.059 C 
ENDROOT
BRANCH   1   2
ATOM      2  C   UNL     1      28.794  -5.023  51.663  1.00  0.00     0.042 C 
ATOM      3  O   UNL     1      29.292  -3.884  51.869  1.00  0.00    -0.550 OA
ATOM      4  O   UNL     1      29.455  -5.923  50.838  1.00  0.00    -0.550 OA
ENDBRANCH   1   2
BRANCH   1   5
ATOM      5  C   UNL     1      26.301  -4.751  51.689  1.00  0.00     0.059 C 
BRANCH   5   6
ATOM      6  C   UNL     1      25.859  -3.545  52.458  1.00  0.00     0.042 C 
ATOM      7  O   UNL     1      25.085  -3.669  53.443  1.00  0.00    -0.550 OA
ATOM      8  O   UNL     1      26.271  -2.279  52.062  1.00  0.00    -0.550 OA
ENDBRANCH   5   6
ENDBRANCH   1   5
TORSDOF 3
ENDMDL
MODEL 7
REMARK VINA RESULT:    -2.925      1.424      3.957
REMARK INTER + INTRA:          -3.560
REMARK INTER:                  -3.442
REMARK INTRA:                  -0.117
REMARK UNBOUND:                -0.121
REMARK SMILES O=C([O-])CCC(=O)[O-]
REMARK SMILES IDX 4 1 2 2 1 3 3 4 5 5 6 6 7 7 8 8
REMARK H PARENT
REMARK Flexibility Score: inf
ROOT
ATOM      1  C   UNL     1      26.761  -3.857  52.505  1.00  0.00     0.059 C 
ENDROOT
BRANCH   1   2
ATOM      2  C   UNL     1      25.608  -3.967  53.457  1.00  0.00     0.042 C 
ATOM      3  O   UNL     1      24.568  -3.280  53.274  1.00  0.00    -0.550 OA
ATOM      4  O   UNL     1      25.666  -4.858  54.521  1.00  0.00    -0.550 OA
ENDBRANCH   1   2
BRANCH   1   5
ATOM      5  C   UNL     1      26.997  -5.169  51.751  1.00  0.00     0.059 C 
BRANCH   5   6
ATOM      6  C   UNL     1      28.354  -5.735  52.039  1.00  0.00     0.042 C 
ATOM      7  O   UNL     1      28.644  -6.128  53.200  1.00  0.00    -0.550 OA
ATOM      8  O   UNL     1      29.311  -5.791  51.034  1.00  0.00    -0.550 OA
ENDBRANCH   5   6
ENDBRANCH   1   5
TORSDOF 3
ENDMDL
MODEL 8
REMARK VINA RESULT:    -2.906      1.979      2.696
REMARK INTER + INTRA:          -3.537
REMARK INTER:                  -3.420
REMARK INTRA:                  -0.117
REMARK UNBOUND:                -0.121
REMARK SMILES O=C([O-])CCC(=O)[O-]
REMARK SMILES IDX 4 1 2 2 1 3 3 4 5 5 6 6 7 7 8 8
REMARK H PARENT
REMARK Flexibility Score: inf
ROOT
ATOM      1  C   UNL     1      26.167  -4.511  53.328  1.00  0.00     0.059 C 
ENDROOT
BRANCH   1   2
ATOM      2  C   UNL     1      26.500  -4.934  51.929  1.00  0.00     0.042 C 
ATOM      3  O   UNL     1      25.665  -4.766  51.001  1.00  0.00    -0.550 OA
ATOM      4  O   UNL     1      27.747  -5.474  51.642  1.00  0.00    -0.550 OA
ENDBRANCH   1   2
BRANCH   1   5
ATOM      5  C   UNL     1      24.941  -3.594  53.364  1.00  0.00     0.059 C 
BRANCH   5   6
ATOM      6  C   UNL     1      25.332  -2.157  53.522  1.00  0.00     0.042 C 
ATOM      7  O   UNL     1      25.170  -1.572  54.625  1.00  0.00    -0.550 OA
ATOM      8  O   UNL     1      25.839  -1.451  52.438  1.00  0.00    -0.550 OA
ENDBRANCH   5   6
ENDBRANCH   1   5
TORSDOF 3
ENDMDL
MODEL 9
REMARK VINA RESULT:    -2.881      1.814      3.076
REMARK INTER + INTRA:          -3.508
REMARK INTER:                  -3.329
REMARK INTRA:                  -0.179
REMARK UNBOUND:                -0.121
REMARK SMILES O=C([O-])CCC(=O)[O-]
REMARK SMILES IDX 4 1 2 2 1 3 3 4 5 5 6 6 7 7 8 8
REMARK H PARENT
REMARK Flexibility Score: inf
ROOT
ATOM      1  C   UNL     1      26.075  -4.053  51.339  1.00  0.00     0.059 C 
ENDROOT
BRANCH   1   2
ATOM      2  C   UNL     1      26.997  -2.880  51.476  1.00  0.00     0.042 C 
ATOM      3  O   UNL     1      26.548  -1.760  51.836  1.00  0.00    -0.550 OA
ATOM      4  O   UNL     1      28.358  -3.033  51.247  1.00  0.00    -0.550 OA
ENDBRANCH   1   2
BRANCH   1   5
ATOM      5  C   UNL     1      26.582  -5.265  52.127  1.00  0.00     0.059 C 
BRANCH   5   6
ATOM      6  C   UNL     1      26.659  -4.976  53.594  1.00  0.00     0.042 C 
ATOM      7  O   UNL     1      27.735  -5.162  54.222  1.00  0.00    -0.550 OA
ATOM      8  O   UNL     1      25.531  -4.539  54.277  1.00  0.00    -0.550 OA
ENDBRANCH   5   6
ENDBRANCH   1   5
TORSDOF 3
ENDMDL
