MODEL 1
REMARK VINA RESULT:    -3.445      0.000      0.000
REMARK INTER + INTRA:          -4.001
REMARK INTER:                  -3.948
REMARK INTRA:                  -0.052
REMARK UNBOUND:                -0.052
REMARK SMILES O=C([O-])c1cc(O)c(O)c(O)c1
REMARK SMILES IDX 4 1 5 2 12 3 6 4 10 5 8 6 2 7 1 8 3 9 7 10 11 12 9 14
REMARK H PARENT 7 11 11 13 9 15
REMARK Flexibility Score: inf
ROOT
ATOM      1  C   UNL     1      -8.575  40.216  17.955  1.00  0.00     0.005 A 
ATOM      2  C   UNL     1      -7.862  40.621  16.814  1.00  0.00     0.060 A 
ATOM      3  C   UNL     1      -9.940  39.901  17.831  1.00  0.00     0.060 A 
ATOM      4  C   UNL     1      -8.498  40.709  15.568  1.00  0.00     0.162 A 
ATOM      5  C   UNL     1     -10.581  39.987  16.587  1.00  0.00     0.162 A 
ATOM      6  C   UNL     1      -9.863  40.392  15.454  1.00  0.00     0.200 A 
ENDROOT
BRANCH   1   7
ATOM      7  C   UNL     1      -7.896  40.125  19.267  1.00  0.00     0.072 C 
ATOM      8  O   UNL     1      -8.456  39.553  20.240  1.00  0.00    -0.545 OA
ATOM      9  O   UNL     1      -6.630  40.672  19.444  1.00  0.00    -0.545 OA
ENDBRANCH   1   7
BRANCH   4  10
ATOM     10  O   UNL     1      -7.780  41.112  14.443  1.00  0.00    -0.504 OA
ATOM     11  H   UNL     1      -7.999  41.972  13.953  1.00  0.00     0.293 HD
ENDBRANCH   4  10
BRANCH   5  12
ATOM     12  O   UNL     1     -11.933  39.673  16.469  1.00  0.00    -0.504 OA
ATOM     13  H   UNL     1     -12.587  39.849  17.224  1.00  0.00     0.293 HD
ENDBRANCH   5  12
BRANCH   6  14
ATOM     14  O   UNL     1     -10.517  40.472  14.226  1.00  0.00    -0.502 OA
ATOM     15  H   UNL     1     -10.998  41.311  13.925  1.00  0.00     0.293 HD
ENDBRANCH   6  14
TORSDOF 4
ENDMDL
MODEL 2
REMARK VINA RESULT:    -3.433      0.076      2.422
REMARK INTER + INTRA:          -3.988
REMARK INTER:                  -3.935
REMARK INTRA:                  -0.052
REMARK UNBOUND:                -0.052
REMARK SMILES O=C([O-])c1cc(O)c(O)c(O)c1
REMARK SMILES IDX 4 1 5 2 12 3 6 4 10 5 8 6 2 7 1 8 3 9 7 10 11 12 9 14
REMARK H PARENT 7 11 11 13 9 15
REMARK Flexibility Score: inf
ROOT
ATOM      1  C   UNL     1      -8.590  40.223  18.009  1.00  0.00     0.005 A 
ATOM      2  C   UNL     1      -9.959  39.924  17.904  1.00  0.00     0.060 A 
ATOM      3  C   UNL     1      -7.882  40.595  16.852  1.00  0.00     0.060 A 
ATOM      4  C   UNL     1     -10.613  39.995  16.667  1.00  0.00     0.162 A 
ATOM      5  C   UNL     1      -8.532  40.668  15.612  1.00  0.00     0.162 A 
ATOM      6  C   UNL     1      -9.897  40.368  15.516  1.00  0.00     0.200 A 
ENDROOT
BRANCH   1   7
ATOM      7  C   UNL     1      -7.907  40.146  19.320  1.00  0.00     0.072 C 
ATOM      8  O   UNL     1      -8.442  39.541  20.287  1.00  0.00    -0.545 OA
ATOM      9  O   UNL     1      -6.663  40.740  19.501  1.00  0.00    -0.545 OA
ENDBRANCH   1   7
BRANCH   4  10
ATOM     10  O   UNL     1     -11.972  39.696  16.575  1.00  0.00    -0.504 OA
ATOM     11  H   UNL     1     -12.502  39.885  15.732  1.00  0.00     0.293 HD
ENDBRANCH   4  10
BRANCH   5  12
ATOM     12  O   UNL     1      -7.827  41.037  14.469  1.00  0.00    -0.504 OA
ATOM     13  H   UNL     1      -7.884  41.976  14.090  1.00  0.00     0.293 HD
ENDBRANCH   5  12
BRANCH   6  14
ATOM     14  O   UNL     1     -10.526  40.446  14.274  1.00  0.00    -0.502 OA
ATOM     15  H   UNL     1     -10.159  41.013  13.519  1.00  0.00     0.293 HD
ENDBRANCH   6  14
TORSDOF 4
ENDMDL
MODEL 3
REMARK VINA RESULT:    -3.302     23.087     24.036
REMARK INTER + INTRA:          -3.837
REMARK INTER:                  -3.791
REMARK INTRA:                  -0.046
REMARK UNBOUND:                -0.052
REMARK SMILES O=C([O-])c1cc(O)c(O)c(O)c1
REMARK SMILES IDX 4 1 5 2 12 3 6 4 10 5 8 6 2 7 1 8 3 9 7 10 11 12 9 14
REMARK H PARENT 7 11 11 13 9 15
REMARK Flexibility Score: inf
ROOT
ATOM      1  C   UNL     1       0.791  22.304   3.808  1.00  0.00     0.005 A 
ATOM      2  C   UNL     1      -0.549  21.956   3.570  1.00  0.00     0.060 A 
ATOM      3  C   UNL     1       1.233  23.594   3.467  1.00  0.00     0.060 A 
ATOM      4  C   UNL     1      -1.437  22.881   3.003  1.00  0.00     0.162 A 
ATOM      5  C   UNL     1       0.350  24.523   2.900  1.00  0.00     0.162 A 
ATOM      6  C   UNL     1      -0.986  24.168   2.666  1.00  0.00     0.200 A 
ENDROOT
BRANCH   1   7
ATOM      7  C   UNL     1       1.723  21.321   4.408  1.00  0.00     0.072 C 
ATOM      8  O   UNL     1       1.523  20.875   5.569  1.00  0.00    -0.545 OA
ATOM      9  O   UNL     1       2.833  20.878   3.697  1.00  0.00    -0.545 OA
ENDBRANCH   1   7
BRANCH   4  10
ATOM     10  O   UNL     1      -2.765  22.524   2.772  1.00  0.00    -0.504 OA
ATOM     11  H   UNL     1      -3.522  22.907   3.326  1.00  0.00     0.293 HD
ENDBRANCH   4  10
BRANCH   5  12
ATOM     12  O   UNL     1       0.791  25.801   2.564  1.00  0.00    -0.504 OA
ATOM     13  H   UNL     1       1.401  26.330   3.178  1.00  0.00     0.293 HD
ENDBRANCH   5  12
BRANCH   6  14
ATOM     14  O   UNL     1      -1.850  25.105   2.101  1.00  0.00    -0.502 OA
ATOM     15  H   UNL     1      -2.755  24.847   1.727  1.00  0.00     0.293 HD
ENDBRANCH   6  14
TORSDOF 4
ENDMDL
MODEL 4
REMARK VINA RESULT:    -3.257      1.518      2.829
REMARK INTER + INTRA:          -3.785
REMARK INTER:                  -3.738
REMARK INTRA:                  -0.047
REMARK UNBOUND:                -0.052
REMARK SMILES O=C([O-])c1cc(O)c(O)c(O)c1
REMARK SMILES IDX 4 1 5 2 12 3 6 4 10 5 8 6 2 7 1 8 3 9 7 10 11 12 9 14
REMARK H PARENT 7 11 11 13 9 15
REMARK Flexibility Score: inf
ROOT
ATOM      1  C   UNL     1     -10.538  39.890  17.914  1.00  0.00     0.005 A 
ATOM      2  C   UNL     1      -9.156  40.007  18.142  1.00  0.00     0.060 A 
ATOM      3  C   UNL     1     -11.032  40.055  16.608  1.00  0.00     0.060 A 
ATOM      4  C   UNL     1      -8.279  40.281  17.083  1.00  0.00     0.162 A 
ATOM      5  C   UNL     1     -10.159  40.330  15.546  1.00  0.00     0.162 A 
ATOM      6  C   UNL     1      -8.782  40.444  15.781  1.00  0.00     0.200 A 
ENDROOT
BRANCH   1   7
ATOM      7  C   UNL     1     -11.458  39.600  19.037  1.00  0.00     0.072 C 
ATOM      8  O   UNL     1     -12.469  40.324  19.241  1.00  0.00    -0.545 OA
ATOM      9  O   UNL     1     -11.218  38.523  19.884  1.00  0.00    -0.545 OA
ENDBRANCH   1   7
BRANCH   4  10
ATOM     10  O   UNL     1      -6.910  40.394  17.321  1.00  0.00    -0.504 OA
ATOM     11  H   UNL     1      -6.354  39.598  17.612  1.00  0.00     0.293 HD
ENDBRANCH   4  10
BRANCH   5  12
ATOM     12  O   UNL     1     -10.652  40.491  14.253  1.00  0.00    -0.504 OA
ATOM     13  H   UNL     1     -10.037  40.699  13.473  1.00  0.00     0.293 HD
ENDBRANCH   5  12
BRANCH   6  14
ATOM     14  O   UNL     1      -7.929  40.717  14.712  1.00  0.00    -0.502 OA
ATOM     15  H   UNL     1      -7.690  41.663  14.442  1.00  0.00     0.293 HD
ENDBRANCH   6  14
TORSDOF 4
ENDMDL
MODEL 5
REMARK VINA RESULT:    -3.247      1.210      2.020
REMARK INTER + INTRA:          -3.774
REMARK INTER:                  -3.722
REMARK INTRA:                  -0.052
REMARK UNBOUND:                -0.052
REMARK SMILES O=C([O-])c1cc(O)c(O)c(O)c1
REMARK SMILES IDX 4 1 5 2 12 3 6 4 10 5 8 6 2 7 1 8 3 9 7 10 11 12 9 14
REMARK H PARENT 7 11 11 13 9 15
REMARK Flexibility Score: inf
ROOT
ATOM      1  C   UNL     1      -8.470  40.318  17.406  1.00  0.00     0.005 A 
ATOM      2  C   UNL     1      -8.775  40.485  16.045  1.00  0.00     0.060 A 
ATOM      3  C   UNL     1      -9.495  39.950  18.296  1.00  0.00     0.060 A 
ATOM      4  C   UNL     1     -10.081  40.288  15.577  1.00  0.00     0.162 A 
ATOM      5  C   UNL     1     -10.803  39.752  17.833  1.00  0.00     0.162 A 
ATOM      6  C   UNL     1     -11.099  39.921  16.474  1.00  0.00     0.200 A 
ENDROOT
BRANCH   1   7
ATOM      7  C   UNL     1      -7.088  40.527  17.894  1.00  0.00     0.072 C 
ATOM      8  O   UNL     1      -6.239  41.124  17.178  1.00  0.00    -0.545 OA
ATOM      9  O   UNL     1      -6.706  40.067  19.149  1.00  0.00    -0.545 OA
ENDBRANCH   1   7
BRANCH   4  10
ATOM     10  O   UNL     1     -10.372  40.456  14.224  1.00  0.00    -0.504 OA
ATOM     11  H   UNL     1     -10.066  39.787  13.527  1.00  0.00     0.293 HD
ENDBRANCH   4  10
BRANCH   5  12
ATOM     12  O   UNL     1     -11.816  39.388  18.717  1.00  0.00    -0.504 OA
ATOM     13  H   UNL     1     -11.611  39.077  19.661  1.00  0.00     0.293 HD
ENDBRANCH   5  12
BRANCH   6  14
ATOM     14  O   UNL     1     -12.406  39.719  16.031  1.00  0.00    -0.502 OA
ATOM     15  H   UNL     1     -13.205  40.112  16.514  1.00  0.00     0.293 HD
ENDBRANCH   6  14
TORSDOF 4
ENDMDL
MODEL 6
REMARK VINA RESULT:    -3.245      1.528      3.218
REMARK INTER + INTRA:          -3.772
REMARK INTER:                  -3.724
REMARK INTRA:                  -0.047
REMARK UNBOUND:                -0.052
REMARK SMILES O=C([O-])c1cc(O)c(O)c(O)c1
REMARK SMILES IDX 4 1 5 2 12 3 6 4 10 5 8 6 2 7 1 8 3 9 7 10 11 12 9 14
REMARK H PARENT 7 11 11 13 9 15
REMARK Flexibility Score: inf
ROOT
ATOM      1  C   UNL     1     -10.550  39.883  17.903  1.00  0.00     0.005 A 
ATOM      2  C   UNL     1     -11.047  40.051  16.600  1.00  0.00     0.060 A 
ATOM      3  C   UNL     1      -9.167  40.001  18.127  1.00  0.00     0.060 A 
ATOM      4  C   UNL     1     -10.180  40.334  15.536  1.00  0.00     0.162 A 
ATOM      5  C   UNL     1      -8.295  40.283  17.066  1.00  0.00     0.162 A 
ATOM      6  C   UNL     1      -8.799  40.450  15.769  1.00  0.00     0.200 A 
ENDROOT
BRANCH   1   7
ATOM      7  C   UNL     1     -11.472  39.585  19.022  1.00  0.00     0.072 C 
ATOM      8  O   UNL     1     -12.478  40.314  19.236  1.00  0.00    -0.545 OA
ATOM      9  O   UNL     1     -11.241  38.495  19.854  1.00  0.00    -0.545 OA
ENDBRANCH   1   7
BRANCH   4  10
ATOM     10  O   UNL     1     -10.685  40.499  14.246  1.00  0.00    -0.504 OA
ATOM     11  H   UNL     1     -10.103  40.834  13.487  1.00  0.00     0.293 HD
ENDBRANCH   4  10
BRANCH   5  12
ATOM     12  O   UNL     1      -6.925  40.400  17.292  1.00  0.00    -0.504 OA
ATOM     13  H   UNL     1      -6.248  40.201  16.563  1.00  0.00     0.293 HD
ENDBRANCH   5  12
BRANCH   6  14
ATOM     14  O   UNL     1      -7.917  40.731  14.727  1.00  0.00    -0.502 OA
ATOM     15  H   UNL     1      -7.184  40.087  14.453  1.00  0.00     0.293 HD
ENDBRANCH   6  14
TORSDOF 4
ENDMDL
MODEL 7
REMARK VINA RESULT:    -3.091     22.835     23.629
REMARK INTER + INTRA:          -3.595
REMARK INTER:                  -3.544
REMARK INTRA:                  -0.052
REMARK UNBOUND:                -0.052
REMARK SMILES O=C([O-])c1cc(O)c(O)c(O)c1
REMARK SMILES IDX 4 1 5 2 12 3 6 4 10 5 8 6 2 7 1 8 3 9 7 10 11 12 9 14
REMARK H PARENT 7 11 11 13 9 15
REMARK Flexibility Score: inf
ROOT
ATOM      1  C   UNL     1       1.697  22.632   5.715  1.00  0.00     0.005 A 
ATOM      2  C   UNL     1       0.866  22.550   6.845  1.00  0.00     0.060 A 
ATOM      3  C   UNL     1       1.191  22.236   4.465  1.00  0.00     0.060 A 
ATOM      4  C   UNL     1      -0.451  22.082   6.731  1.00  0.00     0.162 A 
ATOM      5  C   UNL     1      -0.125  21.767   4.345  1.00  0.00     0.162 A 
ATOM      6  C   UNL     1      -0.947  21.688   5.476  1.00  0.00     0.200 A 
ENDROOT
BRANCH   1   7
ATOM      7  C   UNL     1       3.086  23.128   5.844  1.00  0.00     0.072 C 
ATOM      8  O   UNL     1       3.657  23.150   6.967  1.00  0.00    -0.545 OA
ATOM      9  O   UNL     1       3.779  23.579   4.726  1.00  0.00    -0.545 OA
ENDBRANCH   1   7
BRANCH   4  10
ATOM     10  O   UNL     1      -1.266  22.005   7.859  1.00  0.00    -0.504 OA
ATOM     11  H   UNL     1      -1.528  22.832   8.383  1.00  0.00     0.293 HD
ENDBRANCH   4  10
BRANCH   5  12
ATOM     12  O   UNL     1      -0.623  21.375   3.104  1.00  0.00    -0.504 OA
ATOM     13  H   UNL     1      -1.608  21.179   2.965  1.00  0.00     0.293 HD
ENDBRANCH   5  12
BRANCH   6  14
ATOM     14  O   UNL     1      -2.253  21.219   5.338  1.00  0.00    -0.502 OA
ATOM     15  H   UNL     1      -2.897  21.608   4.659  1.00  0.00     0.293 HD
ENDBRANCH   6  14
TORSDOF 4
ENDMDL
MODEL 8
REMARK VINA RESULT:    -3.080     22.388     23.329
REMARK INTER + INTRA:          -3.583
REMARK INTER:                  -3.536
REMARK INTRA:                  -0.047
REMARK UNBOUND:                -0.052
REMARK SMILES O=C([O-])c1cc(O)c(O)c(O)c1
REMARK SMILES IDX 4 1 5 2 12 3 6 4 10 5 8 6 2 7 1 8 3 9 7 10 11 12 9 14
REMARK H PARENT 7 11 11 13 9 15
REMARK Flexibility Score: inf
ROOT
ATOM      1  C   UNL     1      -0.245  22.698   4.865  1.00  0.00     0.005 A 
ATOM      2  C   UNL     1      -1.172  23.580   4.286  1.00  0.00     0.060 A 
ATOM      3  C   UNL     1       1.092  22.730   4.431  1.00  0.00     0.060 A 
ATOM      4  C   UNL     1      -0.773  24.483   3.291  1.00  0.00     0.162 A 
ATOM      5  C   UNL     1       1.496  23.631   3.436  1.00  0.00     0.162 A 
ATOM      6  C   UNL     1       0.566  24.508   2.864  1.00  0.00     0.200 A 
ENDROOT
BRANCH   1   7
ATOM      7  C   UNL     1      -0.674  21.747   5.916  1.00  0.00     0.072 C 
ATOM      8  O   UNL     1      -1.571  20.894   5.681  1.00  0.00    -0.545 OA
ATOM      9  O   UNL     1      -0.092  21.783   7.178  1.00  0.00    -0.545 OA
ENDBRANCH   1   7
BRANCH   4  10
ATOM     10  O   UNL     1      -1.702  25.354   2.723  1.00  0.00    -0.504 OA
ATOM     11  H   UNL     1      -2.188  25.127   1.864  1.00  0.00     0.293 HD
ENDBRANCH   4  10
BRANCH   5  12
ATOM     12  O   UNL     1       2.822  23.661   3.009  1.00  0.00    -0.504 OA
ATOM     13  H   UNL     1       3.185  22.974   2.357  1.00  0.00     0.293 HD
ENDBRANCH   5  12
BRANCH   6  14
ATOM     14  O   UNL     1       0.986  25.398   1.875  1.00  0.00    -0.502 OA
ATOM     15  H   UNL     1       0.378  25.691   1.121  1.00  0.00     0.293 HD
ENDBRANCH   6  14
TORSDOF 4
ENDMDL
MODEL 9
REMARK VINA RESULT:    -3.080     22.840     23.578
REMARK INTER + INTRA:          -3.583
REMARK INTER:                  -3.531
REMARK INTRA:                  -0.052
REMARK UNBOUND:                -0.052
REMARK SMILES O=C([O-])c1cc(O)c(O)c(O)c1
REMARK SMILES IDX 4 1 5 2 12 3 6 4 10 5 8 6 2 7 1 8 3 9 7 10 11 12 9 14
REMARK H PARENT 7 11 11 13 9 15
REMARK Flexibility Score: inf
ROOT
ATOM      1  C   UNL     1       1.682  22.654   5.677  1.00  0.00     0.005 A 
ATOM      2  C   UNL     1       1.188  22.223   4.434  1.00  0.00     0.060 A 
ATOM      3  C   UNL     1       0.846  22.588   6.805  1.00  0.00     0.060 A 
ATOM      4  C   UNL     1      -0.120  21.732   4.317  1.00  0.00     0.162 A 
ATOM      5  C   UNL     1      -0.463  22.098   6.693  1.00  0.00     0.162 A 
ATOM      6  C   UNL     1      -0.948  21.670   5.450  1.00  0.00     0.200 A 
ENDROOT
BRANCH   1   7
ATOM      7  C   UNL     1       3.065  23.171   5.793  1.00  0.00     0.072 C 
ATOM      8  O   UNL     1       3.648  23.197   6.910  1.00  0.00    -0.545 OA
ATOM      9  O   UNL     1       3.739  23.636   4.669  1.00  0.00    -0.545 OA
ENDBRANCH   1   7
BRANCH   4  10
ATOM     10  O   UNL     1      -0.599  21.307   3.078  1.00  0.00    -0.504 OA
ATOM     11  H   UNL     1      -0.954  20.368   2.940  1.00  0.00     0.293 HD
ENDBRANCH   4  10
BRANCH   5  12
ATOM     12  O   UNL     1      -1.289  22.033   7.813  1.00  0.00    -0.504 OA
ATOM     13  H   UNL     1      -1.264  22.747   8.533  1.00  0.00     0.293 HD
ENDBRANCH   5  12
BRANCH   6  14
ATOM     14  O   UNL     1      -2.253  21.185   5.358  1.00  0.00    -0.502 OA
ATOM     15  H   UNL     1      -2.656  20.888   4.478  1.00  0.00     0.293 HD
ENDBRANCH   6  14
TORSDOF 4
ENDMDL
