MODEL 1
REMARK VINA RESULT:    -4.597      0.000      0.000
REMARK INTER + INTRA:          -7.561
REMARK INTER:                  -6.612
REMARK INTRA:                  -0.948
REMARK UNBOUND:                -0.948
REMARK SMILES O=C(CO)[C@H](O)[C@@H](O)[C@@H](O)CO
REMARK SMILES IDX 7 1 9 2 11 3 12 4 10 6 5 8 2 9 1 10 3 11 4 12 6 14 8 16
REMARK H PARENT 12 5 10 7 4 13 6 15 8 17
REMARK Flexibility Score: inf
ROOT
ATOM      1  C   UNL     1      -0.172 -44.104 -16.738  1.00  0.00     0.181 C 
ENDROOT
BRANCH   1   2
ATOM      2  C   UNL     1      -0.079 -42.888 -17.702  1.00  0.00     0.171 C 
BRANCH   2   3
ATOM      3  C   UNL     1      -0.987 -42.981 -18.949  1.00  0.00     0.190 C 
BRANCH   3   4
ATOM      4  O   UNL     1      -2.046 -43.878 -18.751  1.00  0.00    -0.394 OA
ATOM      5  H   UNL     1      -2.877 -43.370 -18.935  1.00  0.00     0.210 HD
ENDBRANCH   3   4
ENDBRANCH   2   3
BRANCH   2   6
ATOM      6  O   UNL     1       1.253 -42.573 -18.033  1.00  0.00    -0.388 OA
ATOM      7  H   UNL     1       1.577 -41.880 -17.405  1.00  0.00     0.211 HD
ENDBRANCH   2   6
ENDBRANCH   1   2
BRANCH   1   8
ATOM      8  C   UNL     1       1.125 -44.419 -15.946  1.00  0.00     0.214 C 
BRANCH   8   9
ATOM      9  C   UNL     1       1.088 -45.819 -15.366  1.00  0.00     0.189 C 
ATOM     10  O   UNL     1       1.241 -46.787 -16.096  1.00  0.00    -0.294 OA
BRANCH   9  11
ATOM     11  C   UNL     1       0.878 -46.031 -13.895  1.00  0.00     0.234 C 
BRANCH  11  12
ATOM     12  O   UNL     1      -0.409 -45.609 -13.542  1.00  0.00    -0.388 OA
ATOM     13  H   UNL     1      -1.037 -46.172 -14.065  1.00  0.00     0.211 HD
ENDBRANCH  11  12
ENDBRANCH   9  11
ENDBRANCH   8   9
BRANCH   8  14
ATOM     14  O   UNL     1       1.371 -43.480 -14.929  1.00  0.00    -0.382 OA
ATOM     15  H   UNL     1       1.702 -42.646 -15.353  1.00  0.00     0.211 HD
ENDBRANCH   8  14
ENDBRANCH   1   8
BRANCH   1  16
ATOM     16  O   UNL     1      -1.238 -43.904 -15.841  1.00  0.00    -0.387 OA
ATOM     17  H   UNL     1      -1.040 -44.439 -15.029  1.00  0.00     0.211 HD
ENDBRANCH   1  16
TORSDOF 10
ENDMDL
MODEL 2
REMARK VINA RESULT:    -4.551      2.566      4.921
REMARK INTER + INTRA:          -7.495
REMARK INTER:                  -6.610
REMARK INTRA:                  -0.885
REMARK UNBOUND:                -0.948
REMARK SMILES O=C(CO)[C@H](O)[C@@H](O)[C@@H](O)CO
REMARK SMILES IDX 7 1 9 2 11 3 12 4 10 6 5 8 2 9 1 10 3 11 4 12 6 14 8 16
REMARK H PARENT 12 5 10 7 4 13 6 15 8 17
REMARK Flexibility Score: inf
ROOT
ATOM      1  C   UNL     1       0.197 -47.997 -14.714  1.00  0.00     0.181 C 
ENDROOT
BRANCH   1   2
ATOM      2  C   UNL     1       0.465 -49.292 -15.532  1.00  0.00     0.171 C 
BRANCH   2   3
ATOM      3  C   UNL     1      -0.805 -50.060 -15.959  1.00  0.00     0.190 C 
BRANCH   3   4
ATOM      4  O   UNL     1      -1.551 -49.342 -16.903  1.00  0.00    -0.394 OA
ATOM      5  H   UNL     1      -1.986 -48.601 -16.406  1.00  0.00     0.210 HD
ENDBRANCH   3   4
ENDBRANCH   2   3
BRANCH   2   6
ATOM      6  O   UNL     1       1.412 -50.127 -14.909  1.00  0.00    -0.388 OA
ATOM      7  H   UNL     1       2.094 -50.383 -15.579  1.00  0.00     0.211 HD
ENDBRANCH   2   6
ENDBRANCH   1   2
BRANCH   1   8
ATOM      8  C   UNL     1       0.668 -46.681 -15.389  1.00  0.00     0.214 C 
BRANCH   8   9
ATOM      9  C   UNL     1       0.150 -45.466 -14.645  1.00  0.00     0.189 C 
ATOM     10  O   UNL     1      -0.213 -45.570 -13.483  1.00  0.00    -0.294 OA
BRANCH   9  11
ATOM     11  C   UNL     1       0.091 -44.126 -15.319  1.00  0.00     0.234 C 
BRANCH  11  12
ATOM     12  O   UNL     1      -1.037 -44.069 -16.146  1.00  0.00    -0.388 OA
ATOM     13  H   UNL     1      -0.846 -43.371 -16.825  1.00  0.00     0.211 HD
ENDBRANCH  11  12
ENDBRANCH   9  11
ENDBRANCH   8   9
BRANCH   8  14
ATOM     14  O   UNL     1       0.297 -46.614 -16.744  1.00  0.00    -0.382 OA
ATOM     15  H   UNL     1       0.363 -45.667 -17.035  1.00  0.00     0.211 HD
ENDBRANCH   8  14
ENDBRANCH   1   8
BRANCH   1  16
ATOM     16  O   UNL     1      -1.175 -47.911 -14.417  1.00  0.00    -0.387 OA
ATOM     17  H   UNL     1      -1.258 -47.404 -13.568  1.00  0.00     0.211 HD
ENDBRANCH   1  16
TORSDOF 10
ENDMDL
MODEL 3
REMARK VINA RESULT:    -4.420      1.179      4.085
REMARK INTER + INTRA:          -7.306
REMARK INTER:                  -6.422
REMARK INTRA:                  -0.884
REMARK UNBOUND:                -0.948
REMARK SMILES O=C(CO)[C@H](O)[C@@H](O)[C@@H](O)CO
REMARK SMILES IDX 7 1 9 2 11 3 12 4 10 6 5 8 2 9 1 10 3 11 4 12 6 14 8 16
REMARK H PARENT 12 5 10 7 4 13 6 15 8 17
REMARK Flexibility Score: inf
ROOT
ATOM      1  C   UNL     1      -0.045 -43.431 -16.381  1.00  0.00     0.181 C 
ENDROOT
BRANCH   1   2
ATOM      2  C   UNL     1       1.011 -44.209 -15.546  1.00  0.00     0.171 C 
BRANCH   2   3
ATOM      3  C   UNL     1       0.462 -45.449 -14.805  1.00  0.00     0.190 C 
BRANCH   3   4
ATOM      4  O   UNL     1      -0.448 -45.090 -13.801  1.00  0.00    -0.394 OA
ATOM      5  H   UNL     1      -0.559 -45.893 -13.229  1.00  0.00     0.210 HD
ENDBRANCH   3   4
ENDBRANCH   2   3
BRANCH   2   6
ATOM      6  O   UNL     1       1.747 -43.361 -14.698  1.00  0.00    -0.388 OA
ATOM      7  H   UNL     1       2.674 -43.703 -14.639  1.00  0.00     0.211 HD
ENDBRANCH   2   6
ENDBRANCH   1   2
BRANCH   1   8
ATOM      8  C   UNL     1       0.343 -43.176 -17.863  1.00  0.00     0.214 C 
BRANCH   8   9
ATOM      9  C   UNL     1      -0.270 -44.218 -18.778  1.00  0.00     0.189 C 
ATOM     10  O   UNL     1       0.080 -45.386 -18.696  1.00  0.00    -0.294 OA
BRANCH   9  11
ATOM     11  C   UNL     1      -1.319 -43.831 -19.779  1.00  0.00     0.234 C 
BRANCH  11  12
ATOM     12  O   UNL     1      -2.527 -43.584 -19.117  1.00  0.00    -0.388 OA
ATOM     13  H   UNL     1      -2.808 -42.671 -19.388  1.00  0.00     0.211 HD
ENDBRANCH  11  12
ENDBRANCH   9  11
ENDBRANCH   8   9
BRANCH   8  14
ATOM     14  O   UNL     1       1.735 -43.127 -18.049  1.00  0.00    -0.382 OA
ATOM     15  H   UNL     1       2.154 -43.761 -17.410  1.00  0.00     0.211 HD
ENDBRANCH   8  14
ENDBRANCH   1   8
BRANCH   1  16
ATOM     16  O   UNL     1      -1.275 -44.112 -16.324  1.00  0.00    -0.387 OA
ATOM     17  H   UNL     1      -1.865 -43.705 -17.010  1.00  0.00     0.211 HD
ENDBRANCH   1  16
TORSDOF 10
ENDMDL
MODEL 4
REMARK VINA RESULT:    -4.414     11.065     12.200
REMARK INTER + INTRA:          -7.298
REMARK INTER:                  -6.039
REMARK INTRA:                  -1.260
REMARK UNBOUND:                -0.948
REMARK SMILES O=C(CO)[C@H](O)[C@@H](O)[C@@H](O)CO
REMARK SMILES IDX 7 1 9 2 11 3 12 4 10 6 5 8 2 9 1 10 3 11 4 12 6 14 8 16
REMARK H PARENT 12 5 10 7 4 13 6 15 8 17
REMARK Flexibility Score: inf
ROOT
ATOM      1  C   UNL     1     -11.617 -39.814 -17.536  1.00  0.00     0.181 C 
ENDROOT
BRANCH   1   2
ATOM      2  C   UNL     1     -11.548 -40.860 -18.685  1.00  0.00     0.171 C 
BRANCH   2   3
ATOM      3  C   UNL     1     -11.230 -40.269 -20.077  1.00  0.00     0.190 C 
BRANCH   3   4
ATOM      4  O   UNL     1      -9.849 -40.197 -20.305  1.00  0.00    -0.394 OA
ATOM      5  H   UNL     1      -9.720 -39.507 -21.007  1.00  0.00     0.210 HD
ENDBRANCH   3   4
ENDBRANCH   2   3
BRANCH   2   6
ATOM      6  O   UNL     1     -12.676 -41.702 -18.706  1.00  0.00    -0.388 OA
ATOM      7  H   UNL     1     -12.444 -42.549 -18.250  1.00  0.00     0.211 HD
ENDBRANCH   2   6
ENDBRANCH   1   2
BRANCH   1   8
ATOM      8  C   UNL     1     -11.830 -40.407 -16.117  1.00  0.00     0.214 C 
BRANCH   8   9
ATOM      9  C   UNL     1     -10.734 -41.393 -15.764  1.00  0.00     0.189 C 
ATOM     10  O   UNL     1      -9.562 -41.061 -15.852  1.00  0.00    -0.294 OA
BRANCH   9  11
ATOM     11  C   UNL     1     -11.076 -42.776 -15.292  1.00  0.00     0.234 C 
BRANCH  11  12
ATOM     12  O   UNL     1     -11.600 -43.517 -16.358  1.00  0.00    -0.388 OA
ATOM     13  H   UNL     1     -11.053 -43.281 -17.152  1.00  0.00     0.211 HD
ENDBRANCH  11  12
ENDBRANCH   9  11
ENDBRANCH   8   9
BRANCH   8  14
ATOM     14  O   UNL     1     -13.091 -41.012 -15.976  1.00  0.00    -0.382 OA
ATOM     15  H   UNL     1     -13.030 -41.938 -16.328  1.00  0.00     0.211 HD
ENDBRANCH   8  14
ENDBRANCH   1   8
BRANCH   1  16
ATOM     16  O   UNL     1     -10.450 -39.029 -17.552  1.00  0.00    -0.387 OA
ATOM     17  H   UNL     1     -10.716 -38.106 -17.305  1.00  0.00     0.211 HD
ENDBRANCH   1  16
TORSDOF 10
ENDMDL
MODEL 5
REMARK VINA RESULT:    -4.402      2.675      4.502
REMARK INTER + INTRA:          -7.280
REMARK INTER:                  -6.374
REMARK INTRA:                  -0.907
REMARK UNBOUND:                -0.948
REMARK SMILES O=C(CO)[C@H](O)[C@@H](O)[C@@H](O)CO
REMARK SMILES IDX 7 1 9 2 11 3 12 4 10 6 5 8 2 9 1 10 3 11 4 12 6 14 8 16
REMARK H PARENT 12 5 10 7 4 13 6 15 8 17
REMARK Flexibility Score: inf
ROOT
ATOM      1  C   UNL     1       0.849 -47.040 -15.470  1.00  0.00     0.181 C 
ENDROOT
BRANCH   1   2
ATOM      2  C   UNL     1       0.561 -45.610 -14.931  1.00  0.00     0.171 C 
BRANCH   2   3
ATOM      3  C   UNL     1       1.650 -44.565 -15.262  1.00  0.00     0.190 C 
BRANCH   3   4
ATOM      4  O   UNL     1       1.374 -43.326 -14.668  1.00  0.00    -0.394 OA
ATOM      5  H   UNL     1       1.298 -42.674 -15.411  1.00  0.00     0.210 HD
ENDBRANCH   3   4
ENDBRANCH   2   3
BRANCH   2   6
ATOM      6  O   UNL     1       0.221 -45.615 -13.565  1.00  0.00    -0.388 OA
ATOM      7  H   UNL     1      -0.453 -46.324 -13.412  1.00  0.00     0.211 HD
ENDBRANCH   2   6
ENDBRANCH   1   2
BRANCH   1   8
ATOM      8  C   UNL     1       0.140 -48.189 -14.703  1.00  0.00     0.214 C 
BRANCH   8   9
ATOM      9  C   UNL     1       0.201 -49.488 -15.482  1.00  0.00     0.189 C 
ATOM     10  O   UNL     1       1.282 -49.987 -15.756  1.00  0.00    -0.294 OA
BRANCH   9  11
ATOM     11  C   UNL     1      -1.060 -50.180 -15.911  1.00  0.00     0.234 C 
BRANCH  11  12
ATOM     12  O   UNL     1      -1.690 -49.427 -16.908  1.00  0.00    -0.388 OA
ATOM     13  H   UNL     1      -2.160 -48.689 -16.440  1.00  0.00     0.211 HD
ENDBRANCH  11  12
ENDBRANCH   9  11
ENDBRANCH   8   9
BRANCH   8  14
ATOM     14  O   UNL     1      -1.193 -47.876 -14.387  1.00  0.00    -0.382 OA
ATOM     15  H   UNL     1      -1.193 -47.056 -13.826  1.00  0.00     0.211 HD
ENDBRANCH   8  14
ENDBRANCH   1   8
BRANCH   1  16
ATOM     16  O   UNL     1       0.508 -47.100 -16.833  1.00  0.00    -0.387 OA
ATOM     17  H   UNL     1       0.472 -46.166 -17.166  1.00  0.00     0.211 HD
ENDBRANCH   1  16
TORSDOF 10
ENDMDL
MODEL 6
REMARK VINA RESULT:    -4.394     12.253     14.246
REMARK INTER + INTRA:          -7.269
REMARK INTER:                  -6.486
REMARK INTRA:                  -0.783
REMARK UNBOUND:                -0.948
REMARK SMILES O=C(CO)[C@H](O)[C@@H](O)[C@@H](O)CO
REMARK SMILES IDX 7 1 9 2 11 3 12 4 10 6 5 8 2 9 1 10 3 11 4 12 6 14 8 16
REMARK H PARENT 12 5 10 7 4 13 6 15 8 17
REMARK Flexibility Score: inf
ROOT
ATOM      1  C   UNL     1     -12.309 -39.919 -16.472  1.00  0.00     0.181 C 
ENDROOT
BRANCH   1   2
ATOM      2  C   UNL     1     -10.841 -40.102 -16.953  1.00  0.00     0.171 C 
BRANCH   2   3
ATOM      3  C   UNL     1      -9.862 -40.594 -15.865  1.00  0.00     0.190 C 
BRANCH   3   4
ATOM      4  O   UNL     1     -10.195 -41.878 -15.411  1.00  0.00    -0.394 OA
ATOM      5  H   UNL     1     -10.062 -42.486 -16.183  1.00  0.00     0.210 HD
ENDBRANCH   3   4
ENDBRANCH   2   3
BRANCH   2   6
ATOM      6  O   UNL     1     -10.360 -38.967 -17.633  1.00  0.00    -0.388 OA
ATOM      7  H   UNL     1      -9.595 -39.240 -18.198  1.00  0.00     0.211 HD
ENDBRANCH   2   6
ENDBRANCH   1   2
BRANCH   1   8
ATOM      8  C   UNL     1     -13.284 -39.339 -17.532  1.00  0.00     0.214 C 
BRANCH   8   9
ATOM      9  C   UNL     1     -14.727 -39.624 -17.164  1.00  0.00     0.189 C 
ATOM     10  O   UNL     1     -15.198 -40.735 -17.356  1.00  0.00    -0.294 OA
BRANCH   9  11
ATOM     11  C   UNL     1     -15.583 -38.554 -16.551  1.00  0.00     0.234 C 
BRANCH  11  12
ATOM     12  O   UNL     1     -15.332 -38.487 -15.176  1.00  0.00    -0.388 OA
ATOM     13  H   UNL     1     -14.375 -38.240 -15.082  1.00  0.00     0.211 HD
ENDBRANCH  11  12
ENDBRANCH   9  11
ENDBRANCH   8   9
BRANCH   8  14
ATOM     14  O   UNL     1     -13.010 -39.817 -18.826  1.00  0.00    -0.382 OA
ATOM     15  H   UNL     1     -13.667 -39.411 -19.450  1.00  0.00     0.211 HD
ENDBRANCH   8  14
ENDBRANCH   1   8
BRANCH   1  16
ATOM     16  O   UNL     1     -12.799 -41.150 -16.001  1.00  0.00    -0.387 OA
ATOM     17  H   UNL     1     -12.865 -41.757 -16.783  1.00  0.00     0.211 HD
ENDBRANCH   1  16
TORSDOF 10
ENDMDL
MODEL 7
REMARK VINA RESULT:    -4.386     12.611     14.655
REMARK INTER + INTRA:          -7.258
REMARK INTER:                  -6.119
REMARK INTRA:                  -1.138
REMARK UNBOUND:                -0.948
REMARK SMILES O=C(CO)[C@H](O)[C@@H](O)[C@@H](O)CO
REMARK SMILES IDX 7 1 9 2 11 3 12 4 10 6 5 8 2 9 1 10 3 11 4 12 6 14 8 16
REMARK H PARENT 12 5 10 7 4 13 6 15 8 17
REMARK Flexibility Score: inf
ROOT
ATOM      1  C   UNL     1     -12.464 -39.973 -16.749  1.00  0.00     0.181 C 
ENDROOT
BRANCH   1   2
ATOM      2  C   UNL     1     -11.817 -41.213 -16.070  1.00  0.00     0.171 C 
BRANCH   2   3
ATOM      3  C   UNL     1     -10.303 -41.081 -15.795  1.00  0.00     0.190 C 
BRANCH   3   4
ATOM      4  O   UNL     1      -9.813 -39.827 -16.188  1.00  0.00    -0.394 OA
ATOM      5  H   UNL     1      -9.904 -39.235 -15.397  1.00  0.00     0.210 HD
ENDBRANCH   3   4
ENDBRANCH   2   3
BRANCH   2   6
ATOM      6  O   UNL     1     -12.139 -42.411 -16.735  1.00  0.00    -0.388 OA
ATOM      7  H   UNL     1     -11.759 -43.167 -16.220  1.00  0.00     0.211 HD
ENDBRANCH   2   6
ENDBRANCH   1   2
BRANCH   1   8
ATOM      8  C   UNL     1     -13.917 -40.181 -17.256  1.00  0.00     0.214 C 
BRANCH   8   9
ATOM      9  C   UNL     1     -14.616 -38.855 -17.479  1.00  0.00     0.189 C 
ATOM     10  O   UNL     1     -14.260 -38.122 -18.390  1.00  0.00    -0.294 OA
BRANCH   9  11
ATOM     11  C   UNL     1     -15.757 -38.436 -16.598  1.00  0.00     0.234 C 
BRANCH  11  12
ATOM     12  O   UNL     1     -15.361 -38.504 -15.258  1.00  0.00    -0.388 OA
ATOM     13  H   UNL     1     -16.183 -38.700 -14.737  1.00  0.00     0.211 HD
ENDBRANCH  11  12
ENDBRANCH   9  11
ENDBRANCH   8   9
BRANCH   8  14
ATOM     14  O   UNL     1     -14.674 -40.988 -16.389  1.00  0.00    -0.382 OA
ATOM     15  H   UNL     1     -14.060 -41.641 -15.960  1.00  0.00     0.211 HD
ENDBRANCH   8  14
ENDBRANCH   1   8
BRANCH   1  16
ATOM     16  O   UNL     1     -12.425 -38.883 -15.861  1.00  0.00    -0.387 OA
ATOM     17  H   UNL     1     -13.345 -38.756 -15.514  1.00  0.00     0.211 HD
ENDBRANCH   1  16
TORSDOF 10
ENDMDL
MODEL 8
REMARK VINA RESULT:    -4.291     10.889     13.061
REMARK INTER + INTRA:          -7.121
REMARK INTER:                  -5.991
REMARK INTRA:                  -1.130
REMARK UNBOUND:                -0.948
REMARK SMILES O=C(CO)[C@H](O)[C@@H](O)[C@@H](O)CO
REMARK SMILES IDX 7 1 9 2 11 3 12 4 10 6 5 8 2 9 1 10 3 11 4 12 6 14 8 16
REMARK H PARENT 12 5 10 7 4 13 6 15 8 17
REMARK Flexibility Score: inf
ROOT
ATOM      1  C   UNL     1     -11.564 -40.460 -16.168  1.00  0.00     0.181 C 
ENDROOT
BRANCH   1   2
ATOM      2  C   UNL     1     -10.516 -41.585 -15.939  1.00  0.00     0.171 C 
BRANCH   2   3
ATOM      3  C   UNL     1     -11.031 -42.791 -15.122  1.00  0.00     0.190 C 
BRANCH   3   4
ATOM      4  O   UNL     1     -11.501 -43.817 -15.955  1.00  0.00    -0.394 OA
ATOM      5  H   UNL     1     -12.336 -43.476 -16.369  1.00  0.00     0.210 HD
ENDBRANCH   3   4
ENDBRANCH   2   3
BRANCH   2   6
ATOM      6  O   UNL     1      -9.298 -41.084 -15.442  1.00  0.00    -0.388 OA
ATOM      7  H   UNL     1      -9.129 -40.201 -15.857  1.00  0.00     0.211 HD
ENDBRANCH   2   6
ENDBRANCH   1   2
BRANCH   1   8
ATOM      8  C   UNL     1     -11.392 -39.655 -17.484  1.00  0.00     0.214 C 
BRANCH   8   9
ATOM      9  C   UNL     1     -12.685 -39.613 -18.275  1.00  0.00     0.189 C 
ATOM     10  O   UNL     1     -13.593 -38.876 -17.922  1.00  0.00    -0.294 OA
BRANCH   9  11
ATOM     11  C   UNL     1     -12.857 -40.461 -19.501  1.00  0.00     0.234 C 
BRANCH  11  12
ATOM     12  O   UNL     1     -12.752 -41.813 -19.152  1.00  0.00    -0.388 OA
ATOM     13  H   UNL     1     -13.656 -42.091 -18.851  1.00  0.00     0.211 HD
ENDBRANCH  11  12
ENDBRANCH   9  11
ENDBRANCH   8   9
BRANCH   8  14
ATOM     14  O   UNL     1     -10.351 -40.158 -18.284  1.00  0.00    -0.382 OA
ATOM     15  H   UNL     1     -10.105 -41.057 -17.941  1.00  0.00     0.211 HD
ENDBRANCH   8  14
ENDBRANCH   1   8
BRANCH   1  16
ATOM     16  O   UNL     1     -12.857 -41.013 -16.116  1.00  0.00    -0.387 OA
ATOM     17  H   UNL     1     -13.103 -41.091 -15.158  1.00  0.00     0.211 HD
ENDBRANCH   1  16
TORSDOF 10
ENDMDL
MODEL 9
REMARK VINA RESULT:    -4.233     12.200     13.814
REMARK INTER + INTRA:          -7.037
REMARK INTER:                  -6.255
REMARK INTRA:                  -0.782
REMARK UNBOUND:                -0.948
REMARK SMILES O=C(CO)[C@H](O)[C@@H](O)[C@@H](O)CO
REMARK SMILES IDX 7 1 9 2 11 3 12 4 10 6 5 8 2 9 1 10 3 11 4 12 6 14 8 16
REMARK H PARENT 12 5 10 7 4 13 6 15 8 17
REMARK Flexibility Score: inf
ROOT
ATOM      1  C   UNL     1     -13.351 -39.858 -16.489  1.00  0.00     0.181 C 
ENDROOT
BRANCH   1   2
ATOM      2  C   UNL     1     -14.326 -39.117 -17.446  1.00  0.00     0.171 C 
BRANCH   2   3
ATOM      3  C   UNL     1     -15.412 -38.276 -16.737  1.00  0.00     0.190 C 
BRANCH   3   4
ATOM      4  O   UNL     1     -15.401 -38.481 -15.351  1.00  0.00    -0.394 OA
ATOM      5  H   UNL     1     -16.262 -38.922 -15.130  1.00  0.00     0.210 HD
ENDBRANCH   3   4
ENDBRANCH   2   3
BRANCH   2   6
ATOM      6  O   UNL     1     -14.866 -39.974 -18.423  1.00  0.00    -0.388 OA
ATOM      7  H   UNL     1     -14.873 -40.896 -18.063  1.00  0.00     0.211 HD
ENDBRANCH   2   6
ENDBRANCH   1   2
BRANCH   1   8
ATOM      8  C   UNL     1     -12.396 -40.871 -17.175  1.00  0.00     0.214 C 
BRANCH   8   9
ATOM      9  C   UNL     1     -11.216 -41.205 -16.282  1.00  0.00     0.189 C 
ATOM     10  O   UNL     1     -10.190 -40.546 -16.354  1.00  0.00    -0.294 OA
BRANCH   9  11
ATOM     11  C   UNL     1     -11.301 -42.333 -15.296  1.00  0.00     0.234 C 
BRANCH  11  12
ATOM     12  O   UNL     1     -10.060 -42.973 -15.211  1.00  0.00    -0.388 OA
ATOM     13  H   UNL     1      -9.654 -42.908 -16.115  1.00  0.00     0.211 HD
ENDBRANCH  11  12
ENDBRANCH   9  11
ENDBRANCH   8   9
BRANCH   8  14
ATOM     14  O   UNL     1     -11.943 -40.415 -18.425  1.00  0.00    -0.382 OA
ATOM     15  H   UNL     1     -10.951 -40.469 -18.433  1.00  0.00     0.211 HD
ENDBRANCH   8  14
ENDBRANCH   1   8
BRANCH   1  16
ATOM     16  O   UNL     1     -12.600 -38.913 -15.767  1.00  0.00    -0.387 OA
ATOM     17  H   UNL     1     -12.161 -39.397 -15.021  1.00  0.00     0.211 HD
ENDBRANCH   1  16
TORSDOF 10
ENDMDL
