MODEL 1
REMARK VINA RESULT:    -5.313      0.000      0.000
REMARK INTER + INTRA:          -8.292
REMARK INTER:                  -8.420
REMARK INTRA:                   0.128
REMARK UNBOUND:                 0.128
REMARK SMILES C[C@H]1O[C@H](O[C@H]2CC[C@]3(C)[C@@H](CC[C@]4(C)[C@H]3C=C[C@@]35OC[C@]6(CCC(C)(C)C[C@@H]63)[C@H](O)C[C@]45C)[C@@]2(C)CO)[C@@H](O)[C@@H](O[C@H]2O[C@@H](CO)[C@H](O)[C@@H](O)[C@@H]2O)[C@H]1O
REMARK SMILES IDX 1 1 2 2 54 3 41 4 39 5 4 6 3 7 55 8 42 10 43 11 52 12 44 13
REMARK SMILES IDX 50 14 45 15 48 16 53 17 51 19 46 21 47 22 49 24 5 26 6 27
REMARK SMILES IDX 7 28 35 29 8 30 11 31 36 32 9 33 12 34 10 35 16 36 13 37
REMARK SMILES IDX 14 38 17 39 15 40 33 41 18 42 19 43 32 44 34 45 29 46 20 47
REMARK SMILES IDX 30 48 22 49 28 50 21 51 23 52 25 53 24 54 26 55 27 56 37 57
REMARK SMILES IDX 38 58 31 60 40 62
REMARK H PARENT 55 9 53 18 51 20 47 23 49 25 38 59 31 61 40 63
REMARK Flexibility Score: inf
ROOT
ATOM      1  C   UNL     1      12.768  14.986  64.522  1.00  0.00     0.041 C 
ATOM      2  C   UNL     1      13.306  15.914  63.436  1.00  0.00     0.150 C 
ATOM      3  C   UNL     1      14.324  15.194  62.543  1.00  0.00     0.175 C 
ATOM      4  C   UNL     1      14.776  16.191  61.471  1.00  0.00     0.186 C 
ATOM      5  C   UNL     1      15.456  17.390  62.156  1.00  0.00     0.202 C 
ATOM      6  C   UNL     1      14.492  18.029  63.182  1.00  0.00     0.282 C 
ATOM      7  O   UNL     1      13.843  17.087  64.059  1.00  0.00    -0.344 OA
ENDROOT
BRANCH   3   8
ATOM      8  O   UNL     1      15.405  14.721  63.306  1.00  0.00    -0.388 OA
ATOM      9  H   UNL     1      16.170  15.331  63.136  1.00  0.00     0.211 HD
ENDBRANCH   3   8
BRANCH   4  10
ATOM     10  O   UNL     1      15.630  15.581  60.534  1.00  0.00    -0.341 OA
BRANCH  10  11
ATOM     11  C   UNL     1      14.980  14.525  59.807  1.00  0.00     0.282 C 
ATOM     12  C   UNL     1      15.055  13.204  60.619  1.00  0.00     0.202 C 
ATOM     13  O   UNL     1      15.442  14.470  58.469  1.00  0.00    -0.341 OA
ATOM     14  C   UNL     1      16.305  12.318  60.326  1.00  0.00     0.179 C 
ATOM     15  C   UNL     1      16.739  13.943  58.349  1.00  0.00     0.178 C 
ATOM     16  C   UNL     1      16.805  12.474  58.857  1.00  0.00     0.177 C 
BRANCH  12  17
ATOM     17  O   UNL     1      13.864  12.458  60.429  1.00  0.00    -0.385 OA
ATOM     18  H   UNL     1      13.990  11.883  59.615  1.00  0.00     0.211 HD
ENDBRANCH  12  17
BRANCH  14  19
ATOM     19  O   UNL     1      17.329  12.531  61.278  1.00  0.00    -0.387 OA
ATOM     20  H   UNL     1      17.391  13.519  61.387  1.00  0.00     0.211 HD
ENDBRANCH  14  19
BRANCH  15  21
ATOM     21  C   UNL     1      17.825  14.937  58.822  1.00  0.00     0.191 C 
BRANCH  21  22
ATOM     22  O   UNL     1      17.723  16.145  58.077  1.00  0.00    -0.394 OA
ATOM     23  H   UNL     1      17.170  16.763  58.623  1.00  0.00     0.210 HD
ENDBRANCH  21  22
ENDBRANCH  15  21
BRANCH  16  24
ATOM     24  O   UNL     1      16.009  11.699  57.980  1.00  0.00    -0.387 OA
ATOM     25  H   UNL     1      16.532  10.917  57.677  1.00  0.00     0.211 HD
ENDBRANCH  16  24
ENDBRANCH  10  11
ENDBRANCH   4  10
BRANCH   6  26
ATOM     26  O   UNL     1      13.627  18.927  62.482  1.00  0.00    -0.346 OA
BRANCH  26  27
ATOM     27  C   UNL     1      13.302  20.134  63.144  1.00  0.00     0.130 C 
ATOM     28  C   UNL     1      14.481  21.157  63.144  1.00  0.00     0.033 C 
ATOM     29  C   UNL     1      12.012  20.747  62.525  1.00  0.00     0.020 C 
ATOM     30  C   UNL     1      14.067  22.609  63.552  1.00  0.00     0.010 C 
ATOM     31  C   UNL     1      11.622  22.111  63.288  1.00  0.00     0.006 C 
ATOM     32  C   UNL     1      10.848  19.739  62.732  1.00  0.00     0.017 C 
ATOM     33  C   UNL     1      12.704  22.676  64.309  1.00  0.00    -0.022 C 
ATOM     34  C   UNL     1      11.181  23.195  62.259  1.00  0.00     0.005 C 
ATOM     35  C   UNL     1      12.902  21.808  65.617  1.00  0.00     0.012 C 
ATOM     36  C   UNL     1      12.260  24.129  64.840  1.00  0.00     0.024 C 
ATOM     37  C   UNL     1      10.770  24.522  62.870  1.00  0.00     0.008 C 
ATOM     38  C   UNL     1      11.863  25.204  63.755  1.00  0.00    -0.017 C 
ATOM     39  C   UNL     1      11.132  24.021  65.904  1.00  0.00    -0.024 C 
ATOM     40  C   UNL     1      13.103  25.586  62.869  1.00  0.00     0.013 C 
ATOM     41  C   UNL     1      11.319  26.538  64.516  1.00  0.00     0.009 C 
ATOM     42  C   UNL     1      10.229  24.972  66.190  1.00  0.00     0.005 C 
ATOM     43  C   UNL     1      10.005  26.189  65.339  1.00  0.00     0.096 C 
ATOM     44  C   UNL     1      10.954  27.720  63.540  1.00  0.00     0.043 C 
ATOM     45  C   UNL     1      12.462  27.059  65.463  1.00  0.00     0.015 C 
ATOM     46  C   UNL     1       9.398  27.338  66.153  1.00  0.00     0.037 C 
ATOM     47  O   UNL     1       8.947  25.897  64.429  1.00  0.00    -0.369 OA
ATOM     48  C   UNL     1      10.020  28.803  64.175  1.00  0.00     0.124 C 
ATOM     49  C   UNL     1       8.861  28.180  65.026  1.00  0.00     0.026 C 
ATOM     50  C   UNL     1      10.112  28.134  67.258  1.00  0.00     0.014 C 
ATOM     51  C   UNL     1       8.184  27.071  64.224  1.00  0.00     0.171 C 
ATOM     52  C   UNL     1       7.876  29.234  65.588  1.00  0.00     0.013 C 
ATOM     53  C   UNL     1       9.150  29.197  67.866  1.00  0.00    -0.035 C 
ATOM     54  C   UNL     1       8.510  30.058  66.730  1.00  0.00     0.007 C 
ATOM     55  C   UNL     1       9.971  30.125  68.785  1.00  0.00     0.011 C 
ATOM     56  C   UNL     1       8.052  28.524  68.728  1.00  0.00     0.011 C 
BRANCH  29  57
ATOM     57  C   UNL     1      12.267  20.869  60.971  1.00  0.00     0.165 C 
BRANCH  57  58
ATOM     58  O   UNL     1      13.550  21.347  60.655  1.00  0.00    -0.396 OA
ATOM     59  H   UNL     1      13.864  21.890  61.421  1.00  0.00     0.210 HD
ENDBRANCH  57  58
ENDBRANCH  29  57
BRANCH  48  60
ATOM     60  O   UNL     1       9.474  29.592  63.145  1.00  0.00    -0.392 OA
ATOM     61  H   UNL     1       8.848  29.016  62.638  1.00  0.00     0.210 HD
ENDBRANCH  48  60
ENDBRANCH  26  27
ENDBRANCH   6  26
BRANCH   5  62
ATOM     62  O   UNL     1      16.657  16.999  62.773  1.00  0.00    -0.385 OA
ATOM     63  H   UNL     1      17.340  17.672  62.521  1.00  0.00     0.211 HD
ENDBRANCH   5  62
TORSDOF 14
ENDMDL
MODEL 2
REMARK VINA RESULT:    -5.251      1.540      2.129
REMARK INTER + INTRA:          -8.192
REMARK INTER:                  -7.117
REMARK INTRA:                  -1.076
REMARK UNBOUND:                 0.128
REMARK SMILES C[C@H]1O[C@H](O[C@H]2CC[C@]3(C)[C@@H](CC[C@]4(C)[C@H]3C=C[C@@]35OC[C@]6(CCC(C)(C)C[C@@H]63)[C@H](O)C[C@]45C)[C@@]2(C)CO)[C@@H](O)[C@@H](O[C@H]2O[C@@H](CO)[C@H](O)[C@@H](O)[C@@H]2O)[C@H]1O
REMARK SMILES IDX 1 1 2 2 54 3 41 4 39 5 4 6 3 7 55 8 42 10 43 11 52 12 44 13
REMARK SMILES IDX 50 14 45 15 48 16 53 17 51 19 46 21 47 22 49 24 5 26 6 27
REMARK SMILES IDX 7 28 35 29 8 30 11 31 36 32 9 33 12 34 10 35 16 36 13 37
REMARK SMILES IDX 14 38 17 39 15 40 33 41 18 42 19 43 32 44 34 45 29 46 20 47
REMARK SMILES IDX 30 48 22 49 28 50 21 51 23 52 25 53 24 54 26 55 27 56 37 57
REMARK SMILES IDX 38 58 31 60 40 62
REMARK H PARENT 55 9 53 18 51 20 47 23 49 25 38 59 31 61 40 63
REMARK Flexibility Score: inf
ROOT
ATOM      1  C   UNL     1      12.224  13.406  62.602  1.00  0.00     0.041 C 
ATOM      2  C   UNL     1      12.775  14.815  62.393  1.00  0.00     0.150 C 
ATOM      3  C   UNL     1      14.270  14.783  62.054  1.00  0.00     0.175 C 
ATOM      4  C   UNL     1      14.718  16.231  61.831  1.00  0.00     0.186 C 
ATOM      5  C   UNL     1      14.506  17.028  63.131  1.00  0.00     0.202 C 
ATOM      6  C   UNL     1      13.028  16.933  63.573  1.00  0.00     0.282 C 
ATOM      7  O   UNL     1      12.484  15.598  63.557  1.00  0.00    -0.344 OA
ENDROOT
BRANCH   3   8
ATOM      8  O   UNL     1      14.998  14.164  63.084  1.00  0.00    -0.388 OA
ATOM      9  H   UNL     1      15.451  14.885  63.595  1.00  0.00     0.211 HD
ENDBRANCH   3   8
BRANCH   4  10
ATOM     10  O   UNL     1      16.057  16.291  61.402  1.00  0.00    -0.341 OA
BRANCH  10  11
ATOM     11  C   UNL     1      16.172  16.633  60.011  1.00  0.00     0.282 C 
ATOM     12  C   UNL     1      16.031  15.354  59.142  1.00  0.00     0.202 C 
ATOM     13  O   UNL     1      17.319  17.432  59.777  1.00  0.00    -0.341 OA
ATOM     14  C   UNL     1      17.370  14.617  58.830  1.00  0.00     0.179 C 
ATOM     15  C   UNL     1      18.522  16.710  59.843  1.00  0.00     0.178 C 
ATOM     16  C   UNL     1      18.579  15.599  58.756  1.00  0.00     0.177 C 
BRANCH  12  17
ATOM     17  O   UNL     1      15.346  15.666  57.940  1.00  0.00    -0.385 OA
ATOM     18  H   UNL     1      14.368  15.493  58.091  1.00  0.00     0.211 HD
ENDBRANCH  12  17
BRANCH  14  19
ATOM     19  O   UNL     1      17.592  13.542  59.721  1.00  0.00    -0.387 OA
ATOM     20  H   UNL     1      17.784  12.753  59.145  1.00  0.00     0.211 HD
ENDBRANCH  14  19
BRANCH  15  21
ATOM     21  C   UNL     1      18.911  16.344  61.294  1.00  0.00     0.191 C 
BRANCH  21  22
ATOM     22  O   UNL     1      18.606  17.431  62.159  1.00  0.00    -0.394 OA
ATOM     23  H   UNL     1      19.388  18.042  62.126  1.00  0.00     0.210 HD
ENDBRANCH  21  22
ENDBRANCH  15  21
BRANCH  16  24
ATOM     24  O   UNL     1      18.608  16.252  57.501  1.00  0.00    -0.387 OA
ATOM     25  H   UNL     1      19.103  17.102  57.591  1.00  0.00     0.211 HD
ENDBRANCH  16  24
ENDBRANCH  10  11
ENDBRANCH   4  10
BRANCH   6  26
ATOM     26  O   UNL     1      12.283  17.919  62.855  1.00  0.00    -0.346 OA
BRANCH  26  27
ATOM     27  C   UNL     1      12.284  19.227  63.392  1.00  0.00     0.130 C 
ATOM     28  C   UNL     1      13.333  20.158  62.706  1.00  0.00     0.033 C 
ATOM     29  C   UNL     1      10.852  19.831  63.324  1.00  0.00     0.020 C 
ATOM     30  C   UNL     1      13.141  21.678  63.019  1.00  0.00     0.010 C 
ATOM     31  C   UNL     1      10.841  21.314  63.955  1.00  0.00     0.006 C 
ATOM     32  C   UNL     1       9.910  18.943  64.185  1.00  0.00     0.017 C 
ATOM     33  C   UNL     1      12.265  21.945  64.282  1.00  0.00    -0.022 C 
ATOM     34  C   UNL     1       9.979  22.266  63.073  1.00  0.00     0.005 C 
ATOM     35  C   UNL     1      13.035  21.261  65.485  1.00  0.00     0.012 C 
ATOM     36  C   UNL     1      12.102  23.485  64.719  1.00  0.00     0.024 C 
ATOM     37  C   UNL     1       9.881  23.691  63.584  1.00  0.00     0.008 C 
ATOM     38  C   UNL     1      11.253  24.418  63.769  1.00  0.00    -0.017 C 
ATOM     39  C   UNL     1      11.574  23.607  66.176  1.00  0.00    -0.024 C 
ATOM     40  C   UNL     1      11.960  24.585  62.375  1.00  0.00     0.013 C 
ATOM     41  C   UNL     1      11.104  25.881  64.471  1.00  0.00     0.009 C 
ATOM     42  C   UNL     1      10.892  24.648  66.680  1.00  0.00     0.005 C 
ATOM     43  C   UNL     1      10.304  25.743  65.836  1.00  0.00     0.096 C 
ATOM     44  C   UNL     1      10.334  26.933  63.587  1.00  0.00     0.043 C 
ATOM     45  C   UNL     1      12.549  26.453  64.714  1.00  0.00     0.015 C 
ATOM     46  C   UNL     1      10.123  27.035  66.643  1.00  0.00     0.037 C 
ATOM     47  O   UNL     1       8.950  25.395  65.552  1.00  0.00    -0.369 OA
ATOM     48  C   UNL     1       9.781  28.156  64.390  1.00  0.00     0.124 C 
ATOM     49  C   UNL     1       9.132  27.741  65.756  1.00  0.00     0.026 C 
ATOM     50  C   UNL     1      11.255  27.931  67.173  1.00  0.00     0.014 C 
ATOM     51  C   UNL     1       8.171  26.577  65.526  1.00  0.00     0.171 C 
ATOM     52  C   UNL     1       8.502  28.928  66.522  1.00  0.00     0.013 C 
ATOM     53  C   UNL     1      10.665  29.133  67.969  1.00  0.00    -0.035 C 
ATOM     54  C   UNL     1       9.578  29.863  67.116  1.00  0.00     0.007 C 
ATOM     55  C   UNL     1      11.808  30.125  68.266  1.00  0.00     0.011 C 
ATOM     56  C   UNL     1      10.077  28.666  69.324  1.00  0.00     0.011 C 
BRANCH  29  57
ATOM     57  C   UNL     1      10.378  19.711  61.822  1.00  0.00     0.165 C 
BRANCH  57  58
ATOM     58  O   UNL     1       8.982  19.624  61.686  1.00  0.00    -0.396 OA
ATOM     59  H   UNL     1       8.610  19.383  62.571  1.00  0.00     0.210 HD
ENDBRANCH  57  58
ENDBRANCH  29  57
BRANCH  48  60
ATOM     60  O   UNL     1       8.826  28.824  63.601  1.00  0.00    -0.392 OA
ATOM     61  H   UNL     1       9.297  29.161  62.797  1.00  0.00     0.210 HD
ENDBRANCH  48  60
ENDBRANCH  26  27
ENDBRANCH   6  26
BRANCH   5  62
ATOM     62  O   UNL     1      15.363  16.568  64.145  1.00  0.00    -0.385 OA
ATOM     63  H   UNL     1      15.588  17.353  64.707  1.00  0.00     0.211 HD
ENDBRANCH   5  62
TORSDOF 14
ENDMDL
MODEL 3
REMARK VINA RESULT:    -4.778      2.724      4.648
REMARK INTER + INTRA:          -7.444
REMARK INTER:                  -8.963
REMARK INTRA:                   1.519
REMARK UNBOUND:                 0.128
REMARK SMILES C[C@H]1O[C@H](O[C@H]2CC[C@]3(C)[C@@H](CC[C@]4(C)[C@H]3C=C[C@@]35OC[C@]6(CCC(C)(C)C[C@@H]63)[C@H](O)C[C@]45C)[C@@]2(C)CO)[C@@H](O)[C@@H](O[C@H]2O[C@@H](CO)[C@H](O)[C@@H](O)[C@@H]2O)[C@H]1O
REMARK SMILES IDX 1 1 2 2 54 3 41 4 39 5 4 6 3 7 55 8 42 10 43 11 52 12 44 13
REMARK SMILES IDX 50 14 45 15 48 16 53 17 51 19 46 21 47 22 49 24 5 26 6 27
REMARK SMILES IDX 7 28 35 29 8 30 11 31 36 32 9 33 12 34 10 35 16 36 13 37
REMARK SMILES IDX 14 38 17 39 15 40 33 41 18 42 19 43 32 44 34 45 29 46 20 47
REMARK SMILES IDX 30 48 22 49 28 50 21 51 23 52 25 53 24 54 26 55 27 56 37 57
REMARK SMILES IDX 38 58 31 60 40 62
REMARK H PARENT 55 9 53 18 51 20 47 23 49 25 38 59 31 61 40 63
REMARK Flexibility Score: inf
ROOT
ATOM      1  C   UNL     1      13.867  14.560  65.831  1.00  0.00     0.041 C 
ATOM      2  C   UNL     1      13.443  15.451  64.666  1.00  0.00     0.150 C 
ATOM      3  C   UNL     1      14.230  15.116  63.394  1.00  0.00     0.175 C 
ATOM      4  C   UNL     1      13.711  16.034  62.282  1.00  0.00     0.186 C 
ATOM      5  C   UNL     1      13.977  17.499  62.676  1.00  0.00     0.202 C 
ATOM      6  C   UNL     1      13.322  17.805  64.042  1.00  0.00     0.282 C 
ATOM      7  O   UNL     1      13.582  16.821  65.063  1.00  0.00    -0.344 OA
ENDROOT
BRANCH   3   8
ATOM      8  O   UNL     1      15.609  15.281  63.607  1.00  0.00    -0.388 OA
ATOM      9  H   UNL     1      15.968  15.774  62.823  1.00  0.00     0.211 HD
ENDBRANCH   3   8
BRANCH   4  10
ATOM     10  O   UNL     1      14.300  15.719  61.043  1.00  0.00    -0.341 OA
BRANCH  10  11
ATOM     11  C   UNL     1      15.734  15.804  61.082  1.00  0.00     0.282 C 
ATOM     12  C   UNL     1      16.242  16.646  59.880  1.00  0.00     0.202 C 
ATOM     13  O   UNL     1      16.315  14.522  61.244  1.00  0.00    -0.341 OA
ATOM     14  C   UNL     1      16.559  15.831  58.589  1.00  0.00     0.179 C 
ATOM     15  C   UNL     1      16.254  13.732  60.084  1.00  0.00     0.178 C 
ATOM     16  C   UNL     1      17.040  14.383  58.910  1.00  0.00     0.177 C 
BRANCH  12  17
ATOM     17  O   UNL     1      17.372  17.408  60.274  1.00  0.00    -0.385 OA
ATOM     18  H   UNL     1      17.343  18.279  59.775  1.00  0.00     0.211 HD
ENDBRANCH  12  17
BRANCH  14  19
ATOM     19  O   UNL     1      15.478  15.859  57.677  1.00  0.00    -0.387 OA
ATOM     20  H   UNL     1      15.735  16.520  56.978  1.00  0.00     0.211 HD
ENDBRANCH  14  19
BRANCH  15  21
ATOM     21  C   UNL     1      14.828  13.196  59.811  1.00  0.00     0.191 C 
BRANCH  21  22
ATOM     22  O   UNL     1      14.224  12.801  61.037  1.00  0.00    -0.394 OA
ATOM     23  H   UNL     1      13.476  13.435  61.195  1.00  0.00     0.210 HD
ENDBRANCH  21  22
ENDBRANCH  15  21
BRANCH  16  24
ATOM     24  O   UNL     1      18.405  14.388  59.282  1.00  0.00    -0.387 OA
ATOM     25  H   UNL     1      18.535  15.031  60.021  1.00  0.00     0.211 HD
ENDBRANCH  16  24
ENDBRANCH  10  11
ENDBRANCH   4  10
BRANCH   6  26
ATOM     26  O   UNL     1      11.946  18.122  63.817  1.00  0.00    -0.346 OA
BRANCH  26  27
ATOM     27  C   UNL     1      11.682  19.289  63.064  1.00  0.00     0.130 C 
ATOM     28  C   UNL     1      10.322  19.218  62.301  1.00  0.00     0.033 C 
ATOM     29  C   UNL     1      11.757  20.542  63.983  1.00  0.00     0.020 C 
ATOM     30  C   UNL     1       9.830  20.593  61.741  1.00  0.00     0.010 C 
ATOM     31  C   UNL     1      11.479  21.879  63.128  1.00  0.00     0.006 C 
ATOM     32  C   UNL     1      13.199  20.638  64.556  1.00  0.00     0.017 C 
ATOM     33  C   UNL     1      10.963  21.662  61.639  1.00  0.00    -0.022 C 
ATOM     34  C   UNL     1      10.550  22.843  63.925  1.00  0.00     0.005 C 
ATOM     35  C   UNL     1      12.033  21.052  60.645  1.00  0.00     0.012 C 
ATOM     36  C   UNL     1      10.548  23.072  60.984  1.00  0.00     0.024 C 
ATOM     37  C   UNL     1      10.234  24.149  63.220  1.00  0.00     0.008 C 
ATOM     38  C   UNL     1       9.570  23.993  61.814  1.00  0.00    -0.017 C 
ATOM     39  C   UNL     1      11.801  23.889  60.562  1.00  0.00    -0.024 C 
ATOM     40  C   UNL     1       8.160  23.317  61.962  1.00  0.00     0.013 C 
ATOM     41  C   UNL     1       9.402  25.413  61.032  1.00  0.00     0.009 C 
ATOM     42  C   UNL     1      11.865  25.225  60.444  1.00  0.00     0.005 C 
ATOM     43  C   UNL     1      10.805  26.156  60.960  1.00  0.00     0.096 C 
ATOM     44  C   UNL     1       8.390  26.401  61.725  1.00  0.00     0.043 C 
ATOM     45  C   UNL     1       8.842  25.114  59.593  1.00  0.00     0.015 C 
ATOM     46  C   UNL     1      10.819  27.493  60.208  1.00  0.00     0.037 C 
ATOM     47  O   UNL     1      11.185  26.566  62.272  1.00  0.00    -0.369 OA
ATOM     48  C   UNL     1       8.553  27.893  61.283  1.00  0.00     0.124 C 
ATOM     49  C   UNL     1      10.055  28.337  61.193  1.00  0.00     0.026 C 
ATOM     50  C   UNL     1      10.413  27.704  58.740  1.00  0.00     0.014 C 
ATOM     51  C   UNL     1      10.785  27.910  62.464  1.00  0.00     0.171 C 
ATOM     52  C   UNL     1      10.233  29.834  60.844  1.00  0.00     0.013 C 
ATOM     53  C   UNL     1      10.595  29.197  58.338  1.00  0.00    -0.035 C 
ATOM     54  C   UNL     1       9.875  30.124  59.370  1.00  0.00     0.007 C 
ATOM     55  C   UNL     1       9.951  29.408  56.952  1.00  0.00     0.011 C 
ATOM     56  C   UNL     1      12.096  29.564  58.226  1.00  0.00     0.011 C 
BRANCH  29  57
ATOM     57  C   UNL     1      10.779  20.277  65.196  1.00  0.00     0.165 C 
BRANCH  57  58
ATOM     58  O   UNL     1       9.625  19.562  64.831  1.00  0.00    -0.396 OA
ATOM     59  H   UNL     1       8.933  20.222  64.576  1.00  0.00     0.210 HD
ENDBRANCH  57  58
ENDBRANCH  29  57
BRANCH  48  60
ATOM     60  O   UNL     1       7.876  28.717  62.202  1.00  0.00    -0.392 OA
ATOM     61  H   UNL     1       7.084  29.084  61.734  1.00  0.00     0.210 HD
ENDBRANCH  48  60
ENDBRANCH  26  27
ENDBRANCH   6  26
BRANCH   5  62
ATOM     62  O   UNL     1      15.356  17.766  62.710  1.00  0.00    -0.385 OA
ATOM     63  H   UNL     1      15.772  17.208  62.004  1.00  0.00     0.211 HD
ENDBRANCH   5  62
TORSDOF 14
ENDMDL
MODEL 4
REMARK VINA RESULT:    -4.574      1.970      2.816
REMARK INTER + INTRA:          -7.120
REMARK INTER:                  -6.916
REMARK INTRA:                  -0.204
REMARK UNBOUND:                 0.128
REMARK SMILES C[C@H]1O[C@H](O[C@H]2CC[C@]3(C)[C@@H](CC[C@]4(C)[C@H]3C=C[C@@]35OC[C@]6(CCC(C)(C)C[C@@H]63)[C@H](O)C[C@]45C)[C@@]2(C)CO)[C@@H](O)[C@@H](O[C@H]2O[C@@H](CO)[C@H](O)[C@@H](O)[C@@H]2O)[C@H]1O
REMARK SMILES IDX 1 1 2 2 54 3 41 4 39 5 4 6 3 7 55 8 42 10 43 11 52 12 44 13
REMARK SMILES IDX 50 14 45 15 48 16 53 17 51 19 46 21 47 22 49 24 5 26 6 27
REMARK SMILES IDX 7 28 35 29 8 30 11 31 36 32 9 33 12 34 10 35 16 36 13 37
REMARK SMILES IDX 14 38 17 39 15 40 33 41 18 42 19 43 32 44 34 45 29 46 20 47
REMARK SMILES IDX 30 48 22 49 28 50 21 51 23 52 25 53 24 54 26 55 27 56 37 57
REMARK SMILES IDX 38 58 31 60 40 62
REMARK H PARENT 55 9 53 18 51 20 47 23 49 25 38 59 31 61 40 63
REMARK Flexibility Score: inf
ROOT
ATOM      1  C   UNL     1      12.324  12.785  62.559  1.00  0.00     0.041 C 
ATOM      2  C   UNL     1      12.711  14.260  62.494  1.00  0.00     0.150 C 
ATOM      3  C   UNL     1      14.200  14.432  62.170  1.00  0.00     0.175 C 
ATOM      4  C   UNL     1      14.479  15.937  62.092  1.00  0.00     0.186 C 
ATOM      5  C   UNL     1      14.177  16.574  63.461  1.00  0.00     0.202 C 
ATOM      6  C   UNL     1      12.720  16.269  63.876  1.00  0.00     0.282 C 
ATOM      7  O   UNL     1      12.332  14.888  63.725  1.00  0.00    -0.344 OA
ENDROOT
BRANCH   3   8
ATOM      8  O   UNL     1      14.993  13.802  63.143  1.00  0.00    -0.388 OA
ATOM      9  H   UNL     1      14.831  14.275  64.002  1.00  0.00     0.211 HD
ENDBRANCH   3   8
BRANCH   4  10
ATOM     10  O   UNL     1      15.802  16.190  61.686  1.00  0.00    -0.341 OA
BRANCH  10  11
ATOM     11  C   UNL     1      15.889  16.553  60.298  1.00  0.00     0.282 C 
ATOM     12  C   UNL     1      15.798  15.280  59.416  1.00  0.00     0.202 C 
ATOM     13  O   UNL     1      16.997  17.405  60.065  1.00  0.00    -0.341 OA
ATOM     14  C   UNL     1      17.165  14.607  59.083  1.00  0.00     0.179 C 
ATOM     15  C   UNL     1      18.232  16.737  60.111  1.00  0.00     0.178 C 
ATOM     16  C   UNL     1      18.328  15.643  59.010  1.00  0.00     0.177 C 
BRANCH  12  17
ATOM     17  O   UNL     1      15.088  15.575  58.223  1.00  0.00    -0.385 OA
ATOM     18  H   UNL     1      15.542  16.355  57.782  1.00  0.00     0.211 HD
ENDBRANCH  12  17
BRANCH  14  19
ATOM     19  O   UNL     1      17.444  13.532  59.959  1.00  0.00    -0.387 OA
ATOM     20  H   UNL     1      18.235  13.820  60.491  1.00  0.00     0.211 HD
ENDBRANCH  14  19
BRANCH  15  21
ATOM     21  C   UNL     1      18.650  16.372  61.555  1.00  0.00     0.191 C 
BRANCH  21  22
ATOM     22  O   UNL     1      18.364  17.460  62.425  1.00  0.00    -0.394 OA
ATOM     23  H   UNL     1      17.438  17.317  62.754  1.00  0.00     0.210 HD
ENDBRANCH  21  22
ENDBRANCH  15  21
BRANCH  16  24
ATOM     24  O   UNL     1      18.316  16.311  57.763  1.00  0.00    -0.387 OA
ATOM     25  H   UNL     1      19.063  16.958  57.737  1.00  0.00     0.211 HD
ENDBRANCH  16  24
ENDBRANCH  10  11
ENDBRANCH   4  10
BRANCH   6  26
ATOM     26  O   UNL     1      11.867  17.229  63.249  1.00  0.00    -0.346 OA
BRANCH  26  27
ATOM     27  C   UNL     1      12.184  18.590  63.462  1.00  0.00     0.130 C 
ATOM     28  C   UNL     1      13.311  19.102  62.512  1.00  0.00     0.033 C 
ATOM     29  C   UNL     1      10.898  19.459  63.345  1.00  0.00     0.020 C 
ATOM     30  C   UNL     1      13.456  20.659  62.471  1.00  0.00     0.010 C 
ATOM     31  C   UNL     1      11.247  21.010  63.610  1.00  0.00     0.006 C 
ATOM     32  C   UNL     1       9.902  19.003  64.448  1.00  0.00     0.017 C 
ATOM     33  C   UNL     1      12.794  21.375  63.689  1.00  0.00    -0.022 C 
ATOM     34  C   UNL     1      10.495  21.912  62.585  1.00  0.00     0.005 C 
ATOM     35  C   UNL     1      13.544  20.819  64.968  1.00  0.00     0.012 C 
ATOM     36  C   UNL     1      12.984  22.971  63.761  1.00  0.00     0.024 C 
ATOM     37  C   UNL     1      10.735  23.400  62.752  1.00  0.00     0.008 C 
ATOM     38  C   UNL     1      12.234  23.837  62.674  1.00  0.00    -0.017 C 
ATOM     39  C   UNL     1      12.655  23.516  65.179  1.00  0.00    -0.024 C 
ATOM     40  C   UNL     1      12.801  23.542  61.239  1.00  0.00     0.013 C 
ATOM     41  C   UNL     1      12.453  25.414  63.021  1.00  0.00     0.009 C 
ATOM     42  C   UNL     1      12.250  24.764  65.467  1.00  0.00     0.005 C 
ATOM     43  C   UNL     1      11.797  25.750  64.429  1.00  0.00     0.096 C 
ATOM     44  C   UNL     1      11.810  26.390  61.965  1.00  0.00     0.043 C 
ATOM     45  C   UNL     1      14.000  25.700  63.031  1.00  0.00     0.015 C 
ATOM     46  C   UNL     1      11.963  27.194  64.919  1.00  0.00     0.037 C 
ATOM     47  O   UNL     1      10.379  25.650  64.320  1.00  0.00    -0.369 OA
ATOM     48  C   UNL     1      11.599  27.848  62.492  1.00  0.00     0.124 C 
ATOM     49  C   UNL     1      11.037  27.888  63.955  1.00  0.00     0.026 C 
ATOM     50  C   UNL     1      13.299  27.919  65.151  1.00  0.00     0.014 C 
ATOM     51  C   UNL     1       9.848  26.937  64.066  1.00  0.00     0.171 C 
ATOM     52  C   UNL     1      10.739  29.320  64.459  1.00  0.00     0.013 C 
ATOM     53  C   UNL     1      13.047  29.362  65.678  1.00  0.00    -0.035 C 
ATOM     54  C   UNL     1      12.036  30.107  64.748  1.00  0.00     0.007 C 
ATOM     55  C   UNL     1      14.388  30.125  65.661  1.00  0.00     0.011 C 
ATOM     56  C   UNL     1      12.532  29.338  67.139  1.00  0.00     0.011 C 
BRANCH  29  57
ATOM     57  C   UNL     1      10.247  19.122  61.946  1.00  0.00     0.165 C 
BRANCH  57  58
ATOM     58  O   UNL     1       8.932  19.601  61.817  1.00  0.00    -0.396 OA
ATOM     59  H   UNL     1       8.984  20.572  61.631  1.00  0.00     0.210 HD
ENDBRANCH  57  58
ENDBRANCH  29  57
BRANCH  48  60
ATOM     60  O   UNL     1      10.712  28.519  61.630  1.00  0.00    -0.392 OA
ATOM     61  H   UNL     1      10.707  28.023  60.773  1.00  0.00     0.210 HD
ENDBRANCH  48  60
ENDBRANCH  26  27
ENDBRANCH   6  26
BRANCH   5  62
ATOM     62  O   UNL     1      15.082  16.118  64.435  1.00  0.00    -0.385 OA
ATOM     63  H   UNL     1      14.825  16.551  65.289  1.00  0.00     0.211 HD
ENDBRANCH   5  62
TORSDOF 14
ENDMDL
MODEL 5
REMARK VINA RESULT:    -4.360      2.197      3.330
REMARK INTER + INTRA:          -6.781
REMARK INTER:                  -7.588
REMARK INTRA:                   0.807
REMARK UNBOUND:                 0.128
REMARK SMILES C[C@H]1O[C@H](O[C@H]2CC[C@]3(C)[C@@H](CC[C@]4(C)[C@H]3C=C[C@@]35OC[C@]6(CCC(C)(C)C[C@@H]63)[C@H](O)C[C@]45C)[C@@]2(C)CO)[C@@H](O)[C@@H](O[C@H]2O[C@@H](CO)[C@H](O)[C@@H](O)[C@@H]2O)[C@H]1O
REMARK SMILES IDX 1 1 2 2 54 3 41 4 39 5 4 6 3 7 55 8 42 10 43 11 52 12 44 13
REMARK SMILES IDX 50 14 45 15 48 16 53 17 51 19 46 21 47 22 49 24 5 26 6 27
REMARK SMILES IDX 7 28 35 29 8 30 11 31 36 32 9 33 12 34 10 35 16 36 13 37
REMARK SMILES IDX 14 38 17 39 15 40 33 41 18 42 19 43 32 44 34 45 29 46 20 47
REMARK SMILES IDX 30 48 22 49 28 50 21 51 23 52 25 53 24 54 26 55 27 56 37 57
REMARK SMILES IDX 38 58 31 60 40 62
REMARK H PARENT 55 9 53 18 51 20 47 23 49 25 38 59 31 61 40 63
REMARK Flexibility Score: inf
ROOT
ATOM      1  C   UNL     1      12.398  14.724  66.196  1.00  0.00     0.041 C 
ATOM      2  C   UNL     1      12.765  15.107  64.764  1.00  0.00     0.150 C 
ATOM      3  C   UNL     1      13.858  14.189  64.205  1.00  0.00     0.175 C 
ATOM      4  C   UNL     1      14.129  14.629  62.762  1.00  0.00     0.186 C 
ATOM      5  C   UNL     1      14.637  16.083  62.769  1.00  0.00     0.202 C 
ATOM      6  C   UNL     1      13.612  16.997  63.478  1.00  0.00     0.282 C 
ATOM      7  O   UNL     1      13.133  16.491  64.740  1.00  0.00    -0.344 OA
ENDROOT
BRANCH   3   8
ATOM      8  O   UNL     1      15.015  14.257  64.998  1.00  0.00    -0.388 OA
ATOM      9  H   UNL     1      15.767  14.501  64.397  1.00  0.00     0.211 HD
ENDBRANCH   3   8
BRANCH   4  10
ATOM     10  O   UNL     1      15.042  13.767  62.128  1.00  0.00    -0.341 OA
BRANCH  10  11
ATOM     11  C   UNL     1      14.488  12.463  61.887  1.00  0.00     0.282 C 
ATOM     12  C   UNL     1      15.503  11.372  62.322  1.00  0.00     0.202 C 
ATOM     13  O   UNL     1      13.981  12.363  60.568  1.00  0.00    -0.341 OA
ATOM     14  C   UNL     1      16.487  10.902  61.207  1.00  0.00     0.179 C 
ATOM     15  C   UNL     1      14.986  12.269  59.591  1.00  0.00     0.178 C 
ATOM     16  C   UNL     1      15.851  10.992  59.785  1.00  0.00     0.177 C 
BRANCH  12  17
ATOM     17  O   UNL     1      14.807  10.262  62.867  1.00  0.00    -0.385 OA
ATOM     18  H   UNL     1      13.932  10.598  63.230  1.00  0.00     0.211 HD
ENDBRANCH  12  17
BRANCH  14  19
ATOM     19  O   UNL     1      17.730  11.571  61.294  1.00  0.00    -0.387 OA
ATOM     20  H   UNL     1      17.755  11.970  62.206  1.00  0.00     0.211 HD
ENDBRANCH  14  19
BRANCH  15  21
ATOM     21  C   UNL     1      15.703  13.619  59.353  1.00  0.00     0.191 C 
BRANCH  21  22
ATOM     22  O   UNL     1      14.739  14.639  59.123  1.00  0.00    -0.394 OA
ATOM     23  H   UNL     1      14.075  14.258  58.490  1.00  0.00     0.210 HD
ENDBRANCH  21  22
ENDBRANCH  15  21
BRANCH  16  24
ATOM     24  O   UNL     1      15.006   9.882  59.552  1.00  0.00    -0.387 OA
ATOM     25  H   UNL     1      15.477   9.233  58.975  1.00  0.00     0.211 HD
ENDBRANCH  16  24
ENDBRANCH  10  11
ENDBRANCH   4  10
BRANCH   6  26
ATOM     26  O   UNL     1      12.606  17.360  62.529  1.00  0.00    -0.346 OA
BRANCH  26  27
ATOM     27  C   UNL     1      12.076  18.666  62.639  1.00  0.00     0.130 C 
ATOM     28  C   UNL     1      11.352  18.909  64.000  1.00  0.00     0.033 C 
ATOM     29  C   UNL     1      13.197  19.716  62.390  1.00  0.00     0.020 C 
ATOM     30  C   UNL     1      11.056  20.414  64.307  1.00  0.00     0.010 C 
ATOM     31  C   UNL     1      12.596  21.208  62.492  1.00  0.00     0.006 C 
ATOM     32  C   UNL     1      13.735  19.519  60.946  1.00  0.00     0.017 C 
ATOM     33  C   UNL     1      11.108  21.326  63.042  1.00  0.00    -0.022 C 
ATOM     34  C   UNL     1      13.576  22.129  63.279  1.00  0.00     0.005 C 
ATOM     35  C   UNL     1       9.992  20.767  62.069  1.00  0.00     0.012 C 
ATOM     36  C   UNL     1      10.721  22.872  63.268  1.00  0.00     0.024 C 
ATOM     37  C   UNL     1      13.119  23.569  63.421  1.00  0.00     0.008 C 
ATOM     38  C   UNL     1      11.728  23.752  64.108  1.00  0.00    -0.017 C 
ATOM     39  C   UNL     1      10.411  23.580  61.919  1.00  0.00    -0.024 C 
ATOM     40  C   UNL     1      11.798  23.251  65.596  1.00  0.00     0.013 C 
ATOM     41  C   UNL     1      11.211  25.297  64.089  1.00  0.00     0.009 C 
ATOM     42  C   UNL     1      10.526  24.895  61.678  1.00  0.00     0.005 C 
ATOM     43  C   UNL     1      11.228  25.851  62.600  1.00  0.00     0.096 C 
ATOM     44  C   UNL     1      12.095  26.271  64.956  1.00  0.00     0.043 C 
ATOM     45  C   UNL     1       9.759  25.333  64.693  1.00  0.00     0.015 C 
ATOM     46  C   UNL     1      10.720  27.286  62.411  1.00  0.00     0.037 C 
ATOM     47  O   UNL     1      12.579  25.970  62.160  1.00  0.00    -0.369 OA
ATOM     48  C   UNL     1      11.915  27.784  64.596  1.00  0.00     0.124 C 
ATOM     49  C   UNL     1      11.859  28.036  63.049  1.00  0.00     0.026 C 
ATOM     50  C   UNL     1       9.324  27.804  62.794  1.00  0.00     0.014 C 
ATOM     51  C   UNL     1      13.015  27.299  62.375  1.00  0.00     0.171 C 
ATOM     52  C   UNL     1      11.771  29.534  62.674  1.00  0.00     0.013 C 
ATOM     53  C   UNL     1       9.183  29.308  62.416  1.00  0.00    -0.035 C 
ATOM     54  C   UNL     1      10.382  30.125  62.999  1.00  0.00     0.007 C 
ATOM     55  C   UNL     1       7.875  29.843  63.034  1.00  0.00     0.011 C 
ATOM     56  C   UNL     1       9.092  29.489  60.880  1.00  0.00     0.011 C 
BRANCH  29  57
ATOM     57  C   UNL     1      14.373  19.371  63.388  1.00  0.00     0.165 C 
BRANCH  57  58
ATOM     58  O   UNL     1      15.508  18.845  62.746  1.00  0.00    -0.396 OA
ATOM     59  H   UNL     1      16.108  18.487  63.447  1.00  0.00     0.210 HD
ENDBRANCH  57  58
ENDBRANCH  29  57
BRANCH  48  60
ATOM     60  O   UNL     1      12.983  28.513  65.152  1.00  0.00    -0.392 OA
ATOM     61  H   UNL     1      13.766  28.378  64.561  1.00  0.00     0.210 HD
ENDBRANCH  48  60
ENDBRANCH  26  27
ENDBRANCH   6  26
BRANCH   5  62
ATOM     62  O   UNL     1      15.897  16.169  63.384  1.00  0.00    -0.385 OA
ATOM     63  H   UNL     1      15.761  15.965  64.344  1.00  0.00     0.211 HD
ENDBRANCH   5  62
TORSDOF 14
ENDMDL
MODEL 6
REMARK VINA RESULT:    -3.959      1.537      2.303
REMARK INTER + INTRA:          -6.146
REMARK INTER:                  -6.254
REMARK INTRA:                   0.108
REMARK UNBOUND:                 0.128
REMARK SMILES C[C@H]1O[C@H](O[C@H]2CC[C@]3(C)[C@@H](CC[C@]4(C)[C@H]3C=C[C@@]35OC[C@]6(CCC(C)(C)C[C@@H]63)[C@H](O)C[C@]45C)[C@@]2(C)CO)[C@@H](O)[C@@H](O[C@H]2O[C@@H](CO)[C@H](O)[C@@H](O)[C@@H]2O)[C@H]1O
REMARK SMILES IDX 1 1 2 2 54 3 41 4 39 5 4 6 3 7 55 8 42 10 43 11 52 12 44 13
REMARK SMILES IDX 50 14 45 15 48 16 53 17 51 19 46 21 47 22 49 24 5 26 6 27
REMARK SMILES IDX 7 28 35 29 8 30 11 31 36 32 9 33 12 34 10 35 16 36 13 37
REMARK SMILES IDX 14 38 17 39 15 40 33 41 18 42 19 43 32 44 34 45 29 46 20 47
REMARK SMILES IDX 30 48 22 49 28 50 21 51 23 52 25 53 24 54 26 55 27 56 37 57
REMARK SMILES IDX 38 58 31 60 40 62
REMARK H PARENT 55 9 53 18 51 20 47 23 49 25 38 59 31 61 40 63
REMARK Flexibility Score: inf
ROOT
ATOM      1  C   UNL     1      12.854  14.729  66.470  1.00  0.00     0.041 C 
ATOM      2  C   UNL     1      12.941  15.173  65.012  1.00  0.00     0.150 C 
ATOM      3  C   UNL     1      13.506  14.059  64.123  1.00  0.00     0.175 C 
ATOM      4  C   UNL     1      13.520  14.587  62.685  1.00  0.00     0.186 C 
ATOM      5  C   UNL     1      14.443  15.818  62.611  1.00  0.00     0.202 C 
ATOM      6  C   UNL     1      13.978  16.888  63.624  1.00  0.00     0.282 C 
ATOM      7  O   UNL     1      13.707  16.382  64.946  1.00  0.00    -0.344 OA
ENDROOT
BRANCH   3   8
ATOM      8  O   UNL     1      14.789  13.685  64.555  1.00  0.00    -0.388 OA
ATOM      9  H   UNL     1      15.156  13.063  63.873  1.00  0.00     0.211 HD
ENDBRANCH   3   8
BRANCH   4  10
ATOM     10  O   UNL     1      13.920  13.588  61.778  1.00  0.00    -0.341 OA
BRANCH  10  11
ATOM     11  C   UNL     1      15.074  13.972  61.014  1.00  0.00     0.282 C 
ATOM     12  C   UNL     1      14.785  13.791  59.499  1.00  0.00     0.202 C 
ATOM     13  O   UNL     1      16.245  13.349  61.511  1.00  0.00    -0.341 OA
ATOM     14  C   UNL     1      15.157  12.392  58.918  1.00  0.00     0.179 C 
ATOM     15  C   UNL     1      16.321  11.981  61.201  1.00  0.00     0.178 C 
ATOM     16  C   UNL     1      16.366  11.748  59.663  1.00  0.00     0.177 C 
BRANCH  12  17
ATOM     17  O   UNL     1      15.428  14.819  58.763  1.00  0.00    -0.385 OA
ATOM     18  H   UNL     1      15.735  14.425  57.892  1.00  0.00     0.211 HD
ENDBRANCH  12  17
BRANCH  14  19
ATOM     19  O   UNL     1      14.032  11.537  58.859  1.00  0.00    -0.387 OA
ATOM     20  H   UNL     1      14.373  10.672  58.503  1.00  0.00     0.211 HD
ENDBRANCH  14  19
BRANCH  15  21
ATOM     21  C   UNL     1      15.348  11.128  62.048  1.00  0.00     0.191 C 
BRANCH  21  22
ATOM     22  O   UNL     1      15.594  11.356  63.431  1.00  0.00    -0.394 OA
ATOM     23  H   UNL     1      16.013  12.254  63.495  1.00  0.00     0.210 HD
ENDBRANCH  21  22
ENDBRANCH  15  21
BRANCH  16  24
ATOM     24  O   UNL     1      17.583  12.301  59.198  1.00  0.00    -0.387 OA
ATOM     25  H   UNL     1      18.146  11.577  58.831  1.00  0.00     0.211 HD
ENDBRANCH  16  24
ENDBRANCH  10  11
ENDBRANCH   4  10
BRANCH   6  26
ATOM     26  O   UNL     1      12.928  17.648  63.020  1.00  0.00    -0.346 OA
BRANCH  26  27
ATOM     27  C   UNL     1      12.791  18.988  63.449  1.00  0.00     0.130 C 
ATOM     28  C   UNL     1      13.622  19.985  62.582  1.00  0.00     0.033 C 
ATOM     29  C   UNL     1      11.286  19.381  63.489  1.00  0.00     0.020 C 
ATOM     30  C   UNL     1      13.241  21.488  62.793  1.00  0.00     0.010 C 
ATOM     31  C   UNL     1      11.120  20.901  63.999  1.00  0.00     0.006 C 
ATOM     32  C   UNL     1      10.570  18.457  64.514  1.00  0.00     0.017 C 
ATOM     33  C   UNL     1      12.461  21.749  64.119  1.00  0.00    -0.022 C 
ATOM     34  C   UNL     1      10.047  21.640  63.143  1.00  0.00     0.005 C 
ATOM     35  C   UNL     1      13.434  21.292  65.281  1.00  0.00     0.012 C 
ATOM     36  C   UNL     1      12.118  23.286  64.448  1.00  0.00     0.024 C 
ATOM     37  C   UNL     1       9.793  23.080  63.548  1.00  0.00     0.008 C 
ATOM     38  C   UNL     1      11.055  24.001  63.525  1.00  0.00    -0.017 C 
ATOM     39  C   UNL     1      11.720  23.470  65.940  1.00  0.00    -0.024 C 
ATOM     40  C   UNL     1      11.593  24.132  62.055  1.00  0.00     0.013 C 
ATOM     41  C   UNL     1      10.763  25.489  64.122  1.00  0.00     0.009 C 
ATOM     42  C   UNL     1      10.946  24.450  66.431  1.00  0.00     0.005 C 
ATOM     43  C   UNL     1      10.126  25.371  65.573  1.00  0.00     0.096 C 
ATOM     44  C   UNL     1       9.766  26.338  63.246  1.00  0.00     0.043 C 
ATOM     45  C   UNL     1      12.126  26.274  64.161  1.00  0.00     0.015 C 
ATOM     46  C   UNL     1       9.838  26.696  66.290  1.00  0.00     0.037 C 
ATOM     47  O   UNL     1       8.817  24.817  65.465  1.00  0.00    -0.369 OA
ATOM     48  C   UNL     1       9.121  27.545  64.006  1.00  0.00     0.124 C 
ATOM     49  C   UNL     1       8.674  27.174  65.463  1.00  0.00     0.026 C 
ATOM     50  C   UNL     1      10.872  27.784  66.622  1.00  0.00     0.014 C 
ATOM     51  C   UNL     1       7.875  25.873  65.430  1.00  0.00     0.171 C 
ATOM     52  C   UNL     1       7.953  28.330  66.197  1.00  0.00     0.013 C 
ATOM     53  C   UNL     1      10.193  28.962  67.380  1.00  0.00    -0.035 C 
ATOM     54  C   UNL     1       8.934  29.454  66.595  1.00  0.00     0.007 C 
ATOM     55  C   UNL     1      11.202  30.125  67.472  1.00  0.00     0.011 C 
ATOM     56  C   UNL     1       9.812  28.548  68.823  1.00  0.00     0.011 C 
BRANCH  29  57
ATOM     57  C   UNL     1      10.692  19.058  62.061  1.00  0.00     0.165 C 
BRANCH  57  58
ATOM     58  O   UNL     1       9.333  19.397  61.936  1.00  0.00    -0.396 OA
ATOM     59  H   UNL     1       9.245  19.997  61.153  1.00  0.00     0.210 HD
ENDBRANCH  57  58
ENDBRANCH  29  57
BRANCH  48  60
ATOM     60  O   UNL     1       8.008  27.999  63.275  1.00  0.00    -0.392 OA
ATOM     61  H   UNL     1       8.208  28.925  62.984  1.00  0.00     0.210 HD
ENDBRANCH  48  60
ENDBRANCH  26  27
ENDBRANCH   6  26
BRANCH   5  62
ATOM     62  O   UNL     1      15.780  15.454  62.844  1.00  0.00    -0.385 OA
ATOM     63  H   UNL     1      15.819  14.465  62.802  1.00  0.00     0.211 HD
ENDBRANCH   5  62
TORSDOF 14
ENDMDL
MODEL 7
REMARK VINA RESULT:    -3.459      2.473      3.896
REMARK INTER + INTRA:          -5.353
REMARK INTER:                  -5.780
REMARK INTRA:                   0.426
REMARK UNBOUND:                 0.128
REMARK SMILES C[C@H]1O[C@H](O[C@H]2CC[C@]3(C)[C@@H](CC[C@]4(C)[C@H]3C=C[C@@]35OC[C@]6(CCC(C)(C)C[C@@H]63)[C@H](O)C[C@]45C)[C@@]2(C)CO)[C@@H](O)[C@@H](O[C@H]2O[C@@H](CO)[C@H](O)[C@@H](O)[C@@H]2O)[C@H]1O
REMARK SMILES IDX 1 1 2 2 54 3 41 4 39 5 4 6 3 7 55 8 42 10 43 11 52 12 44 13
REMARK SMILES IDX 50 14 45 15 48 16 53 17 51 19 46 21 47 22 49 24 5 26 6 27
REMARK SMILES IDX 7 28 35 29 8 30 11 31 36 32 9 33 12 34 10 35 16 36 13 37
REMARK SMILES IDX 14 38 17 39 15 40 33 41 18 42 19 43 32 44 34 45 29 46 20 47
REMARK SMILES IDX 30 48 22 49 28 50 21 51 23 52 25 53 24 54 26 55 27 56 37 57
REMARK SMILES IDX 38 58 31 60 40 62
REMARK H PARENT 55 9 53 18 51 20 47 23 49 25 38 59 31 61 40 63
REMARK Flexibility Score: inf
ROOT
ATOM      1  C   UNL     1      13.472  11.799  64.655  1.00  0.00     0.041 C 
ATOM      2  C   UNL     1      13.390  13.174  63.997  1.00  0.00     0.150 C 
ATOM      3  C   UNL     1      14.215  13.223  62.705  1.00  0.00     0.175 C 
ATOM      4  C   UNL     1      14.041  14.622  62.106  1.00  0.00     0.186 C 
ATOM      5  C   UNL     1      14.586  15.664  63.100  1.00  0.00     0.202 C 
ATOM      6  C   UNL     1      13.873  15.518  64.463  1.00  0.00     0.282 C 
ATOM      7  O   UNL     1      13.791  14.164  64.952  1.00  0.00    -0.344 OA
ENDROOT
BRANCH   3   8
ATOM      8  O   UNL     1      15.564  12.930  62.968  1.00  0.00    -0.388 OA
ATOM      9  H   UNL     1      16.109  13.572  62.441  1.00  0.00     0.211 HD
ENDBRANCH   3   8
BRANCH   4  10
ATOM     10  O   UNL     1      14.674  14.724  60.854  1.00  0.00    -0.341 OA
BRANCH  10  11
ATOM     11  C   UNL     1      15.986  15.303  60.949  1.00  0.00     0.282 C 
ATOM     12  C   UNL     1      16.137  16.436  59.898  1.00  0.00     0.202 C 
ATOM     13  O   UNL     1      16.987  14.300  60.943  1.00  0.00    -0.341 OA
ATOM     14  C   UNL     1      16.693  15.983  58.513  1.00  0.00     0.179 C 
ATOM     15  C   UNL     1      17.184  13.718  59.680  1.00  0.00     0.178 C 
ATOM     16  C   UNL     1      17.663  14.768  58.638  1.00  0.00     0.177 C 
BRANCH  12  17
ATOM     17  O   UNL     1      16.932  17.482  60.434  1.00  0.00    -0.385 OA
ATOM     18  H   UNL     1      17.893  17.268  60.233  1.00  0.00     0.211 HD
ENDBRANCH  12  17
BRANCH  14  19
ATOM     19  O   UNL     1      15.653  15.760  57.582  1.00  0.00    -0.387 OA
ATOM     20  H   UNL     1      15.992  15.054  56.968  1.00  0.00     0.211 HD
ENDBRANCH  14  19
BRANCH  15  21
ATOM     21  C   UNL     1      16.035  12.759  59.288  1.00  0.00     0.191 C 
BRANCH  21  22
ATOM     22  O   UNL     1      15.883  11.761  60.291  1.00  0.00    -0.394 OA
ATOM     23  H   UNL     1      14.951  11.427  60.212  1.00  0.00     0.210 HD
ENDBRANCH  21  22
ENDBRANCH  15  21
BRANCH  16  24
ATOM     24  O   UNL     1      18.946  15.201  59.049  1.00  0.00    -0.387 OA
ATOM     25  H   UNL     1      19.181  14.751  59.897  1.00  0.00     0.211 HD
ENDBRANCH  16  24
ENDBRANCH  10  11
ENDBRANCH   4  10
BRANCH   6  26
ATOM     26  O   UNL     1      12.637  16.234  64.400  1.00  0.00    -0.346 OA
BRANCH  26  27
ATOM     27  C   UNL     1      12.721  17.612  64.095  1.00  0.00     0.130 C 
ATOM     28  C   UNL     1      13.594  17.897  62.833  1.00  0.00     0.033 C 
ATOM     29  C   UNL     1      11.292  18.211  63.950  1.00  0.00     0.020 C 
ATOM     30  C   UNL     1      13.439  19.345  62.262  1.00  0.00     0.010 C 
ATOM     31  C   UNL     1      11.379  19.787  63.625  1.00  0.00     0.006 C 
ATOM     32  C   UNL     1      10.557  18.048  65.310  1.00  0.00     0.017 C 
ATOM     33  C   UNL     1      12.827  20.352  63.284  1.00  0.00    -0.022 C 
ATOM     34  C   UNL     1      10.340  20.167  62.527  1.00  0.00     0.005 C 
ATOM     35  C   UNL     1      13.833  20.382  64.506  1.00  0.00     0.012 C 
ATOM     36  C   UNL     1      12.724  21.882  62.796  1.00  0.00     0.024 C 
ATOM     37  C   UNL     1      10.319  21.637  62.152  1.00  0.00     0.008 C 
ATOM     38  C   UNL     1      11.686  22.207  61.652  1.00  0.00    -0.017 C 
ATOM     39  C   UNL     1      12.495  22.844  63.996  1.00  0.00    -0.024 C 
ATOM     40  C   UNL     1      12.098  21.501  60.309  1.00  0.00     0.013 C 
ATOM     41  C   UNL     1      11.652  23.819  61.419  1.00  0.00     0.009 C 
ATOM     42  C   UNL     1      11.907  24.050  63.934  1.00  0.00     0.005 C 
ATOM     43  C   UNL     1      11.142  24.542  62.739  1.00  0.00     0.096 C 
ATOM     44  C   UNL     1      10.701  24.270  60.247  1.00  0.00     0.043 C 
ATOM     45  C   UNL     1      13.106  24.287  61.039  1.00  0.00     0.015 C 
ATOM     46  C   UNL     1      11.101  26.074  62.692  1.00  0.00     0.037 C 
ATOM     47  O   UNL     1       9.766  24.228  62.942  1.00  0.00    -0.369 OA
ATOM     48  C   UNL     1      10.296  25.780  60.302  1.00  0.00     0.124 C 
ATOM     49  C   UNL     1       9.940  26.260  61.751  1.00  0.00     0.026 C 
ATOM     50  C   UNL     1      12.298  26.999  62.416  1.00  0.00     0.014 C 
ATOM     51  C   UNL     1       8.975  25.264  62.390  1.00  0.00     0.171 C 
ATOM     52  C   UNL     1       9.452  27.727  61.810  1.00  0.00     0.013 C 
ATOM     53  C   UNL     1      11.856  28.491  62.485  1.00  0.00    -0.035 C 
ATOM     54  C   UNL     1      10.607  28.725  61.574  1.00  0.00     0.007 C 
ATOM     55  C   UNL     1      13.016  29.364  61.965  1.00  0.00     0.011 C 
ATOM     56  C   UNL     1      11.557  28.916  63.944  1.00  0.00     0.011 C 
BRANCH  29  57
ATOM     57  C   UNL     1      10.531  17.323  62.888  1.00  0.00     0.165 C 
BRANCH  57  58
ATOM     58  O   UNL     1      10.039  16.119  63.422  1.00  0.00    -0.396 OA
ATOM     59  H   UNL     1      10.164  16.155  64.404  1.00  0.00     0.210 HD
ENDBRANCH  57  58
ENDBRANCH  29  57
BRANCH  48  60
ATOM     60  O   UNL     1       9.191  25.986  59.455  1.00  0.00    -0.392 OA
ATOM     61  H   UNL     1       8.562  25.237  59.611  1.00  0.00     0.210 HD
ENDBRANCH  48  60
ENDBRANCH  26  27
ENDBRANCH   6  26
BRANCH   5  62
ATOM     62  O   UNL     1      15.978  15.537  63.246  1.00  0.00    -0.385 OA
ATOM     63  H   UNL     1      16.389  16.264  62.713  1.00  0.00     0.211 HD
ENDBRANCH   5  62
TORSDOF 14
ENDMDL
MODEL 8
REMARK VINA RESULT:    -3.354      1.975      4.023
REMARK INTER + INTRA:          -5.187
REMARK INTER:                  -3.993
REMARK INTRA:                  -1.194
REMARK UNBOUND:                 0.128
REMARK SMILES C[C@H]1O[C@H](O[C@H]2CC[C@]3(C)[C@@H](CC[C@]4(C)[C@H]3C=C[C@@]35OC[C@]6(CCC(C)(C)C[C@@H]63)[C@H](O)C[C@]45C)[C@@]2(C)CO)[C@@H](O)[C@@H](O[C@H]2O[C@@H](CO)[C@H](O)[C@@H](O)[C@@H]2O)[C@H]1O
REMARK SMILES IDX 1 1 2 2 54 3 41 4 39 5 4 6 3 7 55 8 42 10 43 11 52 12 44 13
REMARK SMILES IDX 50 14 45 15 48 16 53 17 51 19 46 21 47 22 49 24 5 26 6 27
REMARK SMILES IDX 7 28 35 29 8 30 11 31 36 32 9 33 12 34 10 35 16 36 13 37
REMARK SMILES IDX 14 38 17 39 15 40 33 41 18 42 19 43 32 44 34 45 29 46 20 47
REMARK SMILES IDX 30 48 22 49 28 50 21 51 23 52 25 53 24 54 26 55 27 56 37 57
REMARK SMILES IDX 38 58 31 60 40 62
REMARK H PARENT 55 9 53 18 51 20 47 23 49 25 38 59 31 61 40 63
REMARK Flexibility Score: inf
ROOT
ATOM      1  C   UNL     1      19.211  17.238  60.503  1.00  0.00     0.041 C 
ATOM      2  C   UNL     1      17.798  16.660  60.534  1.00  0.00     0.150 C 
ATOM      3  C   UNL     1      17.736  15.304  59.821  1.00  0.00     0.175 C 
ATOM      4  C   UNL     1      16.295  14.795  59.937  1.00  0.00     0.186 C 
ATOM      5  C   UNL     1      15.354  15.788  59.231  1.00  0.00     0.202 C 
ATOM      6  C   UNL     1      15.526  17.200  59.834  1.00  0.00     0.282 C 
ATOM      7  O   UNL     1      16.896  17.624  59.979  1.00  0.00    -0.344 OA
ENDROOT
BRANCH   3   8
ATOM      8  O   UNL     1      18.139  15.430  58.482  1.00  0.00    -0.388 OA
ATOM      9  H   UNL     1      18.910  14.817  58.350  1.00  0.00     0.211 HD
ENDBRANCH   3   8
BRANCH   4  10
ATOM     10  O   UNL     1      16.168  13.498  59.406  1.00  0.00    -0.341 OA
BRANCH  10  11
ATOM     11  C   UNL     1      17.100  12.573  59.992  1.00  0.00     0.282 C 
ATOM     12  C   UNL     1      16.930  11.174  59.341  1.00  0.00     0.202 C 
ATOM     13  O   UNL     1      17.044  12.621  61.406  1.00  0.00    -0.341 OA
ATOM     14  C   UNL     1      15.910  10.233  60.053  1.00  0.00     0.179 C 
ATOM     15  C   UNL     1      15.894  12.015  61.939  1.00  0.00     0.178 C 
ATOM     16  C   UNL     1      15.834  10.501  61.587  1.00  0.00     0.177 C 
BRANCH  12  17
ATOM     17  O   UNL     1      18.195  10.540  59.232  1.00  0.00    -0.385 OA
ATOM     18  H   UNL     1      18.861  11.100  59.735  1.00  0.00     0.211 HD
ENDBRANCH  12  17
BRANCH  14  19
ATOM     19  O   UNL     1      14.642  10.271  59.427  1.00  0.00    -0.387 OA
ATOM     20  H   UNL     1      14.044  10.748  60.065  1.00  0.00     0.211 HD
ENDBRANCH  14  19
BRANCH  15  21
ATOM     21  C   UNL     1      14.624  12.874  61.728  1.00  0.00     0.191 C 
BRANCH  21  22
ATOM     22  O   UNL     1      14.611  13.944  62.665  1.00  0.00    -0.394 OA
ATOM     23  H   UNL     1      14.620  14.781  62.131  1.00  0.00     0.210 HD
ENDBRANCH  21  22
ENDBRANCH  15  21
BRANCH  16  24
ATOM     24  O   UNL     1      16.919   9.881  62.250  1.00  0.00    -0.387 OA
ATOM     25  H   UNL     1      17.573   9.573  61.578  1.00  0.00     0.211 HD
ENDBRANCH  16  24
ENDBRANCH  10  11
ENDBRANCH   4  10
BRANCH   6  26
ATOM     26  O   UNL     1      14.720  17.283  61.012  1.00  0.00    -0.346 OA
BRANCH  26  27
ATOM     27  C   UNL     1      14.310  18.578  61.407  1.00  0.00     0.130 C 
ATOM     28  C   UNL     1      13.383  19.262  60.354  1.00  0.00     0.033 C 
ATOM     29  C   UNL     1      13.639  18.518  62.809  1.00  0.00     0.020 C 
ATOM     30  C   UNL     1      12.637  20.530  60.886  1.00  0.00     0.010 C 
ATOM     31  C   UNL     1      13.189  19.993  63.275  1.00  0.00     0.006 C 
ATOM     32  C   UNL     1      14.690  17.999  63.829  1.00  0.00     0.017 C 
ATOM     33  C   UNL     1      13.284  21.135  62.171  1.00  0.00    -0.022 C 
ATOM     34  C   UNL     1      11.776  19.942  63.929  1.00  0.00     0.005 C 
ATOM     35  C   UNL     1      14.758  21.537  61.755  1.00  0.00     0.012 C 
ATOM     36  C   UNL     1      12.625  22.496  62.722  1.00  0.00     0.024 C 
ATOM     37  C   UNL     1      11.256  21.278  64.426  1.00  0.00     0.008 C 
ATOM     38  C   UNL     1      11.174  22.397  63.338  1.00  0.00    -0.017 C 
ATOM     39  C   UNL     1      13.568  23.215  63.726  1.00  0.00    -0.024 C 
ATOM     40  C   UNL     1      10.128  21.993  62.236  1.00  0.00     0.013 C 
ATOM     41  C   UNL     1      10.768  23.850  63.953  1.00  0.00     0.009 C 
ATOM     42  C   UNL     1      13.185  24.058  64.699  1.00  0.00     0.005 C 
ATOM     43  C   UNL     1      11.758  24.229  65.135  1.00  0.00     0.096 C 
ATOM     44  C   UNL     1       9.306  23.904  64.537  1.00  0.00     0.043 C 
ATOM     45  C   UNL     1      10.838  24.908  62.790  1.00  0.00     0.015 C 
ATOM     46  C   UNL     1      11.533  25.598  65.788  1.00  0.00     0.037 C 
ATOM     47  O   UNL     1      11.530  23.351  66.236  1.00  0.00    -0.369 OA
ATOM     48  C   UNL     1       9.058  25.094  65.522  1.00  0.00     0.124 C 
ATOM     49  C   UNL     1      10.248  25.313  66.520  1.00  0.00     0.026 C 
ATOM     50  C   UNL     1      11.566  26.956  65.066  1.00  0.00     0.014 C 
ATOM     51  C   UNL     1      10.639  23.975  67.141  1.00  0.00     0.171 C 
ATOM     52  C   UNL     1       9.981  26.429  67.558  1.00  0.00     0.013 C 
ATOM     53  C   UNL     1      11.321  28.113  66.079  1.00  0.00    -0.035 C 
ATOM     54  C   UNL     1      10.031  27.832  66.915  1.00  0.00     0.007 C 
ATOM     55  C   UNL     1      11.119  29.419  65.284  1.00  0.00     0.011 C 
ATOM     56  C   UNL     1      12.545  28.307  67.009  1.00  0.00     0.011 C 
BRANCH  29  57
ATOM     57  C   UNL     1      12.489  17.438  62.717  1.00  0.00     0.165 C 
BRANCH  57  58
ATOM     58  O   UNL     1      12.943  16.126  62.942  1.00  0.00    -0.396 OA
ATOM     59  H   UNL     1      13.850  16.052  62.553  1.00  0.00     0.210 HD
ENDBRANCH  57  58
ENDBRANCH  29  57
BRANCH  48  60
ATOM     60  O   UNL     1       7.878  24.846  66.247  1.00  0.00    -0.392 OA
ATOM     61  H   UNL     1       7.769  23.863  66.299  1.00  0.00     0.210 HD
ENDBRANCH  48  60
ENDBRANCH  26  27
ENDBRANCH   6  26
BRANCH   5  62
ATOM     62  O   UNL     1      15.590  15.802  57.845  1.00  0.00    -0.385 OA
ATOM     63  H   UNL     1      15.164  14.987  57.475  1.00  0.00     0.211 HD
ENDBRANCH   5  62
TORSDOF 14
ENDMDL
MODEL 9
REMARK VINA RESULT:    -3.342      2.401      3.928
REMARK INTER + INTRA:          -5.168
REMARK INTER:                  -4.371
REMARK INTRA:                  -0.797
REMARK UNBOUND:                 0.128
REMARK SMILES C[C@H]1O[C@H](O[C@H]2CC[C@]3(C)[C@@H](CC[C@]4(C)[C@H]3C=C[C@@]35OC[C@]6(CCC(C)(C)C[C@@H]63)[C@H](O)C[C@]45C)[C@@]2(C)CO)[C@@H](O)[C@@H](O[C@H]2O[C@@H](CO)[C@H](O)[C@@H](O)[C@@H]2O)[C@H]1O
REMARK SMILES IDX 1 1 2 2 54 3 41 4 39 5 4 6 3 7 55 8 42 10 43 11 52 12 44 13
REMARK SMILES IDX 50 14 45 15 48 16 53 17 51 19 46 21 47 22 49 24 5 26 6 27
REMARK SMILES IDX 7 28 35 29 8 30 11 31 36 32 9 33 12 34 10 35 16 36 13 37
REMARK SMILES IDX 14 38 17 39 15 40 33 41 18 42 19 43 32 44 34 45 29 46 20 47
REMARK SMILES IDX 30 48 22 49 28 50 21 51 23 52 25 53 24 54 26 55 27 56 37 57
REMARK SMILES IDX 38 58 31 60 40 62
REMARK H PARENT 55 9 53 18 51 20 47 23 49 25 38 59 31 61 40 63
REMARK Flexibility Score: inf
ROOT
ATOM      1  C   UNL     1      13.166  13.117  63.547  1.00  0.00     0.041 C 
ATOM      2  C   UNL     1      13.092  14.599  63.186  1.00  0.00     0.150 C 
ATOM      3  C   UNL     1      14.438  15.110  62.657  1.00  0.00     0.175 C 
ATOM      4  C   UNL     1      14.252  16.587  62.292  1.00  0.00     0.186 C 
ATOM      5  C   UNL     1      13.869  17.373  63.560  1.00  0.00     0.202 C 
ATOM      6  C   UNL     1      12.600  16.762  64.196  1.00  0.00     0.282 C 
ATOM      7  O   UNL     1      12.629  15.327  64.329  1.00  0.00    -0.344 OA
ENDROOT
BRANCH   3   8
ATOM      8  O   UNL     1      15.447  14.932  63.618  1.00  0.00    -0.388 OA
ATOM      9  H   UNL     1      15.780  15.836  63.862  1.00  0.00     0.211 HD
ENDBRANCH   3   8
BRANCH   4  10
ATOM     10  O   UNL     1      15.410  17.113  61.690  1.00  0.00    -0.341 OA
BRANCH  10  11
ATOM     11  C   UNL     1      15.425  16.914  60.266  1.00  0.00     0.282 C 
ATOM     12  C   UNL     1      15.309  15.400  59.946  1.00  0.00     0.202 C 
ATOM     13  O   UNL     1      16.509  17.604  59.668  1.00  0.00    -0.341 OA
ATOM     14  C   UNL     1      16.667  14.642  59.830  1.00  0.00     0.179 C 
ATOM     15  C   UNL     1      17.754  16.997  59.906  1.00  0.00     0.178 C 
ATOM     16  C   UNL     1      17.812  15.563  59.307  1.00  0.00     0.177 C 
BRANCH  12  17
ATOM     17  O   UNL     1      14.539  15.218  58.768  1.00  0.00    -0.385 OA
ATOM     18  H   UNL     1      14.928  15.808  58.055  1.00  0.00     0.211 HD
ENDBRANCH  12  17
BRANCH  14  19
ATOM     19  O   UNL     1      17.002  13.985  61.037  1.00  0.00    -0.387 OA
ATOM     20  H   UNL     1      16.250  13.356  61.216  1.00  0.00     0.211 HD
ENDBRANCH  14  19
BRANCH  15  21
ATOM     21  C   UNL     1      18.246  17.213  61.357  1.00  0.00     0.191 C 
BRANCH  21  22
ATOM     22  O   UNL     1      18.535  15.955  61.955  1.00  0.00    -0.394 OA
ATOM     23  H   UNL     1      19.474  15.740  61.713  1.00  0.00     0.210 HD
ENDBRANCH  21  22
ENDBRANCH  15  21
BRANCH  16  24
ATOM     24  O   UNL     1      17.731  15.700  57.901  1.00  0.00    -0.387 OA
ATOM     25  H   UNL     1      16.811  15.966  57.656  1.00  0.00     0.211 HD
ENDBRANCH  16  24
ENDBRANCH  10  11
ENDBRANCH   4  10
BRANCH   6  26
ATOM     26  O   UNL     1      11.460  17.303  63.524  1.00  0.00    -0.346 OA
BRANCH  26  27
ATOM     27  C   UNL     1      11.576  18.630  63.051  1.00  0.00     0.130 C 
ATOM     28  C   UNL     1      10.934  18.825  61.642  1.00  0.00     0.033 C 
ATOM     29  C   UNL     1      10.979  19.619  64.094  1.00  0.00     0.020 C 
ATOM     30  C   UNL     1      10.734  20.322  61.232  1.00  0.00     0.010 C 
ATOM     31  C   UNL     1      11.128  21.137  63.572  1.00  0.00     0.006 C 
ATOM     32  C   UNL     1      11.796  19.489  65.410  1.00  0.00     0.017 C 
ATOM     33  C   UNL     1      11.603  21.314  62.064  1.00  0.00    -0.022 C 
ATOM     34  C   UNL     1       9.821  21.934  63.861  1.00  0.00     0.005 C 
ATOM     35  C   UNL     1      13.105  20.898  61.787  1.00  0.00     0.012 C 
ATOM     36  C   UNL     1      11.518  22.863  61.634  1.00  0.00     0.024 C 
ATOM     37  C   UNL     1       9.854  23.388  63.427  1.00  0.00     0.008 C 
ATOM     38  C   UNL     1      10.157  23.614  61.911  1.00  0.00    -0.017 C 
ATOM     39  C   UNL     1      12.696  23.682  62.233  1.00  0.00    -0.024 C 
ATOM     40  C   UNL     1       8.999  23.007  61.040  1.00  0.00     0.013 C 
ATOM     41  C   UNL     1      10.343  25.188  61.531  1.00  0.00     0.009 C 
ATOM     42  C   UNL     1      12.688  25.000  62.484  1.00  0.00     0.005 C 
ATOM     43  C   UNL     1      11.443  25.841  62.471  1.00  0.00     0.096 C 
ATOM     44  C   UNL     1       9.028  26.039  61.695  1.00  0.00     0.043 C 
ATOM     45  C   UNL     1      10.763  25.276  60.017  1.00  0.00     0.015 C 
ATOM     46  C   UNL     1      11.767  27.316  62.202  1.00  0.00     0.037 C 
ATOM     47  O   UNL     1      10.943  25.901  63.805  1.00  0.00    -0.369 OA
ATOM     48  C   UNL     1       9.275  27.581  61.790  1.00  0.00     0.124 C 
ATOM     49  C   UNL     1      10.495  27.943  62.707  1.00  0.00     0.026 C 
ATOM     50  C   UNL     1      12.280  27.897  60.873  1.00  0.00     0.014 C 
ATOM     51  C   UNL     1      10.380  27.181  64.025  1.00  0.00     0.171 C 
ATOM     52  C   UNL     1      10.699  29.467  62.883  1.00  0.00     0.013 C 
ATOM     53  C   UNL     1      12.518  29.430  61.010  1.00  0.00    -0.035 C 
ATOM     54  C   UNL     1      11.246  30.123  61.596  1.00  0.00     0.007 C 
ATOM     55  C   UNL     1      12.790  30.006  59.605  1.00  0.00     0.011 C 
ATOM     56  C   UNL     1      13.757  29.723  61.892  1.00  0.00     0.011 C 
BRANCH  29  57
ATOM     57  C   UNL     1       9.508  19.130  64.396  1.00  0.00     0.165 C 
BRANCH  57  58
ATOM     58  O   UNL     1       9.414  18.334  65.551  1.00  0.00    -0.396 OA
ATOM     59  H   UNL     1       9.889  18.807  66.279  1.00  0.00     0.210 HD
ENDBRANCH  57  58
ENDBRANCH  29  57
BRANCH  48  60
ATOM     60  O   UNL     1       8.114  28.198  62.290  1.00  0.00    -0.392 OA
ATOM     61  H   UNL     1       8.028  29.073  61.832  1.00  0.00     0.210 HD
ENDBRANCH  48  60
ENDBRANCH  26  27
ENDBRANCH   6  26
BRANCH   5  62
ATOM     62  O   UNL     1      14.933  17.389  64.478  1.00  0.00    -0.385 OA
ATOM     63  H   UNL     1      15.760  17.544  63.955  1.00  0.00     0.211 HD
ENDBRANCH   5  62
TORSDOF 14
ENDMDL
