MODEL 1
REMARK VINA RESULT:     1.140      0.000      0.000
REMARK INTER + INTRA:           1.836
REMARK INTER:                   1.673
REMARK INTRA:                   0.163
REMARK UNBOUND:                 0.163
REMARK SMILES CC(C)(O)CC[C@@H](O)[C@@](C)(O)[C@H]1CC[C@]2(O)C3=CC(=O)[C@@H]4C[C@H](O)[C@H](O)C[C@]4(C)[C@H]3CC[C@]12C
REMARK SMILES IDX 6 1 7 2 9 3 10 4 12 5 34 6 33 7 32 8 15 9 31 10 17 11 14 12
REMARK SMILES IDX 13 13 30 14 18 15 28 16 19 17 21 18 27 19 29 20 20 21 22 22
REMARK SMILES IDX 25 23 23 24 16 25 26 27 24 29 11 31 8 33 5 35 2 36 1 37 3 38
REMARK SMILES IDX 4 39
REMARK H PARENT 16 26 26 28 24 30 11 32 8 34 4 40
REMARK Flexibility Score: inf
ROOT
ATOM      1  C   UNL     1     -15.392  11.962   8.488  1.00  0.00     0.038 C 
ENDROOT
BRANCH   1   2
ATOM      2  C   UNL     1     -13.848  11.781   8.535  1.00  0.00     0.146 C 
BRANCH   2   3
ATOM      3  C   UNL     1     -13.189  10.749   7.526  1.00  0.00     0.091 C 
ATOM      4  C   UNL     1     -12.130   9.901   8.302  1.00  0.00     0.045 C 
BRANCH   3   5
ATOM      5  C   UNL     1     -12.497  11.522   6.319  1.00  0.00     0.032 C 
ATOM      6  C   UNL     1     -14.760  12.929   5.897  1.00  0.00     0.015 C 
ATOM      7  C   UNL     1     -13.367  12.457   5.365  1.00  0.00     0.006 C 
ATOM      8  C   UNL     1     -12.519  13.724   5.048  1.00  0.00     0.011 C 
ATOM      9  C   UNL     1     -13.541  11.622   4.064  1.00  0.00     0.092 C 
ATOM     10  C   UNL     1     -13.172  14.636   4.008  1.00  0.00     0.009 C 
ATOM     11  C   UNL     1     -13.814  12.439   2.790  1.00  0.00    -0.031 C 
ATOM     12  C   UNL     1     -12.216  10.880   3.922  1.00  0.00     0.041 C 
ATOM     13  C   UNL     1     -11.773  10.553   5.338  1.00  0.00     0.010 C 
ATOM     14  C   UNL     1     -13.471  13.921   2.663  1.00  0.00     0.025 C 
ATOM     15  C   UNL     1     -14.212  11.781   1.688  1.00  0.00     0.050 C 
ATOM     16  C   UNL     1     -14.532  14.680   1.778  1.00  0.00    -0.013 C 
ATOM     17  C   UNL     1     -14.549  12.477   0.441  1.00  0.00     0.159 C 
ATOM     18  C   UNL     1     -14.653  13.982   0.369  1.00  0.00     0.070 C 
ATOM     19  C   UNL     1     -14.091  16.178   1.612  1.00  0.00     0.042 C 
ATOM     20  C   UNL     1     -15.941  14.639   2.441  1.00  0.00     0.013 C 
ATOM     21  O   UNL     1     -14.823  11.791  -0.581  1.00  0.00    -0.295 OA
ATOM     22  C   UNL     1     -13.643  14.555  -0.645  1.00  0.00     0.047 C 
ATOM     23  C   UNL     1     -14.556  16.788   0.283  1.00  0.00     0.143 C 
ATOM     24  C   UNL     1     -13.923  16.050  -0.930  1.00  0.00     0.143 C 
BRANCH   9  25
ATOM     25  O   UNL     1     -14.551  10.648   4.252  1.00  0.00    -0.385 OA
ATOM     26  H   UNL     1     -14.138   9.834   4.639  1.00  0.00     0.211 HD
ENDBRANCH   9  25
BRANCH  23  27
ATOM     27  O   UNL     1     -14.240  18.155   0.253  1.00  0.00    -0.390 OA
ATOM     28  H   UNL     1     -14.404  18.460  -0.675  1.00  0.00     0.211 HD
ENDBRANCH  23  27
BRANCH  24  29
ATOM     29  O   UNL     1     -12.717  16.675  -1.305  1.00  0.00    -0.390 OA
ATOM     30  H   UNL     1     -12.838  17.021  -2.229  1.00  0.00     0.211 HD
ENDBRANCH  24  29
ENDBRANCH   3   5
BRANCH   3  31
ATOM     31  O   UNL     1     -14.143   9.875   6.966  1.00  0.00    -0.387 OA
ATOM     32  H   UNL     1     -14.571  10.308   6.192  1.00  0.00     0.211 HD
ENDBRANCH   3  31
ENDBRANCH   2   3
BRANCH   2  33
ATOM     33  O   UNL     1     -13.372  11.638   9.853  1.00  0.00    -0.390 OA
ATOM     34  H   UNL     1     -12.892  10.776   9.934  1.00  0.00     0.211 HD
ENDBRANCH   2  33
ENDBRANCH   1   2
BRANCH   1  35
ATOM     35  C   UNL     1     -16.212  11.323   9.633  1.00  0.00     0.037 C 
BRANCH  35  36
ATOM     36  C   UNL     1     -17.703  11.033   9.275  1.00  0.00     0.059 C 
ATOM     37  C   UNL     1     -17.777  10.628   7.793  1.00  0.00     0.042 C 
ATOM     38  C   UNL     1     -18.281   9.875  10.125  1.00  0.00     0.042 C 
BRANCH  36  39
ATOM     39  O   UNL     1     -18.486  12.196   9.428  1.00  0.00    -0.390 OA
ATOM     40  H   UNL     1     -19.359  11.942   9.819  1.00  0.00     0.211 HD
ENDBRANCH  36  39
ENDBRANCH  35  36
ENDBRANCH   1  35
TORSDOF 11
ENDMDL
