MODEL 1
REMARK VINA RESULT:    -5.939      0.000      0.000
REMARK INTER + INTRA:          -8.157
REMARK INTER:                  -7.501
REMARK INTRA:                  -0.656
REMARK UNBOUND:                -0.656
REMARK SMILES Oc1cc(O)cc(CCc2ccccc2O)c1
REMARK SMILES IDX 9 1 10 2 12 3 13 4 11 5 14 6 15 7 16 8 8 10 7 11 6 12 17 13
REMARK SMILES IDX 4 14 2 15 3 16 5 17 1 19
REMARK H PARENT 16 9 5 18 1 20
REMARK Flexibility Score: inf
ROOT
ATOM      1  C   UNL     1      40.571  23.745  50.879  1.00  0.00     0.044 C 
ENDROOT
BRANCH   1   2
ATOM      2  C   UNL     1      41.634  24.291  51.798  1.00  0.00    -0.006 A 
ATOM      3  C   UNL     1      43.897  24.178  52.682  1.00  0.00     0.001 A 
ATOM      4  C   UNL     1      43.617  25.236  53.548  1.00  0.00     0.004 A 
ATOM      5  C   UNL     1      42.910  23.702  51.814  1.00  0.00     0.007 A 
ATOM      6  C   UNL     1      42.348  25.819  53.553  1.00  0.00     0.046 A 
ATOM      7  C   UNL     1      41.351  25.349  52.686  1.00  0.00     0.118 A 
BRANCH   7   8
ATOM      8  O   UNL     1      40.081  25.927  52.706  1.00  0.00    -0.508 OA
ATOM      9  H   UNL     1      39.714  26.374  53.539  1.00  0.00     0.293 HD
ENDBRANCH   7   8
ENDBRANCH   1   2
BRANCH   1  10
ATOM     10  C   UNL     1      40.595  22.213  50.877  1.00  0.00     0.040 C 
BRANCH  10  11
ATOM     11  C   UNL     1      39.836  21.671  52.058  1.00  0.00    -0.040 A 
ATOM     12  C   UNL     1      38.433  21.726  52.084  1.00  0.00     0.050 A 
ATOM     13  C   UNL     1      40.527  21.158  53.167  1.00  0.00     0.050 A 
ATOM     14  C   UNL     1      37.728  21.251  53.199  1.00  0.00     0.119 A 
ATOM     15  C   UNL     1      39.825  20.683  54.280  1.00  0.00     0.119 A 
ATOM     16  C   UNL     1      38.425  20.728  54.292  1.00  0.00     0.092 A 
BRANCH  14  17
ATOM     17  O   UNL     1      36.336  21.296  53.229  1.00  0.00    -0.508 OA
ATOM     18  H   UNL     1      35.776  20.906  52.479  1.00  0.00     0.293 HD
ENDBRANCH  14  17
BRANCH  15  19
ATOM     19  O   UNL     1      40.528  20.172  55.369  1.00  0.00    -0.508 OA
ATOM     20  H   UNL     1      41.304  19.532  55.245  1.00  0.00     0.293 HD
ENDBRANCH  15  19
ENDBRANCH  10  11
ENDBRANCH   1  10
TORSDOF 6
ENDMDL
MODEL 2
REMARK VINA RESULT:    -5.923      0.269      2.052
REMARK INTER + INTRA:          -8.136
REMARK INTER:                  -7.456
REMARK INTRA:                  -0.681
REMARK UNBOUND:                -0.656
REMARK SMILES Oc1cc(O)cc(CCc2ccccc2O)c1
REMARK SMILES IDX 9 1 10 2 12 3 13 4 11 5 14 6 15 7 16 8 8 10 7 11 6 12 17 13
REMARK SMILES IDX 4 14 2 15 3 16 5 17 1 19
REMARK H PARENT 16 9 5 18 1 20
REMARK Flexibility Score: inf
ROOT
ATOM      1  C   UNL     1      40.717  23.944  50.923  1.00  0.00     0.044 C 
ENDROOT
BRANCH   1   2
ATOM      2  C   UNL     1      41.674  24.515  51.939  1.00  0.00    -0.006 A 
ATOM      3  C   UNL     1      43.874  24.513  52.975  1.00  0.00     0.001 A 
ATOM      4  C   UNL     1      43.461  25.505  53.866  1.00  0.00     0.004 A 
ATOM      5  C   UNL     1      42.985  24.015  52.019  1.00  0.00     0.007 A 
ATOM      6  C   UNL     1      42.156  25.998  53.808  1.00  0.00     0.046 A 
ATOM      7  C   UNL     1      41.256  25.505  52.853  1.00  0.00     0.118 A 
BRANCH   7   8
ATOM      8  O   UNL     1      39.950  25.993  52.809  1.00  0.00    -0.508 OA
ATOM      9  H   UNL     1      39.753  26.969  52.622  1.00  0.00     0.293 HD
ENDBRANCH   7   8
ENDBRANCH   1   2
BRANCH   1  10
ATOM     10  C   UNL     1      40.783  22.414  50.922  1.00  0.00     0.040 C 
BRANCH  10  11
ATOM     11  C   UNL     1      39.988  21.849  52.068  1.00  0.00    -0.040 A 
ATOM     12  C   UNL     1      40.644  21.269  53.166  1.00  0.00     0.050 A 
ATOM     13  C   UNL     1      38.585  21.845  52.022  1.00  0.00     0.050 A 
ATOM     14  C   UNL     1      39.903  20.713  54.219  1.00  0.00     0.119 A 
ATOM     15  C   UNL     1      37.844  21.291  53.072  1.00  0.00     0.119 A 
ATOM     16  C   UNL     1      38.506  20.728  54.171  1.00  0.00     0.092 A 
BRANCH  14  17
ATOM     17  O   UNL     1      40.547  20.143  55.315  1.00  0.00    -0.508 OA
ATOM     18  H   UNL     1      40.033  19.839  56.133  1.00  0.00     0.293 HD
ENDBRANCH  14  17
BRANCH  15  19
ATOM     19  O   UNL     1      36.452  21.302  53.011  1.00  0.00    -0.508 OA
ATOM     20  H   UNL     1      35.952  21.982  52.449  1.00  0.00     0.293 HD
ENDBRANCH  15  19
ENDBRANCH  10  11
ENDBRANCH   1  10
TORSDOF 6
ENDMDL
MODEL 3
REMARK VINA RESULT:    -5.784      1.441      5.878
REMARK INTER + INTRA:          -7.961
REMARK INTER:                  -7.364
REMARK INTRA:                  -0.597
REMARK UNBOUND:                -0.656
REMARK SMILES Oc1cc(O)cc(CCc2ccccc2O)c1
REMARK SMILES IDX 9 1 10 2 12 3 13 4 11 5 14 6 15 7 16 8 8 10 7 11 6 12 17 13
REMARK SMILES IDX 4 14 2 15 3 16 5 17 1 19
REMARK H PARENT 16 9 5 18 1 20
REMARK Flexibility Score: inf
ROOT
ATOM      1  C   UNL     1      41.133  21.204  52.719  1.00  0.00     0.044 C 
ENDROOT
BRANCH   1   2
ATOM      2  C   UNL     1      39.689  20.989  53.096  1.00  0.00    -0.006 A 
ATOM      3  C   UNL     1      37.333  21.092  52.504  1.00  0.00     0.001 A 
ATOM      4  C   UNL     1      36.987  20.667  53.788  1.00  0.00     0.004 A 
ATOM      5  C   UNL     1      38.677  21.258  52.159  1.00  0.00     0.007 A 
ATOM      6  C   UNL     1      37.983  20.411  54.733  1.00  0.00     0.046 A 
ATOM      7  C   UNL     1      39.334  20.575  54.397  1.00  0.00     0.118 A 
BRANCH   7   8
ATOM      8  O   UNL     1      40.323  20.331  55.350  1.00  0.00    -0.508 OA
ATOM      9  H   UNL     1      40.950  19.538  55.275  1.00  0.00     0.293 HD
ENDBRANCH   7   8
ENDBRANCH   1   2
BRANCH   1  10
ATOM     10  C   UNL     1      41.257  22.325  51.681  1.00  0.00     0.040 C 
BRANCH  10  11
ATOM     11  C   UNL     1      41.748  23.592  52.328  1.00  0.00    -0.040 A 
ATOM     12  C   UNL     1      43.125  23.815  52.493  1.00  0.00     0.050 A 
ATOM     13  C   UNL     1      40.832  24.534  52.823  1.00  0.00     0.050 A 
ATOM     14  C   UNL     1      43.581  24.981  53.125  1.00  0.00     0.119 A 
ATOM     15  C   UNL     1      41.285  25.697  53.454  1.00  0.00     0.119 A 
ATOM     16  C   UNL     1      42.661  25.920  53.601  1.00  0.00     0.092 A 
BRANCH  14  17
ATOM     17  O   UNL     1      44.945  25.212  53.286  1.00  0.00    -0.508 OA
ATOM     18  H   UNL     1      45.554  24.523  53.712  1.00  0.00     0.293 HD
ENDBRANCH  14  17
BRANCH  15  19
ATOM     19  O   UNL     1      40.361  26.624  53.933  1.00  0.00    -0.508 OA
ATOM     20  H   UNL     1      40.120  27.453  53.403  1.00  0.00     0.293 HD
ENDBRANCH  15  19
ENDBRANCH  10  11
ENDBRANCH   1  10
TORSDOF 6
ENDMDL
MODEL 4
REMARK VINA RESULT:    -5.777      1.442      5.580
REMARK INTER + INTRA:          -7.953
REMARK INTER:                  -7.356
REMARK INTRA:                  -0.597
REMARK UNBOUND:                -0.656
REMARK SMILES Oc1cc(O)cc(CCc2ccccc2O)c1
REMARK SMILES IDX 9 1 10 2 12 3 13 4 11 5 14 6 15 7 16 8 8 10 7 11 6 12 17 13
REMARK SMILES IDX 4 14 2 15 3 16 5 17 1 19
REMARK H PARENT 16 9 5 18 1 20
REMARK Flexibility Score: inf
ROOT
ATOM      1  C   UNL     1      41.154  21.166  52.730  1.00  0.00     0.044 C 
ENDROOT
BRANCH   1   2
ATOM      2  C   UNL     1      39.707  20.963  53.099  1.00  0.00    -0.006 A 
ATOM      3  C   UNL     1      37.356  21.070  52.487  1.00  0.00     0.001 A 
ATOM      4  C   UNL     1      36.997  20.665  53.773  1.00  0.00     0.004 A 
ATOM      5  C   UNL     1      38.703  21.225  52.150  1.00  0.00     0.007 A 
ATOM      6  C   UNL     1      37.984  20.417  54.730  1.00  0.00     0.046 A 
ATOM      7  C   UNL     1      39.339  20.570  54.403  1.00  0.00     0.118 A 
BRANCH   7   8
ATOM      8  O   UNL     1      40.319  20.334  55.367  1.00  0.00    -0.508 OA
ATOM      9  H   UNL     1      40.405  20.917  56.191  1.00  0.00     0.293 HD
ENDBRANCH   7   8
ENDBRANCH   1   2
BRANCH   1  10
ATOM     10  C   UNL     1      41.298  22.304  51.715  1.00  0.00     0.040 C 
BRANCH  10  11
ATOM     11  C   UNL     1      41.761  23.564  52.395  1.00  0.00    -0.040 A 
ATOM     12  C   UNL     1      40.827  24.519  52.828  1.00  0.00     0.050 A 
ATOM     13  C   UNL     1      43.133  23.821  52.550  1.00  0.00     0.050 A 
ATOM     14  C   UNL     1      41.260  25.708  53.432  1.00  0.00     0.119 A 
ATOM     15  C   UNL     1      43.566  25.007  53.153  1.00  0.00     0.119 A 
ATOM     16  C   UNL     1      42.628  25.948  53.595  1.00  0.00     0.092 A 
BRANCH  14  17
ATOM     17  O   UNL     1      40.339  26.657  53.870  1.00  0.00    -0.508 OA
ATOM     18  H   UNL     1      40.102  27.466  53.308  1.00  0.00     0.293 HD
ENDBRANCH  14  17
BRANCH  15  19
ATOM     19  O   UNL     1      44.932  25.241  53.303  1.00  0.00    -0.508 OA
ATOM     20  H   UNL     1      45.403  25.977  52.790  1.00  0.00     0.293 HD
ENDBRANCH  15  19
ENDBRANCH  10  11
ENDBRANCH   1  10
TORSDOF 6
ENDMDL
MODEL 5
REMARK VINA RESULT:    -5.725      2.012      2.804
REMARK INTER + INTRA:          -7.887
REMARK INTER:                  -7.332
REMARK INTRA:                  -0.555
REMARK UNBOUND:                -0.656
REMARK SMILES Oc1cc(O)cc(CCc2ccccc2O)c1
REMARK SMILES IDX 9 1 10 2 12 3 13 4 11 5 14 6 15 7 16 8 8 10 7 11 6 12 17 13
REMARK SMILES IDX 4 14 2 15 3 16 5 17 1 19
REMARK H PARENT 16 9 5 18 1 20
REMARK Flexibility Score: inf
ROOT
ATOM      1  C   UNL     1      41.704  24.133  52.749  1.00  0.00     0.044 C 
ENDROOT
BRANCH   1   2
ATOM      2  C   UNL     1      41.289  25.231  53.695  1.00  0.00    -0.006 A 
ATOM      3  C   UNL     1      39.565  26.719  54.547  1.00  0.00     0.001 A 
ATOM      4  C   UNL     1      40.497  27.321  55.395  1.00  0.00     0.004 A 
ATOM      5  C   UNL     1      39.958  25.683  53.697  1.00  0.00     0.007 A 
ATOM      6  C   UNL     1      41.826  26.892  55.391  1.00  0.00     0.046 A 
ATOM      7  C   UNL     1      42.231  25.852  54.542  1.00  0.00     0.118 A 
BRANCH   7   8
ATOM      8  O   UNL     1      43.562  25.438  54.534  1.00  0.00    -0.508 OA
ATOM      9  H   UNL     1      44.105  25.378  55.387  1.00  0.00     0.293 HD
ENDBRANCH   7   8
ENDBRANCH   1   2
BRANCH   1  10
ATOM     10  C   UNL     1      40.474  23.435  52.160  1.00  0.00     0.040 C 
BRANCH  10  11
ATOM     11  C   UNL     1      40.190  22.154  52.896  1.00  0.00    -0.040 A 
ATOM     12  C   UNL     1      39.276  22.138  53.962  1.00  0.00     0.050 A 
ATOM     13  C   UNL     1      40.879  20.977  52.559  1.00  0.00     0.050 A 
ATOM     14  C   UNL     1      39.036  20.951  54.669  1.00  0.00     0.119 A 
ATOM     15  C   UNL     1      40.640  19.792  53.264  1.00  0.00     0.119 A 
ATOM     16  C   UNL     1      39.716  19.781  54.317  1.00  0.00     0.092 A 
BRANCH  14  17
ATOM     17  O   UNL     1      38.126  20.926  55.724  1.00  0.00    -0.508 OA
ATOM     18  H   UNL     1      37.356  20.268  55.744  1.00  0.00     0.293 HD
ENDBRANCH  14  17
BRANCH  15  19
ATOM     19  O   UNL     1      41.329  18.633  52.911  1.00  0.00    -0.508 OA
ATOM     20  H   UNL     1      40.877  17.884  52.400  1.00  0.00     0.293 HD
ENDBRANCH  15  19
ENDBRANCH  10  11
ENDBRANCH   1  10
TORSDOF 6
ENDMDL
MODEL 6
REMARK VINA RESULT:    -5.563      1.317      1.556
REMARK INTER + INTRA:          -7.682
REMARK INTER:                  -7.089
REMARK INTRA:                  -0.594
REMARK UNBOUND:                -0.656
REMARK SMILES Oc1cc(O)cc(CCc2ccccc2O)c1
REMARK SMILES IDX 9 1 10 2 12 3 13 4 11 5 14 6 15 7 16 8 8 10 7 11 6 12 17 13
REMARK SMILES IDX 4 14 2 15 3 16 5 17 1 19
REMARK H PARENT 16 9 5 18 1 20
REMARK Flexibility Score: inf
ROOT
ATOM      1  C   UNL     1      40.922  22.598  51.819  1.00  0.00     0.044 C 
ENDROOT
BRANCH   1   2
ATOM      2  C   UNL     1      41.671  23.741  52.455  1.00  0.00    -0.006 A 
ATOM      3  C   UNL     1      43.786  24.793  53.034  1.00  0.00     0.001 A 
ATOM      4  C   UNL     1      43.103  25.818  53.690  1.00  0.00     0.004 A 
ATOM      5  C   UNL     1      43.077  23.756  52.423  1.00  0.00     0.007 A 
ATOM      6  C   UNL     1      41.707  25.806  53.742  1.00  0.00     0.046 A 
ATOM      7  C   UNL     1      40.985  24.770  53.133  1.00  0.00     0.118 A 
BRANCH   7   8
ATOM      8  O   UNL     1      39.592  24.758  53.201  1.00  0.00    -0.508 OA
ATOM      9  H   UNL     1      39.021  24.664  52.369  1.00  0.00     0.293 HD
ENDBRANCH   7   8
ENDBRANCH   1   2
BRANCH   1  10
ATOM     10  C   UNL     1      40.925  21.373  52.738  1.00  0.00     0.040 C 
BRANCH  10  11
ATOM     11  C   UNL     1      39.535  21.080  53.235  1.00  0.00    -0.040 A 
ATOM     12  C   UNL     1      38.547  20.624  52.347  1.00  0.00     0.050 A 
ATOM     13  C   UNL     1      39.200  21.316  54.578  1.00  0.00     0.050 A 
ATOM     14  C   UNL     1      37.244  20.384  52.803  1.00  0.00     0.119 A 
ATOM     15  C   UNL     1      37.899  21.077  55.035  1.00  0.00     0.119 A 
ATOM     16  C   UNL     1      36.924  20.607  54.146  1.00  0.00     0.092 A 
BRANCH  14  17
ATOM     17  O   UNL     1      36.261  19.924  51.929  1.00  0.00    -0.508 OA
ATOM     18  H   UNL     1      35.304  20.255  51.986  1.00  0.00     0.293 HD
ENDBRANCH  14  17
BRANCH  15  19
ATOM     19  O   UNL     1      37.587  21.311  56.373  1.00  0.00    -0.508 OA
ATOM     20  H   UNL     1      38.085  20.844  57.122  1.00  0.00     0.293 HD
ENDBRANCH  15  19
ENDBRANCH  10  11
ENDBRANCH   1  10
TORSDOF 6
ENDMDL
MODEL 7
REMARK VINA RESULT:    -5.559      1.312      2.189
REMARK INTER + INTRA:          -7.678
REMARK INTER:                  -7.093
REMARK INTRA:                  -0.585
REMARK UNBOUND:                -0.656
REMARK SMILES Oc1cc(O)cc(CCc2ccccc2O)c1
REMARK SMILES IDX 9 1 10 2 12 3 13 4 11 5 14 6 15 7 16 8 8 10 7 11 6 12 17 13
REMARK SMILES IDX 4 14 2 15 3 16 5 17 1 19
REMARK H PARENT 16 9 5 18 1 20
REMARK Flexibility Score: inf
ROOT
ATOM      1  C   UNL     1      40.906  22.604  51.796  1.00  0.00     0.044 C 
ENDROOT
BRANCH   1   2
ATOM      2  C   UNL     1      41.674  23.739  52.424  1.00  0.00    -0.006 A 
ATOM      3  C   UNL     1      43.806  24.767  52.984  1.00  0.00     0.001 A 
ATOM      4  C   UNL     1      43.140  25.800  53.645  1.00  0.00     0.004 A 
ATOM      5  C   UNL     1      43.079  23.738  52.381  1.00  0.00     0.007 A 
ATOM      6  C   UNL     1      41.744  25.805  53.710  1.00  0.00     0.046 A 
ATOM      7  C   UNL     1      41.006  24.777  53.108  1.00  0.00     0.118 A 
BRANCH   7   8
ATOM      8  O   UNL     1      39.613  24.781  53.187  1.00  0.00    -0.508 OA
ATOM      9  H   UNL     1      39.052  24.074  52.725  1.00  0.00     0.293 HD
ENDBRANCH   7   8
ENDBRANCH   1   2
BRANCH   1  10
ATOM     10  C   UNL     1      40.887  21.386  52.725  1.00  0.00     0.040 C 
BRANCH  10  11
ATOM     11  C   UNL     1      39.493  21.127  53.229  1.00  0.00    -0.040 A 
ATOM     12  C   UNL     1      39.180  21.328  54.583  1.00  0.00     0.050 A 
ATOM     13  C   UNL     1      38.509  20.626  52.360  1.00  0.00     0.050 A 
ATOM     14  C   UNL     1      37.889  21.054  55.058  1.00  0.00     0.119 A 
ATOM     15  C   UNL     1      37.221  20.352  52.833  1.00  0.00     0.119 A 
ATOM     16  C   UNL     1      36.913  20.570  54.182  1.00  0.00     0.092 A 
BRANCH  14  17
ATOM     17  O   UNL     1      37.570  21.258  56.399  1.00  0.00    -0.508 OA
ATOM     18  H   UNL     1      36.936  20.640  56.893  1.00  0.00     0.293 HD
ENDBRANCH  14  17
BRANCH  15  19
ATOM     19  O   UNL     1      36.257  19.862  51.954  1.00  0.00    -0.508 OA
ATOM     20  H   UNL     1      35.846  18.944  52.078  1.00  0.00     0.293 HD
ENDBRANCH  15  19
ENDBRANCH  10  11
ENDBRANCH   1  10
TORSDOF 6
ENDMDL
MODEL 8
REMARK VINA RESULT:    -5.544      1.863      2.880
REMARK INTER + INTRA:          -7.658
REMARK INTER:                  -7.148
REMARK INTRA:                  -0.510
REMARK UNBOUND:                -0.656
REMARK SMILES Oc1cc(O)cc(CCc2ccccc2O)c1
REMARK SMILES IDX 9 1 10 2 12 3 13 4 11 5 14 6 15 7 16 8 8 10 7 11 6 12 17 13
REMARK SMILES IDX 4 14 2 15 3 16 5 17 1 19
REMARK H PARENT 16 9 5 18 1 20
REMARK Flexibility Score: inf
ROOT
ATOM      1  C   UNL     1      41.913  23.822  52.293  1.00  0.00     0.044 C 
ENDROOT
BRANCH   1   2
ATOM      2  C   UNL     1      41.716  24.941  53.283  1.00  0.00    -0.006 A 
ATOM      3  C   UNL     1      40.227  26.482  54.433  1.00  0.00     0.001 A 
ATOM      4  C   UNL     1      41.320  27.073  55.069  1.00  0.00     0.004 A 
ATOM      5  C   UNL     1      40.422  25.426  53.540  1.00  0.00     0.007 A 
ATOM      6  C   UNL     1      42.613  26.611  54.811  1.00  0.00     0.046 A 
ATOM      7  C   UNL     1      42.820  25.552  53.916  1.00  0.00     0.118 A 
BRANCH   7   8
ATOM      8  O   UNL     1      44.114  25.105  53.653  1.00  0.00    -0.508 OA
ATOM      9  H   UNL     1      44.578  25.307  52.774  1.00  0.00     0.293 HD
ENDBRANCH   7   8
ENDBRANCH   1   2
BRANCH   1  10
ATOM     10  C   UNL     1      40.567  23.197  51.912  1.00  0.00     0.040 C 
BRANCH  10  11
ATOM     11  C   UNL     1      40.293  21.978  52.751  1.00  0.00    -0.040 A 
ATOM     12  C   UNL     1      40.904  20.753  52.440  1.00  0.00     0.050 A 
ATOM     13  C   UNL     1      39.380  22.044  53.816  1.00  0.00     0.050 A 
ATOM     14  C   UNL     1      40.623  19.610  53.202  1.00  0.00     0.119 A 
ATOM     15  C   UNL     1      39.098  20.904  54.577  1.00  0.00     0.119 A 
ATOM     16  C   UNL     1      39.723  19.688  54.270  1.00  0.00     0.092 A 
BRANCH  14  17
ATOM     17  O   UNL     1      41.231  18.392  52.904  1.00  0.00    -0.508 OA
ATOM     18  H   UNL     1      40.686  17.560  52.710  1.00  0.00     0.293 HD
ENDBRANCH  14  17
BRANCH  15  19
ATOM     19  O   UNL     1      38.194  20.990  55.634  1.00  0.00    -0.508 OA
ATOM     20  H   UNL     1      38.078  20.230  56.294  1.00  0.00     0.293 HD
ENDBRANCH  15  19
ENDBRANCH  10  11
ENDBRANCH   1  10
TORSDOF 6
ENDMDL
MODEL 9
REMARK VINA RESULT:    -5.465      1.576      1.790
REMARK INTER + INTRA:          -7.559
REMARK INTER:                  -7.046
REMARK INTRA:                  -0.513
REMARK UNBOUND:                -0.656
REMARK SMILES Oc1cc(O)cc(CCc2ccccc2O)c1
REMARK SMILES IDX 9 1 10 2 12 3 13 4 11 5 14 6 15 7 16 8 8 10 7 11 6 12 17 13
REMARK SMILES IDX 4 14 2 15 3 16 5 17 1 19
REMARK H PARENT 16 9 5 18 1 20
REMARK Flexibility Score: inf
ROOT
ATOM      1  C   UNL     1      40.855  23.292  51.825  1.00  0.00     0.044 C 
ENDROOT
BRANCH   1   2
ATOM      2  C   UNL     1      41.927  24.340  51.992  1.00  0.00    -0.006 A 
ATOM      3  C   UNL     1      44.168  24.944  52.718  1.00  0.00     0.001 A 
ATOM      4  C   UNL     1      43.922  26.277  52.383  1.00  0.00     0.004 A 
ATOM      5  C   UNL     1      43.175  23.979  52.529  1.00  0.00     0.007 A 
ATOM      6  C   UNL     1      42.680  26.650  51.863  1.00  0.00     0.046 A 
ATOM      7  C   UNL     1      41.677  25.690  51.670  1.00  0.00     0.118 A 
BRANCH   7   8
ATOM      8  O   UNL     1      40.435  26.072  51.163  1.00  0.00    -0.508 OA
ATOM      9  H   UNL     1      39.610  25.499  51.290  1.00  0.00     0.293 HD
ENDBRANCH   7   8
ENDBRANCH   1   2
BRANCH   1  10
ATOM     10  C   UNL     1      40.021  23.165  53.104  1.00  0.00     0.040 C 
BRANCH  10  11
ATOM     11  C   UNL     1      39.773  21.718  53.432  1.00  0.00    -0.040 A 
ATOM     12  C   UNL     1      38.669  21.349  54.218  1.00  0.00     0.050 A 
ATOM     13  C   UNL     1      40.675  20.731  53.003  1.00  0.00     0.050 A 
ATOM     14  C   UNL     1      38.457  20.004  54.551  1.00  0.00     0.119 A 
ATOM     15  C   UNL     1      40.465  19.388  53.335  1.00  0.00     0.119 A 
ATOM     16  C   UNL     1      39.353  19.027  54.107  1.00  0.00     0.092 A 
BRANCH  14  17
ATOM     17  O   UNL     1      37.360  19.630  55.324  1.00  0.00    -0.508 OA
ATOM     18  H   UNL     1      37.243  18.679  55.655  1.00  0.00     0.293 HD
ENDBRANCH  14  17
BRANCH  15  19
ATOM     19  O   UNL     1      41.368  18.422  52.895  1.00  0.00    -0.508 OA
ATOM     20  H   UNL     1      41.634  17.640  53.482  1.00  0.00     0.293 HD
ENDBRANCH  15  19
ENDBRANCH  10  11
ENDBRANCH   1  10
TORSDOF 6
ENDMDL
