MODEL 1
REMARK VINA RESULT:    -2.403      0.000      0.000
REMARK INTER + INTRA:          -2.728
REMARK INTER:                  -2.543
REMARK INTRA:                  -0.185
REMARK UNBOUND:                -0.185
REMARK SMILES CC1=CC[C@@]23[C@H]([C@@H]12)[C@H](C(C)C)CC[C@@H]3C
REMARK SMILES IDX 15 1 14 2 13 3 12 4 8 5 6 6 5 7 7 8 2 9 3 10 4 11 1 12 9 13
REMARK SMILES IDX 10 14 11 15
REMARK H PARENT
REMARK Flexibility Score: inf
ROOT
ATOM      1  C   UNL     1       3.330   4.875  11.617  1.00  0.00     0.008 C 
ATOM      2  C   UNL     1       3.973   5.635  12.784  1.00  0.00    -0.007 C 
ATOM      3  C   UNL     1       5.229   4.877  13.339  1.00  0.00     0.004 C 
ATOM      4  C   UNL     1       6.573   5.639  13.146  1.00  0.00     0.004 C 
ATOM      5  C   UNL     1       6.518   7.126  13.644  1.00  0.00    -0.004 C 
ATOM      6  C   UNL     1       5.054   7.647  13.702  1.00  0.00     0.007 C 
ATOM      7  C   UNL     1       4.362   7.084  12.406  1.00  0.00    -0.013 C 
ATOM      8  C   UNL     1       3.956   8.414  12.982  1.00  0.00     0.025 C 
ATOM      9  C   UNL     1       4.391   9.429  11.984  1.00  0.00    -0.073 C 
ATOM     10  C   UNL     1       4.890   8.883  10.889  1.00  0.00    -0.027 C 
ATOM     11  C   UNL     1       4.887   7.401  10.977  1.00  0.00     0.035 C 
ATOM     12  C   UNL     1       4.233  10.907  12.174  1.00  0.00     0.039 C 
ENDROOT
BRANCH   5  13
ATOM     13  C   UNL     1       7.547   8.093  12.985  1.00  0.00    -0.014 C 
ATOM     14  C   UNL     1       8.737   8.352  13.924  1.00  0.00     0.007 C 
ATOM     15  C   UNL     1       8.079   7.531  11.654  1.00  0.00     0.007 C 
ENDBRANCH   5  13
TORSDOF 1
ENDMDL
MODEL 2
REMARK VINA RESULT:    -1.895      3.164      6.413
REMARK INTER + INTRA:          -2.191
REMARK INTER:                  -1.715
REMARK INTRA:                  -0.476
REMARK UNBOUND:                -0.185
REMARK SMILES CC1=CC[C@@]23[C@H]([C@@H]12)[C@H](C(C)C)CC[C@@H]3C
REMARK SMILES IDX 15 1 14 2 13 3 12 4 8 5 6 6 5 7 7 8 2 9 3 10 4 11 1 12 9 13
REMARK SMILES IDX 10 14 11 15
REMARK H PARENT
REMARK Flexibility Score: inf
ROOT
ATOM      1  C   UNL     1       5.420   9.586  12.436  1.00  0.00     0.008 C 
ATOM      2  C   UNL     1       4.484  10.314  11.464  1.00  0.00    -0.007 C 
ATOM      3  C   UNL     1       3.198   9.467  11.163  1.00  0.00     0.004 C 
ATOM      4  C   UNL     1       1.874  10.113  11.669  1.00  0.00     0.004 C 
ATOM      5  C   UNL     1       1.708  11.610  11.228  1.00  0.00    -0.004 C 
ATOM      6  C   UNL     1       3.081  12.250  10.876  1.00  0.00     0.007 C 
ATOM      7  C   UNL     1       4.078  11.718  11.972  1.00  0.00    -0.013 C 
ATOM      8  C   UNL     1       4.248  13.088  11.372  1.00  0.00     0.025 C 
ATOM      9  C   UNL     1       3.965  14.044  12.477  1.00  0.00    -0.073 C 
ATOM     10  C   UNL     1       3.759  13.437  13.632  1.00  0.00    -0.027 C 
ATOM     11  C   UNL     1       3.854  11.962  13.490  1.00  0.00     0.035 C 
ATOM     12  C   UNL     1       3.966  15.533  12.314  1.00  0.00     0.039 C 
ENDROOT
BRANCH   5  13
ATOM     13  C   UNL     1       0.777  12.475  12.129  1.00  0.00    -0.014 C 
ATOM     14  C   UNL     1      -0.113  13.395  11.275  1.00  0.00     0.007 C 
ATOM     15  C   UNL     1      -0.124  11.600  13.018  1.00  0.00     0.007 C 
ENDBRANCH   5  13
TORSDOF 1
ENDMDL
MODEL 3
REMARK VINA RESULT:    -1.691      3.124      6.082
REMARK INTER + INTRA:          -1.975
REMARK INTER:                  -2.395
REMARK INTRA:                   0.420
REMARK UNBOUND:                -0.185
REMARK SMILES CC1=CC[C@@]23[C@H]([C@@H]12)[C@H](C(C)C)CC[C@@H]3C
REMARK SMILES IDX 15 1 14 2 13 3 12 4 8 5 6 6 5 7 7 8 2 9 3 10 4 11 1 12 9 13
REMARK SMILES IDX 10 14 11 15
REMARK H PARENT
REMARK Flexibility Score: inf
ROOT
ATOM      1  C   UNL     1      -0.125  13.652  10.879  1.00  0.00     0.008 C 
ATOM      2  C   UNL     1       0.265  12.484  11.794  1.00  0.00    -0.007 C 
ATOM      3  C   UNL     1       0.205  11.114  11.031  1.00  0.00     0.004 C 
ATOM      4  C   UNL     1       1.585  10.409  10.876  1.00  0.00     0.004 C 
ATOM      5  C   UNL     1       2.378  10.296  12.225  1.00  0.00    -0.004 C 
ATOM      6  C   UNL     1       1.886  11.350  13.258  1.00  0.00     0.007 C 
ATOM      7  C   UNL     1       1.663  12.669  12.429  1.00  0.00    -0.013 C 
ATOM      8  C   UNL     1       2.112  12.726  13.864  1.00  0.00     0.025 C 
ATOM      9  C   UNL     1       3.503  13.256  13.825  1.00  0.00    -0.073 C 
ATOM     10  C   UNL     1       3.879  13.602  12.607  1.00  0.00    -0.027 C 
ATOM     11  C   UNL     1       2.803  13.346  11.617  1.00  0.00     0.035 C 
ATOM     12  C   UNL     1       4.364  13.429  15.038  1.00  0.00     0.039 C 
ENDROOT
BRANCH   5  13
ATOM     13  C   UNL     1       3.924  10.166  12.086  1.00  0.00    -0.014 C 
ATOM     14  C   UNL     1       4.338   8.695  11.913  1.00  0.00     0.007 C 
ATOM     15  C   UNL     1       4.454  10.975  10.889  1.00  0.00     0.007 C 
ENDBRANCH   5  13
TORSDOF 1
ENDMDL
MODEL 4
REMARK VINA RESULT:     0.356      2.851      5.821
REMARK INTER + INTRA:           0.192
REMARK INTER:                   0.652
REMARK INTRA:                  -0.460
REMARK UNBOUND:                -0.185
REMARK SMILES CC1=CC[C@@]23[C@H]([C@@H]12)[C@H](C(C)C)CC[C@@H]3C
REMARK SMILES IDX 15 1 14 2 13 3 12 4 8 5 6 6 5 7 7 8 2 9 3 10 4 11 1 12 9 13
REMARK SMILES IDX 10 14 11 15
REMARK H PARENT
REMARK Flexibility Score: inf
ROOT
ATOM      1  C   UNL     1      -0.125  10.034  11.273  1.00  0.00     0.008 C 
ATOM      2  C   UNL     1       1.047  10.940  10.878  1.00  0.00    -0.007 C 
ATOM      3  C   UNL     1       0.742  12.445  11.198  1.00  0.00     0.004 C 
ATOM      4  C   UNL     1       1.667  13.068  12.285  1.00  0.00     0.004 C 
ATOM      5  C   UNL     1       3.193  12.824  12.013  1.00  0.00    -0.004 C 
ATOM      6  C   UNL     1       3.410  11.606  11.070  1.00  0.00     0.007 C 
ATOM      7  C   UNL     1       2.375  10.521  11.551  1.00  0.00    -0.013 C 
ATOM      8  C   UNL     1       3.706  10.117  10.978  1.00  0.00     0.025 C 
ATOM      9  C   UNL     1       4.461   9.512  12.109  1.00  0.00    -0.073 C 
ATOM     10  C   UNL     1       3.735   9.418  13.209  1.00  0.00    -0.027 C 
ATOM     11  C   UNL     1       2.369   9.962  13.002  1.00  0.00     0.035 C 
ATOM     12  C   UNL     1       5.869   9.015  12.002  1.00  0.00     0.039 C 
ENDROOT
BRANCH   5  13
ATOM     13  C   UNL     1       4.115  12.871  13.268  1.00  0.00    -0.014 C 
ATOM     14  C   UNL     1       5.199  13.951  13.112  1.00  0.00     0.007 C 
ATOM     15  C   UNL     1       3.311  13.157  14.549  1.00  0.00     0.007 C 
ENDBRANCH   5  13
TORSDOF 1
ENDMDL
MODEL 5
REMARK VINA RESULT:     0.547      1.058      3.955
REMARK INTER + INTRA:           0.394
REMARK INTER:                   0.913
REMARK INTRA:                  -0.519
REMARK UNBOUND:                -0.185
REMARK SMILES CC1=CC[C@@]23[C@H]([C@@H]12)[C@H](C(C)C)CC[C@@H]3C
REMARK SMILES IDX 15 1 14 2 13 3 12 4 8 5 6 6 5 7 7 8 2 9 3 10 4 11 1 12 9 13
REMARK SMILES IDX 10 14 11 15
REMARK H PARENT
REMARK Flexibility Score: inf
ROOT
ATOM      1  C   UNL     1       4.369  10.999  11.175  1.00  0.00     0.008 C 
ATOM      2  C   UNL     1       4.497  10.092  12.405  1.00  0.00    -0.007 C 
ATOM      3  C   UNL     1       3.158   9.328  12.695  1.00  0.00     0.004 C 
ATOM      4  C   UNL     1       3.256   7.782  12.535  1.00  0.00     0.004 C 
ATOM      5  C   UNL     1       4.469   7.156  13.310  1.00  0.00    -0.004 C 
ATOM      6  C   UNL     1       5.568   8.220  13.592  1.00  0.00     0.007 C 
ATOM      7  C   UNL     1       5.660   9.080  12.277  1.00  0.00    -0.013 C 
ATOM      8  C   UNL     1       6.877   8.838  13.128  1.00  0.00     0.025 C 
ATOM      9  C   UNL     1       7.772   7.977  12.309  1.00  0.00    -0.073 C 
ATOM     10  C   UNL     1       7.302   7.772  11.091  1.00  0.00    -0.027 C 
ATOM     11  C   UNL     1       5.998   8.453  10.895  1.00  0.00     0.035 C 
ATOM     12  C   UNL     1       9.087   7.443  12.789  1.00  0.00     0.039 C 
ENDROOT
BRANCH   5  13
ATOM     13  C   UNL     1       4.984   5.792  12.760  1.00  0.00    -0.014 C 
ATOM     14  C   UNL     1       5.837   5.063  13.812  1.00  0.00     0.007 C 
ATOM     15  C   UNL     1       3.821   4.875  12.342  1.00  0.00     0.007 C 
ENDBRANCH   5  13
TORSDOF 1
ENDMDL
