MODEL 1
REMARK VINA RESULT:    -4.355      0.000      0.000
REMARK INTER + INTRA:          -5.164
REMARK INTER:                  -4.865
REMARK INTRA:                  -0.300
REMARK UNBOUND:                -0.300
REMARK SMILES CC=C(C)C=CC=C(C)C
REMARK SMILES IDX 5 1 6 2 3 3 1 4 2 5 4 6 7 7 8 8 9 9 10 10
REMARK H PARENT
REMARK Flexibility Score: inf
ROOT
ATOM      1  C   UNL     1      -1.011   1.245  13.996  1.00  0.00     0.003 C 
ATOM      2  C   UNL     1      -1.949   2.101  14.425  1.00  0.00     0.000 C 
ENDROOT
BRANCH   1   3
ATOM      3  C   UNL     1      -1.327  -0.035  13.299  1.00  0.00    -0.055 C 
ATOM      4  C   UNL     1      -1.148   1.060  11.041  1.00  0.00     0.036 C 
ATOM      5  C   UNL     1      -1.388  -0.105  11.954  1.00  0.00    -0.027 C 
ATOM      6  C   UNL     1      -1.610  -1.284  14.100  1.00  0.00     0.044 C 
ENDBRANCH   1   3
BRANCH   2   7
ATOM      7  C   UNL     1      -1.569   3.355  15.110  1.00  0.00    -0.001 C 
ATOM      8  C   UNL     1      -1.193   4.477  14.469  1.00  0.00    -0.076 C 
ATOM      9  C   UNL     1      -1.125   4.553  12.965  1.00  0.00     0.039 C 
ATOM     10  C   UNL     1      -0.831   5.686  15.288  1.00  0.00     0.039 C 
ENDBRANCH   2   7
TORSDOF 2
ENDMDL
MODEL 2
REMARK VINA RESULT:    -4.344      1.969      3.410
REMARK INTER + INTRA:          -5.152
REMARK INTER:                  -4.840
REMARK INTRA:                  -0.312
REMARK UNBOUND:                -0.300
REMARK SMILES CC=C(C)C=CC=C(C)C
REMARK SMILES IDX 5 1 6 2 3 3 1 4 2 5 4 6 7 7 8 8 9 9 10 10
REMARK H PARENT
REMARK Flexibility Score: inf
ROOT
ATOM      1  C   UNL     1      -1.032   2.089  12.811  1.00  0.00     0.003 C 
ATOM      2  C   UNL     1      -1.213   2.340  11.507  1.00  0.00     0.000 C 
ENDROOT
BRANCH   1   3
ATOM      3  C   UNL     1      -1.609   0.900  13.504  1.00  0.00    -0.055 C 
ATOM      4  C   UNL     1      -2.869   2.358  15.122  1.00  0.00     0.036 C 
ATOM      5  C   UNL     1      -2.441   1.037  14.556  1.00  0.00    -0.027 C 
ATOM      6  C   UNL     1      -1.246  -0.493  13.047  1.00  0.00     0.044 C 
ENDBRANCH   1   3
BRANCH   2   7
ATOM      7  C   UNL     1      -0.614   3.537  10.880  1.00  0.00    -0.001 C 
ATOM      8  C   UNL     1      -1.318   4.625  10.515  1.00  0.00    -0.076 C 
ATOM      9  C   UNL     1      -2.809   4.718  10.720  1.00  0.00     0.039 C 
ATOM     10  C   UNL     1      -0.585   5.778   9.885  1.00  0.00     0.039 C 
ENDBRANCH   2   7
TORSDOF 2
ENDMDL
MODEL 3
REMARK VINA RESULT:    -4.307      0.827      4.575
REMARK INTER + INTRA:          -5.110
REMARK INTER:                  -4.858
REMARK INTRA:                  -0.252
REMARK UNBOUND:                -0.300
REMARK SMILES CC=C(C)C=CC=C(C)C
REMARK SMILES IDX 5 1 6 2 3 3 1 4 2 5 4 6 7 7 8 8 9 9 10 10
REMARK H PARENT
REMARK Flexibility Score: inf
ROOT
ATOM      1  C   UNL     1      -0.829   2.827  14.172  1.00  0.00     0.003 C 
ATOM      2  C   UNL     1      -1.912   2.056  14.337  1.00  0.00     0.000 C 
ENDROOT
BRANCH   1   3
ATOM      3  C   UNL     1      -0.896   4.304  13.969  1.00  0.00    -0.055 C 
ATOM      4  C   UNL     1      -1.006   4.033  11.470  1.00  0.00     0.036 C 
ATOM      5  C   UNL     1      -0.974   4.839  12.734  1.00  0.00    -0.027 C 
ATOM      6  C   UNL     1      -0.855   5.234  15.158  1.00  0.00     0.044 C 
ENDBRANCH   1   3
BRANCH   2   7
ATOM      7  C   UNL     1      -1.777   0.597  14.534  1.00  0.00    -0.001 C 
ATOM      8  C   UNL     1      -1.513  -0.273  13.541  1.00  0.00    -0.076 C 
ATOM      9  C   UNL     1      -1.327   0.175  12.114  1.00  0.00     0.039 C 
ATOM     10  C   UNL     1      -1.400  -1.735  13.878  1.00  0.00     0.039 C 
ENDBRANCH   2   7
TORSDOF 2
ENDMDL
MODEL 4
REMARK VINA RESULT:    -4.234      1.240      4.683
REMARK INTER + INTRA:          -5.028
REMARK INTER:                  -4.674
REMARK INTRA:                  -0.355
REMARK UNBOUND:                -0.300
REMARK SMILES CC=C(C)C=CC=C(C)C
REMARK SMILES IDX 5 1 6 2 3 3 1 4 2 5 4 6 7 7 8 8 9 9 10 10
REMARK H PARENT
REMARK Flexibility Score: inf
ROOT
ATOM      1  C   UNL     1      -2.043   3.528  13.652  1.00  0.00     0.003 C 
ATOM      2  C   UNL     1      -1.065   2.647  13.900  1.00  0.00     0.000 C 
ENDROOT
BRANCH   1   3
ATOM      3  C   UNL     1      -1.791   4.927  13.197  1.00  0.00    -0.055 C 
ATOM      4  C   UNL     1      -2.536   4.382  10.856  1.00  0.00     0.036 C 
ATOM      5  C   UNL     1      -2.017   5.301  11.922  1.00  0.00    -0.027 C 
ATOM      6  C   UNL     1      -1.249   5.952  14.165  1.00  0.00     0.044 C 
ENDBRANCH   1   3
BRANCH   2   7
ATOM      7  C   UNL     1      -1.382   1.275  14.350  1.00  0.00    -0.001 C 
ATOM      8  C   UNL     1      -1.441   0.210  13.528  1.00  0.00    -0.076 C 
ATOM      9  C   UNL     1      -1.182   0.328  12.048  1.00  0.00     0.039 C 
ATOM     10  C   UNL     1      -1.775  -1.134  14.116  1.00  0.00     0.039 C 
ENDBRANCH   2   7
TORSDOF 2
ENDMDL
MODEL 5
REMARK VINA RESULT:    -4.210      1.635      4.974
REMARK INTER + INTRA:          -5.002
REMARK INTER:                  -4.718
REMARK INTRA:                  -0.284
REMARK UNBOUND:                -0.300
REMARK SMILES CC=C(C)C=CC=C(C)C
REMARK SMILES IDX 5 1 6 2 3 3 1 4 2 5 4 6 7 7 8 8 9 9 10 10
REMARK H PARENT
REMARK Flexibility Score: inf
ROOT
ATOM      1  C   UNL     1      -0.138   2.713  12.396  1.00  0.00     0.003 C 
ATOM      2  C   UNL     1      -1.119   1.845  12.115  1.00  0.00     0.000 C 
ENDROOT
BRANCH   1   3
ATOM      3  C   UNL     1      -0.177   4.151  12.001  1.00  0.00    -0.055 C 
ATOM      4  C   UNL     1       0.951   4.850  14.138  1.00  0.00     0.036 C 
ATOM      5  C   UNL     1       0.320   5.113  12.804  1.00  0.00    -0.027 C 
ATOM      6  C   UNL     1      -0.803   4.559  10.688  1.00  0.00     0.044 C 
ENDBRANCH   1   3
BRANCH   2   7
ATOM      7  C   UNL     1      -1.019   0.431  12.535  1.00  0.00    -0.001 C 
ATOM      8  C   UNL     1      -1.609  -0.069  13.637  1.00  0.00    -0.076 C 
ATOM      9  C   UNL     1      -2.441   0.789  14.556  1.00  0.00     0.039 C 
ATOM     10  C   UNL     1      -1.427  -1.529  13.950  1.00  0.00     0.039 C 
ENDBRANCH   2   7
TORSDOF 2
ENDMDL
MODEL 6
REMARK VINA RESULT:    -4.163      2.284      5.106
REMARK INTER + INTRA:          -4.950
REMARK INTER:                  -4.666
REMARK INTRA:                  -0.284
REMARK UNBOUND:                -0.300
REMARK SMILES CC=C(C)C=CC=C(C)C
REMARK SMILES IDX 5 1 6 2 3 3 1 4 2 5 4 6 7 7 8 8 9 9 10 10
REMARK H PARENT
REMARK Flexibility Score: inf
ROOT
ATOM      1  C   UNL     1      -1.873   3.199  10.913  1.00  0.00     0.003 C 
ATOM      2  C   UNL     1      -0.863   2.562  11.520  1.00  0.00     0.000 C 
ENDROOT
BRANCH   1   3
ATOM      3  C   UNL     1      -1.826   4.644  10.543  1.00  0.00    -0.055 C 
ATOM      4  C   UNL     1      -4.330   4.748  10.321  1.00  0.00     0.036 C 
ATOM      5  C   UNL     1      -2.951   5.336  10.274  1.00  0.00    -0.027 C 
ATOM      6  C   UNL     1      -0.498   5.357  10.441  1.00  0.00     0.044 C 
ENDBRANCH   1   3
BRANCH   2   7
ATOM      7  C   UNL     1      -0.972   1.127  11.861  1.00  0.00    -0.001 C 
ATOM      8  C   UNL     1      -1.219   0.668  13.103  1.00  0.00    -0.076 C 
ATOM      9  C   UNL     1      -1.409   1.596  14.275  1.00  0.00     0.039 C 
ATOM     10  C   UNL     1      -1.306  -0.820  13.314  1.00  0.00     0.039 C 
ENDBRANCH   2   7
TORSDOF 2
ENDMDL
MODEL 7
REMARK VINA RESULT:    -3.920      3.326      4.756
REMARK INTER + INTRA:          -4.678
REMARK INTER:                  -4.421
REMARK INTRA:                  -0.257
REMARK UNBOUND:                -0.300
REMARK SMILES CC=C(C)C=CC=C(C)C
REMARK SMILES IDX 5 1 6 2 3 3 1 4 2 5 4 6 7 7 8 8 9 9 10 10
REMARK H PARENT
REMARK Flexibility Score: inf
ROOT
ATOM      1  C   UNL     1      -1.784   3.523  10.996  1.00  0.00     0.003 C 
ATOM      2  C   UNL     1      -2.713   4.455  11.251  1.00  0.00     0.000 C 
ENDROOT
BRANCH   1   3
ATOM      3  C   UNL     1      -0.666   3.204  11.931  1.00  0.00    -0.055 C 
ATOM      4  C   UNL     1      -0.992   0.731  11.599  1.00  0.00     0.036 C 
ATOM      5  C   UNL     1      -0.317   1.929  12.198  1.00  0.00    -0.027 C 
ATOM      6  C   UNL     1       0.088   4.318  12.618  1.00  0.00     0.044 C 
ENDBRANCH   1   3
BRANCH   2   7
ATOM      7  C   UNL     1      -3.797   4.724  10.282  1.00  0.00    -0.001 C 
ATOM      8  C   UNL     1      -5.027   5.145  10.631  1.00  0.00    -0.076 C 
ATOM      9  C   UNL     1      -5.413   5.383  12.068  1.00  0.00     0.039 C 
ATOM     10  C   UNL     1      -6.040   5.383   9.543  1.00  0.00     0.039 C 
ENDBRANCH   2   7
TORSDOF 2
ENDMDL
MODEL 8
REMARK VINA RESULT:    -3.901      2.045      3.482
REMARK INTER + INTRA:          -4.656
REMARK INTER:                  -4.346
REMARK INTRA:                  -0.310
REMARK UNBOUND:                -0.300
REMARK SMILES CC=C(C)C=CC=C(C)C
REMARK SMILES IDX 5 1 6 2 3 3 1 4 2 5 4 6 7 7 8 8 9 9 10 10
REMARK H PARENT
REMARK Flexibility Score: inf
ROOT
ATOM      1  C   UNL     1      -0.803   2.772  12.677  1.00  0.00     0.003 C 
ATOM      2  C   UNL     1      -1.521   3.563  11.868  1.00  0.00     0.000 C 
ENDROOT
BRANCH   1   3
ATOM      3  C   UNL     1      -1.388   2.042  13.839  1.00  0.00    -0.055 C 
ATOM      4  C   UNL     1      -1.309  -0.148  12.603  1.00  0.00     0.036 C 
ATOM      5  C   UNL     1      -1.615   0.714  13.792  1.00  0.00    -0.027 C 
ATOM      6  C   UNL     1      -1.761   2.793  15.096  1.00  0.00     0.044 C 
ENDBRANCH   1   3
BRANCH   2   7
ATOM      7  C   UNL     1      -0.880   4.260  10.732  1.00  0.00    -0.001 C 
ATOM      8  C   UNL     1      -0.833   5.599  10.604  1.00  0.00    -0.076 C 
ATOM      9  C   UNL     1      -1.441   6.522  11.629  1.00  0.00     0.039 C 
ATOM     10  C   UNL     1      -0.149   6.181   9.396  1.00  0.00     0.039 C 
ENDBRANCH   2   7
TORSDOF 2
ENDMDL
MODEL 9
REMARK VINA RESULT:    -3.885      9.943     11.857
REMARK INTER + INTRA:          -4.640
REMARK INTER:                  -4.388
REMARK INTRA:                  -0.252
REMARK UNBOUND:                -0.300
REMARK SMILES CC=C(C)C=CC=C(C)C
REMARK SMILES IDX 5 1 6 2 3 3 1 4 2 5 4 6 7 7 8 8 9 9 10 10
REMARK H PARENT
REMARK Flexibility Score: inf
ROOT
ATOM      1  C   UNL     1      -1.104  -9.901  11.707  1.00  0.00     0.003 C 
ATOM      2  C   UNL     1      -0.946  -9.350  12.918  1.00  0.00     0.000 C 
ENDROOT
BRANCH   1   3
ATOM      3  C   UNL     1      -0.229  -9.584  10.542  1.00  0.00    -0.055 C 
ATOM      4  C   UNL     1      -2.045 -10.194   8.912  1.00  0.00     0.036 C 
ATOM      5  C   UNL     1      -0.669  -9.724   9.275  1.00  0.00    -0.027 C 
ATOM      6  C   UNL     1       1.191  -9.117  10.766  1.00  0.00     0.044 C 
ENDBRANCH   1   3
BRANCH   2   7
ATOM      7  C   UNL     1      -1.850  -9.707  14.033  1.00  0.00    -0.001 C 
ATOM      8  C   UNL     1      -2.258  -8.837  14.976  1.00  0.00    -0.076 C 
ATOM      9  C   UNL     1      -1.821  -7.394  14.975  1.00  0.00     0.039 C 
ATOM     10  C   UNL     1      -3.180  -9.330  16.058  1.00  0.00     0.039 C 
ENDBRANCH   2   7
TORSDOF 2
ENDMDL
