MODEL 1
REMARK VINA RESULT:    -4.727      0.000      0.000
REMARK INTER + INTRA:          -7.421
REMARK INTER:                  -6.937
REMARK INTRA:                  -0.483
REMARK UNBOUND:                -0.483
REMARK SMILES CCCOC(=O)c1ccccc1C(=O)OCCC
REMARK SMILES IDX 7 1 8 2 9 3 10 4 11 5 12 6 5 7 6 8 4 9 3 10 2 11 1 12 13 13
REMARK SMILES IDX 14 14 15 15 16 16 17 17 18 18
REMARK H PARENT
REMARK Flexibility Score: inf
ROOT
ATOM      1  C   UNL     1      25.505  38.137  20.578  1.00  0.00     0.074 A 
ATOM      2  C   UNL     1      25.907  39.443  20.918  1.00  0.00     0.016 A 
ATOM      3  C   UNL     1      26.741  40.174  20.070  1.00  0.00     0.001 A 
ATOM      4  C   UNL     1      27.184  39.616  18.873  1.00  0.00     0.001 A 
ATOM      5  C   UNL     1      26.814  38.316  18.528  1.00  0.00     0.016 A 
ATOM      6  C   UNL     1      25.995  37.554  19.378  1.00  0.00     0.074 A 
ENDROOT
BRANCH   1   7
ATOM      7  C   UNL     1      24.522  37.454  21.452  1.00  0.00     0.339 C 
ATOM      8  O   UNL     1      23.289  37.675  21.301  1.00  0.00    -0.246 OA
BRANCH   7   9
ATOM      9  O   UNL     1      24.961  36.533  22.413  1.00  0.00    -0.462 OA
BRANCH   9  10
ATOM     10  C   UNL     1      26.327  36.374  22.786  1.00  0.00     0.233 C 
BRANCH  10  11
ATOM     11  C   UNL     1      26.439  35.524  24.054  1.00  0.00     0.038 C 
ATOM     12  C   UNL     1      27.578  34.514  23.943  1.00  0.00     0.007 C 
ENDBRANCH  10  11
ENDBRANCH   9  10
ENDBRANCH   7   9
ENDBRANCH   1   7
BRANCH   6  13
ATOM     13  C   UNL     1      25.728  36.148  19.008  1.00  0.00     0.339 C 
ATOM     14  O   UNL     1      24.547  35.767  18.776  1.00  0.00    -0.246 OA
BRANCH  13  15
ATOM     15  O   UNL     1      26.787  35.233  18.965  1.00  0.00    -0.462 OA
BRANCH  15  16
ATOM     16  C   UNL     1      27.820  35.186  19.946  1.00  0.00     0.233 C 
BRANCH  16  17
ATOM     17  C   UNL     1      28.751  33.998  19.686  1.00  0.00     0.038 C 
ATOM     18  C   UNL     1      29.092  33.268  20.981  1.00  0.00     0.007 C 
ENDBRANCH  16  17
ENDBRANCH  15  16
ENDBRANCH  13  15
ENDBRANCH   6  13
TORSDOF 8
ENDMDL
MODEL 2
REMARK VINA RESULT:    -4.623      2.647      5.556
REMARK INTER + INTRA:          -7.268
REMARK INTER:                  -6.393
REMARK INTRA:                  -0.875
REMARK UNBOUND:                -0.483
REMARK SMILES CCCOC(=O)c1ccccc1C(=O)OCCC
REMARK SMILES IDX 7 1 8 2 9 3 10 4 11 5 12 6 5 7 6 8 4 9 3 10 2 11 1 12 13 13
REMARK SMILES IDX 14 14 15 15 16 16 17 17 18 18
REMARK H PARENT
REMARK Flexibility Score: inf
ROOT
ATOM      1  C   UNL     1      26.054  38.173  20.111  1.00  0.00     0.074 A 
ATOM      2  C   UNL     1      25.225  37.037  20.175  1.00  0.00     0.016 A 
ATOM      3  C   UNL     1      24.059  37.048  20.940  1.00  0.00     0.001 A 
ATOM      4  C   UNL     1      23.699  38.192  21.651  1.00  0.00     0.001 A 
ATOM      5  C   UNL     1      24.517  39.321  21.617  1.00  0.00     0.016 A 
ATOM      6  C   UNL     1      25.708  39.323  20.873  1.00  0.00     0.074 A 
ENDROOT
BRANCH   1   7
ATOM      7  C   UNL     1      27.212  38.149  19.187  1.00  0.00     0.339 C 
ATOM      8  O   UNL     1      27.065  38.512  17.988  1.00  0.00    -0.246 OA
BRANCH   7   9
ATOM      9  O   UNL     1      28.475  37.765  19.658  1.00  0.00    -0.462 OA
BRANCH   9  10
ATOM     10  C   UNL     1      28.742  36.499  20.256  1.00  0.00     0.233 C 
BRANCH  10  11
ATOM     11  C   UNL     1      28.479  35.370  19.256  1.00  0.00     0.038 C 
ATOM     12  C   UNL     1      28.359  34.023  19.964  1.00  0.00     0.007 C 
ENDBRANCH  10  11
ENDBRANCH   9  10
ENDBRANCH   7   9
ENDBRANCH   1   7
BRANCH   6  13
ATOM     13  C   UNL     1      26.583  40.510  20.965  1.00  0.00     0.339 C 
ATOM     14  O   UNL     1      27.437  40.598  21.891  1.00  0.00    -0.246 OA
BRANCH  13  15
ATOM     15  O   UNL     1      26.424  41.558  20.049  1.00  0.00    -0.462 OA
BRANCH  15  16
ATOM     16  C   UNL     1      27.416  41.917  19.090  1.00  0.00     0.233 C 
BRANCH  16  17
ATOM     17  C   UNL     1      27.501  43.439  18.952  1.00  0.00     0.038 C 
ATOM     18  C   UNL     1      26.327  44.124  19.646  1.00  0.00     0.007 C 
ENDBRANCH  16  17
ENDBRANCH  15  16
ENDBRANCH  13  15
ENDBRANCH   6  13
TORSDOF 8
ENDMDL
MODEL 3
REMARK VINA RESULT:    -4.544      2.479      4.704
REMARK INTER + INTRA:          -7.152
REMARK INTER:                  -6.275
REMARK INTRA:                  -0.878
REMARK UNBOUND:                -0.483
REMARK SMILES CCCOC(=O)c1ccccc1C(=O)OCCC
REMARK SMILES IDX 7 1 8 2 9 3 10 4 11 5 12 6 5 7 6 8 4 9 3 10 2 11 1 12 13 13
REMARK SMILES IDX 14 14 15 15 16 16 17 17 18 18
REMARK H PARENT
REMARK Flexibility Score: inf
ROOT
ATOM      1  C   UNL     1      25.671  39.148  20.786  1.00  0.00     0.074 A 
ATOM      2  C   UNL     1      24.553  39.249  21.635  1.00  0.00     0.016 A 
ATOM      3  C   UNL     1      23.658  38.187  21.765  1.00  0.00     0.001 A 
ATOM      4  C   UNL     1      23.865  37.007  21.052  1.00  0.00     0.001 A 
ATOM      5  C   UNL     1      24.955  36.894  20.189  1.00  0.00     0.016 A 
ATOM      6  C   UNL     1      25.855  37.960  20.025  1.00  0.00     0.074 A 
ENDROOT
BRANCH   1   7
ATOM      7  C   UNL     1      26.654  40.256  20.780  1.00  0.00     0.339 C 
ATOM      8  O   UNL     1      27.596  40.264  21.620  1.00  0.00    -0.246 OA
BRANCH   7   9
ATOM      9  O   UNL     1      26.561  41.270  19.817  1.00  0.00    -0.462 OA
BRANCH   9  10
ATOM     10  C   UNL     1      27.671  42.051  19.383  1.00  0.00     0.233 C 
BRANCH  10  11
ATOM     11  C   UNL     1      27.205  43.435  18.925  1.00  0.00     0.038 C 
ATOM     12  C   UNL     1      26.378  44.125  20.006  1.00  0.00     0.007 C 
ENDBRANCH  10  11
ENDBRANCH   9  10
ENDBRANCH   7   9
ENDBRANCH   1   7
BRANCH   6  13
ATOM     13  C   UNL     1      26.925  37.818  19.017  1.00  0.00     0.339 C 
ATOM     14  O   UNL     1      26.886  38.491  17.950  1.00  0.00    -0.246 OA
BRANCH  13  15
ATOM     15  O   UNL     1      27.957  36.894  19.232  1.00  0.00    -0.462 OA
BRANCH  15  16
ATOM     16  C   UNL     1      28.708  36.827  20.441  1.00  0.00     0.233 C 
BRANCH  16  17
ATOM     17  C   UNL     1      28.344  35.564  21.227  1.00  0.00     0.038 C 
ATOM     18  C   UNL     1      28.364  34.330  20.331  1.00  0.00     0.007 C 
ENDBRANCH  16  17
ENDBRANCH  15  16
ENDBRANCH  13  15
ENDBRANCH   6  13
TORSDOF 8
ENDMDL
MODEL 4
REMARK VINA RESULT:    -4.402      7.337     10.927
REMARK INTER + INTRA:          -6.944
REMARK INTER:                  -6.215
REMARK INTRA:                  -0.729
REMARK UNBOUND:                -0.483
REMARK SMILES CCCOC(=O)c1ccccc1C(=O)OCCC
REMARK SMILES IDX 7 1 8 2 9 3 10 4 11 5 12 6 5 7 6 8 4 9 3 10 2 11 1 12 13 13
REMARK SMILES IDX 14 14 15 15 16 16 17 17 18 18
REMARK H PARENT
REMARK Flexibility Score: inf
ROOT
ATOM      1  C   UNL     1      28.005  28.686  26.149  1.00  0.00     0.074 A 
ATOM      2  C   UNL     1      29.125  27.845  26.006  1.00  0.00     0.016 A 
ATOM      3  C   UNL     1      28.989  26.459  26.084  1.00  0.00     0.001 A 
ATOM      4  C   UNL     1      27.736  25.890  26.304  1.00  0.00     0.001 A 
ATOM      5  C   UNL     1      26.617  26.706  26.469  1.00  0.00     0.016 A 
ATOM      6  C   UNL     1      26.735  28.105  26.418  1.00  0.00     0.074 A 
ENDROOT
BRANCH   1   7
ATOM      7  C   UNL     1      28.185  30.141  25.935  1.00  0.00     0.339 C 
ATOM      8  O   UNL     1      28.737  30.843  26.827  1.00  0.00    -0.246 OA
BRANCH   7   9
ATOM      9  O   UNL     1      27.780  30.726  24.728  1.00  0.00    -0.462 OA
BRANCH   9  10
ATOM     10  C   UNL     1      28.540  30.657  23.524  1.00  0.00     0.233 C 
BRANCH  10  11
ATOM     11  C   UNL     1      28.753  32.058  22.945  1.00  0.00     0.038 C 
ATOM     12  C   UNL     1      28.221  33.132  23.888  1.00  0.00     0.007 C 
ENDBRANCH  10  11
ENDBRANCH   9  10
ENDBRANCH   7   9
ENDBRANCH   1   7
BRANCH   6  13
ATOM     13  C   UNL     1      25.534  28.915  26.708  1.00  0.00     0.339 C 
ATOM     14  O   UNL     1      24.920  29.497  25.771  1.00  0.00    -0.246 OA
BRANCH  13  15
ATOM     15  O   UNL     1      25.111  29.072  28.034  1.00  0.00    -0.462 OA
BRANCH  15  16
ATOM     16  C   UNL     1      23.800  28.737  28.483  1.00  0.00     0.233 C 
BRANCH  16  17
ATOM     17  C   UNL     1      23.603  27.218  28.469  1.00  0.00     0.038 C 
ATOM     18  C   UNL     1      22.203  26.847  27.990  1.00  0.00     0.007 C 
ENDBRANCH  16  17
ENDBRANCH  15  16
ENDBRANCH  13  15
ENDBRANCH   6  13
TORSDOF 8
ENDMDL
MODEL 5
REMARK VINA RESULT:    -4.346      7.565     10.682
REMARK INTER + INTRA:          -6.862
REMARK INTER:                  -6.179
REMARK INTRA:                  -0.682
REMARK UNBOUND:                -0.483
REMARK SMILES CCCOC(=O)c1ccccc1C(=O)OCCC
REMARK SMILES IDX 7 1 8 2 9 3 10 4 11 5 12 6 5 7 6 8 4 9 3 10 2 11 1 12 13 13
REMARK SMILES IDX 14 14 15 15 16 16 17 17 18 18
REMARK H PARENT
REMARK Flexibility Score: inf
ROOT
ATOM      1  C   UNL     1      26.729  27.919  26.462  1.00  0.00     0.074 A 
ATOM      2  C   UNL     1      26.593  26.519  26.419  1.00  0.00     0.016 A 
ATOM      3  C   UNL     1      27.707  25.701  26.226  1.00  0.00     0.001 A 
ATOM      4  C   UNL     1      28.972  26.266  26.074  1.00  0.00     0.001 A 
ATOM      5  C   UNL     1      29.125  27.652  26.092  1.00  0.00     0.016 A 
ATOM      6  C   UNL     1      28.013  28.495  26.261  1.00  0.00     0.074 A 
ENDROOT
BRANCH   1   7
ATOM      7  C   UNL     1      25.535  28.733  26.792  1.00  0.00     0.339 C 
ATOM      8  O   UNL     1      25.045  29.509  25.926  1.00  0.00    -0.246 OA
BRANCH   7   9
ATOM      9  O   UNL     1      24.930  28.608  28.050  1.00  0.00    -0.462 OA
BRANCH   9  10
ATOM     10  C   UNL     1      23.557  28.898  28.296  1.00  0.00     0.233 C 
BRANCH  10  11
ATOM     11  C   UNL     1      22.807  27.628  28.708  1.00  0.00     0.038 C 
ATOM     12  C   UNL     1      23.369  26.401  27.996  1.00  0.00     0.007 C 
ENDBRANCH  10  11
ENDBRANCH   9  10
ENDBRANCH   7   9
ENDBRANCH   1   7
BRANCH   6  13
ATOM     13  C   UNL     1      28.227  29.954  26.163  1.00  0.00     0.339 C 
ATOM     14  O   UNL     1      28.534  30.621  27.191  1.00  0.00    -0.246 OA
BRANCH  13  15
ATOM     15  O   UNL     1      28.037  30.598  24.934  1.00  0.00    -0.462 OA
BRANCH  15  16
ATOM     16  C   UNL     1      29.083  31.261  24.229  1.00  0.00     0.233 C 
BRANCH  16  17
ATOM     17  C   UNL     1      29.125  30.795  22.770  1.00  0.00     0.038 C 
ATOM     18  C   UNL     1      28.888  29.292  22.663  1.00  0.00     0.007 C 
ENDBRANCH  16  17
ENDBRANCH  15  16
ENDBRANCH  13  15
ENDBRANCH   6  13
TORSDOF 8
ENDMDL
MODEL 6
REMARK VINA RESULT:    -4.285      1.381      4.685
REMARK INTER + INTRA:          -6.773
REMARK INTER:                  -6.063
REMARK INTRA:                  -0.710
REMARK UNBOUND:                -0.483
REMARK SMILES CCCOC(=O)c1ccccc1C(=O)OCCC
REMARK SMILES IDX 7 1 8 2 9 3 10 4 11 5 12 6 5 7 6 8 4 9 3 10 2 11 1 12 13 13
REMARK SMILES IDX 14 14 15 15 16 16 17 17 18 18
REMARK H PARENT
REMARK Flexibility Score: inf
ROOT
ATOM      1  C   UNL     1      26.888  36.017  22.322  1.00  0.00     0.074 A 
ATOM      2  C   UNL     1      26.863  35.401  23.588  1.00  0.00     0.016 A 
ATOM      3  C   UNL     1      27.805  34.428  23.924  1.00  0.00     0.001 A 
ATOM      4  C   UNL     1      28.785  34.056  23.006  1.00  0.00     0.001 A 
ATOM      5  C   UNL     1      28.814  34.640  21.739  1.00  0.00     0.016 A 
ATOM      6  C   UNL     1      27.861  35.605  21.372  1.00  0.00     0.074 A 
ENDROOT
BRANCH   1   7
ATOM      7  C   UNL     1      25.944  37.130  22.063  1.00  0.00     0.339 C 
ATOM      8  O   UNL     1      24.701  36.932  22.152  1.00  0.00    -0.246 OA
BRANCH   7   9
ATOM      9  O   UNL     1      26.434  38.407  21.760  1.00  0.00    -0.462 OA
BRANCH   9  10
ATOM     10  C   UNL     1      25.722  39.360  20.975  1.00  0.00     0.233 C 
BRANCH  10  11
ATOM     11  C   UNL     1      26.647  39.991  19.931  1.00  0.00     0.038 C 
ATOM     12  C   UNL     1      26.811  41.488  20.172  1.00  0.00     0.007 C 
ENDBRANCH  10  11
ENDBRANCH   9  10
ENDBRANCH   7   9
ENDBRANCH   1   7
BRANCH   6  13
ATOM     13  C   UNL     1      27.879  36.105  19.981  1.00  0.00     0.339 C 
ATOM     14  O   UNL     1      28.727  36.973  19.631  1.00  0.00    -0.246 OA
BRANCH  13  15
ATOM     15  O   UNL     1      26.919  35.647  19.070  1.00  0.00    -0.462 OA
BRANCH  15  16
ATOM     16  C   UNL     1      25.757  36.394  18.717  1.00  0.00     0.233 C 
BRANCH  16  17
ATOM     17  C   UNL     1      24.577  35.453  18.453  1.00  0.00     0.038 C 
ATOM     18  C   UNL     1      23.312  35.945  19.149  1.00  0.00     0.007 C 
ENDBRANCH  16  17
ENDBRANCH  15  16
ENDBRANCH  13  15
ENDBRANCH   6  13
TORSDOF 8
ENDMDL
MODEL 7
REMARK VINA RESULT:    -4.246      1.449      5.313
REMARK INTER + INTRA:          -6.716
REMARK INTER:                  -5.935
REMARK INTRA:                  -0.780
REMARK UNBOUND:                -0.483
REMARK SMILES CCCOC(=O)c1ccccc1C(=O)OCCC
REMARK SMILES IDX 7 1 8 2 9 3 10 4 11 5 12 6 5 7 6 8 4 9 3 10 2 11 1 12 13 13
REMARK SMILES IDX 14 14 15 15 16 16 17 17 18 18
REMARK H PARENT
REMARK Flexibility Score: inf
ROOT
ATOM      1  C   UNL     1      27.652  35.870  21.390  1.00  0.00     0.074 A 
ATOM      2  C   UNL     1      28.552  34.880  21.827  1.00  0.00     0.016 A 
ATOM      3  C   UNL     1      28.424  34.311  23.095  1.00  0.00     0.001 A 
ATOM      4  C   UNL     1      27.398  34.720  23.945  1.00  0.00     0.001 A 
ATOM      5  C   UNL     1      26.508  35.715  23.538  1.00  0.00     0.016 A 
ATOM      6  C   UNL     1      26.633  36.317  22.275  1.00  0.00     0.074 A 
ENDROOT
BRANCH   1   7
ATOM      7  C   UNL     1      27.757  36.349  19.991  1.00  0.00     0.339 C 
ATOM      8  O   UNL     1      28.631  37.208  19.687  1.00  0.00    -0.246 OA
BRANCH   7   9
ATOM      9  O   UNL     1      26.917  35.819  19.004  1.00  0.00    -0.462 OA
BRANCH   9  10
ATOM     10  C   UNL     1      25.677  36.409  18.624  1.00  0.00     0.233 C 
BRANCH  10  11
ATOM     11  C   UNL     1      24.570  35.352  18.587  1.00  0.00     0.038 C 
ATOM     12  C   UNL     1      23.214  35.960  18.935  1.00  0.00     0.007 C 
ENDBRANCH  10  11
ENDBRANCH   9  10
ENDBRANCH   7   9
ENDBRANCH   1   7
BRANCH   6  13
ATOM     13  C   UNL     1      25.728  37.438  21.947  1.00  0.00     0.339 C 
ATOM     14  O   UNL     1      24.482  37.248  21.878  1.00  0.00    -0.246 OA
BRANCH  13  15
ATOM     15  O   UNL     1      26.267  38.701  21.667  1.00  0.00    -0.462 OA
BRANCH  15  16
ATOM     16  C   UNL     1      25.817  39.522  20.592  1.00  0.00     0.233 C 
BRANCH  16  17
ATOM     17  C   UNL     1      26.793  40.679  20.358  1.00  0.00     0.038 C 
ATOM     18  C   UNL     1      27.561  40.500  19.052  1.00  0.00     0.007 C 
ENDBRANCH  16  17
ENDBRANCH  15  16
ENDBRANCH  13  15
ENDBRANCH   6  13
TORSDOF 8
ENDMDL
MODEL 8
REMARK VINA RESULT:    -4.148      1.617      4.077
REMARK INTER + INTRA:          -6.571
REMARK INTER:                  -5.859
REMARK INTRA:                  -0.712
REMARK UNBOUND:                -0.483
REMARK SMILES CCCOC(=O)c1ccccc1C(=O)OCCC
REMARK SMILES IDX 7 1 8 2 9 3 10 4 11 5 12 6 5 7 6 8 4 9 3 10 2 11 1 12 13 13
REMARK SMILES IDX 14 14 15 15 16 16 17 17 18 18
REMARK H PARENT
REMARK Flexibility Score: inf
ROOT
ATOM      1  C   UNL     1      26.565  38.613  19.654  1.00  0.00     0.074 A 
ATOM      2  C   UNL     1      27.086  39.721  18.959  1.00  0.00     0.016 A 
ATOM      3  C   UNL     1      27.059  40.996  19.528  1.00  0.00     0.001 A 
ATOM      4  C   UNL     1      26.515  41.183  20.798  1.00  0.00     0.001 A 
ATOM      5  C   UNL     1      25.975  40.102  21.494  1.00  0.00     0.016 A 
ATOM      6  C   UNL     1      25.971  38.815  20.930  1.00  0.00     0.074 A 
ENDROOT
BRANCH   1   7
ATOM      7  C   UNL     1      26.731  37.267  19.058  1.00  0.00     0.339 C 
ATOM      8  O   UNL     1      27.813  36.638  19.220  1.00  0.00    -0.246 OA
BRANCH   7   9
ATOM      9  O   UNL     1      25.673  36.679  18.352  1.00  0.00    -0.462 OA
BRANCH   9  10
ATOM     10  C   UNL     1      24.976  35.519  18.798  1.00  0.00     0.233 C 
BRANCH  10  11
ATOM     11  C   UNL     1      23.471  35.791  18.864  1.00  0.00     0.038 C 
ATOM     12  C   UNL     1      22.918  36.171  17.494  1.00  0.00     0.007 C 
ENDBRANCH  10  11
ENDBRANCH   9  10
ENDBRANCH   7   9
ENDBRANCH   1   7
BRANCH   6  13
ATOM     13  C   UNL     1      25.288  37.734  21.671  1.00  0.00     0.339 C 
ATOM     14  O   UNL     1      24.028  37.708  21.738  1.00  0.00    -0.246 OA
BRANCH  13  15
ATOM     15  O   UNL     1      26.051  36.768  22.340  1.00  0.00    -0.462 OA
BRANCH  15  16
ATOM     16  C   UNL     1      25.541  35.966  23.403  1.00  0.00     0.233 C 
BRANCH  16  17
ATOM     17  C   UNL     1      26.678  35.516  24.325  1.00  0.00     0.038 C 
ATOM     18  C   UNL     1      27.693  34.660  23.575  1.00  0.00     0.007 C 
ENDBRANCH  16  17
ENDBRANCH  15  16
ENDBRANCH  13  15
ENDBRANCH   6  13
TORSDOF 8
ENDMDL
MODEL 9
REMARK VINA RESULT:    -3.884      1.735      3.628
REMARK INTER + INTRA:          -6.184
REMARK INTER:                  -5.303
REMARK INTRA:                  -0.881
REMARK UNBOUND:                -0.483
REMARK SMILES CCCOC(=O)c1ccccc1C(=O)OCCC
REMARK SMILES IDX 7 1 8 2 9 3 10 4 11 5 12 6 5 7 6 8 4 9 3 10 2 11 1 12 13 13
REMARK SMILES IDX 14 14 15 15 16 16 17 17 18 18
REMARK H PARENT
REMARK Flexibility Score: inf
ROOT
ATOM      1  C   UNL     1      26.606  37.841  19.900  1.00  0.00     0.074 A 
ATOM      2  C   UNL     1      26.466  39.190  19.523  1.00  0.00     0.016 A 
ATOM      3  C   UNL     1      27.512  39.865  18.893  1.00  0.00     0.001 A 
ATOM      4  C   UNL     1      28.710  39.206  18.626  1.00  0.00     0.001 A 
ATOM      5  C   UNL     1      28.876  37.875  19.010  1.00  0.00     0.016 A 
ATOM      6  C   UNL     1      27.844  37.184  19.667  1.00  0.00     0.074 A 
ENDROOT
BRANCH   1   7
ATOM      7  C   UNL     1      25.424  37.139  20.453  1.00  0.00     0.339 C 
ATOM      8  O   UNL     1      25.312  36.986  21.701  1.00  0.00    -0.246 OA
BRANCH   7   9
ATOM      9  O   UNL     1      24.415  36.683  19.594  1.00  0.00    -0.462 OA
BRANCH   9  10
ATOM     10  C   UNL     1      24.655  35.829  18.479  1.00  0.00     0.233 C 
BRANCH  10  11
ATOM     11  C   UNL     1      23.794  36.252  17.286  1.00  0.00     0.038 C 
ATOM     12  C   UNL     1      24.578  37.142  16.326  1.00  0.00     0.007 C 
ENDBRANCH  10  11
ENDBRANCH   9  10
ENDBRANCH   7   9
ENDBRANCH   1   7
BRANCH   6  13
ATOM     13  C   UNL     1      28.121  35.812  20.143  1.00  0.00     0.339 C 
ATOM     14  O   UNL     1      27.838  34.819  19.416  1.00  0.00    -0.246 OA
BRANCH  13  15
ATOM     15  O   UNL     1      28.652  35.621  21.425  1.00  0.00    -0.462 OA
BRANCH  15  16
ATOM     16  C   UNL     1      27.970  34.912  22.457  1.00  0.00     0.233 C 
BRANCH  16  17
ATOM     17  C   UNL     1      28.743  33.645  22.836  1.00  0.00     0.038 C 
ATOM     18  C   UNL     1      28.177  33.010  24.103  1.00  0.00     0.007 C 
ENDBRANCH  16  17
ENDBRANCH  15  16
ENDBRANCH  13  15
ENDBRANCH   6  13
TORSDOF 8
ENDMDL
