MODEL 1
REMARK VINA RESULT:    -5.702      0.000      0.000
REMARK INTER + INTRA:          -5.702
REMARK INTER:                  -5.702
REMARK INTRA:                   0.000
REMARK UNBOUND:                 0.000
REMARK SMILES C=C1CCC[C@]2(C)CC(=O)C(=C(C)C)C[C@H]12
REMARK SMILES IDX 13 1 12 2 11 3 15 4 16 5 2 6 1 7 3 8 4 9 5 10 6 11 8 12 9 13
REMARK SMILES IDX 10 14 7 15 14 16
REMARK H PARENT
REMARK Flexibility Score: inf
ROOT
ATOM      1  C   UNL     1     -13.094 -16.242  25.960  1.00  0.00     0.039 C 
ATOM      2  C   UNL     1     -12.072 -16.483  27.047  1.00  0.00    -0.070 C 
ATOM      3  C   UNL     1     -12.105 -15.785  28.219  1.00  0.00    -0.006 C 
ATOM      4  C   UNL     1     -13.173 -14.761  28.551  1.00  0.00     0.047 C 
ATOM      5  C   UNL     1     -13.949 -15.106  29.863  1.00  0.00     0.025 C 
ATOM      6  C   UNL     1     -14.744 -13.899  30.407  1.00  0.00    -0.073 C 
ATOM      7  C   UNL     1     -15.161 -12.891  29.615  1.00  0.00     0.008 C 
ATOM      8  C   UNL     1     -15.248 -13.878  31.835  1.00  0.00     0.031 C 
ATOM      9  C   UNL     1     -14.831 -15.108  32.627  1.00  0.00     0.005 C 
ATOM     10  C   UNL     1     -13.347 -15.377  32.410  1.00  0.00     0.008 C 
ATOM     11  C   UNL     1     -13.041 -15.838  30.954  1.00  0.00    -0.018 C 
ATOM     12  C   UNL     1     -11.526 -15.580  30.701  1.00  0.00     0.088 C 
ATOM     13  C   UNL     1     -11.124 -15.978  29.313  1.00  0.00     0.159 C 
ATOM     14  O   UNL     1      -9.951 -16.382  29.099  1.00  0.00    -0.295 OA
ATOM     15  C   UNL     1     -13.293 -17.373  30.881  1.00  0.00     0.012 C 
ATOM     16  C   UNL     1     -11.043 -17.561  26.799  1.00  0.00     0.039 C 
ENDROOT
TORSDOF 0
ENDMDL
MODEL 2
REMARK VINA RESULT:    -5.168      1.923      3.621
REMARK INTER + INTRA:          -5.168
REMARK INTER:                  -5.168
REMARK INTRA:                   0.000
REMARK UNBOUND:                 0.000
REMARK SMILES C=C1CCC[C@]2(C)CC(=O)C(=C(C)C)C[C@H]12
REMARK SMILES IDX 13 1 12 2 11 3 15 4 16 5 2 6 1 7 3 8 4 9 5 10 6 11 8 12 9 13
REMARK SMILES IDX 10 14 7 15 14 16
REMARK H PARENT
REMARK Flexibility Score: inf
ROOT
ATOM      1  C   UNL     1     -13.555 -20.522  29.502  1.00  0.00     0.039 C 
ATOM      2  C   UNL     1     -12.625 -19.574  30.225  1.00  0.00    -0.070 C 
ATOM      3  C   UNL     1     -12.316 -18.351  29.706  1.00  0.00    -0.006 C 
ATOM      4  C   UNL     1     -12.901 -17.823  28.410  1.00  0.00     0.047 C 
ATOM      5  C   UNL     1     -13.659 -16.469  28.601  1.00  0.00     0.025 C 
ATOM      6  C   UNL     1     -13.908 -15.744  27.260  1.00  0.00    -0.073 C 
ATOM      7  C   UNL     1     -13.971 -16.400  26.084  1.00  0.00     0.008 C 
ATOM      8  C   UNL     1     -14.270 -14.274  27.225  1.00  0.00     0.031 C 
ATOM      9  C   UNL     1     -14.290 -13.638  28.607  1.00  0.00     0.005 C 
ATOM     10  C   UNL     1     -13.031 -14.033  29.369  1.00  0.00     0.008 C 
ATOM     11  C   UNL     1     -13.019 -15.546  29.736  1.00  0.00    -0.018 C 
ATOM     12  C   UNL     1     -11.537 -15.936  30.018  1.00  0.00     0.088 C 
ATOM     13  C   UNL     1     -11.407 -17.387  30.369  1.00  0.00     0.159 C 
ATOM     14  O   UNL     1     -10.486 -17.758  31.145  1.00  0.00    -0.295 OA
ATOM     15  C   UNL     1     -13.829 -15.722  31.054  1.00  0.00     0.012 C 
ATOM     16  C   UNL     1     -12.091 -20.020  31.566  1.00  0.00     0.039 C 
ENDROOT
TORSDOF 0
ENDMDL
MODEL 3
REMARK VINA RESULT:    -4.539      2.186      4.088
REMARK INTER + INTRA:          -4.539
REMARK INTER:                  -4.539
REMARK INTRA:                   0.000
REMARK UNBOUND:                 0.000
REMARK SMILES C=C1CCC[C@]2(C)CC(=O)C(=C(C)C)C[C@H]12
REMARK SMILES IDX 13 1 12 2 11 3 15 4 16 5 2 6 1 7 3 8 4 9 5 10 6 11 8 12 9 13
REMARK SMILES IDX 10 14 7 15 14 16
REMARK H PARENT
REMARK Flexibility Score: inf
ROOT
ATOM      1  C   UNL     1     -14.312 -13.414  28.817  1.00  0.00     0.039 C 
ATOM      2  C   UNL     1     -13.998 -14.578  27.904  1.00  0.00    -0.070 C 
ATOM      3  C   UNL     1     -12.878 -15.336  28.081  1.00  0.00    -0.006 C 
ATOM      4  C   UNL     1     -11.893 -15.118  29.213  1.00  0.00     0.047 C 
ATOM      5  C   UNL     1     -11.715 -16.388  30.106  1.00  0.00     0.025 C 
ATOM      6  C   UNL     1     -10.454 -16.306  30.995  1.00  0.00    -0.073 C 
ATOM      7  C   UNL     1      -9.905 -15.131  31.364  1.00  0.00     0.008 C 
ATOM      8  C   UNL     1      -9.875 -17.546  31.643  1.00  0.00     0.031 C 
ATOM      9  C   UNL     1     -10.626 -18.815  31.266  1.00  0.00     0.005 C 
ATOM     10  C   UNL     1     -10.848 -18.848  29.759  1.00  0.00     0.008 C 
ATOM     11  C   UNL     1     -11.852 -17.754  29.290  1.00  0.00    -0.018 C 
ATOM     12  C   UNL     1     -11.610 -17.534  27.767  1.00  0.00     0.088 C 
ATOM     13  C   UNL     1     -12.521 -16.482  27.211  1.00  0.00     0.159 C 
ATOM     14  O   UNL     1     -12.888 -16.552  26.008  1.00  0.00    -0.295 OA
ATOM     15  C   UNL     1     -13.291 -18.318  29.478  1.00  0.00     0.012 C 
ATOM     16  C   UNL     1     -15.000 -14.890  26.817  1.00  0.00     0.039 C 
ENDROOT
TORSDOF 0
ENDMDL
MODEL 4
REMARK VINA RESULT:    -3.797      1.673      4.814
REMARK INTER + INTRA:          -3.797
REMARK INTER:                  -3.797
REMARK INTRA:                   0.000
REMARK UNBOUND:                 0.000
REMARK SMILES C=C1CCC[C@]2(C)CC(=O)C(=C(C)C)C[C@H]12
REMARK SMILES IDX 13 1 12 2 11 3 15 4 16 5 2 6 1 7 3 8 4 9 5 10 6 11 8 12 9 13
REMARK SMILES IDX 10 14 7 15 14 16
REMARK H PARENT
REMARK Flexibility Score: inf
ROOT
ATOM      1  C   UNL     1     -15.046 -13.250  30.343  1.00  0.00     0.039 C 
ATOM      2  C   UNL     1     -14.609 -14.425  31.188  1.00  0.00    -0.070 C 
ATOM      3  C   UNL     1     -14.072 -15.544  30.622  1.00  0.00    -0.006 C 
ATOM      4  C   UNL     1     -13.824 -15.689  29.133  1.00  0.00     0.047 C 
ATOM      5  C   UNL     1     -12.325 -15.982  28.799  1.00  0.00     0.025 C 
ATOM      6  C   UNL     1     -12.139 -16.511  27.361  1.00  0.00    -0.073 C 
ATOM      7  C   UNL     1     -13.017 -16.245  26.373  1.00  0.00     0.008 C 
ATOM      8  C   UNL     1     -10.861 -17.211  26.948  1.00  0.00     0.031 C 
ATOM      9  C   UNL     1      -9.875 -17.367  28.095  1.00  0.00     0.005 C 
ATOM     10  C   UNL     1     -10.602 -17.900  29.324  1.00  0.00     0.008 C 
ATOM     11  C   UNL     1     -11.592 -16.855  29.918  1.00  0.00    -0.018 C 
ATOM     12  C   UNL     1     -12.617 -17.640  30.790  1.00  0.00     0.088 C 
ATOM     13  C   UNL     1     -13.634 -16.725  31.403  1.00  0.00     0.159 C 
ATOM     14  O   UNL     1     -14.146 -17.022  32.515  1.00  0.00    -0.295 OA
ATOM     15  C   UNL     1     -10.781 -15.910  30.852  1.00  0.00     0.012 C 
ATOM     16  C   UNL     1     -14.751 -14.288  32.686  1.00  0.00     0.039 C 
ENDROOT
TORSDOF 0
ENDMDL
MODEL 5
REMARK VINA RESULT:    -3.021      1.886      5.164
REMARK INTER + INTRA:          -3.021
REMARK INTER:                  -3.021
REMARK INTRA:                   0.000
REMARK UNBOUND:                 0.000
REMARK SMILES C=C1CCC[C@]2(C)CC(=O)C(=C(C)C)C[C@H]12
REMARK SMILES IDX 13 1 12 2 11 3 15 4 16 5 2 6 1 7 3 8 4 9 5 10 6 11 8 12 9 13
REMARK SMILES IDX 10 14 7 15 14 16
REMARK H PARENT
REMARK Flexibility Score: inf
ROOT
ATOM      1  C   UNL     1     -14.754 -15.024  33.123  1.00  0.00     0.039 C 
ATOM      2  C   UNL     1     -14.926 -14.503  31.714  1.00  0.00    -0.070 C 
ATOM      3  C   UNL     1     -13.897 -14.530  30.818  1.00  0.00    -0.006 C 
ATOM      4  C   UNL     1     -12.534 -15.116  31.130  1.00  0.00     0.047 C 
ATOM      5  C   UNL     1     -12.135 -16.265  30.147  1.00  0.00     0.025 C 
ATOM      6  C   UNL     1     -10.627 -16.588  30.207  1.00  0.00    -0.073 C 
ATOM      7  C   UNL     1      -9.875 -16.333  31.297  1.00  0.00     0.008 C 
ATOM      8  C   UNL     1      -9.954 -17.374  29.102  1.00  0.00     0.031 C 
ATOM      9  C   UNL     1     -10.902 -17.723  27.964  1.00  0.00     0.005 C 
ATOM     10  C   UNL     1     -11.695 -16.486  27.563  1.00  0.00     0.008 C 
ATOM     11  C   UNL     1     -12.701 -16.050  28.669  1.00  0.00    -0.018 C 
ATOM     12  C   UNL     1     -13.053 -14.556  28.404  1.00  0.00     0.088 C 
ATOM     13  C   UNL     1     -14.010 -14.026  29.429  1.00  0.00     0.159 C 
ATOM     14  O   UNL     1     -14.822 -13.118  29.108  1.00  0.00    -0.295 OA
ATOM     15  C   UNL     1     -13.997 -16.895  28.491  1.00  0.00     0.012 C 
ATOM     16  C   UNL     1     -16.295 -13.993  31.330  1.00  0.00     0.039 C 
ENDROOT
TORSDOF 0
ENDMDL
MODEL 6
REMARK VINA RESULT:    -2.872      2.479      4.323
REMARK INTER + INTRA:          -2.872
REMARK INTER:                  -2.872
REMARK INTRA:                   0.000
REMARK UNBOUND:                 0.000
REMARK SMILES C=C1CCC[C@]2(C)CC(=O)C(=C(C)C)C[C@H]12
REMARK SMILES IDX 13 1 12 2 11 3 15 4 16 5 2 6 1 7 3 8 4 9 5 10 6 11 8 12 9 13
REMARK SMILES IDX 10 14 7 15 14 16
REMARK H PARENT
REMARK Flexibility Score: inf
ROOT
ATOM      1  C   UNL     1     -12.394 -20.019  32.389  1.00  0.00     0.039 C 
ATOM      2  C   UNL     1     -12.820 -20.141  30.943  1.00  0.00    -0.070 C 
ATOM      3  C   UNL     1     -13.485 -19.130  30.312  1.00  0.00    -0.006 C 
ATOM      4  C   UNL     1     -13.806 -17.803  30.972  1.00  0.00     0.047 C 
ATOM      5  C   UNL     1     -13.207 -16.586  30.197  1.00  0.00     0.025 C 
ATOM      6  C   UNL     1     -13.845 -15.247  30.626  1.00  0.00    -0.073 C 
ATOM      7  C   UNL     1     -14.410 -15.071  31.838  1.00  0.00     0.008 C 
ATOM      8  C   UNL     1     -13.708 -14.008  29.767  1.00  0.00     0.031 C 
ATOM      9  C   UNL     1     -12.955 -14.267  28.472  1.00  0.00     0.005 C 
ATOM     10  C   UNL     1     -13.501 -15.525  27.807  1.00  0.00     0.008 C 
ATOM     11  C   UNL     1     -13.158 -16.811  28.616  1.00  0.00    -0.018 C 
ATOM     12  C   UNL     1     -14.162 -17.915  28.167  1.00  0.00     0.088 C 
ATOM     13  C   UNL     1     -13.930 -19.201  28.901  1.00  0.00     0.159 C 
ATOM     14  O   UNL     1     -14.196 -20.294  28.334  1.00  0.00    -0.295 OA
ATOM     15  C   UNL     1     -11.724 -17.260  28.209  1.00  0.00     0.012 C 
ATOM     16  C   UNL     1     -12.439 -21.410  30.217  1.00  0.00     0.039 C 
ENDROOT
TORSDOF 0
ENDMDL
MODEL 7
REMARK VINA RESULT:    -2.841      2.088      5.016
REMARK INTER + INTRA:          -2.841
REMARK INTER:                  -2.841
REMARK INTRA:                   0.000
REMARK UNBOUND:                 0.000
REMARK SMILES C=C1CCC[C@]2(C)CC(=O)C(=C(C)C)C[C@H]12
REMARK SMILES IDX 13 1 12 2 11 3 15 4 16 5 2 6 1 7 3 8 4 9 5 10 6 11 8 12 9 13
REMARK SMILES IDX 10 14 7 15 14 16
REMARK H PARENT
REMARK Flexibility Score: inf
ROOT
ATOM      1  C   UNL     1     -15.344 -14.746  32.299  1.00  0.00     0.039 C 
ATOM      2  C   UNL     1     -14.517 -14.525  31.052  1.00  0.00    -0.070 C 
ATOM      3  C   UNL     1     -13.621 -15.460  30.621  1.00  0.00    -0.006 C 
ATOM      4  C   UNL     1     -13.413 -16.795  31.307  1.00  0.00     0.047 C 
ATOM      5  C   UNL     1     -13.662 -18.007  30.352  1.00  0.00     0.025 C 
ATOM      6  C   UNL     1     -13.082 -19.323  30.914  1.00  0.00    -0.073 C 
ATOM      7  C   UNL     1     -12.892 -19.525  32.233  1.00  0.00     0.008 C 
ATOM      8  C   UNL     1     -12.864 -20.524  30.017  1.00  0.00     0.031 C 
ATOM      9  C   UNL     1     -13.215 -20.247  28.563  1.00  0.00     0.005 C 
ATOM     10  C   UNL     1     -12.591 -18.925  28.131  1.00  0.00     0.008 C 
ATOM     11  C   UNL     1     -13.254 -17.706  28.837  1.00  0.00    -0.018 C 
ATOM     12  C   UNL     1     -12.247 -16.520  28.743  1.00  0.00     0.088 C 
ATOM     13  C   UNL     1     -12.782 -15.290  29.411  1.00  0.00     0.159 C 
ATOM     14  O   UNL     1     -12.442 -14.155  28.983  1.00  0.00    -0.295 OA
ATOM     15  C   UNL     1     -14.531 -17.326  28.031  1.00  0.00     0.012 C 
ATOM     16  C   UNL     1     -14.758 -13.247  30.283  1.00  0.00     0.039 C 
ENDROOT
TORSDOF 0
ENDMDL
MODEL 8
REMARK VINA RESULT:    -2.805      2.257      4.287
REMARK INTER + INTRA:          -2.805
REMARK INTER:                  -2.805
REMARK INTRA:                   0.000
REMARK UNBOUND:                 0.000
REMARK SMILES C=C1CCC[C@]2(C)CC(=O)C(=C(C)C)C[C@H]12
REMARK SMILES IDX 13 1 12 2 11 3 15 4 16 5 2 6 1 7 3 8 4 9 5 10 6 11 8 12 9 13
REMARK SMILES IDX 10 14 7 15 14 16
REMARK H PARENT
REMARK Flexibility Score: inf
ROOT
ATOM      1  C   UNL     1     -14.550 -15.455  26.508  1.00  0.00     0.039 C 
ATOM      2  C   UNL     1     -14.349 -14.762  27.836  1.00  0.00    -0.070 C 
ATOM      3  C   UNL     1     -13.938 -15.450  28.940  1.00  0.00    -0.006 C 
ATOM      4  C   UNL     1     -13.607 -16.930  28.926  1.00  0.00     0.047 C 
ATOM      5  C   UNL     1     -12.145 -17.223  29.397  1.00  0.00     0.025 C 
ATOM      6  C   UNL     1     -11.933 -18.710  29.755  1.00  0.00    -0.073 C 
ATOM      7  C   UNL     1     -12.690 -19.695  29.232  1.00  0.00     0.008 C 
ATOM      8  C   UNL     1     -10.743 -19.150  30.582  1.00  0.00     0.031 C 
ATOM      9  C   UNL     1      -9.875 -17.985  31.034  1.00  0.00     0.005 C 
ATOM     10  C   UNL     1     -10.758 -16.882  31.606  1.00  0.00     0.008 C 
ATOM     11  C   UNL     1     -11.628 -16.200  30.509  1.00  0.00    -0.018 C 
ATOM     12  C   UNL     1     -12.815 -15.501  31.237  1.00  0.00     0.088 C 
ATOM     13  C   UNL     1     -13.731 -14.821  30.266  1.00  0.00     0.159 C 
ATOM     14  O   UNL     1     -14.360 -13.789  30.625  1.00  0.00    -0.295 OA
ATOM     15  C   UNL     1     -10.759 -15.102  29.829  1.00  0.00     0.012 C 
ATOM     16  C   UNL     1     -14.578 -13.269  27.876  1.00  0.00     0.039 C 
ENDROOT
TORSDOF 0
ENDMDL
