MODEL 1
REMARK VINA RESULT:    -3.486      0.000      0.000
REMARK INTER + INTRA:          -4.703
REMARK INTER:                  -5.116
REMARK INTRA:                   0.413
REMARK UNBOUND:                 0.413
REMARK SMILES C=C1CC=CC(C)(C)CC=C(C)CCC1
REMARK SMILES IDX 2 1 1 2 15 3 14 4 13 5 11 6 12 7 10 8 3 10 4 11 5 12 6 13
REMARK SMILES IDX 7 14 8 15 9 16
REMARK H PARENT
REMARK Flexibility Score: 60.00
ROOT
ATOM      1  C   UNL     1     140.012 144.222 133.724  1.00  0.00    -0.074 C 
ATOM      2  C   UNL     1     139.504 143.706 134.854  1.00  0.00     0.008 C 
ENDROOT
BRANCH   1   3
ATOM      3  C   UNL     1     139.259 144.061 132.419  1.00  0.00     0.031 C 
BRANCH   3   4
ATOM      4  C   UNL     1     139.079 142.566 132.088  1.00  0.00     0.009 C 
BRANCH   4   5
ATOM      5  C   UNL     1     140.025 142.078 130.976  1.00  0.00     0.030 C 
BRANCH   5   6
ATOM      6  C   UNL     1     140.694 140.778 131.379  1.00  0.00    -0.077 C 
ATOM      7  C   UNL     1     139.812 139.640 131.831  1.00  0.00     0.039 C 
ATOM      8  C   UNL     1     142.037 140.593 131.400  1.00  0.00    -0.027 CG0
ATOM      9  G   UNL     1     143.108 141.579 130.954  1.00  0.00     0.000 G0
ENDBRANCH   5   6
ENDBRANCH   4   5
ENDBRANCH   3   4
ENDBRANCH   1   3
BRANCH   1  10
ATOM     10  C   UNL     1     141.320 144.989 133.758  1.00  0.00     0.057 C 
BRANCH  10  11
ATOM     11  C   UNL     1     142.366 144.362 132.875  1.00  0.00    -0.026 C 
ATOM     12  C   UNL     1     142.712 143.067 132.994  1.00  0.00    -0.024 C 
BRANCH  12  13
ATOM     13  C   UNL     1     143.762 142.403 132.111  1.00  0.00    -0.014 C 
ATOM     14  C   UNL     1     144.641 141.481 132.990  1.00  0.00     0.016 C 
ATOM     15  C   UNL     1     144.682 143.488 131.507  1.00  0.00     0.016 C 
BRANCH  13  16
ATOM     16  C   UNL     1     143.092 141.603 130.950  1.00  0.00     0.038 CG0
ATOM     17  G   UNL     1     142.057 140.578 131.390  1.00  0.00     0.000 G0
ENDBRANCH  13  16
ENDBRANCH  12  13
ENDBRANCH  10  11
ENDBRANCH   1  10
TORSDOF 0
ENDMDL
MODEL 2
REMARK VINA RESULT:    -3.463      3.232      4.925
REMARK INTER + INTRA:          -4.669
REMARK INTER:                  -4.883
REMARK INTRA:                   0.214
REMARK UNBOUND:                 0.413
REMARK SMILES C=C1CC=CC(C)(C)CC=C(C)CCC1
REMARK SMILES IDX 2 1 1 2 15 3 14 4 13 5 11 6 12 7 10 8 3 10 4 11 5 12 6 13
REMARK SMILES IDX 7 14 8 15 9 16
REMARK H PARENT
REMARK Flexibility Score: 60.00
ROOT
ATOM      1  C   UNL     1     137.857 140.884 134.369  1.00  0.00    -0.074 C 
ATOM      2  C   UNL     1     137.249 141.252 133.230  1.00  0.00     0.008 C 
ENDROOT
BRANCH   1   3
ATOM      3  C   UNL     1     137.840 141.814 135.565  1.00  0.00     0.031 C 
BRANCH   3   4
ATOM      4  C   UNL     1     138.648 143.091 135.259  1.00  0.00     0.009 C 
BRANCH   4   5
ATOM      5  C   UNL     1     139.875 143.261 136.174  1.00  0.00     0.030 C 
BRANCH   5   6
ATOM      6  C   UNL     1     141.132 143.447 135.348  1.00  0.00    -0.077 C 
ATOM      7  C   UNL     1     141.180 144.608 134.385  1.00  0.00     0.039 C 
ATOM      8  C   UNL     1     142.196 142.607 135.389  1.00  0.00    -0.027 CG0
ATOM      9  G   UNL     1     142.383 141.404 136.303  1.00  0.00     0.000 G0
ENDBRANCH   5   6
ENDBRANCH   4   5
ENDBRANCH   3   4
ENDBRANCH   1   3
BRANCH   1  10
ATOM     10  C   UNL     1     138.533 139.530 134.467  1.00  0.00     0.057 C 
BRANCH  10  11
ATOM     11  C   UNL     1     139.779 139.580 135.311  1.00  0.00    -0.026 C 
ATOM     12  C   UNL     1     140.971 139.933 134.797  1.00  0.00    -0.024 C 
BRANCH  12  13
ATOM     13  C   UNL     1     142.248 139.998 135.627  1.00  0.00    -0.014 C 
ATOM     14  C   UNL     1     143.454 139.676 134.713  1.00  0.00     0.016 C 
ATOM     15  C   UNL     1     142.196 138.917 136.730  1.00  0.00     0.016 C 
BRANCH  13  16
ATOM     16  C   UNL     1     142.407 141.399 136.298  1.00  0.00     0.038 CG0
ATOM     17  G   UNL     1     142.181 142.584 135.370  1.00  0.00     0.000 G0
ENDBRANCH  13  16
ENDBRANCH  12  13
ENDBRANCH  10  11
ENDBRANCH   1  10
TORSDOF 0
ENDMDL
MODEL 3
REMARK VINA RESULT:    -3.433      2.419      3.993
REMARK INTER + INTRA:          -4.626
REMARK INTER:                  -5.034
REMARK INTRA:                   0.408
REMARK UNBOUND:                 0.413
REMARK SMILES C=C1CC=CC(C)(C)CC=C(C)CCC1
REMARK SMILES IDX 2 1 1 2 15 3 14 4 13 5 11 6 12 7 10 8 3 10 4 11 5 12 6 13
REMARK SMILES IDX 7 14 8 15 9 16
REMARK H PARENT
REMARK Flexibility Score: 60.00
ROOT
ATOM      1  C   UNL     1     137.987 141.551 134.203  1.00  0.00    -0.074 C 
ATOM      2  C   UNL     1     137.996 140.223 134.004  1.00  0.00     0.008 C 
ENDROOT
BRANCH   1   3
ATOM      3  C   UNL     1     137.612 142.479 133.066  1.00  0.00     0.031 C 
BRANCH   3   4
ATOM      4  C   UNL     1     138.789 142.617 132.079  1.00  0.00     0.009 C 
BRANCH   4   5
ATOM      5  C   UNL     1     139.436 144.014 132.104  1.00  0.00     0.030 C 
BRANCH   5   6
ATOM      6  C   UNL     1     140.944 143.904 132.001  1.00  0.00    -0.077 C 
ATOM      7  C   UNL     1     141.523 143.249 130.770  1.00  0.00     0.039 C 
ATOM      8  C   UNL     1     141.801 144.317 132.967  1.00  0.00    -0.027 CG0
ATOM      9  G   UNL     1     141.449 145.032 134.264  1.00  0.00     0.000 G0
ENDBRANCH   5   6
ENDBRANCH   4   5
ENDBRANCH   3   4
ENDBRANCH   1   3
BRANCH   1  10
ATOM     10  C   UNL     1     138.324 142.118 135.569  1.00  0.00     0.057 C 
BRANCH  10  11
ATOM     11  C   UNL     1     139.320 143.244 135.483  1.00  0.00    -0.026 C 
ATOM     12  C   UNL     1     140.639 143.039 135.648  1.00  0.00    -0.024 C 
BRANCH  12  13
ATOM     13  C   UNL     1     141.671 144.158 135.562  1.00  0.00    -0.014 C 
ATOM     14  C   UNL     1     143.087 143.533 135.593  1.00  0.00     0.016 C 
ATOM     15  C   UNL     1     141.538 145.073 136.799  1.00  0.00     0.016 C 
BRANCH  13  16
ATOM     16  C   UNL     1     141.461 145.013 134.274  1.00  0.00     0.038 CG0
ATOM     17  G   UNL     1     141.789 144.302 132.969  1.00  0.00     0.000 G0
ENDBRANCH  13  16
ENDBRANCH  12  13
ENDBRANCH  10  11
ENDBRANCH   1  10
TORSDOF 0
ENDMDL
MODEL 4
REMARK VINA RESULT:    -3.393      2.391      5.471
REMARK INTER + INTRA:          -4.566
REMARK INTER:                  -4.799
REMARK INTRA:                   0.232
REMARK UNBOUND:                 0.413
REMARK SMILES C=C1CC=CC(C)(C)CC=C(C)CCC1
REMARK SMILES IDX 2 1 1 2 15 3 14 4 13 5 11 6 12 7 10 8 3 10 4 11 5 12 6 13
REMARK SMILES IDX 7 14 8 15 9 16
REMARK H PARENT
REMARK Flexibility Score: 60.00
ROOT
ATOM      1  C   UNL     1     142.321 138.020 134.420  1.00  0.00    -0.074 C 
ATOM      2  C   UNL     1     142.975 138.275 135.564  1.00  0.00     0.008 C 
ENDROOT
BRANCH   1   3
ATOM      3  C   UNL     1     143.022 138.219 133.091  1.00  0.00     0.031 C 
BRANCH   3   4
ATOM      4  C   UNL     1     143.244 139.721 132.825  1.00  0.00     0.009 C 
BRANCH   4   5
ATOM      5  C   UNL     1     142.556 140.213 131.539  1.00  0.00     0.030 C 
BRANCH   5   6
ATOM      6  C   UNL     1     141.780 141.488 131.804  1.00  0.00    -0.077 C 
ATOM      7  C   UNL     1     142.554 142.712 132.228  1.00  0.00     0.039 C 
ATOM      8  C   UNL     1     140.429 141.581 131.727  1.00  0.00    -0.027 CG0
ATOM      9  G   UNL     1     139.456 140.497 131.287  1.00  0.00     0.000 G0
ENDBRANCH   5   6
ENDBRANCH   4   5
ENDBRANCH   3   4
ENDBRANCH   1   3
BRANCH   1  10
ATOM     10  C   UNL     1     140.894 137.506 134.457  1.00  0.00     0.057 C 
BRANCH  10  11
ATOM     11  C   UNL     1     140.056 138.084 133.348  1.00  0.00    -0.026 C 
ATOM     12  C   UNL     1     139.408 139.256 133.485  1.00  0.00    -0.024 C 
BRANCH  12  13
ATOM     13  C   UNL     1     138.557 139.868 132.378  1.00  0.00    -0.014 C 
ATOM     14  C   UNL     1     137.615 140.926 133.001  1.00  0.00     0.016 C 
ATOM     15  C   UNL     1     137.673 138.770 131.746  1.00  0.00     0.016 C 
BRANCH  13  16
ATOM     16  C   UNL     1     139.454 140.498 131.267  1.00  0.00     0.038 CG0
ATOM     17  G   UNL     1     140.428 141.562 131.753  1.00  0.00     0.000 G0
ENDBRANCH  13  16
ENDBRANCH  12  13
ENDBRANCH  10  11
ENDBRANCH   1  10
TORSDOF 0
ENDMDL
MODEL 5
REMARK VINA RESULT:    -3.354      3.466      4.141
REMARK INTER + INTRA:          -4.510
REMARK INTER:                  -5.008
REMARK INTRA:                   0.499
REMARK UNBOUND:                 0.413
REMARK SMILES C=C1CC=CC(C)(C)CC=C(C)CCC1
REMARK SMILES IDX 2 1 1 2 15 3 14 4 13 5 11 6 12 7 10 8 3 10 4 11 5 12 6 13
REMARK SMILES IDX 7 14 8 15 9 16
REMARK H PARENT
REMARK Flexibility Score: 60.00
ROOT
ATOM      1  C   UNL     1     139.020 142.800 134.389  1.00  0.00    -0.074 C 
ATOM      2  C   UNL     1     139.154 143.859 133.575  1.00  0.00     0.008 C 
ENDROOT
BRANCH   1   3
ATOM      3  C   UNL     1     137.798 141.911 134.270  1.00  0.00     0.031 C 
BRANCH   3   4
ATOM      4  C   UNL     1     137.961 140.937 133.086  1.00  0.00     0.009 C 
BRANCH   4   5
ATOM      5  C   UNL     1     137.860 139.459 133.504  1.00  0.00     0.030 C 
BRANCH   5   6
ATOM      6  C   UNL     1     138.900 138.628 132.777  1.00  0.00    -0.077 C 
ATOM      7  C   UNL     1     138.750 138.457 131.285  1.00  0.00     0.039 C 
ATOM      8  C   UNL     1     139.928 137.994 133.392  1.00  0.00    -0.027 CG0
ATOM      9  G   UNL     1     140.294 138.055 134.868  1.00  0.00     0.000 G0
ENDBRANCH   5   6
ENDBRANCH   4   5
ENDBRANCH   3   4
ENDBRANCH   1   3
BRANCH   1  10
ATOM     10  C   UNL     1     140.100 142.478 135.403  1.00  0.00     0.057 C 
BRANCH  10  11
ATOM     11  C   UNL     1     140.298 140.994 135.565  1.00  0.00    -0.026 C 
ATOM     12  C   UNL     1     141.369 140.361 135.051  1.00  0.00    -0.024 C 
BRANCH  12  13
ATOM     13  C   UNL     1     141.600 138.862 135.204  1.00  0.00    -0.014 C 
ATOM     14  C   UNL     1     142.080 138.576 136.648  1.00  0.00     0.016 C 
ATOM     15  C   UNL     1     142.724 138.417 134.242  1.00  0.00     0.016 C 
BRANCH  13  16
ATOM     16  C   UNL     1     140.303 138.060 134.873  1.00  0.00     0.038 CG0
ATOM     17  G   UNL     1     139.948 137.993 133.394  1.00  0.00     0.000 G0
ENDBRANCH  13  16
ENDBRANCH  12  13
ENDBRANCH  10  11
ENDBRANCH   1  10
TORSDOF 0
ENDMDL
MODEL 6
REMARK VINA RESULT:    -3.328      2.674      5.068
REMARK INTER + INTRA:          -4.471
REMARK INTER:                  -4.793
REMARK INTRA:                   0.322
REMARK UNBOUND:                 0.413
REMARK SMILES C=C1CC=CC(C)(C)CC=C(C)CCC1
REMARK SMILES IDX 2 1 1 2 15 3 14 4 13 5 11 6 12 7 10 8 3 10 4 11 5 12 6 13
REMARK SMILES IDX 7 14 8 15 9 16
REMARK H PARENT
REMARK Flexibility Score: 60.00
ROOT
ATOM      1  C   UNL     1     140.387 137.917 135.165  1.00  0.00    -0.074 C 
ATOM      2  C   UNL     1     140.989 137.371 136.233  1.00  0.00     0.008 C 
ENDROOT
BRANCH   1   3
ATOM      3  C   UNL     1     140.913 137.626 133.775  1.00  0.00     0.031 C 
BRANCH   3   4
ATOM      4  C   UNL     1     142.312 138.248 133.592  1.00  0.00     0.009 C 
BRANCH   4   5
ATOM      5  C   UNL     1     142.287 139.566 132.799  1.00  0.00     0.030 C 
BRANCH   5   6
ATOM      6  C   UNL     1     142.837 140.703 133.637  1.00  0.00    -0.077 C 
ATOM      7  C   UNL     1     144.099 140.453 134.425  1.00  0.00     0.039 C 
ATOM      8  C   UNL     1     142.238 141.914 133.757  1.00  0.00    -0.027 CG0
ATOM      9  G   UNL     1     140.990 142.398 133.033  1.00  0.00     0.000 G0
ENDBRANCH   5   6
ENDBRANCH   4   5
ENDBRANCH   3   4
ENDBRANCH   1   3
BRANCH   1  10
ATOM     10  C   UNL     1     139.167 138.799 135.348  1.00  0.00     0.057 C 
BRANCH  10  11
ATOM     11  C   UNL     1     139.179 139.981 134.415  1.00  0.00    -0.026 C 
ATOM     12  C   UNL     1     139.643 141.185 134.800  1.00  0.00    -0.024 C 
BRANCH  12  13
ATOM     13  C   UNL     1     139.674 142.397 133.876  1.00  0.00    -0.014 C 
ATOM     14  C   UNL     1     139.522 143.678 134.731  1.00  0.00     0.016 C 
ATOM     15  C   UNL     1     138.469 142.335 132.911  1.00  0.00     0.016 C 
BRANCH  13  16
ATOM     16  C   UNL     1     140.991 142.430 133.040  1.00  0.00     0.038 CG0
ATOM     17  G   UNL     1     142.225 141.911 133.765  1.00  0.00     0.000 G0
ENDBRANCH  13  16
ENDBRANCH  12  13
ENDBRANCH  10  11
ENDBRANCH   1  10
TORSDOF 0
ENDMDL
MODEL 7
REMARK VINA RESULT:    -3.311      1.874      3.560
REMARK INTER + INTRA:          -4.447
REMARK INTER:                  -4.683
REMARK INTRA:                   0.236
REMARK UNBOUND:                 0.413
REMARK SMILES C=C1CC=CC(C)(C)CC=C(C)CCC1
REMARK SMILES IDX 2 1 1 2 15 3 14 4 13 5 11 6 12 7 10 8 3 10 4 11 5 12 6 13
REMARK SMILES IDX 7 14 8 15 9 16
REMARK H PARENT
REMARK Flexibility Score: 60.00
ROOT
ATOM      1  C   UNL     1     137.951 140.225 133.823  1.00  0.00    -0.074 C 
ATOM      2  C   UNL     1     138.545 139.581 134.840  1.00  0.00     0.008 C 
ENDROOT
BRANCH   1   3
ATOM      3  C   UNL     1     137.644 139.483 132.539  1.00  0.00     0.031 C 
BRANCH   3   4
ATOM      4  C   UNL     1     138.949 138.979 131.889  1.00  0.00     0.009 C 
BRANCH   4   5
ATOM      5  C   UNL     1     139.440 139.884 130.744  1.00  0.00     0.030 C 
BRANCH   5   6
ATOM      6  C   UNL     1     140.919 140.179 130.896  1.00  0.00    -0.077 C 
ATOM      7  C   UNL     1     141.853 139.013 131.113  1.00  0.00     0.039 C 
ATOM      8  C   UNL     1     141.446 141.428 130.893  1.00  0.00    -0.027 CG0
ATOM      9  G   UNL     1     140.708 142.737 130.654  1.00  0.00     0.000 G0
ENDBRANCH   5   6
ENDBRANCH   4   5
ENDBRANCH   3   4
ENDBRANCH   1   3
BRANCH   1  10
ATOM     10  C   UNL     1     137.563 141.684 133.970  1.00  0.00     0.057 C 
BRANCH  10  11
ATOM     11  C   UNL     1     138.270 142.560 132.970  1.00  0.00    -0.026 C 
ATOM     12  C   UNL     1     139.610 142.684 132.957  1.00  0.00    -0.024 C 
BRANCH  12  13
ATOM     13  C   UNL     1     140.353 143.559 131.954  1.00  0.00    -0.014 C 
ATOM     14  C   UNL     1     141.625 144.122 132.632  1.00  0.00     0.016 C 
ATOM     15  C   UNL     1     139.462 144.759 131.563  1.00  0.00     0.016 C 
BRANCH  13  16
ATOM     16  C   UNL     1     140.710 142.753 130.666  1.00  0.00     0.038 CG0
ATOM     17  G   UNL     1     141.444 141.442 130.912  1.00  0.00     0.000 G0
ENDBRANCH  13  16
ENDBRANCH  12  13
ENDBRANCH  10  11
ENDBRANCH   1  10
TORSDOF 0
ENDMDL
MODEL 8
REMARK VINA RESULT:    -3.252      3.422      5.279
REMARK INTER + INTRA:          -4.359
REMARK INTER:                  -4.679
REMARK INTRA:                   0.320
REMARK UNBOUND:                 0.413
REMARK SMILES C=C1CC=CC(C)(C)CC=C(C)CCC1
REMARK SMILES IDX 2 1 1 2 15 3 14 4 13 5 11 6 12 7 10 8 3 10 4 11 5 12 6 13
REMARK SMILES IDX 7 14 8 15 9 16
REMARK H PARENT
REMARK Flexibility Score: 60.00
ROOT
ATOM      1  C   UNL     1     142.216 138.069 133.843  1.00  0.00    -0.074 C 
ATOM      2  C   UNL     1     142.328 137.633 132.579  1.00  0.00     0.008 C 
ENDROOT
BRANCH   1   3
ATOM      3  C   UNL     1     140.956 137.775 134.632  1.00  0.00     0.031 C 
BRANCH   3   4
ATOM      4  C   UNL     1     139.794 138.653 134.127  1.00  0.00     0.009 C 
BRANCH   4   5
ATOM      5  C   UNL     1     139.043 139.371 135.263  1.00  0.00     0.030 C 
BRANCH   5   6
ATOM      6  C   UNL     1     138.690 140.788 134.855  1.00  0.00    -0.077 C 
ATOM      7  C   UNL     1     137.560 140.979 133.872  1.00  0.00     0.039 C 
ATOM      8  C   UNL     1     139.356 141.888 135.284  1.00  0.00    -0.027 CG0
ATOM      9  G   UNL     1     140.492 141.938 136.296  1.00  0.00     0.000 G0
ENDBRANCH   5   6
ENDBRANCH   4   5
ENDBRANCH   3   4
ENDBRANCH   1   3
BRANCH   1  10
ATOM     10  C   UNL     1     143.359 138.828 134.490  1.00  0.00     0.057 C 
BRANCH  10  11
ATOM     11  C   UNL     1     142.868 139.948 135.368  1.00  0.00    -0.026 C 
ATOM     12  C   UNL     1     142.412 141.106 134.854  1.00  0.00    -0.024 C 
BRANCH  12  13
ATOM     13  C   UNL     1     141.903 142.255 135.717  1.00  0.00    -0.014 C 
ATOM     14  C   UNL     1     141.878 143.545 134.864  1.00  0.00     0.016 C 
ATOM     15  C   UNL     1     142.885 142.488 136.888  1.00  0.00     0.016 C 
BRANCH  13  16
ATOM     16  C   UNL     1     140.490 141.935 136.297  1.00  0.00     0.038 CG0
ATOM     17  G   UNL     1     139.369 141.891 135.269  1.00  0.00     0.000 G0
ENDBRANCH  13  16
ENDBRANCH  12  13
ENDBRANCH  10  11
ENDBRANCH   1  10
TORSDOF 0
ENDMDL
MODEL 9
REMARK VINA RESULT:    -3.226      2.946      5.010
REMARK INTER + INTRA:          -4.321
REMARK INTER:                  -4.595
REMARK INTRA:                   0.273
REMARK UNBOUND:                 0.413
REMARK SMILES C=C1CC=CC(C)(C)CC=C(C)CCC1
REMARK SMILES IDX 2 1 1 2 15 3 14 4 13 5 11 6 12 7 10 8 3 10 4 11 5 12 6 13
REMARK SMILES IDX 7 14 8 15 9 16
REMARK H PARENT
REMARK Flexibility Score: 60.00
ROOT
ATOM      1  C   UNL     1     144.294 142.186 133.371  1.00  0.00    -0.074 C 
ATOM      2  C   UNL     1     144.414 142.523 132.077  1.00  0.00     0.008 C 
ENDROOT
BRANCH   1   3
ATOM      3  C   UNL     1     144.760 140.823 133.840  1.00  0.00     0.031 C 
BRANCH   3   4
ATOM      4  C   UNL     1     143.818 139.724 133.307  1.00  0.00     0.009 C 
BRANCH   4   5
ATOM      5  C   UNL     1     143.057 138.989 134.425  1.00  0.00     0.030 C 
BRANCH   5   6
ATOM      6  C   UNL     1     141.571 138.958 134.126  1.00  0.00    -0.077 C 
ATOM      7  C   UNL     1     141.123 138.314 132.836  1.00  0.00     0.039 C 
ATOM      8  C   UNL     1     140.627 139.514 134.924  1.00  0.00    -0.027 CG0
ATOM      9  G   UNL     1     140.841 140.176 136.278  1.00  0.00     0.000 G0
ENDBRANCH   5   6
ENDBRANCH   4   5
ENDBRANCH   3   4
ENDBRANCH   1   3
BRANCH   1  10
ATOM     10  C   UNL     1     143.720 143.177 134.365  1.00  0.00     0.057 C 
BRANCH  10  11
ATOM     11  C   UNL     1     142.854 142.505 135.397  1.00  0.00    -0.026 C 
ATOM     12  C   UNL     1     141.518 142.420 135.256  1.00  0.00    -0.024 C 
BRANCH  12  13
ATOM     13  C   UNL     1     140.616 141.741 136.280  1.00  0.00    -0.014 C 
ATOM     14  C   UNL     1     139.145 142.102 135.965  1.00  0.00     0.016 C 
ATOM     15  C   UNL     1     140.940 142.289 137.689  1.00  0.00     0.016 C 
BRANCH  13  16
ATOM     16  C   UNL     1     140.831 140.195 136.277  1.00  0.00     0.038 CG0
ATOM     17  G   UNL     1     140.635 139.523 134.925  1.00  0.00     0.000 G0
ENDBRANCH  13  16
ENDBRANCH  12  13
ENDBRANCH  10  11
ENDBRANCH   1  10
TORSDOF 0
ENDMDL
