MODEL 1
REMARK VINA RESULT:    -2.731      0.000      0.000
REMARK INTER + INTRA:          -3.324
REMARK INTER:                  -3.050
REMARK INTRA:                  -0.273
REMARK UNBOUND:                -0.273
REMARK SMILES CC(=O)c1ccc(O)cc1O
REMARK SMILES IDX 4 1 10 2 9 3 7 4 6 5 5 6 2 7 1 8 3 9 11 10 8 12
REMARK H PARENT 11 11 8 13
REMARK Flexibility Score: inf
ROOT
ATOM      1  C   UNL     1      33.035  24.317  28.512  1.00  0.00     0.059 A 
ATOM      2  C   UNL     1      32.111  24.506  29.568  1.00  0.00     0.130 A 
ATOM      3  C   UNL     1      30.733  24.487  29.307  1.00  0.00     0.093 A 
ATOM      4  C   UNL     1      30.258  24.278  28.008  1.00  0.00     0.119 A 
ATOM      5  C   UNL     1      31.163  24.088  26.964  1.00  0.00     0.047 A 
ATOM      6  C   UNL     1      32.537  24.107  27.209  1.00  0.00     0.019 A 
ENDROOT
BRANCH   1   7
ATOM      7  C   UNL     1      34.506  24.342  28.758  1.00  0.00     0.163 C 
ATOM      8  C   UNL     1      35.461  23.557  27.910  1.00  0.00     0.093 C 
ATOM      9  O   UNL     1      34.982  25.059  29.680  1.00  0.00    -0.294 OA
ENDBRANCH   1   7
BRANCH   2  10
ATOM     10  O   UNL     1      32.554  24.701  30.877  1.00  0.00    -0.507 OA
ATOM     11  H   UNL     1      32.069  25.319  31.518  1.00  0.00     0.293 HD
ENDBRANCH   2  10
BRANCH   4  12
ATOM     12  O   UNL     1      28.890  24.258  27.745  1.00  0.00    -0.508 OA
ATOM     13  H   UNL     1      28.207  24.254  28.494  1.00  0.00     0.293 HD
ENDBRANCH   4  12
TORSDOF 3
ENDMDL
MODEL 2
REMARK VINA RESULT:    -2.464      1.970      2.646
REMARK INTER + INTRA:          -3.025
REMARK INTER:                  -2.747
REMARK INTRA:                  -0.279
REMARK UNBOUND:                -0.273
REMARK SMILES CC(=O)c1ccc(O)cc1O
REMARK SMILES IDX 4 1 10 2 9 3 7 4 6 5 5 6 2 7 1 8 3 9 11 10 8 12
REMARK H PARENT 11 11 8 13
REMARK Flexibility Score: inf
ROOT
ATOM      1  C   UNL     1      34.023  24.125  28.685  1.00  0.00     0.059 A 
ATOM      2  C   UNL     1      32.995  23.251  28.256  1.00  0.00     0.130 A 
ATOM      3  C   UNL     1      31.722  23.323  28.839  1.00  0.00     0.093 A 
ATOM      4  C   UNL     1      31.452  24.259  29.844  1.00  0.00     0.119 A 
ATOM      5  C   UNL     1      32.459  25.124  30.270  1.00  0.00     0.047 A 
ATOM      6  C   UNL     1      33.732  25.061  29.699  1.00  0.00     0.019 A 
ENDROOT
BRANCH   1   7
ATOM      7  C   UNL     1      35.390  24.063  28.090  1.00  0.00     0.163 C 
ATOM      8  C   UNL     1      36.619  24.322  28.910  1.00  0.00     0.093 C 
ATOM      9  O   UNL     1      35.539  23.760  26.875  1.00  0.00    -0.294 OA
ENDBRANCH   1   7
BRANCH   2  10
ATOM     10  O   UNL     1      33.230  22.318  27.244  1.00  0.00    -0.507 OA
ATOM     11  H   UNL     1      33.070  22.539  26.268  1.00  0.00     0.293 HD
ENDBRANCH   2  10
BRANCH   4  12
ATOM     12  O   UNL     1      30.188  24.334  30.425  1.00  0.00    -0.508 OA
ATOM     13  H   UNL     1      30.044  24.126  31.407  1.00  0.00     0.293 HD
ENDBRANCH   4  12
TORSDOF 3
ENDMDL
MODEL 3
REMARK VINA RESULT:    -2.435      1.690      4.447
REMARK INTER + INTRA:          -2.992
REMARK INTER:                  -2.685
REMARK INTRA:                  -0.307
REMARK UNBOUND:                -0.273
REMARK SMILES CC(=O)c1ccc(O)cc1O
REMARK SMILES IDX 4 1 10 2 9 3 7 4 6 5 5 6 2 7 1 8 3 9 11 10 8 12
REMARK H PARENT 11 11 8 13
REMARK Flexibility Score: inf
ROOT
ATOM      1  C   UNL     1      31.999  24.551  29.704  1.00  0.00     0.059 A 
ATOM      2  C   UNL     1      32.303  23.942  28.462  1.00  0.00     0.130 A 
ATOM      3  C   UNL     1      33.625  23.921  27.995  1.00  0.00     0.093 A 
ATOM      4  C   UNL     1      34.655  24.494  28.750  1.00  0.00     0.119 A 
ATOM      5  C   UNL     1      34.363  25.093  29.974  1.00  0.00     0.047 A 
ATOM      6  C   UNL     1      33.050  25.123  30.450  1.00  0.00     0.019 A 
ENDROOT
BRANCH   1   7
ATOM      7  C   UNL     1      30.600  24.597  30.220  1.00  0.00     0.163 C 
ATOM      8  C   UNL     1      30.262  24.180  31.621  1.00  0.00     0.093 C 
ATOM      9  O   UNL     1      29.667  25.023  29.486  1.00  0.00    -0.294 OA
ENDBRANCH   1   7
BRANCH   2  10
ATOM     10  O   UNL     1      31.300  23.348  27.695  1.00  0.00    -0.507 OA
ATOM     11  H   UNL     1      30.644  23.900  27.154  1.00  0.00     0.293 HD
ENDBRANCH   2  10
BRANCH   4  12
ATOM     12  O   UNL     1      35.970  24.475  28.290  1.00  0.00    -0.508 OA
ATOM     13  H   UNL     1      36.211  24.067  27.394  1.00  0.00     0.293 HD
ENDBRANCH   4  12
TORSDOF 3
ENDMDL
MODEL 4
REMARK VINA RESULT:    -2.368      1.740      4.589
REMARK INTER + INTRA:          -2.918
REMARK INTER:                  -2.649
REMARK INTRA:                  -0.270
REMARK UNBOUND:                -0.273
REMARK SMILES CC(=O)c1ccc(O)cc1O
REMARK SMILES IDX 4 1 10 2 9 3 7 4 6 5 5 6 2 7 1 8 3 9 11 10 8 12
REMARK H PARENT 11 11 8 13
REMARK Flexibility Score: inf
ROOT
ATOM      1  C   UNL     1      32.625  24.151  29.143  1.00  0.00     0.059 A 
ATOM      2  C   UNL     1      33.301  23.495  28.086  1.00  0.00     0.130 A 
ATOM      3  C   UNL     1      34.684  23.664  27.924  1.00  0.00     0.093 A 
ATOM      4  C   UNL     1      35.409  24.474  28.804  1.00  0.00     0.119 A 
ATOM      5  C   UNL     1      34.750  25.122  29.848  1.00  0.00     0.047 A 
ATOM      6  C   UNL     1      33.373  24.965  30.019  1.00  0.00     0.019 A 
ENDROOT
BRANCH   1   7
ATOM      7  C   UNL     1      31.153  23.999  29.333  1.00  0.00     0.163 C 
ATOM      8  C   UNL     1      30.515  24.127  30.684  1.00  0.00     0.093 C 
ATOM      9  O   UNL     1      30.405  23.785  28.340  1.00  0.00    -0.294 OA
ENDBRANCH   1   7
BRANCH   2  10
ATOM     10  O   UNL     1      32.607  22.667  27.202  1.00  0.00    -0.507 OA
ATOM     11  H   UNL     1      33.069  21.921  26.696  1.00  0.00     0.293 HD
ENDBRANCH   2  10
BRANCH   4  12
ATOM     12  O   UNL     1      36.783  24.644  28.647  1.00  0.00    -0.508 OA
ATOM     13  H   UNL     1      37.412  24.636  29.442  1.00  0.00     0.293 HD
ENDBRANCH   4  12
TORSDOF 3
ENDMDL
MODEL 5
REMARK VINA RESULT:    -2.368      1.837      2.418
REMARK INTER + INTRA:          -2.918
REMARK INTER:                  -2.660
REMARK INTRA:                  -0.258
REMARK UNBOUND:                -0.273
REMARK SMILES CC(=O)c1ccc(O)cc1O
REMARK SMILES IDX 4 1 10 2 9 3 7 4 6 5 5 6 2 7 1 8 3 9 11 10 8 12
REMARK H PARENT 11 11 8 13
REMARK Flexibility Score: inf
ROOT
ATOM      1  C   UNL     1      32.431  24.415  29.350  1.00  0.00     0.059 A 
ATOM      2  C   UNL     1      32.707  24.882  30.657  1.00  0.00     0.130 A 
ATOM      3  C   UNL     1      31.657  25.118  31.555  1.00  0.00     0.093 A 
ATOM      4  C   UNL     1      30.330  24.892  31.173  1.00  0.00     0.119 A 
ATOM      5  C   UNL     1      30.051  24.429  29.888  1.00  0.00     0.047 A 
ATOM      6  C   UNL     1      31.087  24.192  28.983  1.00  0.00     0.019 A 
ENDROOT
BRANCH   1   7
ATOM      7  C   UNL     1      33.528  24.164  28.369  1.00  0.00     0.163 C 
ATOM      8  C   UNL     1      33.369  23.189  27.241  1.00  0.00     0.093 C 
ATOM      9  O   UNL     1      34.613  24.800  28.458  1.00  0.00    -0.294 OA
ENDBRANCH   1   7
BRANCH   2  10
ATOM     10  O   UNL     1      34.022  25.101  31.072  1.00  0.00    -0.507 OA
ATOM     11  H   UNL     1      34.529  25.940  30.815  1.00  0.00     0.293 HD
ENDBRANCH   2  10
BRANCH   4  12
ATOM     12  O   UNL     1      29.284  25.125  32.063  1.00  0.00    -0.508 OA
ATOM     13  H   UNL     1      29.265  24.699  32.983  1.00  0.00     0.293 HD
ENDBRANCH   4  12
TORSDOF 3
ENDMDL
MODEL 6
REMARK VINA RESULT:    -2.282      2.500      3.652
REMARK INTER + INTRA:          -2.821
REMARK INTER:                  -2.709
REMARK INTRA:                  -0.113
REMARK UNBOUND:                -0.273
REMARK SMILES CC(=O)c1ccc(O)cc1O
REMARK SMILES IDX 4 1 10 2 9 3 7 4 6 5 5 6 2 7 1 8 3 9 11 10 8 12
REMARK H PARENT 11 11 8 13
REMARK Flexibility Score: inf
ROOT
ATOM      1  C   UNL     1      31.678  25.088  31.417  1.00  0.00     0.059 A 
ATOM      2  C   UNL     1      30.342  25.078  30.950  1.00  0.00     0.130 A 
ATOM      3  C   UNL     1      30.079  25.076  29.572  1.00  0.00     0.093 A 
ATOM      4  C   UNL     1      31.130  25.080  28.648  1.00  0.00     0.119 A 
ATOM      5  C   UNL     1      32.448  25.088  29.101  1.00  0.00     0.047 A 
ATOM      6  C   UNL     1      32.724  25.091  30.470  1.00  0.00     0.019 A 
ENDROOT
BRANCH   1   7
ATOM      7  C   UNL     1      31.987  25.100  32.876  1.00  0.00     0.163 C 
ATOM      8  C   UNL     1      33.399  25.119  33.383  1.00  0.00     0.093 C 
ATOM      9  O   UNL     1      31.052  25.124  33.722  1.00  0.00    -0.294 OA
ENDBRANCH   1   7
BRANCH   2  10
ATOM     10  O   UNL     1      29.273  25.057  31.847  1.00  0.00    -0.507 OA
ATOM     11  H   UNL     1      29.024  25.870  32.399  1.00  0.00     0.293 HD
ENDBRANCH   2  10
BRANCH   4  12
ATOM     12  O   UNL     1      30.873  25.078  27.279  1.00  0.00    -0.508 OA
ATOM     13  H   UNL     1      30.320  24.348  26.845  1.00  0.00     0.293 HD
ENDBRANCH   4  12
TORSDOF 3
ENDMDL
