MODEL 1
REMARK VINA RESULT:    -4.926      0.000      0.000
REMARK INTER + INTRA:         -10.361
REMARK INTER:                  -8.957
REMARK INTRA:                  -1.404
REMARK UNBOUND:                -1.404
REMARK SMILES CCCCCC=CCC=CCCCCCCCC(=O)[O-]
REMARK SMILES IDX 11 1 12 2 13 3 14 4 15 5 16 6 17 7 18 8 19 9 20 10 10 11
REMARK SMILES IDX 9 12 8 13 7 14 6 15 5 16 4 17 3 18 2 19 1 20
REMARK H PARENT
REMARK Flexibility Score: inf
ROOT
ATOM      1  C   UNL     1       7.487   2.817  -4.443  1.00  0.00     0.027 C 
ENDROOT
BRANCH   1   2
ATOM      2  C   UNL     1       8.451   1.843  -3.755  1.00  0.00     0.004 C 
BRANCH   2   3
ATOM      3  C   UNL     1       7.704   0.597  -3.254  1.00  0.00     0.000 C 
BRANCH   3   4
ATOM      4  C   UNL     1       8.643  -0.452  -2.631  1.00  0.00     0.000 C 
BRANCH   4   5
ATOM      5  C   UNL     1       8.256  -0.814  -1.185  1.00  0.00     0.000 C 
BRANCH   5   6
ATOM      6  C   UNL     1       9.358  -1.608  -0.458  1.00  0.00     0.006 C 
BRANCH   6   7
ATOM      7  C   UNL     1       8.865  -2.890   0.235  1.00  0.00     0.053 C 
BRANCH   7   8
ATOM      8  C   UNL     1       8.278  -3.864  -0.738  1.00  0.00     0.041 C 
ATOM      9  O   UNL     1       7.167  -4.405  -0.503  1.00  0.00    -0.550 OA
ATOM     10  O   UNL     1       8.946  -4.152  -1.921  1.00  0.00    -0.550 OA
ENDBRANCH   7   8
ENDBRANCH   6   7
ENDBRANCH   5   6
ENDBRANCH   4   5
ENDBRANCH   3   4
ENDBRANCH   2   3
ENDBRANCH   1   2
BRANCH   1  11
ATOM     11  C   UNL     1       6.164   2.154  -4.732  1.00  0.00    -0.031 C 
ATOM     12  C   UNL     1       5.550   2.170  -5.929  1.00  0.00    -0.027 C 
BRANCH  12  13
ATOM     13  C   UNL     1       6.096   2.886  -7.139  1.00  0.00     0.054 C 
BRANCH  13  14
ATOM     14  C   UNL     1       5.454   4.235  -7.298  1.00  0.00    -0.027 C 
ATOM     15  C   UNL     1       4.352   4.569  -6.608  1.00  0.00    -0.031 C 
BRANCH  15  16
ATOM     16  C   UNL     1       3.701   5.918  -6.755  1.00  0.00     0.027 C 
BRANCH  16  17
ATOM     17  C   UNL     1       3.627   6.623  -5.393  1.00  0.00     0.004 C 
BRANCH  17  18
ATOM     18  C   UNL     1       4.928   7.382  -5.053  1.00  0.00     0.000 C 
BRANCH  18  19
ATOM     19  C   UNL     1       5.999   6.506  -4.378  1.00  0.00    -0.003 C 
ATOM     20  C   UNL     1       7.358   6.576  -5.074  1.00  0.00     0.004 C 
ENDBRANCH  18  19
ENDBRANCH  17  18
ENDBRANCH  16  17
ENDBRANCH  15  16
ENDBRANCH  13  14
ENDBRANCH  12  13
ENDBRANCH   1  11
TORSDOF 14
ENDMDL
MODEL 2
REMARK VINA RESULT:    -4.791      3.609      9.293
REMARK INTER + INTRA:         -10.116
REMARK INTER:                  -8.852
REMARK INTRA:                  -1.264
REMARK UNBOUND:                -1.404
REMARK SMILES CCCCCC=CCC=CCCCCCCCC(=O)[O-]
REMARK SMILES IDX 11 1 12 2 13 3 14 4 15 5 16 6 17 7 18 8 19 9 20 10 10 11
REMARK SMILES IDX 9 12 8 13 7 14 6 15 5 16 4 17 3 18 2 19 1 20
REMARK H PARENT
REMARK Flexibility Score: inf
ROOT
ATOM      1  C   UNL     1       6.032   2.339  -4.772  1.00  0.00     0.027 C 
ENDROOT
BRANCH   1   2
ATOM      2  C   UNL     1       5.978   2.037  -6.275  1.00  0.00     0.004 C 
BRANCH   2   3
ATOM      3  C   UNL     1       5.097   3.060  -7.008  1.00  0.00     0.000 C 
BRANCH   3   4
ATOM      4  C   UNL     1       5.915   4.155  -7.716  1.00  0.00     0.000 C 
BRANCH   4   5
ATOM      5  C   UNL     1       5.285   5.553  -7.576  1.00  0.00     0.000 C 
BRANCH   5   6
ATOM      6  C   UNL     1       6.235   6.568  -6.912  1.00  0.00     0.006 C 
BRANCH   6   7
ATOM      7  C   UNL     1       7.152   5.968  -5.833  1.00  0.00     0.053 C 
BRANCH   7   8
ATOM      8  C   UNL     1       6.593   6.153  -4.456  1.00  0.00     0.041 C 
ATOM      9  O   UNL     1       7.361   6.221  -3.463  1.00  0.00    -0.550 OA
ATOM     10  O   UNL     1       5.222   6.281  -4.274  1.00  0.00    -0.550 OA
ENDBRANCH   7   8
ENDBRANCH   6   7
ENDBRANCH   5   6
ENDBRANCH   4   5
ENDBRANCH   3   4
ENDBRANCH   2   3
ENDBRANCH   1   2
BRANCH   1  11
ATOM     11  C   UNL     1       7.453   2.547  -4.314  1.00  0.00    -0.031 C 
ATOM     12  C   UNL     1       8.189   1.623  -3.671  1.00  0.00    -0.027 C 
BRANCH  12  13
ATOM     13  C   UNL     1       7.672   0.256  -3.296  1.00  0.00     0.054 C 
BRANCH  13  14
ATOM     14  C   UNL     1       8.675  -0.486  -2.461  1.00  0.00    -0.027 C 
ATOM     15  C   UNL     1       8.396  -0.859  -1.202  1.00  0.00    -0.031 C 
BRANCH  15  16
ATOM     16  C   UNL     1       9.391  -1.606  -0.355  1.00  0.00     0.027 C 
BRANCH  16  17
ATOM     17  C   UNL     1       9.537  -3.050  -0.857  1.00  0.00     0.004 C 
BRANCH  17  18
ATOM     18  C   UNL     1       8.263  -3.888  -0.614  1.00  0.00     0.000 C 
BRANCH  18  19
ATOM     19  C   UNL     1       8.427  -4.961   0.477  1.00  0.00    -0.003 C 
ATOM     20  C   UNL     1       8.385  -4.389   1.894  1.00  0.00     0.004 C 
ENDBRANCH  18  19
ENDBRANCH  17  18
ENDBRANCH  16  17
ENDBRANCH  15  16
ENDBRANCH  13  14
ENDBRANCH  12  13
ENDBRANCH   1  11
TORSDOF 14
ENDMDL
MODEL 3
REMARK VINA RESULT:    -4.760      3.909      9.439
REMARK INTER + INTRA:         -10.060
REMARK INTER:                  -8.765
REMARK INTRA:                  -1.295
REMARK UNBOUND:                -1.404
REMARK SMILES CCCCCC=CCC=CCCCCCCCC(=O)[O-]
REMARK SMILES IDX 11 1 12 2 13 3 14 4 15 5 16 6 17 7 18 8 19 9 20 10 10 11
REMARK SMILES IDX 9 12 8 13 7 14 6 15 5 16 4 17 3 18 2 19 1 20
REMARK H PARENT
REMARK Flexibility Score: inf
ROOT
ATOM      1  C   UNL     1       6.037   2.252  -4.713  1.00  0.00     0.027 C 
ENDROOT
BRANCH   1   2
ATOM      2  C   UNL     1       5.924   2.230  -6.243  1.00  0.00     0.004 C 
BRANCH   2   3
ATOM      3  C   UNL     1       6.884   3.248  -6.878  1.00  0.00     0.000 C 
BRANCH   3   4
ATOM      4  C   UNL     1       6.160   4.283  -7.758  1.00  0.00     0.000 C 
BRANCH   4   5
ATOM      5  C   UNL     1       4.668   4.426  -7.404  1.00  0.00     0.000 C 
BRANCH   5   6
ATOM      6  C   UNL     1       4.253   5.892  -7.172  1.00  0.00     0.006 C 
BRANCH   6   7
ATOM      7  C   UNL     1       3.917   6.234  -5.711  1.00  0.00     0.053 C 
BRANCH   7   8
ATOM      8  C   UNL     1       5.095   6.802  -4.983  1.00  0.00     0.041 C 
ATOM      9  O   UNL     1       5.747   6.092  -4.176  1.00  0.00    -0.550 OA
ATOM     10  O   UNL     1       5.492   8.112  -5.220  1.00  0.00    -0.550 OA
ENDBRANCH   7   8
ENDBRANCH   6   7
ENDBRANCH   5   6
ENDBRANCH   4   5
ENDBRANCH   3   4
ENDBRANCH   2   3
ENDBRANCH   1   2
BRANCH   1  11
ATOM     11  C   UNL     1       7.463   2.478  -4.282  1.00  0.00    -0.031 C 
ATOM     12  C   UNL     1       8.217   1.569  -3.638  1.00  0.00    -0.027 C 
BRANCH  12  13
ATOM     13  C   UNL     1       7.717   0.204  -3.234  1.00  0.00     0.054 C 
BRANCH  13  14
ATOM     14  C   UNL     1       8.729  -0.507  -2.382  1.00  0.00    -0.027 C 
ATOM     15  C   UNL     1       8.418  -0.952  -1.154  1.00  0.00    -0.031 C 
BRANCH  15  16
ATOM     16  C   UNL     1       9.421  -1.669  -0.291  1.00  0.00     0.027 C 
BRANCH  16  17
ATOM     17  C   UNL     1       9.535  -3.140  -0.719  1.00  0.00     0.004 C 
BRANCH  17  18
ATOM     18  C   UNL     1       8.359  -3.996  -0.200  1.00  0.00     0.000 C 
BRANCH  18  19
ATOM     19  C   UNL     1       7.764  -4.939  -1.261  1.00  0.00    -0.003 C 
ATOM     20  C   UNL     1       8.335  -4.707  -2.659  1.00  0.00     0.004 C 
ENDBRANCH  18  19
ENDBRANCH  17  18
ENDBRANCH  16  17
ENDBRANCH  15  16
ENDBRANCH  13  14
ENDBRANCH  12  13
ENDBRANCH   1  11
TORSDOF 14
ENDMDL
MODEL 4
REMARK VINA RESULT:    -4.695      3.229      4.990
REMARK INTER + INTRA:          -9.942
REMARK INTER:                  -7.430
REMARK INTRA:                  -2.511
REMARK UNBOUND:                -1.404
REMARK SMILES CCCCCC=CCC=CCCCCCCCC(=O)[O-]
REMARK SMILES IDX 11 1 12 2 13 3 14 4 15 5 16 6 17 7 18 8 19 9 20 10 10 11
REMARK SMILES IDX 9 12 8 13 7 14 6 15 5 16 4 17 3 18 2 19 1 20
REMARK H PARENT
REMARK Flexibility Score: inf
ROOT
ATOM      1  C   UNL     1       5.832   2.436  -8.300  1.00  0.00     0.027 C 
ENDROOT
BRANCH   1   2
ATOM      2  C   UNL     1       7.363   2.527  -8.282  1.00  0.00     0.004 C 
BRANCH   2   3
ATOM      3  C   UNL     1       7.822   3.965  -7.993  1.00  0.00     0.000 C 
BRANCH   3   4
ATOM      4  C   UNL     1       8.636   4.082  -6.692  1.00  0.00     0.000 C 
BRANCH   4   5
ATOM      5  C   UNL     1       7.945   4.964  -5.635  1.00  0.00     0.000 C 
BRANCH   5   6
ATOM      6  C   UNL     1       7.738   4.232  -4.296  1.00  0.00     0.006 C 
BRANCH   6   7
ATOM      7  C   UNL     1       8.279   2.793  -4.268  1.00  0.00     0.053 C 
BRANCH   7   8
ATOM      8  C   UNL     1       7.288   1.832  -3.687  1.00  0.00     0.041 C 
ATOM      9  O   UNL     1       6.054   2.040  -3.810  1.00  0.00    -0.550 OA
ATOM     10  O   UNL     1       7.730   0.689  -3.033  1.00  0.00    -0.550 OA
ENDBRANCH   7   8
ENDBRANCH   6   7
ENDBRANCH   5   6
ENDBRANCH   4   5
ENDBRANCH   3   4
ENDBRANCH   2   3
ENDBRANCH   1   2
BRANCH   1  11
ATOM     11  C   UNL     1       5.266   2.592  -6.911  1.00  0.00    -0.031 C 
ATOM     12  C   UNL     1       4.474   3.607  -6.521  1.00  0.00    -0.027 C 
BRANCH  12  13
ATOM     13  C   UNL     1       4.072   4.747  -7.423  1.00  0.00     0.054 C 
BRANCH  13  14
ATOM     14  C   UNL     1       4.557   6.060  -6.876  1.00  0.00    -0.027 C 
ATOM     15  C   UNL     1       4.672   6.265  -5.555  1.00  0.00    -0.031 C 
BRANCH  15  16
ATOM     16  C   UNL     1       5.159   7.573  -4.993  1.00  0.00     0.027 C 
BRANCH  16  17
ATOM     17  C   UNL     1       4.906   8.709  -5.995  1.00  0.00     0.004 C 
BRANCH  17  18
ATOM     18  C   UNL     1       3.799   9.675  -5.520  1.00  0.00     0.000 C 
BRANCH  18  19
ATOM     19  C   UNL     1       2.457   9.485  -6.249  1.00  0.00    -0.003 C 
ATOM     20  C   UNL     1       1.628   8.330  -5.688  1.00  0.00     0.004 C 
ENDBRANCH  18  19
ENDBRANCH  17  18
ENDBRANCH  16  17
ENDBRANCH  15  16
ENDBRANCH  13  14
ENDBRANCH  12  13
ENDBRANCH   1  11
TORSDOF 14
ENDMDL
MODEL 5
REMARK VINA RESULT:    -4.691      3.135      5.182
REMARK INTER + INTRA:          -9.935
REMARK INTER:                  -7.102
REMARK INTRA:                  -2.832
REMARK UNBOUND:                -1.404
REMARK SMILES CCCCCC=CCC=CCCCCCCCC(=O)[O-]
REMARK SMILES IDX 11 1 12 2 13 3 14 4 15 5 16 6 17 7 18 8 19 9 20 10 10 11
REMARK SMILES IDX 9 12 8 13 7 14 6 15 5 16 4 17 3 18 2 19 1 20
REMARK H PARENT
REMARK Flexibility Score: inf
ROOT
ATOM      1  C   UNL     1       8.253   3.747  -9.011  1.00  0.00     0.027 C 
ENDROOT
BRANCH   1   2
ATOM      2  C   UNL     1       6.762   3.387  -8.982  1.00  0.00     0.004 C 
BRANCH   2   3
ATOM      3  C   UNL     1       6.564   1.904  -8.632  1.00  0.00     0.000 C 
BRANCH   3   4
ATOM      4  C   UNL     1       5.515   1.686  -7.526  1.00  0.00     0.000 C 
BRANCH   4   5
ATOM      5  C   UNL     1       5.225   2.966  -6.721  1.00  0.00     0.000 C 
BRANCH   5   6
ATOM      6  C   UNL     1       5.932   2.977  -5.352  1.00  0.00     0.006 C 
BRANCH   6   7
ATOM      7  C   UNL     1       6.281   1.583  -4.805  1.00  0.00     0.053 C 
BRANCH   7   8
ATOM      8  C   UNL     1       7.413   1.631  -3.826  1.00  0.00     0.041 C 
ATOM      9  O   UNL     1       8.268   2.552  -3.888  1.00  0.00    -0.550 OA
ATOM     10  O   UNL     1       7.507   0.673  -2.825  1.00  0.00    -0.550 OA
ENDBRANCH   7   8
ENDBRANCH   6   7
ENDBRANCH   5   6
ENDBRANCH   4   5
ENDBRANCH   3   4
ENDBRANCH   2   3
ENDBRANCH   1   2
BRANCH   1  11
ATOM     11  C   UNL     1       8.901   3.467  -7.679  1.00  0.00    -0.031 C 
ATOM     12  C   UNL     1       9.154   4.401  -6.744  1.00  0.00    -0.027 C 
BRANCH  12  13
ATOM     13  C   UNL     1       8.845   5.867  -6.922  1.00  0.00     0.054 C 
BRANCH  13  14
ATOM     14  C   UNL     1       7.537   6.222  -6.275  1.00  0.00    -0.027 C 
ATOM     15  C   UNL     1       7.380   6.163  -4.943  1.00  0.00    -0.031 C 
BRANCH  15  16
ATOM     16  C   UNL     1       6.076   6.520  -4.280  1.00  0.00     0.027 C 
BRANCH  16  17
ATOM     17  C   UNL     1       5.323   7.564  -5.117  1.00  0.00     0.004 C 
BRANCH  17  18
ATOM     18  C   UNL     1       3.829   7.212  -5.288  1.00  0.00     0.000 C 
BRANCH  18  19
ATOM     19  C   UNL     1       3.564   6.142  -6.363  1.00  0.00    -0.003 C 
ATOM     20  C   UNL     1       4.171   6.492  -7.721  1.00  0.00     0.004 C 
ENDBRANCH  18  19
ENDBRANCH  17  18
ENDBRANCH  16  17
ENDBRANCH  15  16
ENDBRANCH  13  14
ENDBRANCH  12  13
ENDBRANCH   1  11
TORSDOF 14
ENDMDL
MODEL 6
REMARK VINA RESULT:    -4.680     12.247     14.553
REMARK INTER + INTRA:          -9.915
REMARK INTER:                  -8.048
REMARK INTRA:                  -1.867
REMARK UNBOUND:                -1.404
REMARK SMILES CCCCCC=CCC=CCCCCCCCC(=O)[O-]
REMARK SMILES IDX 11 1 12 2 13 3 14 4 15 5 16 6 17 7 18 8 19 9 20 10 10 11
REMARK SMILES IDX 9 12 8 13 7 14 6 15 5 16 4 17 3 18 2 19 1 20
REMARK H PARENT
REMARK Flexibility Score: inf
ROOT
ATOM      1  C   UNL     1      -7.045   1.904  -5.772  1.00  0.00     0.027 C 
ENDROOT
BRANCH   1   2
ATOM      2  C   UNL     1      -8.437   1.635  -5.187  1.00  0.00     0.004 C 
BRANCH   2   3
ATOM      3  C   UNL     1      -8.538   2.163  -3.748  1.00  0.00     0.000 C 
BRANCH   3   4
ATOM      4  C   UNL     1      -9.749   3.090  -3.535  1.00  0.00     0.000 C 
BRANCH   4   5
ATOM      5  C   UNL     1      -9.701   4.345  -4.426  1.00  0.00     0.000 C 
BRANCH   5   6
ATOM      6  C   UNL     1      -8.913   5.501  -3.780  1.00  0.00     0.006 C 
BRANCH   6   7
ATOM      7  C   UNL     1      -8.762   5.392  -2.253  1.00  0.00     0.053 C 
BRANCH   7   8
ATOM      8  C   UNL     1      -7.326   5.377  -1.831  1.00  0.00     0.041 C 
ATOM      9  O   UNL     1      -6.666   4.307  -1.860  1.00  0.00    -0.550 OA
ATOM     10  O   UNL     1      -6.707   6.555  -1.431  1.00  0.00    -0.550 OA
ENDBRANCH   7   8
ENDBRANCH   6   7
ENDBRANCH   5   6
ENDBRANCH   4   5
ENDBRANCH   3   4
ENDBRANCH   2   3
ENDBRANCH   1   2
BRANCH   1  11
ATOM     11  C   UNL     1      -6.039   2.155  -4.677  1.00  0.00    -0.031 C 
ATOM     12  C   UNL     1      -5.254   3.245  -4.599  1.00  0.00    -0.027 C 
BRANCH  12  13
ATOM     13  C   UNL     1      -5.256   4.351  -5.625  1.00  0.00     0.054 C 
BRANCH  13  14
ATOM     14  C   UNL     1      -5.629   5.663  -4.996  1.00  0.00    -0.027 C 
ATOM     15  C   UNL     1      -4.720   6.636  -4.821  1.00  0.00    -0.031 C 
BRANCH  15  16
ATOM     16  C   UNL     1      -5.080   7.957  -4.196  1.00  0.00     0.027 C 
BRANCH  16  17
ATOM     17  C   UNL     1      -4.117   8.281  -3.045  1.00  0.00     0.004 C 
BRANCH  17  18
ATOM     18  C   UNL     1      -3.156   9.439  -3.392  1.00  0.00     0.000 C 
BRANCH  18  19
ATOM     19  C   UNL     1      -1.970   9.016  -4.279  1.00  0.00    -0.003 C 
ATOM     20  C   UNL     1      -1.985   9.677  -5.657  1.00  0.00     0.004 C 
ENDBRANCH  18  19
ENDBRANCH  17  18
ENDBRANCH  16  17
ENDBRANCH  15  16
ENDBRANCH  13  14
ENDBRANCH  12  13
ENDBRANCH   1  11
TORSDOF 14
ENDMDL
MODEL 7
REMARK VINA RESULT:    -4.673     12.877     14.692
REMARK INTER + INTRA:          -9.902
REMARK INTER:                  -7.769
REMARK INTRA:                  -2.133
REMARK UNBOUND:                -1.404
REMARK SMILES CCCCCC=CCC=CCCCCCCCC(=O)[O-]
REMARK SMILES IDX 11 1 12 2 13 3 14 4 15 5 16 6 17 7 18 8 19 9 20 10 10 11
REMARK SMILES IDX 9 12 8 13 7 14 6 15 5 16 4 17 3 18 2 19 1 20
REMARK H PARENT
REMARK Flexibility Score: inf
ROOT
ATOM      1  C   UNL     1      -7.038   6.501  -3.826  1.00  0.00     0.027 C 
ENDROOT
BRANCH   1   2
ATOM      2  C   UNL     1      -7.188   5.810  -2.465  1.00  0.00     0.004 C 
BRANCH   2   3
ATOM      3  C   UNL     1      -8.299   4.749  -2.509  1.00  0.00     0.000 C 
BRANCH   3   4
ATOM      4  C   UNL     1      -8.630   4.290  -3.941  1.00  0.00     0.000 C 
BRANCH   4   5
ATOM      5  C   UNL     1      -8.494   2.767  -4.124  1.00  0.00     0.000 C 
BRANCH   5   6
ATOM      6  C   UNL     1      -7.960   2.384  -5.518  1.00  0.00     0.006 C 
BRANCH   6   7
ATOM      7  C   UNL     1      -6.519   2.843  -5.796  1.00  0.00     0.053 C 
BRANCH   7   8
ATOM      8  C   UNL     1      -5.557   2.319  -4.776  1.00  0.00     0.041 C 
ATOM      9  O   UNL     1      -5.110   3.075  -3.876  1.00  0.00    -0.550 OA
ATOM     10  O   UNL     1      -5.175   0.983  -4.803  1.00  0.00    -0.550 OA
ENDBRANCH   7   8
ENDBRANCH   6   7
ENDBRANCH   5   6
ENDBRANCH   4   5
ENDBRANCH   3   4
ENDBRANCH   2   3
ENDBRANCH   1   2
BRANCH   1  11
ATOM     11  C   UNL     1      -5.600   6.494  -4.279  1.00  0.00    -0.031 C 
ATOM     12  C   UNL     1      -4.839   7.595  -4.414  1.00  0.00    -0.027 C 
BRANCH  12  13
ATOM     13  C   UNL     1      -5.340   8.994  -4.157  1.00  0.00     0.054 C 
BRANCH  13  14
ATOM     14  C   UNL     1      -5.201   9.355  -2.705  1.00  0.00    -0.027 C 
ATOM     15  C   UNL     1      -4.234   8.820  -1.943  1.00  0.00    -0.031 C 
BRANCH  15  16
ATOM     16  C   UNL     1      -4.081   9.175  -0.489  1.00  0.00     0.027 C 
BRANCH  16  17
ATOM     17  C   UNL     1      -4.685   8.073   0.394  1.00  0.00     0.004 C 
BRANCH  17  18
ATOM     18  C   UNL     1      -5.954   8.546   1.136  1.00  0.00     0.000 C 
BRANCH  18  19
ATOM     19  C   UNL     1      -7.258   7.955   0.571  1.00  0.00    -0.003 C 
ATOM     20  C   UNL     1      -7.980   8.903  -0.388  1.00  0.00     0.004 C 
ENDBRANCH  18  19
ENDBRANCH  17  18
ENDBRANCH  16  17
ENDBRANCH  15  16
ENDBRANCH  13  14
ENDBRANCH  12  13
ENDBRANCH   1  11
TORSDOF 14
ENDMDL
MODEL 8
REMARK VINA RESULT:    -4.602     12.524     14.741
REMARK INTER + INTRA:          -9.772
REMARK INTER:                  -7.694
REMARK INTRA:                  -2.078
REMARK UNBOUND:                -1.404
REMARK SMILES CCCCCC=CCC=CCCCCCCCC(=O)[O-]
REMARK SMILES IDX 11 1 12 2 13 3 14 4 15 5 16 6 17 7 18 8 19 9 20 10 10 11
REMARK SMILES IDX 9 12 8 13 7 14 6 15 5 16 4 17 3 18 2 19 1 20
REMARK H PARENT
REMARK Flexibility Score: inf
ROOT
ATOM      1  C   UNL     1      -7.124   5.429  -3.113  1.00  0.00     0.027 C 
ENDROOT
BRANCH   1   2
ATOM      2  C   UNL     1      -7.906   4.223  -2.578  1.00  0.00     0.004 C 
BRANCH   2   3
ATOM      3  C   UNL     1      -9.348   4.226  -3.110  1.00  0.00     0.000 C 
BRANCH   3   4
ATOM      4  C   UNL     1      -9.720   2.919  -3.834  1.00  0.00     0.000 C 
BRANCH   4   5
ATOM      5  C   UNL     1      -8.545   1.926  -3.909  1.00  0.00     0.000 C 
BRANCH   5   6
ATOM      6  C   UNL     1      -8.047   1.706  -5.350  1.00  0.00     0.006 C 
BRANCH   6   7
ATOM      7  C   UNL     1      -6.757   2.467  -5.700  1.00  0.00     0.053 C 
BRANCH   7   8
ATOM      8  C   UNL     1      -5.612   2.061  -4.825  1.00  0.00     0.041 C 
ATOM      9  O   UNL     1      -5.234   0.862  -4.788  1.00  0.00    -0.550 OA
ATOM     10  O   UNL     1      -4.942   3.016  -4.071  1.00  0.00    -0.550 OA
ENDBRANCH   7   8
ENDBRANCH   6   7
ENDBRANCH   5   6
ENDBRANCH   4   5
ENDBRANCH   3   4
ENDBRANCH   2   3
ENDBRANCH   1   2
BRANCH   1  11
ATOM     11  C   UNL     1      -7.985   6.666  -3.128  1.00  0.00    -0.031 C 
ATOM     12  C   UNL     1      -8.091   7.533  -2.104  1.00  0.00    -0.027 C 
BRANCH  12  13
ATOM     13  C   UNL     1      -7.380   7.359  -0.785  1.00  0.00     0.054 C 
BRANCH  13  14
ATOM     14  C   UNL     1      -5.940   7.771  -0.895  1.00  0.00    -0.027 C 
ATOM     15  C   UNL     1      -5.589   9.065  -0.966  1.00  0.00    -0.031 C 
BRANCH  15  16
ATOM     16  C   UNL     1      -4.150   9.493  -1.072  1.00  0.00     0.027 C 
BRANCH  16  17
ATOM     17  C   UNL     1      -3.770   9.723  -2.542  1.00  0.00     0.004 C 
BRANCH  17  18
ATOM     18  C   UNL     1      -3.342   8.419  -3.249  1.00  0.00     0.000 C 
BRANCH  18  19
ATOM     19  C   UNL     1      -4.311   7.969  -4.358  1.00  0.00    -0.003 C 
ATOM     20  C   UNL     1      -5.434   8.972  -4.617  1.00  0.00     0.004 C 
ENDBRANCH  18  19
ENDBRANCH  17  18
ENDBRANCH  16  17
ENDBRANCH  15  16
ENDBRANCH  13  14
ENDBRANCH  12  13
ENDBRANCH   1  11
TORSDOF 14
ENDMDL
MODEL 9
REMARK VINA RESULT:    -4.540     12.739     15.193
REMARK INTER + INTRA:          -9.661
REMARK INTER:                  -7.353
REMARK INTRA:                  -2.307
REMARK UNBOUND:                -1.404
REMARK SMILES CCCCCC=CCC=CCCCCCCCC(=O)[O-]
REMARK SMILES IDX 11 1 12 2 13 3 14 4 15 5 16 6 17 7 18 8 19 9 20 10 10 11
REMARK SMILES IDX 9 12 8 13 7 14 6 15 5 16 4 17 3 18 2 19 1 20
REMARK H PARENT
REMARK Flexibility Score: inf
ROOT
ATOM      1  C   UNL     1      -8.954   6.015  -0.465  1.00  0.00     0.027 C 
ENDROOT
BRANCH   1   2
ATOM      2  C   UNL     1      -8.785   5.458  -1.884  1.00  0.00     0.004 C 
BRANCH   2   3
ATOM      3  C   UNL     1      -7.298   5.343  -2.253  1.00  0.00     0.000 C 
BRANCH   3   4
ATOM      4  C   UNL     1      -7.063   4.542  -3.546  1.00  0.00     0.000 C 
BRANCH   4   5
ATOM      5  C   UNL     1      -7.713   3.146  -3.507  1.00  0.00     0.000 C 
BRANCH   5   6
ATOM      6  C   UNL     1      -7.677   2.437  -4.875  1.00  0.00     0.006 C 
BRANCH   6   7
ATOM      7  C   UNL     1      -6.494   2.843  -5.770  1.00  0.00     0.053 C 
BRANCH   7   8
ATOM      8  C   UNL     1      -5.248   2.085  -5.432  1.00  0.00     0.041 C 
ATOM      9  O   UNL     1      -4.122   2.527  -5.775  1.00  0.00    -0.550 OA
ATOM     10  O   UNL     1      -5.331   0.901  -4.710  1.00  0.00    -0.550 OA
ENDBRANCH   7   8
ENDBRANCH   6   7
ENDBRANCH   5   6
ENDBRANCH   4   5
ENDBRANCH   3   4
ENDBRANCH   2   3
ENDBRANCH   1   2
BRANCH   1  11
ATOM     11  C   UNL     1      -9.434   7.444  -0.500  1.00  0.00    -0.031 C 
ATOM     12  C   UNL     1      -8.767   8.485   0.029  1.00  0.00    -0.027 C 
BRANCH  12  13
ATOM     13  C   UNL     1      -7.454   8.351   0.760  1.00  0.00     0.054 C 
BRANCH  13  14
ATOM     14  C   UNL     1      -6.322   8.891  -0.067  1.00  0.00    -0.027 C 
ATOM     15  C   UNL     1      -5.523   8.076  -0.773  1.00  0.00    -0.031 C 
BRANCH  15  16
ATOM     16  C   UNL     1      -4.388   8.603  -1.609  1.00  0.00     0.027 C 
BRANCH  16  17
ATOM     17  C   UNL     1      -4.537   8.133  -3.063  1.00  0.00     0.004 C 
BRANCH  17  18
ATOM     18  C   UNL     1      -5.489   9.036  -3.878  1.00  0.00     0.000 C 
BRANCH  18  19
ATOM     19  C   UNL     1      -6.768   8.319  -4.350  1.00  0.00    -0.003 C 
ATOM     20  C   UNL     1      -8.027   8.801  -3.630  1.00  0.00     0.004 C 
ENDBRANCH  18  19
ENDBRANCH  17  18
ENDBRANCH  16  17
ENDBRANCH  15  16
ENDBRANCH  13  14
ENDBRANCH  12  13
ENDBRANCH   1  11
TORSDOF 14
ENDMDL
