MODEL 1
REMARK VINA RESULT:    -3.049      0.000      0.000
REMARK INTER + INTRA:          -3.445
REMARK INTER:                  -3.406
REMARK INTRA:                  -0.039
REMARK UNBOUND:                -0.039
REMARK SMILES CCCC(=O)[O-]
REMARK SMILES IDX 3 1 4 2 5 3 6 4 2 5 1 6
REMARK H PARENT
REMARK Flexibility Score: inf
ROOT
ATOM      1  C   UNL     1      -6.153   9.463  -7.956  1.00  0.00     0.052 C 
ENDROOT
BRANCH   1   2
ATOM      2  C   UNL     1      -6.889  10.136  -6.838  1.00  0.00     0.041 C 
ATOM      3  O   UNL     1      -6.520  11.269  -6.431  1.00  0.00    -0.550 OA
ATOM      4  O   UNL     1      -7.960   9.499  -6.225  1.00  0.00    -0.550 OA
ENDBRANCH   1   2
BRANCH   1   5
ATOM      5  C   UNL     1      -5.634  10.474  -8.985  1.00  0.00     0.003 C 
ATOM      6  C   UNL     1      -4.107  10.538  -9.020  1.00  0.00     0.004 C 
ENDBRANCH   1   5
TORSDOF 2
ENDMDL
MODEL 2
REMARK VINA RESULT:    -3.039     17.880     18.199
REMARK INTER + INTRA:          -3.433
REMARK INTER:                  -3.418
REMARK INTRA:                  -0.015
REMARK UNBOUND:                -0.039
REMARK SMILES CCCC(=O)[O-]
REMARK SMILES IDX 3 1 4 2 5 3 6 4 2 5 1 6
REMARK H PARENT
REMARK Flexibility Score: inf
ROOT
ATOM      1  C   UNL     1       5.775  10.403   6.687  1.00  0.00     0.052 C 
ENDROOT
BRANCH   1   2
ATOM      2  C   UNL     1       4.665   9.885   7.549  1.00  0.00     0.041 C 
ATOM      3  O   UNL     1       3.466  10.069   7.214  1.00  0.00    -0.550 OA
ATOM      4  O   UNL     1       4.954   9.228   8.739  1.00  0.00    -0.550 OA
ENDBRANCH   1   2
BRANCH   1   5
ATOM      5  C   UNL     1       5.240  11.148   5.458  1.00  0.00     0.003 C 
ATOM      6  C   UNL     1       6.210  11.097   4.278  1.00  0.00     0.004 C 
ENDBRANCH   1   5
TORSDOF 2
ENDMDL
MODEL 3
REMARK VINA RESULT:    -3.030      0.262      1.326
REMARK INTER + INTRA:          -3.422
REMARK INTER:                  -3.394
REMARK INTRA:                  -0.029
REMARK UNBOUND:                -0.039
REMARK SMILES CCCC(=O)[O-]
REMARK SMILES IDX 3 1 4 2 5 3 6 4 2 5 1 6
REMARK H PARENT
REMARK Flexibility Score: inf
ROOT
ATOM      1  C   UNL     1      -6.091   9.388  -7.919  1.00  0.00     0.052 C 
ENDROOT
BRANCH   1   2
ATOM      2  C   UNL     1      -7.013   9.911  -6.861  1.00  0.00     0.041 C 
ATOM      3  O   UNL     1      -7.877   9.156  -6.344  1.00  0.00    -0.550 OA
ATOM      4  O   UNL     1      -6.940  11.242  -6.469  1.00  0.00    -0.550 OA
ENDBRANCH   1   2
BRANCH   1   5
ATOM      5  C   UNL     1      -5.670  10.488  -8.901  1.00  0.00     0.003 C 
ATOM      6  C   UNL     1      -4.156  10.545  -9.099  1.00  0.00     0.004 C 
ENDBRANCH   1   5
TORSDOF 2
ENDMDL
MODEL 4
REMARK VINA RESULT:    -2.935      2.264      3.235
REMARK INTER + INTRA:          -3.316
REMARK INTER:                  -3.278
REMARK INTRA:                  -0.038
REMARK UNBOUND:                -0.039
REMARK SMILES CCCC(=O)[O-]
REMARK SMILES IDX 3 1 4 2 5 3 6 4 2 5 1 6
REMARK H PARENT
REMARK Flexibility Score: inf
ROOT
ATOM      1  C   UNL     1      -4.103  10.480  -8.734  1.00  0.00     0.052 C 
ENDROOT
BRANCH   1   2
ATOM      2  C   UNL     1      -3.750  11.625  -7.834  1.00  0.00     0.041 C 
ATOM      3  O   UNL     1      -3.366  12.719  -8.323  1.00  0.00    -0.550 OA
ATOM      4  O   UNL     1      -3.813  11.472  -6.454  1.00  0.00    -0.550 OA
ENDBRANCH   1   2
BRANCH   1   5
ATOM      5  C   UNL     1      -5.615  10.393  -8.977  1.00  0.00     0.003 C 
ATOM      6  C   UNL     1      -6.311   9.458  -7.989  1.00  0.00     0.004 C 
ENDBRANCH   1   5
TORSDOF 2
ENDMDL
MODEL 5
REMARK VINA RESULT:    -2.928     17.944     18.274
REMARK INTER + INTRA:          -3.309
REMARK INTER:                  -3.285
REMARK INTRA:                  -0.024
REMARK UNBOUND:                -0.039
REMARK SMILES CCCC(=O)[O-]
REMARK SMILES IDX 3 1 4 2 5 3 6 4 2 5 1 6
REMARK H PARENT
REMARK Flexibility Score: inf
ROOT
ATOM      1  C   UNL     1       4.952  10.923   5.731  1.00  0.00     0.052 C 
ENDROOT
BRANCH   1   2
ATOM      2  C   UNL     1       5.505  10.258   6.954  1.00  0.00     0.041 C 
ATOM      3  O   UNL     1       6.695  10.468   7.306  1.00  0.00    -0.550 OA
ATOM      4  O   UNL     1       4.716   9.379   7.687  1.00  0.00    -0.550 OA
ENDBRANCH   1   2
BRANCH   1   5
ATOM      5  C   UNL     1       6.056  11.269   4.724  1.00  0.00     0.003 C 
ATOM      6  C   UNL     1       6.384  12.761   4.708  1.00  0.00     0.004 C 
ENDBRANCH   1   5
TORSDOF 2
ENDMDL
MODEL 6
REMARK VINA RESULT:    -2.842      1.878      3.307
REMARK INTER + INTRA:          -3.212
REMARK INTER:                  -3.199
REMARK INTRA:                  -0.014
REMARK UNBOUND:                -0.039
REMARK SMILES CCCC(=O)[O-]
REMARK SMILES IDX 3 1 4 2 5 3 6 4 2 5 1 6
REMARK H PARENT
REMARK Flexibility Score: inf
ROOT
ATOM      1  C   UNL     1      -6.443   9.424  -7.669  1.00  0.00     0.052 C 
ENDROOT
BRANCH   1   2
ATOM      2  C   UNL     1      -5.231  10.283  -7.867  1.00  0.00     0.041 C 
ATOM      3  O   UNL     1      -4.920  11.146  -7.005  1.00  0.00    -0.550 OA
ATOM      4  O   UNL     1      -4.464  10.151  -9.018  1.00  0.00    -0.550 OA
ENDBRANCH   1   2
BRANCH   1   5
ATOM      5  C   UNL     1      -7.376   9.997  -6.595  1.00  0.00     0.003 C 
ATOM      6  C   UNL     1      -8.318   8.942  -6.018  1.00  0.00     0.004 C 
ENDBRANCH   1   5
TORSDOF 2
ENDMDL
MODEL 7
REMARK VINA RESULT:    -2.800     18.429     19.047
REMARK INTER + INTRA:          -3.166
REMARK INTER:                  -3.157
REMARK INTRA:                  -0.009
REMARK UNBOUND:                -0.039
REMARK SMILES CCCC(=O)[O-]
REMARK SMILES IDX 3 1 4 2 5 3 6 4 2 5 1 6
REMARK H PARENT
REMARK Flexibility Score: inf
ROOT
ATOM      1  C   UNL     1       3.420  11.425   9.135  1.00  0.00     0.052 C 
ENDROOT
BRANCH   1   2
ATOM      2  C   UNL     1       3.793  10.318   8.198  1.00  0.00     0.041 C 
ATOM      3  O   UNL     1       3.605  10.446   6.960  1.00  0.00    -0.550 OA
ATOM      4  O   UNL     1       4.319   9.131   8.694  1.00  0.00    -0.550 OA
ENDBRANCH   1   2
BRANCH   1   5
ATOM      5  C   UNL     1       1.970  11.295   9.618  1.00  0.00     0.003 C 
ATOM      6  C   UNL     1       1.297  12.653   9.813  1.00  0.00     0.004 C 
ENDBRANCH   1   5
TORSDOF 2
ENDMDL
MODEL 8
REMARK VINA RESULT:    -2.762     18.593     18.991
REMARK INTER + INTRA:          -3.124
REMARK INTER:                  -3.085
REMARK INTRA:                  -0.039
REMARK UNBOUND:                -0.039
REMARK SMILES CCCC(=O)[O-]
REMARK SMILES IDX 3 1 4 2 5 3 6 4 2 5 1 6
REMARK H PARENT
REMARK Flexibility Score: inf
ROOT
ATOM      1  C   UNL     1       3.318  10.377   7.780  1.00  0.00     0.052 C 
ENDROOT
BRANCH   1   2
ATOM      2  C   UNL     1       3.249  10.991   9.145  1.00  0.00     0.041 C 
ATOM      3  O   UNL     1       2.231  11.643   9.494  1.00  0.00    -0.550 OA
ATOM      4  O   UNL     1       4.322  10.870  10.018  1.00  0.00    -0.550 OA
ENDBRANCH   1   2
BRANCH   1   5
ATOM      5  C   UNL     1       4.659   9.671   7.541  1.00  0.00     0.003 C 
ATOM      6  C   UNL     1       5.601  10.491   6.660  1.00  0.00     0.004 C 
ENDBRANCH   1   5
TORSDOF 2
ENDMDL
MODEL 9
REMARK VINA RESULT:    -2.728     18.408     18.932
REMARK INTER + INTRA:          -3.085
REMARK INTER:                  -3.047
REMARK INTRA:                  -0.038
REMARK UNBOUND:                -0.039
REMARK SMILES CCCC(=O)[O-]
REMARK SMILES IDX 3 1 4 2 5 3 6 4 2 5 1 6
REMARK H PARENT
REMARK Flexibility Score: inf
ROOT
ATOM      1  C   UNL     1       4.557  10.503   6.567  1.00  0.00     0.052 C 
ENDROOT
BRANCH   1   2
ATOM      2  C   UNL     1       6.052  10.458   6.654  1.00  0.00     0.041 C 
ATOM      3  O   UNL     1       6.743  10.332   5.609  1.00  0.00    -0.550 OA
ATOM      4  O   UNL     1       6.681  10.521   7.891  1.00  0.00    -0.550 OA
ENDBRANCH   1   2
BRANCH   1   5
ATOM      5  C   UNL     1       3.897   9.756   7.732  1.00  0.00     0.003 C 
ATOM      6  C   UNL     1       3.175  10.698   8.694  1.00  0.00     0.004 C 
ENDBRANCH   1   5
TORSDOF 2
ENDMDL
