MODEL 1
REMARK VINA RESULT:    -3.151      0.000      0.000
REMARK INTER + INTRA:          -3.804
REMARK INTER:                  -3.704
REMARK INTRA:                  -0.101
REMARK UNBOUND:                -0.101
REMARK SMILES O=C([O-])CCC(=O)[O-]
REMARK SMILES IDX 4 1 2 2 1 3 3 4 5 5 6 6 7 7 8 8
REMARK H PARENT
REMARK Flexibility Score: inf
ROOT
ATOM      1  C   UNL     1      -5.535 -34.724  -9.039  1.00  0.00     0.059 C 
ENDROOT
BRANCH   1   2
ATOM      2  C   UNL     1      -4.526 -35.831  -8.983  1.00  0.00     0.042 C 
ATOM      3  O   UNL     1      -3.335 -35.587  -8.655  1.00  0.00    -0.550 OA
ATOM      4  O   UNL     1      -4.893 -37.124  -9.332  1.00  0.00    -0.550 OA
ENDBRANCH   1   2
BRANCH   1   5
ATOM      5  C   UNL     1      -6.410 -34.822 -10.292  1.00  0.00     0.059 C 
BRANCH   5   6
ATOM      6  C   UNL     1      -7.850 -35.042  -9.944  1.00  0.00     0.042 C 
ATOM      7  O   UNL     1      -8.738 -34.955 -10.831  1.00  0.00    -0.550 OA
ATOM      8  O   UNL     1      -8.214 -35.304  -8.628  1.00  0.00    -0.550 OA
ENDBRANCH   5   6
ENDBRANCH   1   5
TORSDOF 3
ENDMDL
MODEL 2
REMARK VINA RESULT:    -3.148      2.094      2.619
REMARK INTER + INTRA:          -3.801
REMARK INTER:                  -3.709
REMARK INTRA:                  -0.092
REMARK UNBOUND:                -0.101
REMARK SMILES O=C([O-])CCC(=O)[O-]
REMARK SMILES IDX 4 1 2 2 1 3 3 4 5 5 6 6 7 7 8 8
REMARK H PARENT
REMARK Flexibility Score: inf
ROOT
ATOM      1  C   UNL     1      -4.772 -36.411  -9.371  1.00  0.00     0.059 C 
ENDROOT
BRANCH   1   2
ATOM      2  C   UNL     1      -5.513 -37.709  -9.478  1.00  0.00     0.042 C 
ATOM      3  O   UNL     1      -6.599 -37.872  -8.862  1.00  0.00    -0.550 OA
ATOM      4  O   UNL     1      -4.984 -38.752 -10.227  1.00  0.00    -0.550 OA
ENDBRANCH   1   2
BRANCH   1   5
ATOM      5  C   UNL     1      -5.485 -35.430  -8.435  1.00  0.00     0.059 C 
BRANCH   5   6
ATOM      6  C   UNL     1      -6.241 -34.388  -9.201  1.00  0.00     0.042 C 
ATOM      7  O   UNL     1      -6.811 -33.444  -8.595  1.00  0.00    -0.550 OA
ATOM      8  O   UNL     1      -6.349 -34.483 -10.584  1.00  0.00    -0.550 OA
ENDBRANCH   5   6
ENDBRANCH   1   5
TORSDOF 3
ENDMDL
MODEL 3
REMARK VINA RESULT:    -3.138      0.350      3.942
REMARK INTER + INTRA:          -3.789
REMARK INTER:                  -3.670
REMARK INTRA:                  -0.118
REMARK UNBOUND:                -0.101
REMARK SMILES O=C([O-])CCC(=O)[O-]
REMARK SMILES IDX 4 1 2 2 1 3 3 4 5 5 6 6 7 7 8 8
REMARK H PARENT
REMARK Flexibility Score: inf
ROOT
ATOM      1  C   UNL     1      -6.368 -34.864 -10.357  1.00  0.00     0.059 C 
ENDROOT
BRANCH   1   2
ATOM      2  C   UNL     1      -7.779 -35.301 -10.109  1.00  0.00     0.042 C 
ATOM      3  O   UNL     1      -8.709 -34.895 -10.854  1.00  0.00    -0.550 OA
ATOM      4  O   UNL     1      -8.073 -36.124  -9.030  1.00  0.00    -0.550 OA
ENDBRANCH   1   2
BRANCH   1   5
ATOM      5  C   UNL     1      -5.560 -34.801  -9.056  1.00  0.00     0.059 C 
BRANCH   5   6
ATOM      6  C   UNL     1      -4.532 -35.888  -8.993  1.00  0.00     0.042 C 
ATOM      7  O   UNL     1      -3.347 -35.622  -8.659  1.00  0.00    -0.550 OA
ATOM      8  O   UNL     1      -4.872 -37.190  -9.341  1.00  0.00    -0.550 OA
ENDBRANCH   5   6
ENDBRANCH   1   5
TORSDOF 3
ENDMDL
MODEL 4
REMARK VINA RESULT:    -3.137      2.076      3.320
REMARK INTER + INTRA:          -3.788
REMARK INTER:                  -3.708
REMARK INTRA:                  -0.080
REMARK UNBOUND:                -0.101
REMARK SMILES O=C([O-])CCC(=O)[O-]
REMARK SMILES IDX 4 1 2 2 1 3 3 4 5 5 6 6 7 7 8 8
REMARK H PARENT
REMARK Flexibility Score: inf
ROOT
ATOM      1  C   UNL     1      -5.433 -35.369  -8.445  1.00  0.00     0.059 C 
ENDROOT
BRANCH   1   2
ATOM      2  C   UNL     1      -6.221 -34.369  -9.235  1.00  0.00     0.042 C 
ATOM      3  O   UNL     1      -6.818 -33.428  -8.651  1.00  0.00    -0.550 OA
ATOM      4  O   UNL     1      -6.328 -34.501 -10.614  1.00  0.00    -0.550 OA
ENDBRANCH   1   2
BRANCH   1   5
ATOM      5  C   UNL     1      -4.718 -36.371  -9.358  1.00  0.00     0.059 C 
BRANCH   5   6
ATOM      6  C   UNL     1      -5.474 -37.659  -9.462  1.00  0.00     0.042 C 
ATOM      7  O   UNL     1      -5.029 -38.601 -10.169  1.00  0.00    -0.550 OA
ATOM      8  O   UNL     1      -6.692 -37.805  -8.809  1.00  0.00    -0.550 OA
ENDBRANCH   5   6
ENDBRANCH   1   5
TORSDOF 3
ENDMDL
MODEL 5
REMARK VINA RESULT:    -3.002      1.803      3.958
REMARK INTER + INTRA:          -3.630
REMARK INTER:                  -3.514
REMARK INTRA:                  -0.115
REMARK UNBOUND:                -0.101
REMARK SMILES O=C([O-])CCC(=O)[O-]
REMARK SMILES IDX 4 1 2 2 1 3 3 4 5 5 6 6 7 7 8 8
REMARK H PARENT
REMARK Flexibility Score: inf
ROOT
ATOM      1  C   UNL     1      -6.414 -37.185  -9.023  1.00  0.00     0.059 C 
ENDROOT
BRANCH   1   2
ATOM      2  C   UNL     1      -7.331 -36.914 -10.177  1.00  0.00     0.042 C 
ATOM      3  O   UNL     1      -7.701 -37.856 -10.926  1.00  0.00    -0.550 OA
ATOM      4  O   UNL     1      -7.744 -35.616 -10.447  1.00  0.00    -0.550 OA
ENDBRANCH   1   2
BRANCH   1   5
ATOM      5  C   UNL     1      -4.946 -36.979  -9.410  1.00  0.00     0.059 C 
BRANCH   5   6
ATOM      6  C   UNL     1      -4.362 -35.775  -8.736  1.00  0.00     0.042 C 
ATOM      7  O   UNL     1      -5.001 -34.691  -8.708  1.00  0.00    -0.550 OA
ATOM      8  O   UNL     1      -3.093 -35.841  -8.172  1.00  0.00    -0.550 OA
ENDBRANCH   5   6
ENDBRANCH   1   5
TORSDOF 3
ENDMDL
MODEL 6
REMARK VINA RESULT:    -2.999      2.541      3.404
REMARK INTER + INTRA:          -3.625
REMARK INTER:                  -3.575
REMARK INTRA:                  -0.050
REMARK UNBOUND:                -0.101
REMARK SMILES O=C([O-])CCC(=O)[O-]
REMARK SMILES IDX 4 1 2 2 1 3 3 4 5 5 6 6 7 7 8 8
REMARK H PARENT
REMARK Flexibility Score: inf
ROOT
ATOM      1  C   UNL     1      -4.975 -36.390  -9.738  1.00  0.00     0.059 C 
ENDROOT
BRANCH   1   2
ATOM      2  C   UNL     1      -4.442 -35.616  -8.571  1.00  0.00     0.042 C 
ATOM      3  O   UNL     1      -5.214 -34.906  -7.875  1.00  0.00    -0.550 OA
ATOM      4  O   UNL     1      -3.084 -35.648  -8.278  1.00  0.00    -0.550 OA
ENDBRANCH   1   2
BRANCH   1   5
ATOM      5  C   UNL     1      -6.136 -37.301  -9.326  1.00  0.00     0.059 C 
BRANCH   5   6
ATOM      6  C   UNL     1      -5.896 -38.721  -9.738  1.00  0.00     0.042 C 
ATOM      7  O   UNL     1      -4.925 -39.009 -10.485  1.00  0.00    -0.550 OA
ATOM      8  O   UNL     1      -6.770 -39.721  -9.328  1.00  0.00    -0.550 OA
ENDBRANCH   5   6
ENDBRANCH   1   5
TORSDOF 3
ENDMDL
MODEL 7
REMARK VINA RESULT:    -2.998      1.783      2.219
REMARK INTER + INTRA:          -3.624
REMARK INTER:                  -3.512
REMARK INTRA:                  -0.112
REMARK UNBOUND:                -0.101
REMARK SMILES O=C([O-])CCC(=O)[O-]
REMARK SMILES IDX 4 1 2 2 1 3 3 4 5 5 6 6 7 7 8 8
REMARK H PARENT
REMARK Flexibility Score: inf
ROOT
ATOM      1  C   UNL     1      -4.924 -36.917  -9.392  1.00  0.00     0.059 C 
ENDROOT
BRANCH   1   2
ATOM      2  C   UNL     1      -4.359 -35.700  -8.726  1.00  0.00     0.042 C 
ATOM      3  O   UNL     1      -5.044 -34.647  -8.643  1.00  0.00    -0.550 OA
ATOM      4  O   UNL     1      -3.061 -35.718  -8.231  1.00  0.00    -0.550 OA
ENDBRANCH   1   2
BRANCH   1   5
ATOM      5  C   UNL     1      -6.393 -37.136  -9.014  1.00  0.00     0.059 C 
BRANCH   5   6
ATOM      6  C   UNL     1      -7.306 -36.869 -10.169  1.00  0.00     0.042 C 
ATOM      7  O   UNL     1      -7.692 -37.814 -10.906  1.00  0.00    -0.550 OA
ATOM      8  O   UNL     1      -7.700 -35.567 -10.458  1.00  0.00    -0.550 OA
ENDBRANCH   5   6
ENDBRANCH   1   5
TORSDOF 3
ENDMDL
MODEL 8
REMARK VINA RESULT:    -2.901      2.455      3.830
REMARK INTER + INTRA:          -3.511
REMARK INTER:                  -3.426
REMARK INTRA:                  -0.085
REMARK UNBOUND:                -0.101
REMARK SMILES O=C([O-])CCC(=O)[O-]
REMARK SMILES IDX 4 1 2 2 1 3 3 4 5 5 6 6 7 7 8 8
REMARK H PARENT
REMARK Flexibility Score: inf
ROOT
ATOM      1  C   UNL     1      -6.385 -37.570  -9.120  1.00  0.00     0.059 C 
ENDROOT
BRANCH   1   2
ATOM      2  C   UNL     1      -5.993 -38.900  -9.687  1.00  0.00     0.042 C 
ATOM      3  O   UNL     1      -6.675 -39.926  -9.428  1.00  0.00    -0.550 OA
ATOM      4  O   UNL     1      -4.852 -39.013 -10.471  1.00  0.00    -0.550 OA
ENDBRANCH   1   2
BRANCH   1   5
ATOM      5  C   UNL     1      -5.531 -36.437  -9.698  1.00  0.00     0.059 C 
BRANCH   5   6
ATOM      6  C   UNL     1      -4.711 -35.768  -8.638  1.00  0.00     0.042 C 
ATOM      7  O   UNL     1      -5.234 -34.914  -7.875  1.00  0.00    -0.550 OA
ATOM      8  O   UNL     1      -3.357 -36.060  -8.518  1.00  0.00    -0.550 OA
ENDBRANCH   5   6
ENDBRANCH   1   5
TORSDOF 3
ENDMDL
MODEL 9
REMARK VINA RESULT:    -2.789      2.461      3.431
REMARK INTER + INTRA:          -3.379
REMARK INTER:                  -3.346
REMARK INTRA:                  -0.033
REMARK UNBOUND:                -0.101
REMARK SMILES O=C([O-])CCC(=O)[O-]
REMARK SMILES IDX 4 1 2 2 1 3 3 4 5 5 6 6 7 7 8 8
REMARK H PARENT
REMARK Flexibility Score: inf
ROOT
ATOM      1  C   UNL     1      -5.891 -36.640  -9.062  1.00  0.00     0.059 C 
ENDROOT
BRANCH   1   2
ATOM      2  C   UNL     1      -5.020 -35.426  -8.958  1.00  0.00     0.042 C 
ATOM      3  O   UNL     1      -3.788 -35.548  -8.725  1.00  0.00    -0.550 OA
ATOM      4  O   UNL     1      -5.575 -34.159  -9.079  1.00  0.00    -0.550 OA
ENDBRANCH   1   2
BRANCH   1   5
ATOM      5  C   UNL     1      -5.155 -37.807  -9.730  1.00  0.00     0.059 C 
BRANCH   5   6
ATOM      6  C   UNL     1      -6.108 -38.860 -10.206  1.00  0.00     0.042 C 
ATOM      7  O   UNL     1      -5.914 -40.069  -9.916  1.00  0.00    -0.550 OA
ATOM      8  O   UNL     1      -7.190 -38.509 -11.004  1.00  0.00    -0.550 OA
ENDBRANCH   5   6
ENDBRANCH   1   5
TORSDOF 3
ENDMDL
