MODEL 1
REMARK VINA RESULT:    -3.659      0.000      0.000
REMARK INTER + INTRA:          -4.784
REMARK INTER:                  -5.157
REMARK INTRA:                   0.373
REMARK UNBOUND:                 0.373
REMARK SMILES CC1=CCC(=C(C)C)C(=O)CC(C)=CCC1
REMARK SMILES IDX 12 1 14 2 13 3 15 4 16 5 2 6 1 7 3 8 11 10 9 11 10 12 5 13
REMARK SMILES IDX 6 14 7 15 8 16 4 17
REMARK H PARENT
REMARK Flexibility Score: 60.00
ROOT
ATOM      1  C   UNL     1     148.808 151.528 168.816  1.00  0.00    -0.070 C 
ATOM      2  C   UNL     1     150.036 151.476 168.256  1.00  0.00    -0.027 C 
ATOM      3  C   UNL     1     148.390 150.388 169.711  1.00  0.00     0.039 C 
ENDROOT
BRANCH   2   4
ATOM      4  C   UNL     1     150.596 152.468 167.259  1.00  0.00     0.032 C 
BRANCH   4   5
ATOM      5  C   UNL     1     150.159 152.234 165.798  1.00  0.00     0.034 C 
BRANCH   5   6
ATOM      6  C   UNL     1     149.451 153.429 165.187  1.00  0.00    -0.077 C 
ATOM      7  C   UNL     1     150.282 154.645 164.861  1.00  0.00     0.039 C 
ATOM      8  C   UNL     1     148.113 153.502 164.980  1.00  0.00    -0.023 CG0
ATOM      9  G   UNL     1     147.092 152.407 165.214  1.00  0.00     0.000 G0
ENDBRANCH   5   6
ENDBRANCH   4   5
ENDBRANCH   2   4
BRANCH   1  10
ATOM     10  C   UNL     1     147.803 152.622 168.516  1.00  0.00     0.111 C 
BRANCH  10  11
ATOM     11  C   UNL     1     146.629 152.098 167.732  1.00  0.00     0.163 C 
ATOM     12  O   UNL     1     146.020 151.087 168.178  1.00  0.00    -0.294 OA
BRANCH  11  13
ATOM     13  C   UNL     1     146.207 152.691 166.429  1.00  0.00    -0.002 C 
ATOM     14  C   UNL     1     145.036 153.390 166.324  1.00  0.00    -0.069 C 
ATOM     15  C   UNL     1     144.210 153.722 167.548  1.00  0.00     0.039 C 
ATOM     16  C   UNL     1     144.503 153.866 164.991  1.00  0.00     0.039 C 
BRANCH  13  17
ATOM     17  C   UNL     1     147.080 152.403 165.218  1.00  0.00     0.066 CG0
ATOM     18  G   UNL     1     148.104 153.493 164.973  1.00  0.00     0.000 G0
ENDBRANCH  13  17
ENDBRANCH  11  13
ENDBRANCH  10  11
ENDBRANCH   1  10
TORSDOF 0
ENDMDL
MODEL 2
REMARK VINA RESULT:    -3.364      1.923      3.937
REMARK INTER + INTRA:          -4.368
REMARK INTER:                  -4.487
REMARK INTRA:                   0.119
REMARK UNBOUND:                 0.373
REMARK SMILES CC1=CCC(=C(C)C)C(=O)CC(C)=CCC1
REMARK SMILES IDX 12 1 14 2 13 3 15 4 16 5 2 6 1 7 3 8 11 10 9 11 10 12 5 13
REMARK SMILES IDX 6 14 7 15 8 16 4 17
REMARK H PARENT
REMARK Flexibility Score: 60.00
ROOT
ATOM      1  C   UNL     1     150.949 152.233 166.915  1.00  0.00    -0.070 C 
ATOM      2  C   UNL     1     150.474 152.102 168.173  1.00  0.00    -0.027 C 
ATOM      3  C   UNL     1     152.275 152.927 166.730  1.00  0.00     0.039 C 
ENDROOT
BRANCH   2   4
ATOM      4  C   UNL     1     149.127 151.527 168.553  1.00  0.00     0.032 C 
BRANCH   4   5
ATOM      5  C   UNL     1     147.970 152.547 168.576  1.00  0.00     0.034 C 
BRANCH   5   6
ATOM      6  C   UNL     1     146.719 152.049 167.875  1.00  0.00    -0.077 C 
ATOM      7  C   UNL     1     145.891 151.003 168.579  1.00  0.00     0.039 C 
ATOM      8  C   UNL     1     146.335 152.430 166.632  1.00  0.00    -0.023 CG0
ATOM      9  G   UNL     1     146.996 153.472 165.752  1.00  0.00     0.000 G0
ENDBRANCH   5   6
ENDBRANCH   4   5
ENDBRANCH   2   4
BRANCH   1  10
ATOM     10  C   UNL     1     150.176 151.802 165.685  1.00  0.00     0.111 C 
BRANCH  10  11
ATOM     11  C   UNL     1     149.420 152.952 165.073  1.00  0.00     0.163 C 
ATOM     12  O   UNL     1     150.037 154.037 164.888  1.00  0.00    -0.294 OA
BRANCH  11  13
ATOM     13  C   UNL     1     147.967 152.870 164.740  1.00  0.00    -0.002 C 
ATOM     14  C   UNL     1     147.551 152.352 163.545  1.00  0.00    -0.069 C 
ATOM     15  C   UNL     1     148.529 151.702 162.590  1.00  0.00     0.039 C 
ATOM     16  C   UNL     1     146.103 152.400 163.112  1.00  0.00     0.039 C 
BRANCH  13  17
ATOM     17  C   UNL     1     146.990 153.471 165.738  1.00  0.00     0.066 CG0
ATOM     18  G   UNL     1     146.363 152.422 166.634  1.00  0.00     0.000 G0
ENDBRANCH  13  17
ENDBRANCH  11  13
ENDBRANCH  10  11
ENDBRANCH   1  10
TORSDOF 0
ENDMDL
MODEL 3
REMARK VINA RESULT:    -3.285      2.710      4.707
REMARK INTER + INTRA:          -4.256
REMARK INTER:                  -4.455
REMARK INTRA:                   0.198
REMARK UNBOUND:                 0.373
REMARK SMILES CC1=CCC(=C(C)C)C(=O)CC(C)=CCC1
REMARK SMILES IDX 12 1 14 2 13 3 15 4 16 5 2 6 1 7 3 8 11 10 9 11 10 12 5 13
REMARK SMILES IDX 6 14 7 15 8 16 4 17
REMARK H PARENT
REMARK Flexibility Score: 60.00
ROOT
ATOM      1  C   UNL     1     151.551 150.120 163.965  1.00  0.00    -0.070 C 
ATOM      2  C   UNL     1     150.981 150.020 162.744  1.00  0.00    -0.027 C 
ATOM      3  C   UNL     1     153.055 150.053 164.050  1.00  0.00     0.039 C 
ENDROOT
BRANCH   2   4
ATOM      4  C   UNL     1     149.494 149.967 162.464  1.00  0.00     0.032 C 
BRANCH   4   5
ATOM      5  C   UNL     1     148.764 151.321 162.588  1.00  0.00     0.034 C 
BRANCH   5   6
ATOM      6  C   UNL     1     147.579 151.277 163.535  1.00  0.00    -0.077 C 
ATOM      7  C   UNL     1     146.395 150.430 163.138  1.00  0.00     0.039 C 
ATOM      8  C   UNL     1     147.485 152.001 164.677  1.00  0.00    -0.023 CG0
ATOM      9  G   UNL     1     148.547 152.899 165.280  1.00  0.00     0.000 G0
ENDBRANCH   5   6
ENDBRANCH   4   5
ENDBRANCH   2   4
BRANCH   1  10
ATOM     10  C   UNL     1     150.752 150.200 165.251  1.00  0.00     0.111 C 
BRANCH  10  11
ATOM     11  C   UNL     1     150.699 151.607 165.784  1.00  0.00     0.163 C 
ATOM     12  O   UNL     1     151.776 152.262 165.842  1.00  0.00    -0.294 OA
BRANCH  11  13
ATOM     13  C   UNL     1     149.440 152.223 166.297  1.00  0.00    -0.002 C 
ATOM     14  C   UNL     1     149.075 152.083 167.607  1.00  0.00    -0.069 C 
ATOM     15  C   UNL     1     150.002 151.439 168.614  1.00  0.00     0.039 C 
ATOM     16  C   UNL     1     147.733 152.557 168.120  1.00  0.00     0.039 C 
BRANCH  13  17
ATOM     17  C   UNL     1     148.546 152.923 165.285  1.00  0.00     0.066 CG0
ATOM     18  G   UNL     1     147.510 151.991 164.689  1.00  0.00     0.000 G0
ENDBRANCH  13  17
ENDBRANCH  11  13
ENDBRANCH  10  11
ENDBRANCH   1  10
TORSDOF 0
ENDMDL
MODEL 4
REMARK VINA RESULT:    -3.277      2.096      4.829
REMARK INTER + INTRA:          -4.245
REMARK INTER:                  -4.439
REMARK INTRA:                   0.194
REMARK UNBOUND:                 0.373
REMARK SMILES CC1=CCC(=C(C)C)C(=O)CC(C)=CCC1
REMARK SMILES IDX 12 1 14 2 13 3 15 4 16 5 2 6 1 7 3 8 11 10 9 11 10 12 5 13
REMARK SMILES IDX 6 14 7 15 8 16 4 17
REMARK H PARENT
REMARK Flexibility Score: 60.00
ROOT
ATOM      1  C   UNL     1     145.865 153.071 165.745  1.00  0.00    -0.070 C 
ATOM      2  C   UNL     1     145.835 153.295 167.077  1.00  0.00    -0.027 C 
ATOM      3  C   UNL     1     144.862 153.797 164.884  1.00  0.00     0.039 C 
ENDROOT
BRANCH   2   4
ATOM      4  C   UNL     1     146.689 152.592 168.110  1.00  0.00     0.032 C 
BRANCH   4   5
ATOM      5  C   UNL     1     148.144 153.097 168.199  1.00  0.00     0.034 C 
BRANCH   5   6
ATOM      6  C   UNL     1     149.170 151.980 168.140  1.00  0.00    -0.077 C 
ATOM      7  C   UNL     1     149.216 151.010 169.294  1.00  0.00     0.039 C 
ATOM      8  C   UNL     1     150.091 151.838 167.156  1.00  0.00    -0.023 CG0
ATOM      9  G   UNL     1     150.222 152.676 165.900  1.00  0.00     0.000 G0
ENDBRANCH   5   6
ENDBRANCH   4   5
ENDBRANCH   2   4
BRANCH   1  10
ATOM     10  C   UNL     1     146.788 152.062 165.091  1.00  0.00     0.111 C 
BRANCH  10  11
ATOM     11  C   UNL     1     148.023 152.719 164.535  1.00  0.00     0.163 C 
ATOM     12  O   UNL     1     147.880 153.762 163.839  1.00  0.00    -0.294 OA
BRANCH  11  13
ATOM     13  C   UNL     1     149.390 152.149 164.726  1.00  0.00    -0.002 C 
ATOM     14  C   UNL     1     149.837 151.124 163.939  1.00  0.00    -0.069 C 
ATOM     15  C   UNL     1     149.034 150.639 162.753  1.00  0.00     0.039 C 
ATOM     16  C   UNL     1     151.149 150.421 164.209  1.00  0.00     0.039 C 
BRANCH  13  17
ATOM     17  C   UNL     1     150.213 152.690 165.885  1.00  0.00     0.066 CG0
ATOM     18  G   UNL     1     150.085 151.835 167.131  1.00  0.00     0.000 G0
ENDBRANCH  13  17
ENDBRANCH  11  13
ENDBRANCH  10  11
ENDBRANCH   1  10
TORSDOF 0
ENDMDL
MODEL 5
REMARK VINA RESULT:    -3.211      1.732      3.887
REMARK INTER + INTRA:          -4.152
REMARK INTER:                  -4.519
REMARK INTRA:                   0.367
REMARK UNBOUND:                 0.373
REMARK SMILES CC1=CCC(=C(C)C)C(=O)CC(C)=CCC1
REMARK SMILES IDX 12 1 14 2 13 3 15 4 16 5 2 6 1 7 3 8 11 10 9 11 10 12 5 13
REMARK SMILES IDX 6 14 7 15 8 16 4 17
REMARK H PARENT
REMARK Flexibility Score: 60.00
ROOT
ATOM      1  C   UNL     1     148.345 152.205 168.165  1.00  0.00    -0.070 C 
ATOM      2  C   UNL     1     147.143 151.596 168.254  1.00  0.00    -0.027 C 
ATOM      3  C   UNL     1     149.528 151.534 168.817  1.00  0.00     0.039 C 
ENDROOT
BRANCH   2   4
ATOM      4  C   UNL     1     145.829 152.156 167.752  1.00  0.00     0.032 C 
BRANCH   4   5
ATOM      5  C   UNL     1     145.602 152.012 166.233  1.00  0.00     0.034 C 
BRANCH   5   6
ATOM      6  C   UNL     1     145.368 153.339 165.535  1.00  0.00    -0.077 C 
ATOM      7  C   UNL     1     144.059 154.044 165.789  1.00  0.00     0.039 C 
ATOM      8  C   UNL     1     146.226 153.898 164.646  1.00  0.00    -0.023 CG0
ATOM      9  G   UNL     1     147.596 153.383 164.251  1.00  0.00     0.000 G0
ENDBRANCH   5   6
ENDBRANCH   4   5
ENDBRANCH   2   4
BRANCH   1  10
ATOM     10  C   UNL     1     148.543 153.566 167.527  1.00  0.00     0.111 C 
BRANCH  10  11
ATOM     11  C   UNL     1     149.250 153.461 166.202  1.00  0.00     0.163 C 
ATOM     12  O   UNL     1     150.356 152.855 166.166  1.00  0.00    -0.294 OA
BRANCH  11  13
ATOM     13  C   UNL     1     148.723 154.097 164.959  1.00  0.00    -0.002 C 
ATOM     14  C   UNL     1     149.193 155.310 164.539  1.00  0.00    -0.069 C 
ATOM     15  C   UNL     1     150.366 155.975 165.224  1.00  0.00     0.039 C 
ATOM     16  C   UNL     1     148.570 156.052 163.377  1.00  0.00     0.039 C 
BRANCH  13  17
ATOM     17  C   UNL     1     147.584 153.385 164.244  1.00  0.00     0.066 CG0
ATOM     18  G   UNL     1     146.225 153.916 164.654  1.00  0.00     0.000 G0
ENDBRANCH  13  17
ENDBRANCH  11  13
ENDBRANCH  10  11
ENDBRANCH   1  10
TORSDOF 0
ENDMDL
MODEL 6
REMARK VINA RESULT:    -3.151      1.994      4.253
REMARK INTER + INTRA:          -4.068
REMARK INTER:                  -4.298
REMARK INTRA:                   0.230
REMARK UNBOUND:                 0.373
REMARK SMILES CC1=CCC(=C(C)C)C(=O)CC(C)=CCC1
REMARK SMILES IDX 12 1 14 2 13 3 15 4 16 5 2 6 1 7 3 8 11 10 9 11 10 12 5 13
REMARK SMILES IDX 6 14 7 15 8 16 4 17
REMARK H PARENT
REMARK Flexibility Score: 60.00
ROOT
ATOM      1  C   UNL     1     148.543 152.333 167.909  1.00  0.00    -0.070 C 
ATOM      2  C   UNL     1     147.345 151.900 168.358  1.00  0.00    -0.027 C 
ATOM      3  C   UNL     1     149.760 151.502 168.229  1.00  0.00     0.039 C 
ENDROOT
BRANCH   2   4
ATOM      4  C   UNL     1     146.031 152.640 168.225  1.00  0.00     0.032 C 
BRANCH   4   5
ATOM      5  C   UNL     1     145.644 153.016 166.780  1.00  0.00     0.034 C 
BRANCH   5   6
ATOM      6  C   UNL     1     145.626 151.827 165.837  1.00  0.00    -0.077 C 
ATOM      7  C   UNL     1     144.659 150.709 166.137  1.00  0.00     0.039 C 
ATOM      8  C   UNL     1     146.468 151.671 164.786  1.00  0.00    -0.023 CG0
ATOM      9  G   UNL     1     147.501 152.663 164.288  1.00  0.00     0.000 G0
ENDBRANCH   5   6
ENDBRANCH   4   5
ENDBRANCH   2   4
BRANCH   1  10
ATOM     10  C   UNL     1     148.733 153.652 167.187  1.00  0.00     0.111 C 
BRANCH  10  11
ATOM     11  C   UNL     1     149.370 153.458 165.836  1.00  0.00     0.163 C 
ATOM     12  O   UNL     1     150.322 154.221 165.514  1.00  0.00    -0.294 OA
BRANCH  11  13
ATOM     13  C   UNL     1     148.878 152.447 164.855  1.00  0.00    -0.002 C 
ATOM     14  C   UNL     1     149.683 151.419 164.447  1.00  0.00    -0.069 C 
ATOM     15  C   UNL     1     151.032 151.179 165.086  1.00  0.00     0.039 C 
ATOM     16  C   UNL     1     149.273 150.473 163.340  1.00  0.00     0.039 C 
BRANCH  13  17
ATOM     17  C   UNL     1     147.493 152.665 164.266  1.00  0.00     0.066 CG0
ATOM     18  G   UNL     1     146.481 151.664 164.787  1.00  0.00     0.000 G0
ENDBRANCH  13  17
ENDBRANCH  11  13
ENDBRANCH  10  11
ENDBRANCH   1  10
TORSDOF 0
ENDMDL
MODEL 7
REMARK VINA RESULT:    -3.124      2.171      4.293
REMARK INTER + INTRA:          -4.029
REMARK INTER:                  -4.222
REMARK INTRA:                   0.193
REMARK UNBOUND:                 0.373
REMARK SMILES CC1=CCC(=C(C)C)C(=O)CC(C)=CCC1
REMARK SMILES IDX 12 1 14 2 13 3 15 4 16 5 2 6 1 7 3 8 11 10 9 11 10 12 5 13
REMARK SMILES IDX 6 14 7 15 8 16 4 17
REMARK H PARENT
REMARK Flexibility Score: 60.00
ROOT
ATOM      1  C   UNL     1     149.689 151.809 167.944  1.00  0.00    -0.070 C 
ATOM      2  C   UNL     1     148.487 152.331 168.271  1.00  0.00    -0.027 C 
ATOM      3  C   UNL     1     150.791 151.871 168.972  1.00  0.00     0.039 C 
ENDROOT
BRANCH   2   4
ATOM      4  C   UNL     1     147.294 152.450 167.347  1.00  0.00     0.032 C 
BRANCH   4   5
ATOM      5  C   UNL     1     147.241 153.754 166.524  1.00  0.00     0.034 C 
BRANCH   5   6
ATOM      6  C   UNL     1     146.836 153.532 165.078  1.00  0.00    -0.077 C 
ATOM      7  C   UNL     1     145.385 153.232 164.795  1.00  0.00     0.039 C 
ATOM      8  C   UNL     1     147.702 153.516 164.035  1.00  0.00    -0.023 CG0
ATOM      9  G   UNL     1     149.189 153.806 164.077  1.00  0.00     0.000 G0
ENDBRANCH   5   6
ENDBRANCH   4   5
ENDBRANCH   2   4
BRANCH   1  10
ATOM     10  C   UNL     1     150.008 151.252 166.570  1.00  0.00     0.111 C 
BRANCH  10  11
ATOM     11  C   UNL     1     150.562 152.312 165.656  1.00  0.00     0.163 C 
ATOM     12  O   UNL     1     151.480 153.057 166.097  1.00  0.00    -0.294 OA
BRANCH  11  13
ATOM     13  C   UNL     1     150.024 152.549 164.284  1.00  0.00    -0.002 C 
ATOM     14  C   UNL     1     150.339 151.706 163.254  1.00  0.00    -0.069 C 
ATOM     15  C   UNL     1     151.107 150.425 163.497  1.00  0.00     0.039 C 
ATOM     16  C   UNL     1     149.942 152.004 161.825  1.00  0.00     0.039 C 
BRANCH  13  17
ATOM     17  C   UNL     1     149.200 153.809 164.067  1.00  0.00     0.066 CG0
ATOM     18  G   UNL     1     147.711 153.527 164.050  1.00  0.00     0.000 G0
ENDBRANCH  13  17
ENDBRANCH  11  13
ENDBRANCH  10  11
ENDBRANCH   1  10
TORSDOF 0
ENDMDL
MODEL 8
REMARK VINA RESULT:    -3.123      1.787      4.084
REMARK INTER + INTRA:          -4.028
REMARK INTER:                  -4.609
REMARK INTRA:                   0.581
REMARK UNBOUND:                 0.373
REMARK SMILES CC1=CCC(=C(C)C)C(=O)CC(C)=CCC1
REMARK SMILES IDX 12 1 14 2 13 3 15 4 16 5 2 6 1 7 3 8 11 10 9 11 10 12 5 13
REMARK SMILES IDX 6 14 7 15 8 16 4 17
REMARK H PARENT
REMARK Flexibility Score: 60.00
ROOT
ATOM      1  C   UNL     1     150.879 152.128 166.905  1.00  0.00    -0.070 C 
ATOM      2  C   UNL     1     150.297 152.013 168.119  1.00  0.00    -0.027 C 
ATOM      3  C   UNL     1     152.095 153.011 166.786  1.00  0.00     0.039 C 
ENDROOT
BRANCH   2   4
ATOM      4  C   UNL     1     149.020 151.257 168.418  1.00  0.00     0.032 C 
BRANCH   4   5
ATOM      5  C   UNL     1     147.886 152.114 169.017  1.00  0.00     0.034 C 
BRANCH   5   6
ATOM      6  C   UNL     1     146.790 152.439 168.018  1.00  0.00    -0.077 C 
ATOM      7  C   UNL     1     145.475 151.714 168.160  1.00  0.00     0.039 C 
ATOM      8  C   UNL     1     146.938 153.282 166.967  1.00  0.00    -0.023 CG0
ATOM      9  G   UNL     1     148.153 154.127 166.638  1.00  0.00     0.000 G0
ENDBRANCH   5   6
ENDBRANCH   4   5
ENDBRANCH   2   4
BRANCH   1  10
ATOM     10  C   UNL     1     150.316 151.493 165.649  1.00  0.00     0.111 C 
BRANCH  10  11
ATOM     11  C   UNL     1     149.070 152.197 165.181  1.00  0.00     0.163 C 
ATOM     12  O   UNL     1     148.197 151.518 164.574  1.00  0.00    -0.294 OA
BRANCH  11  13
ATOM     13  C   UNL     1     148.866 153.665 165.355  1.00  0.00    -0.002 C 
ATOM     14  C   UNL     1     149.365 154.555 164.444  1.00  0.00    -0.069 C 
ATOM     15  C   UNL     1     150.001 154.082 163.155  1.00  0.00     0.039 C 
ATOM     16  C   UNL     1     149.313 156.049 164.672  1.00  0.00     0.039 C 
BRANCH  13  17
ATOM     17  C   UNL     1     148.169 154.124 166.626  1.00  0.00     0.066 CG0
ATOM     18  G   UNL     1     146.942 153.293 166.943  1.00  0.00     0.000 G0
ENDBRANCH  13  17
ENDBRANCH  11  13
ENDBRANCH  10  11
ENDBRANCH   1  10
TORSDOF 0
ENDMDL
MODEL 9
REMARK VINA RESULT:    -3.084      3.746      6.117
REMARK INTER + INTRA:          -3.973
REMARK INTER:                  -4.156
REMARK INTRA:                   0.183
REMARK UNBOUND:                 0.373
REMARK SMILES CC1=CCC(=C(C)C)C(=O)CC(C)=CCC1
REMARK SMILES IDX 12 1 14 2 13 3 15 4 16 5 2 6 1 7 3 8 11 10 9 11 10 12 5 13
REMARK SMILES IDX 6 14 7 15 8 16 4 17
REMARK H PARENT
REMARK Flexibility Score: 60.00
ROOT
ATOM      1  C   UNL     1     149.655 157.024 163.393  1.00  0.00    -0.070 C 
ATOM      2  C   UNL     1     149.737 156.750 164.714  1.00  0.00    -0.027 C 
ATOM      3  C   UNL     1     149.002 158.318 162.980  1.00  0.00     0.039 C 
ENDROOT
BRANCH   2   4
ATOM      4  C   UNL     1     150.266 155.467 165.319  1.00  0.00     0.032 C 
BRANCH   4   5
ATOM      5  C   UNL     1     149.230 154.329 165.429  1.00  0.00     0.034 C 
BRANCH   5   6
ATOM      6  C   UNL     1     149.776 152.980 164.996  1.00  0.00    -0.077 C 
ATOM      7  C   UNL     1     150.794 152.316 165.889  1.00  0.00     0.039 C 
ATOM      8  C   UNL     1     149.462 152.367 163.828  1.00  0.00    -0.023 CG0
ATOM      9  G   UNL     1     148.459 152.834 162.792  1.00  0.00     0.000 G0
ENDBRANCH   5   6
ENDBRANCH   4   5
ENDBRANCH   2   4
BRANCH   1  10
ATOM     10  C   UNL     1     150.100 156.057 162.315  1.00  0.00     0.111 C 
BRANCH  10  11
ATOM     11  C   UNL     1     148.966 155.182 161.851  1.00  0.00     0.163 C 
ATOM     12  O   UNL     1     147.851 155.726 161.623  1.00  0.00    -0.294 OA
BRANCH  11  13
ATOM     13  C   UNL     1     149.100 153.701 161.713  1.00  0.00    -0.002 C 
ATOM     14  C   UNL     1     149.699 153.152 160.613  1.00  0.00    -0.069 C 
ATOM     15  C   UNL     1     150.383 154.018 159.579  1.00  0.00     0.039 C 
ATOM     16  C   UNL     1     149.709 151.660 160.369  1.00  0.00     0.039 C 
BRANCH  13  17
ATOM     17  C   UNL     1     148.462 152.842 162.793  1.00  0.00     0.066 CG0
ATOM     18  G   UNL     1     149.470 152.358 163.815  1.00  0.00     0.000 G0
ENDBRANCH  13  17
ENDBRANCH  11  13
ENDBRANCH  10  11
ENDBRANCH   1  10
TORSDOF 0
ENDMDL
