MODEL 1
REMARK VINA RESULT:    -3.862      0.000      0.000
REMARK INTER + INTRA:          -4.504
REMARK INTER:                  -4.427
REMARK INTRA:                  -0.077
REMARK UNBOUND:                -0.077
REMARK SMILES CC(C)[C@H]([NH3+])C(=O)[O-]
REMARK SMILES IDX 4 1 5 2 6 6 7 7 8 8 2 9 1 10 3 11
REMARK H PARENT 5 3 5 4 5 5
REMARK Flexibility Score: inf
ROOT
ATOM      1  C   UNL     1      28.424   5.331  10.103  1.00  0.00     0.230 C 
ENDROOT
BRANCH   1   2
ATOM      2  N   UNL     1      28.414   4.276   9.080  1.00  0.00    -0.350 N 
ATOM      3  H   UNL     1      29.394   4.084   8.767  1.00  0.00     0.345 HD
ATOM      4  H   UNL     1      27.865   4.590   8.246  1.00  0.00     0.345 HD
ATOM      5  H   UNL     1      28.003   3.389   9.448  1.00  0.00     0.345 HD
ENDBRANCH   1   2
BRANCH   1   6
ATOM      6  C   UNL     1      28.835   4.768  11.443  1.00  0.00     0.099 C 
ATOM      7  O   UNL     1      29.097   5.545  12.399  1.00  0.00    -0.544 OA
ATOM      8  O   UNL     1      28.900   3.394  11.645  1.00  0.00    -0.544 OA
ENDBRANCH   1   6
BRANCH   1   9
ATOM      9  C   UNL     1      27.062   6.089  10.162  1.00  0.00     0.047 C 
ATOM     10  C   UNL     1      26.697   6.805   8.851  1.00  0.00     0.014 C 
ATOM     11  C   UNL     1      25.920   5.151  10.585  1.00  0.00     0.014 C 
ENDBRANCH   1   9
TORSDOF 3
ENDMDL
MODEL 2
REMARK VINA RESULT:    -3.820      2.781      3.476
REMARK INTER + INTRA:          -4.456
REMARK INTER:                  -4.385
REMARK INTRA:                  -0.071
REMARK UNBOUND:                -0.077
REMARK SMILES CC(C)[C@H]([NH3+])C(=O)[O-]
REMARK SMILES IDX 4 1 5 2 6 6 7 7 8 8 2 9 1 10 3 11
REMARK H PARENT 5 3 5 4 5 5
REMARK Flexibility Score: inf
ROOT
ATOM      1  C   UNL     1      28.335   4.636   9.625  1.00  0.00     0.230 C 
ENDROOT
BRANCH   1   2
ATOM      2  N   UNL     1      28.020   6.048   9.369  1.00  0.00    -0.350 N 
ATOM      3  H   UNL     1      27.099   6.118   8.877  1.00  0.00     0.345 HD
ATOM      4  H   UNL     1      28.749   6.473   8.751  1.00  0.00     0.345 HD
ATOM      5  H   UNL     1      27.963   6.595  10.258  1.00  0.00     0.345 HD
ENDBRANCH   1   2
BRANCH   1   6
ATOM      6  C   UNL     1      27.451   3.735   8.795  1.00  0.00     0.099 C 
ATOM      7  O   UNL     1      26.198   3.802   8.911  1.00  0.00    -0.544 OA
ATOM      8  O   UNL     1      28.004   2.848   7.879  1.00  0.00    -0.544 OA
ENDBRANCH   1   6
BRANCH   1   9
ATOM      9  C   UNL     1      28.276   4.299  11.147  1.00  0.00     0.047 C 
ATOM     10  C   UNL     1      28.868   2.923  11.498  1.00  0.00     0.014 C 
ATOM     11  C   UNL     1      28.954   5.393  11.986  1.00  0.00     0.014 C 
ENDBRANCH   1   9
TORSDOF 3
ENDMDL
MODEL 3
REMARK VINA RESULT:    -3.650      1.145      1.521
REMARK INTER + INTRA:          -4.260
REMARK INTER:                  -4.214
REMARK INTRA:                  -0.046
REMARK UNBOUND:                -0.077
REMARK SMILES CC(C)[C@H]([NH3+])C(=O)[O-]
REMARK SMILES IDX 4 1 5 2 6 6 7 7 8 8 2 9 1 10 3 11
REMARK H PARENT 5 3 5 4 5 5
REMARK Flexibility Score: inf
ROOT
ATOM      1  C   UNL     1      27.543   5.634  10.635  1.00  0.00     0.230 C 
ENDROOT
BRANCH   1   2
ATOM      2  N   UNL     1      28.161   5.953   9.341  1.00  0.00    -0.350 N 
ATOM      3  H   UNL     1      27.754   5.338   8.598  1.00  0.00     0.345 HD
ATOM      4  H   UNL     1      29.190   5.773   9.380  1.00  0.00     0.345 HD
ATOM      5  H   UNL     1      27.996   6.950   9.073  1.00  0.00     0.345 HD
ENDBRANCH   1   2
BRANCH   1   6
ATOM      6  C   UNL     1      28.533   4.942  11.541  1.00  0.00     0.099 C 
ATOM      7  O   UNL     1      29.124   5.595  12.442  1.00  0.00    -0.544 OA
ATOM      8  O   UNL     1      28.783   3.581  11.412  1.00  0.00    -0.544 OA
ENDBRANCH   1   6
BRANCH   1   9
ATOM      9  C   UNL     1      26.222   4.822  10.459  1.00  0.00     0.047 C 
ATOM     10  C   UNL     1      24.961   5.596  10.880  1.00  0.00     0.014 C 
ATOM     11  C   UNL     1      26.070   4.313   9.017  1.00  0.00     0.014 C 
ENDBRANCH   1   9
TORSDOF 3
ENDMDL
MODEL 4
REMARK VINA RESULT:    -3.568      2.332      3.254
REMARK INTER + INTRA:          -4.167
REMARK INTER:                  -4.178
REMARK INTRA:                   0.011
REMARK UNBOUND:                -0.077
REMARK SMILES CC(C)[C@H]([NH3+])C(=O)[O-]
REMARK SMILES IDX 4 1 5 2 6 6 7 7 8 8 2 9 1 10 3 11
REMARK H PARENT 5 3 5 4 5 5
REMARK Flexibility Score: inf
ROOT
ATOM      1  C   UNL     1      28.075   4.829   9.629  1.00  0.00     0.230 C 
ENDROOT
BRANCH   1   2
ATOM      2  N   UNL     1      28.018   6.274   9.368  1.00  0.00    -0.350 N 
ATOM      3  H   UNL     1      27.494   6.748  10.139  1.00  0.00     0.345 HD
ATOM      4  H   UNL     1      27.510   6.458   8.472  1.00  0.00     0.345 HD
ATOM      5  H   UNL     1      28.975   6.691   9.311  1.00  0.00     0.345 HD
ENDBRANCH   1   2
BRANCH   1   6
ATOM      6  C   UNL     1      26.683   4.255   9.746  1.00  0.00     0.099 C 
ATOM      7  O   UNL     1      26.328   3.306   8.997  1.00  0.00    -0.544 OA
ATOM      8  O   UNL     1      25.793   4.743  10.695  1.00  0.00    -0.544 OA
ENDBRANCH   1   6
BRANCH   1   9
ATOM      9  C   UNL     1      28.967   4.502  10.866  1.00  0.00     0.047 C 
ATOM     10  C   UNL     1      28.826   5.516  12.014  1.00  0.00     0.014 C 
ATOM     11  C   UNL     1      28.700   3.080  11.384  1.00  0.00     0.014 C 
ENDBRANCH   1   9
TORSDOF 3
ENDMDL
MODEL 5
REMARK VINA RESULT:    -3.528      2.660      3.418
REMARK INTER + INTRA:          -4.121
REMARK INTER:                  -4.077
REMARK INTRA:                  -0.044
REMARK UNBOUND:                -0.077
REMARK SMILES CC(C)[C@H]([NH3+])C(=O)[O-]
REMARK SMILES IDX 4 1 5 2 6 6 7 7 8 8 2 9 1 10 3 11
REMARK H PARENT 5 3 5 4 5 5
REMARK Flexibility Score: inf
ROOT
ATOM      1  C   UNL     1      26.811   5.246  10.349  1.00  0.00     0.230 C 
ENDROOT
BRANCH   1   2
ATOM      2  N   UNL     1      25.895   4.100  10.436  1.00  0.00    -0.350 N 
ATOM      3  H   UNL     1      25.157   4.187   9.698  1.00  0.00     0.345 HD
ATOM      4  H   UNL     1      25.419   4.090  11.368  1.00  0.00     0.345 HD
ATOM      5  H   UNL     1      26.398   3.195  10.297  1.00  0.00     0.345 HD
ENDBRANCH   1   2
BRANCH   1   6
ATOM      6  C   UNL     1      26.767   5.860   8.971  1.00  0.00     0.099 C 
ATOM      7  O   UNL     1      26.873   7.107   8.833  1.00  0.00    -0.544 OA
ATOM      8  O   UNL     1      26.638   5.059   7.841  1.00  0.00    -0.544 OA
ENDBRANCH   1   6
BRANCH   1   9
ATOM      9  C   UNL     1      28.257   4.860  10.789  1.00  0.00     0.047 C 
ATOM     10  C   UNL     1      28.750   5.625  12.029  1.00  0.00     0.014 C 
ATOM     11  C   UNL     1      28.385   3.346  11.020  1.00  0.00     0.014 C 
ENDBRANCH   1   9
TORSDOF 3
ENDMDL
MODEL 6
REMARK VINA RESULT:    -3.521      2.722      3.381
REMARK INTER + INTRA:          -4.113
REMARK INTER:                  -4.145
REMARK INTRA:                   0.032
REMARK UNBOUND:                -0.077
REMARK SMILES CC(C)[C@H]([NH3+])C(=O)[O-]
REMARK SMILES IDX 4 1 5 2 6 6 7 7 8 8 2 9 1 10 3 11
REMARK H PARENT 5 3 5 4 5 5
REMARK Flexibility Score: inf
ROOT
ATOM      1  C   UNL     1      27.478   3.718   9.644  1.00  0.00     0.230 C 
ENDROOT
BRANCH   1   2
ATOM      2  N   UNL     1      28.041   2.633  10.460  1.00  0.00    -0.350 N 
ATOM      3  H   UNL     1      27.477   2.525  11.334  1.00  0.00     0.345 HD
ATOM      4  H   UNL     1      29.024   2.863  10.736  1.00  0.00     0.345 HD
ATOM      5  H   UNL     1      28.034   1.723   9.945  1.00  0.00     0.345 HD
ENDBRANCH   1   2
BRANCH   1   6
ATOM      6  C   UNL     1      27.545   3.369   8.176  1.00  0.00     0.099 C 
ATOM      7  O   UNL     1      28.119   2.311   7.806  1.00  0.00    -0.544 OA
ATOM      8  O   UNL     1      26.954   4.192   7.224  1.00  0.00    -0.544 OA
ENDBRANCH   1   6
BRANCH   1   9
ATOM      9  C   UNL     1      28.148   5.089   9.967  1.00  0.00     0.047 C 
ATOM     10  C   UNL     1      27.210   6.294   9.782  1.00  0.00     0.014 C 
ATOM     11  C   UNL     1      28.743   5.098  11.385  1.00  0.00     0.014 C 
ENDBRANCH   1   9
TORSDOF 3
ENDMDL
MODEL 7
REMARK VINA RESULT:    -3.373      8.966      9.579
REMARK INTER + INTRA:          -3.944
REMARK INTER:                  -3.943
REMARK INTRA:                  -0.001
REMARK UNBOUND:                -0.077
REMARK SMILES CC(C)[C@H]([NH3+])C(=O)[O-]
REMARK SMILES IDX 4 1 5 2 6 6 7 7 8 8 2 9 1 10 3 11
REMARK H PARENT 5 3 5 4 5 5
REMARK Flexibility Score: inf
ROOT
ATOM      1  C   UNL     1      24.401   1.336  18.149  1.00  0.00     0.230 C 
ENDROOT
BRANCH   1   2
ATOM      2  N   UNL     1      24.714   0.960  16.763  1.00  0.00    -0.350 N 
ATOM      3  H   UNL     1      23.841   0.645  16.281  1.00  0.00     0.345 HD
ATOM      4  H   UNL     1      25.394   0.164  16.752  1.00  0.00     0.345 HD
ATOM      5  H   UNL     1      25.117   1.763  16.230  1.00  0.00     0.345 HD
ENDBRANCH   1   2
BRANCH   1   6
ATOM      6  C   UNL     1      23.372   0.400  18.735  1.00  0.00     0.099 C 
ATOM      7  O   UNL     1      22.833   0.670  19.841  1.00  0.00    -0.544 OA
ATOM      8  O   UNL     1      22.987  -0.748  18.053  1.00  0.00    -0.544 OA
ENDBRANCH   1   6
BRANCH   1   9
ATOM      9  C   UNL     1      23.983   2.835  18.258  1.00  0.00     0.047 C 
ATOM     10  C   UNL     1      25.046   3.813  17.732  1.00  0.00     0.014 C 
ATOM     11  C   UNL     1      22.639   3.090  17.556  1.00  0.00     0.014 C 
ENDBRANCH   1   9
TORSDOF 3
ENDMDL
MODEL 8
REMARK VINA RESULT:    -3.334      9.599     10.165
REMARK INTER + INTRA:          -3.899
REMARK INTER:                  -3.832
REMARK INTRA:                  -0.067
REMARK UNBOUND:                -0.077
REMARK SMILES CC(C)[C@H]([NH3+])C(=O)[O-]
REMARK SMILES IDX 4 1 5 2 6 6 7 7 8 8 2 9 1 10 3 11
REMARK H PARENT 5 3 5 4 5 5
REMARK Flexibility Score: inf
ROOT
ATOM      1  C   UNL     1      24.491  -0.363  17.603  1.00  0.00     0.230 C 
ENDROOT
BRANCH   1   2
ATOM      2  N   UNL     1      24.774   0.721  16.652  1.00  0.00    -0.350 N 
ATOM      3  H   UNL     1      23.938   0.876  16.042  1.00  0.00     0.345 HD
ATOM      4  H   UNL     1      25.578   0.459  16.037  1.00  0.00     0.345 HD
ATOM      5  H   UNL     1      24.995   1.615  17.145  1.00  0.00     0.345 HD
ENDBRANCH   1   2
BRANCH   1   6
ATOM      6  C   UNL     1      24.290  -1.671  16.876  1.00  0.00     0.099 C 
ATOM      7  O   UNL     1      24.317  -1.701  15.617  1.00  0.00    -0.544 OA
ATOM      8  O   UNL     1      24.103  -2.854  17.581  1.00  0.00    -0.544 OA
ENDBRANCH   1   6
BRANCH   1   9
ATOM      9  C   UNL     1      23.298  -0.009  18.543  1.00  0.00     0.047 C 
ATOM     10  C   UNL     1      23.431   1.367  19.218  1.00  0.00     0.014 C 
ATOM     11  C   UNL     1      21.956  -0.102  17.799  1.00  0.00     0.014 C 
ENDBRANCH   1   9
TORSDOF 3
ENDMDL
MODEL 9
REMARK VINA RESULT:    -3.304      3.457      4.149
REMARK INTER + INTRA:          -3.864
REMARK INTER:                  -3.803
REMARK INTRA:                  -0.061
REMARK UNBOUND:                -0.077
REMARK SMILES CC(C)[C@H]([NH3+])C(=O)[O-]
REMARK SMILES IDX 4 1 5 2 6 6 7 7 8 8 2 9 1 10 3 11
REMARK H PARENT 5 3 5 4 5 5
REMARK Flexibility Score: inf
ROOT
ATOM      1  C   UNL     1      26.253   5.787   8.192  1.00  0.00     0.230 C 
ENDROOT
BRANCH   1   2
ATOM      2  N   UNL     1      27.147   4.698   7.777  1.00  0.00    -0.350 N 
ATOM      3  H   UNL     1      28.142   5.003   7.883  1.00  0.00     0.345 HD
ATOM      4  H   UNL     1      26.987   4.466   6.769  1.00  0.00     0.345 HD
ATOM      5  H   UNL     1      26.999   3.839   8.354  1.00  0.00     0.345 HD
ENDBRANCH   1   2
BRANCH   1   6
ATOM      6  C   UNL     1      26.380   6.966   7.257  1.00  0.00     0.099 C 
ATOM      7  O   UNL     1      26.352   8.139   7.715  1.00  0.00    -0.544 OA
ATOM      8  O   UNL     1      26.557   6.772   5.892  1.00  0.00    -0.544 OA
ENDBRANCH   1   6
BRANCH   1   9
ATOM      9  C   UNL     1      26.476   6.178   9.685  1.00  0.00     0.047 C 
ATOM     10  C   UNL     1      25.380   5.658  10.631  1.00  0.00     0.014 C 
ATOM     11  C   UNL     1      27.858   5.722  10.180  1.00  0.00     0.014 C 
ENDBRANCH   1   9
TORSDOF 3
ENDMDL
