MODEL 1
REMARK VINA RESULT:    -6.110      0.000      0.000
REMARK INTER + INTRA:          -8.775
REMARK INTER:                  -8.254
REMARK INTRA:                  -0.521
REMARK UNBOUND:                -0.521
REMARK SMILES O=c1c(-c2ccc(O)cc2)coc2c([C@H]3O[C@@H](CO)[C@H](O)[C@@H](O)[C@H]3O)c(O)ccc12
REMARK SMILES IDX 3 1 11 2 12 3 13 4 30 5 2 6 1 7 29 8 28 9 26 10 14 11 4 12
REMARK SMILES IDX 5 13 6 14 7 15 10 16 9 17 8 18 15 20 24 21 16 22 22 23 17 24
REMARK SMILES IDX 20 25 25 26 23 28 18 30 19 31 21 33 27 35
REMARK H PARENT 8 19 25 27 23 29 19 32 21 34 27 36
REMARK Flexibility Score: inf
ROOT
ATOM      1  C   UNL     1      -4.973  91.003  -8.522  1.00  0.00     0.065 A 
ATOM      2  C   UNL     1      -5.747  90.282  -9.446  1.00  0.00     0.208 A 
ATOM      3  O   UNL     1      -5.609  88.970  -9.577  1.00  0.00    -0.463 OA
ATOM      4  C   UNL     1      -4.736  88.252  -8.875  1.00  0.00     0.147 A 
ATOM      5  C   UNL     1      -3.903  88.896  -7.933  1.00  0.00     0.066 A 
ATOM      6  C   UNL     1      -4.046  90.283  -7.740  1.00  0.00     0.200 A 
ATOM      7  O   UNL     1      -3.347  90.877  -6.877  1.00  0.00    -0.288 OA
ATOM      8  C   UNL     1      -2.956  88.140  -7.225  1.00  0.00     0.020 A 
ATOM      9  C   UNL     1      -2.723  86.815  -7.585  1.00  0.00     0.047 A 
ATOM     10  C   UNL     1      -3.470  86.216  -8.605  1.00  0.00     0.125 A 
ATOM     11  C   UNL     1      -4.644  86.852  -9.080  1.00  0.00     0.069 A 
ENDROOT
BRANCH   1  12
ATOM     12  C   UNL     1      -5.107  92.486  -8.451  1.00  0.00    -0.011 A 
ATOM     13  C   UNL     1      -4.315  93.320  -9.260  1.00  0.00     0.013 A 
ATOM     14  C   UNL     1      -4.526  94.703  -9.277  1.00  0.00     0.047 A 
ATOM     15  C   UNL     1      -5.527  95.272  -8.483  1.00  0.00     0.115 A 
ATOM     16  C   UNL     1      -6.104  93.070  -7.649  1.00  0.00     0.013 A 
ATOM     17  C   UNL     1      -6.318  94.449  -7.674  1.00  0.00     0.047 A 
BRANCH  15  18
ATOM     18  O   UNL     1      -5.731  96.651  -8.509  1.00  0.00    -0.508 OA
ATOM     19  H   UNL     1      -6.519  97.060  -8.995  1.00  0.00     0.293 HD
ENDBRANCH  15  18
ENDBRANCH   1  12
BRANCH  11  20
ATOM     20  C   UNL     1      -5.828  86.119  -9.747  1.00  0.00     0.188 C 
ATOM     21  C   UNL     1      -7.066  85.914  -8.808  1.00  0.00     0.179 C 
ATOM     22  O   UNL     1      -5.442  84.975 -10.526  1.00  0.00    -0.362 OA
ATOM     23  C   UNL     1      -7.026  84.562  -8.110  1.00  0.00     0.177 C 
ATOM     24  C   UNL     1      -5.784  83.642 -10.099  1.00  0.00     0.176 C 
ATOM     25  C   UNL     1      -7.021  83.490  -9.185  1.00  0.00     0.177 C 
BRANCH  21  26
ATOM     26  O   UNL     1      -7.189  86.916  -7.825  1.00  0.00    -0.387 OA
ATOM     27  H   UNL     1      -6.329  87.416  -7.790  1.00  0.00     0.211 HD
ENDBRANCH  21  26
BRANCH  23  28
ATOM     28  O   UNL     1      -5.884  84.438  -7.299  1.00  0.00    -0.387 OA
ATOM     29  H   UNL     1      -5.113  84.252  -7.900  1.00  0.00     0.211 HD
ENDBRANCH  23  28
BRANCH  24  30
ATOM     30  C   UNL     1      -4.552  82.889  -9.530  1.00  0.00     0.191 C 
BRANCH  30  31
ATOM     31  O   UNL     1      -3.626  82.562 -10.536  1.00  0.00    -0.394 OA
ATOM     32  H   UNL     1      -3.114  81.765 -10.241  1.00  0.00     0.210 HD
ENDBRANCH  30  31
ENDBRANCH  24  30
BRANCH  25  33
ATOM     33  O   UNL     1      -8.190  83.555  -9.967  1.00  0.00    -0.388 OA
ATOM     34  H   UNL     1      -8.628  84.423  -9.762  1.00  0.00     0.211 HD
ENDBRANCH  25  33
ENDBRANCH  11  20
BRANCH  10  35
ATOM     35  O   UNL     1      -2.937  85.077  -9.198  1.00  0.00    -0.507 OA
ATOM     36  H   UNL     1      -2.434  85.115 -10.071  1.00  0.00     0.293 HD
ENDBRANCH  10  35
TORSDOF 9
ENDMDL
MODEL 2
REMARK VINA RESULT:    -5.654      6.158      9.605
REMARK INTER + INTRA:          -8.158
REMARK INTER:                  -7.658
REMARK INTRA:                  -0.500
REMARK UNBOUND:                -0.521
REMARK SMILES O=c1c(-c2ccc(O)cc2)coc2c([C@H]3O[C@@H](CO)[C@H](O)[C@@H](O)[C@H]3O)c(O)ccc12
REMARK SMILES IDX 3 1 11 2 12 3 13 4 30 5 2 6 1 7 29 8 28 9 26 10 14 11 4 12
REMARK SMILES IDX 5 13 6 14 7 15 10 16 9 17 8 18 15 20 24 21 16 22 22 23 17 24
REMARK SMILES IDX 20 25 25 26 23 28 18 30 19 31 21 33 27 35
REMARK H PARENT 8 19 25 27 23 29 19 32 21 34 27 36
REMARK Flexibility Score: inf
ROOT
ATOM      1  C   UNL     1      -7.068  89.421 -12.040  1.00  0.00     0.065 A 
ATOM      2  C   UNL     1      -7.722  89.613 -13.268  1.00  0.00     0.208 A 
ATOM      3  O   UNL     1      -7.274  90.495 -14.150  1.00  0.00    -0.463 OA
ATOM      4  C   UNL     1      -6.208  91.264 -13.941  1.00  0.00     0.147 A 
ATOM      5  C   UNL     1      -5.497  91.150 -12.726  1.00  0.00     0.066 A 
ATOM      6  C   UNL     1      -5.920  90.198 -11.780  1.00  0.00     0.200 A 
ATOM      7  O   UNL     1      -5.280  90.045 -10.706  1.00  0.00    -0.288 OA
ATOM      8  C   UNL     1      -4.397  91.992 -12.494  1.00  0.00     0.020 A 
ATOM      9  C   UNL     1      -4.134  93.040 -13.373  1.00  0.00     0.047 A 
ATOM     10  C   UNL     1      -4.920  93.221 -14.515  1.00  0.00     0.125 A 
ATOM     11  C   UNL     1      -5.797  92.190 -14.933  1.00  0.00     0.069 A 
ENDROOT
BRANCH   1  12
ATOM     12  C   UNL     1      -7.639  88.469 -11.045  1.00  0.00    -0.011 A 
ATOM     13  C   UNL     1      -8.765  88.819 -10.279  1.00  0.00     0.013 A 
ATOM     14  C   UNL     1      -9.369  87.881  -9.434  1.00  0.00     0.047 A 
ATOM     15  C   UNL     1      -8.854  86.585  -9.338  1.00  0.00     0.115 A 
ATOM     16  C   UNL     1      -7.123  87.166 -10.933  1.00  0.00     0.013 A 
ATOM     17  C   UNL     1      -7.732  86.230 -10.095  1.00  0.00     0.047 A 
BRANCH  15  18
ATOM     18  O   UNL     1      -9.463  85.658  -8.494  1.00  0.00    -0.508 OA
ATOM     19  H   UNL     1      -9.405  85.741  -7.486  1.00  0.00     0.293 HD
ENDBRANCH  15  18
ENDBRANCH   1  12
BRANCH  11  20
ATOM     20  C   UNL     1      -6.283  91.987 -16.385  1.00  0.00     0.188 C 
ATOM     21  C   UNL     1      -5.241  91.279 -17.317  1.00  0.00     0.179 C 
ATOM     22  O   UNL     1      -6.940  93.136 -16.946  1.00  0.00    -0.362 OA
ATOM     23  C   UNL     1      -4.384  92.286 -18.072  1.00  0.00     0.177 C 
ATOM     24  C   UNL     1      -6.326  93.889 -18.011  1.00  0.00     0.176 C 
ATOM     25  C   UNL     1      -5.316  93.143 -18.911  1.00  0.00     0.177 C 
BRANCH  21  26
ATOM     26  O   UNL     1      -4.383  90.402 -16.624  1.00  0.00    -0.387 OA
ATOM     27  H   UNL     1      -3.680  90.949 -16.180  1.00  0.00     0.211 HD
ENDBRANCH  21  26
BRANCH  23  28
ATOM     28  O   UNL     1      -3.647  93.095 -17.190  1.00  0.00    -0.387 OA
ATOM     29  H   UNL     1      -2.930  93.536 -17.721  1.00  0.00     0.211 HD
ENDBRANCH  23  28
BRANCH  24  30
ATOM     30  C   UNL     1      -5.757  95.241 -17.503  1.00  0.00     0.191 C 
BRANCH  30  31
ATOM     31  O   UNL     1      -4.509  95.535 -18.078  1.00  0.00    -0.394 OA
ATOM     32  H   UNL     1      -4.060  96.217 -17.516  1.00  0.00     0.210 HD
ENDBRANCH  30  31
ENDBRANCH  24  30
BRANCH  25  33
ATOM     33  O   UNL     1      -6.014  92.359 -19.848  1.00  0.00    -0.388 OA
ATOM     34  H   UNL     1      -6.729  92.933 -20.232  1.00  0.00     0.211 HD
ENDBRANCH  25  33
ENDBRANCH  11  20
BRANCH  10  35
ATOM     35  O   UNL     1      -4.894  94.477 -15.111  1.00  0.00    -0.507 OA
ATOM     36  H   UNL     1      -5.393  95.263 -14.723  1.00  0.00     0.293 HD
ENDBRANCH  10  35
TORSDOF 9
ENDMDL
MODEL 3
REMARK VINA RESULT:    -5.368      9.704     11.602
REMARK INTER + INTRA:          -7.772
REMARK INTER:                  -7.259
REMARK INTRA:                  -0.513
REMARK UNBOUND:                -0.521
REMARK SMILES O=c1c(-c2ccc(O)cc2)coc2c([C@H]3O[C@@H](CO)[C@H](O)[C@@H](O)[C@H]3O)c(O)ccc12
REMARK SMILES IDX 3 1 11 2 12 3 13 4 30 5 2 6 1 7 29 8 28 9 26 10 14 11 4 12
REMARK SMILES IDX 5 13 6 14 7 15 10 16 9 17 8 18 15 20 24 21 16 22 22 23 17 24
REMARK SMILES IDX 20 25 25 26 23 28 18 30 19 31 21 33 27 35
REMARK H PARENT 8 19 25 27 23 29 19 32 21 34 27 36
REMARK Flexibility Score: inf
ROOT
ATOM      1  C   UNL     1      -4.218  93.053 -20.394  1.00  0.00     0.065 A 
ATOM      2  C   UNL     1      -5.384  92.597 -19.758  1.00  0.00     0.208 A 
ATOM      3  O   UNL     1      -5.366  92.211 -18.490  1.00  0.00    -0.463 OA
ATOM      4  C   UNL     1      -4.266  92.207 -17.742  1.00  0.00     0.147 A 
ATOM      5  C   UNL     1      -3.042  92.635 -18.303  1.00  0.00     0.066 A 
ATOM      6  C   UNL     1      -3.030  93.087 -19.636  1.00  0.00     0.200 A 
ATOM      7  O   UNL     1      -1.962  93.514 -20.150  1.00  0.00    -0.288 OA
ATOM      8  C   UNL     1      -1.876  92.591 -17.521  1.00  0.00     0.020 A 
ATOM      9  C   UNL     1      -1.903  91.962 -16.279  1.00  0.00     0.047 A 
ATOM     10  C   UNL     1      -3.097  91.431 -15.779  1.00  0.00     0.125 A 
ATOM     11  C   UNL     1      -4.327  91.772 -16.394  1.00  0.00     0.069 A 
ENDROOT
BRANCH   1  12
ATOM     12  C   UNL     1      -4.263  93.414 -21.839  1.00  0.00    -0.011 A 
ATOM     13  C   UNL     1      -3.612  92.620 -22.800  1.00  0.00     0.013 A 
ATOM     14  C   UNL     1      -3.755  92.894 -24.164  1.00  0.00     0.047 A 
ATOM     15  C   UNL     1      -4.545  93.967 -24.588  1.00  0.00     0.115 A 
ATOM     16  C   UNL     1      -5.047  94.496 -22.276  1.00  0.00     0.013 A 
ATOM     17  C   UNL     1      -5.195  94.764 -23.638  1.00  0.00     0.047 A 
BRANCH  15  18
ATOM     18  O   UNL     1      -4.683  94.231 -25.949  1.00  0.00    -0.508 OA
ATOM     19  H   UNL     1      -3.881  94.243 -26.570  1.00  0.00     0.293 HD
ENDBRANCH  15  18
ENDBRANCH   1  12
BRANCH  11  20
ATOM     20  C   UNL     1      -5.698  91.748 -15.683  1.00  0.00     0.188 C 
ATOM     21  C   UNL     1      -6.364  93.158 -15.526  1.00  0.00     0.179 C 
ATOM     22  O   UNL     1      -5.735  90.908 -14.517  1.00  0.00    -0.362 OA
ATOM     23  C   UNL     1      -6.027  93.794 -14.184  1.00  0.00     0.177 C 
ATOM     24  C   UNL     1      -5.863  91.481 -13.200  1.00  0.00     0.176 C 
ATOM     25  C   UNL     1      -6.538  92.867 -13.096  1.00  0.00     0.177 C 
BRANCH  21  26
ATOM     26  O   UNL     1      -6.000  94.060 -16.546  1.00  0.00    -0.387 OA
ATOM     27  H   UNL     1      -5.181  93.707 -16.987  1.00  0.00     0.211 HD
ENDBRANCH  21  26
BRANCH  23  28
ATOM     28  O   UNL     1      -4.642  93.987 -14.043  1.00  0.00    -0.387 OA
ATOM     29  H   UNL     1      -4.412  93.798 -13.093  1.00  0.00     0.211 HD
ENDBRANCH  23  28
BRANCH  24  30
ATOM     30  C   UNL     1      -4.519  91.434 -12.424  1.00  0.00     0.191 C 
BRANCH  30  31
ATOM     31  O   UNL     1      -4.454  92.424 -11.427  1.00  0.00    -0.394 OA
ATOM     32  H   UNL     1      -3.526  92.770 -11.393  1.00  0.00     0.210 HD
ENDBRANCH  30  31
ENDBRANCH  24  30
BRANCH  25  33
ATOM     33  O   UNL     1      -7.935  92.713 -13.180  1.00  0.00    -0.388 OA
ATOM     34  H   UNL     1      -8.297  92.855 -12.265  1.00  0.00     0.211 HD
ENDBRANCH  25  33
ENDBRANCH  11  20
BRANCH  10  35
ATOM     35  O   UNL     1      -2.995  90.476 -14.774  1.00  0.00    -0.507 OA
ATOM     36  H   UNL     1      -2.473  90.645 -13.927  1.00  0.00     0.293 HD
ENDBRANCH  10  35
TORSDOF 9
ENDMDL
MODEL 4
REMARK VINA RESULT:    -5.338      7.611     10.540
REMARK INTER + INTRA:          -7.731
REMARK INTER:                  -7.189
REMARK INTRA:                  -0.542
REMARK UNBOUND:                -0.521
REMARK SMILES O=c1c(-c2ccc(O)cc2)coc2c([C@H]3O[C@@H](CO)[C@H](O)[C@@H](O)[C@H]3O)c(O)ccc12
REMARK SMILES IDX 3 1 11 2 12 3 13 4 30 5 2 6 1 7 29 8 28 9 26 10 14 11 4 12
REMARK SMILES IDX 5 13 6 14 7 15 10 16 9 17 8 18 15 20 24 21 16 22 22 23 17 24
REMARK SMILES IDX 20 25 25 26 23 28 18 30 19 31 21 33 27 35
REMARK H PARENT 8 19 25 27 23 29 19 32 21 34 27 36
REMARK Flexibility Score: inf
ROOT
ATOM      1  C   UNL     1      -6.290  90.583 -13.364  1.00  0.00     0.065 A 
ATOM      2  C   UNL     1      -5.594  89.995 -14.432  1.00  0.00     0.208 A 
ATOM      3  O   UNL     1      -5.552  90.575 -15.623  1.00  0.00    -0.463 OA
ATOM      4  C   UNL     1      -6.167  91.721 -15.902  1.00  0.00     0.147 A 
ATOM      5  C   UNL     1      -6.905  92.377 -14.892  1.00  0.00     0.066 A 
ATOM      6  C   UNL     1      -6.942  91.810 -13.603  1.00  0.00     0.200 A 
ATOM      7  O   UNL     1      -7.557  92.394 -12.672  1.00  0.00    -0.288 OA
ATOM      8  C   UNL     1      -7.586  93.566 -15.201  1.00  0.00     0.020 A 
ATOM      9  C   UNL     1      -7.675  93.983 -16.527  1.00  0.00     0.047 A 
ATOM     10  C   UNL     1      -7.041  93.260 -17.542  1.00  0.00     0.125 A 
ATOM     11  C   UNL     1      -6.080  92.274 -17.205  1.00  0.00     0.069 A 
ENDROOT
BRANCH   1  12
ATOM     12  C   UNL     1      -6.372  89.869 -12.059  1.00  0.00    -0.011 A 
ATOM     13  C   UNL     1      -7.127  88.690 -11.929  1.00  0.00     0.013 A 
ATOM     14  C   UNL     1      -7.105  87.959 -10.737  1.00  0.00     0.047 A 
ATOM     15  C   UNL     1      -6.334  88.397  -9.656  1.00  0.00     0.115 A 
ATOM     16  C   UNL     1      -5.608  90.306 -10.962  1.00  0.00     0.013 A 
ATOM     17  C   UNL     1      -5.581  89.571  -9.775  1.00  0.00     0.047 A 
BRANCH  15  18
ATOM     18  O   UNL     1      -6.317  87.661  -8.473  1.00  0.00    -0.508 OA
ATOM     19  H   UNL     1      -6.038  88.078  -7.593  1.00  0.00     0.293 HD
ENDBRANCH  15  18
ENDBRANCH   1  12
BRANCH  11  20
ATOM     20  C   UNL     1      -4.937  91.810 -18.133  1.00  0.00     0.188 C 
ATOM     21  C   UNL     1      -3.502  92.131 -17.593  1.00  0.00     0.179 C 
ATOM     22  O   UNL     1      -5.160  92.104 -19.523  1.00  0.00    -0.362 OA
ATOM     23  C   UNL     1      -2.982  93.458 -18.129  1.00  0.00     0.177 C 
ATOM     24  C   UNL     1      -4.357  93.086 -20.206  1.00  0.00     0.176 C 
ATOM     25  C   UNL     1      -2.944  93.358 -19.643  1.00  0.00     0.177 C 
BRANCH  21  26
ATOM     26  O   UNL     1      -3.433  92.166 -16.186  1.00  0.00    -0.387 OA
ATOM     27  H   UNL     1      -4.365  92.192 -15.836  1.00  0.00     0.211 HD
ENDBRANCH  21  26
BRANCH  23  28
ATOM     28  O   UNL     1      -3.806  94.527 -17.736  1.00  0.00    -0.387 OA
ATOM     29  H   UNL     1      -3.996  95.069 -18.549  1.00  0.00     0.211 HD
ENDBRANCH  23  28
BRANCH  24  30
ATOM     30  C   UNL     1      -5.145  94.402 -20.446  1.00  0.00     0.191 C 
BRANCH  30  31
ATOM     31  O   UNL     1      -6.323  94.183 -21.181  1.00  0.00    -0.394 OA
ATOM     32  H   UNL     1      -6.307  94.771 -21.978  1.00  0.00     0.210 HD
ENDBRANCH  30  31
ENDBRANCH  24  30
BRANCH  25  33
ATOM     33  O   UNL     1      -2.070  92.336 -20.059  1.00  0.00    -0.388 OA
ATOM     34  H   UNL     1      -1.431  92.743 -20.702  1.00  0.00     0.211 HD
ENDBRANCH  25  33
ENDBRANCH  11  20
BRANCH  10  35
ATOM     35  O   UNL     1      -7.492  93.459 -18.842  1.00  0.00    -0.507 OA
ATOM     36  H   UNL     1      -6.877  93.384 -19.638  1.00  0.00     0.293 HD
ENDBRANCH  10  35
TORSDOF 9
ENDMDL
MODEL 5
REMARK VINA RESULT:    -5.318      7.341      9.563
REMARK INTER + INTRA:          -7.704
REMARK INTER:                  -7.224
REMARK INTRA:                  -0.480
REMARK UNBOUND:                -0.521
REMARK SMILES O=c1c(-c2ccc(O)cc2)coc2c([C@H]3O[C@@H](CO)[C@H](O)[C@@H](O)[C@H]3O)c(O)ccc12
REMARK SMILES IDX 3 1 11 2 12 3 13 4 30 5 2 6 1 7 29 8 28 9 26 10 14 11 4 12
REMARK SMILES IDX 5 13 6 14 7 15 10 16 9 17 8 18 15 20 24 21 16 22 22 23 17 24
REMARK SMILES IDX 20 25 25 26 23 28 18 30 19 31 21 33 27 35
REMARK H PARENT 8 19 25 27 23 29 19 32 21 34 27 36
REMARK Flexibility Score: inf
ROOT
ATOM      1  C   UNL     1      -9.564  92.313 -13.475  1.00  0.00     0.065 A 
ATOM      2  C   UNL     1      -8.767  93.405 -13.857  1.00  0.00     0.208 A 
ATOM      3  O   UNL     1      -7.525  93.228 -14.284  1.00  0.00    -0.463 OA
ATOM      4  C   UNL     1      -6.942  92.035 -14.366  1.00  0.00     0.147 A 
ATOM      5  C   UNL     1      -7.663  90.881 -13.988  1.00  0.00     0.066 A 
ATOM      6  C   UNL     1      -8.998  91.025 -13.564  1.00  0.00     0.200 A 
ATOM      7  O   UNL     1      -9.679  90.010 -13.261  1.00  0.00    -0.288 OA
ATOM      8  C   UNL     1      -7.030  89.629 -14.038  1.00  0.00     0.020 A 
ATOM      9  C   UNL     1      -5.660  89.558 -14.281  1.00  0.00     0.047 A 
ATOM     10  C   UNL     1      -4.925  90.721 -14.536  1.00  0.00     0.125 A 
ATOM     11  C   UNL     1      -5.605  91.930 -14.826  1.00  0.00     0.069 A 
ENDROOT
BRANCH   1  12
ATOM     12  C   UNL     1     -10.932  92.556 -12.936  1.00  0.00    -0.011 A 
ATOM     13  C   UNL     1     -12.052  92.558 -13.787  1.00  0.00     0.013 A 
ATOM     14  C   UNL     1     -13.344  92.668 -13.262  1.00  0.00     0.047 A 
ATOM     15  C   UNL     1     -13.536  92.782 -11.882  1.00  0.00     0.115 A 
ATOM     16  C   UNL     1     -11.136  92.683 -11.550  1.00  0.00     0.013 A 
ATOM     17  C   UNL     1     -12.427  92.784 -11.028  1.00  0.00     0.047 A 
BRANCH  15  18
ATOM     18  O   UNL     1     -14.827  92.889 -11.369  1.00  0.00    -0.508 OA
ATOM     19  H   UNL     1     -15.186  93.769 -11.017  1.00  0.00     0.293 HD
ENDBRANCH  15  18
ENDBRANCH   1  12
BRANCH  11  20
ATOM     20  C   UNL     1      -5.007  93.097 -15.642  1.00  0.00     0.188 C 
ATOM     21  C   UNL     1      -5.754  93.387 -16.989  1.00  0.00     0.179 C 
ATOM     22  O   UNL     1      -3.571  93.079 -15.718  1.00  0.00    -0.362 OA
ATOM     23  C   UNL     1      -5.115  92.651 -18.158  1.00  0.00     0.177 C 
ATOM     24  C   UNL     1      -2.902  92.805 -16.965  1.00  0.00     0.176 C 
ATOM     25  C   UNL     1      -3.676  93.121 -18.265  1.00  0.00     0.177 C 
BRANCH  21  26
ATOM     26  O   UNL     1      -7.121  93.050 -16.948  1.00  0.00    -0.387 OA
ATOM     27  H   UNL     1      -7.189  92.065 -16.822  1.00  0.00     0.211 HD
ENDBRANCH  21  26
BRANCH  23  28
ATOM     28  O   UNL     1      -5.156  91.258 -17.970  1.00  0.00    -0.387 OA
ATOM     29  H   UNL     1      -4.629  90.844 -18.706  1.00  0.00     0.211 HD
ENDBRANCH  23  28
BRANCH  24  30
ATOM     30  C   UNL     1      -2.297  91.375 -16.987  1.00  0.00     0.191 C 
BRANCH  30  31
ATOM     31  O   UNL     1      -2.517  90.730 -18.217  1.00  0.00    -0.394 OA
ATOM     32  H   UNL     1      -3.373  91.061 -18.593  1.00  0.00     0.210 HD
ENDBRANCH  30  31
ENDBRANCH  24  30
BRANCH  25  33
ATOM     33  O   UNL     1      -3.614  94.503 -18.521  1.00  0.00    -0.388 OA
ATOM     34  H   UNL     1      -3.303  94.612 -19.458  1.00  0.00     0.211 HD
ENDBRANCH  25  33
ENDBRANCH  11  20
BRANCH  10  35
ATOM     35  O   UNL     1      -3.548  90.654 -14.356  1.00  0.00    -0.507 OA
ATOM     36  H   UNL     1      -3.137  90.350 -13.486  1.00  0.00     0.293 HD
ENDBRANCH  10  35
TORSDOF 9
ENDMDL
MODEL 6
REMARK VINA RESULT:    -5.315      5.057      8.831
REMARK INTER + INTRA:          -7.700
REMARK INTER:                  -7.095
REMARK INTRA:                  -0.605
REMARK UNBOUND:                -0.521
REMARK SMILES O=c1c(-c2ccc(O)cc2)coc2c([C@H]3O[C@@H](CO)[C@H](O)[C@@H](O)[C@H]3O)c(O)ccc12
REMARK SMILES IDX 3 1 11 2 12 3 13 4 30 5 2 6 1 7 29 8 28 9 26 10 14 11 4 12
REMARK SMILES IDX 5 13 6 14 7 15 10 16 9 17 8 18 15 20 24 21 16 22 22 23 17 24
REMARK SMILES IDX 20 25 25 26 23 28 18 30 19 31 21 33 27 35
REMARK H PARENT 8 19 25 27 23 29 19 32 21 34 27 36
REMARK Flexibility Score: inf
ROOT
ATOM      1  C   UNL     1      -7.253  84.463  -8.825  1.00  0.00     0.065 A 
ATOM      2  C   UNL     1      -8.145  83.656  -8.101  1.00  0.00     0.208 A 
ATOM      3  O   UNL     1      -9.405  84.025  -7.917  1.00  0.00    -0.463 OA
ATOM      4  C   UNL     1      -9.908  85.168  -8.375  1.00  0.00     0.147 A 
ATOM      5  C   UNL     1      -9.078  86.051  -9.101  1.00  0.00     0.066 A 
ATOM      6  C   UNL     1      -7.743  85.676  -9.348  1.00  0.00     0.200 A 
ATOM      7  O   UNL     1      -6.992  86.424 -10.029  1.00  0.00    -0.288 OA
ATOM      8  C   UNL     1      -9.602  87.275  -9.547  1.00  0.00     0.020 A 
ATOM      9  C   UNL     1     -10.863  87.681  -9.118  1.00  0.00     0.047 A 
ATOM     10  C   UNL     1     -11.633  86.852  -8.296  1.00  0.00     0.125 A 
ATOM     11  C   UNL     1     -11.265  85.494  -8.129  1.00  0.00     0.069 A 
ENDROOT
BRANCH   1  12
ATOM     12  C   UNL     1      -5.827  84.048  -8.954  1.00  0.00    -0.011 A 
ATOM     13  C   UNL     1      -4.861  84.495  -8.034  1.00  0.00     0.013 A 
ATOM     14  C   UNL     1      -3.550  84.010  -8.088  1.00  0.00     0.047 A 
ATOM     15  C   UNL     1      -3.184  83.076  -9.062  1.00  0.00     0.115 A 
ATOM     16  C   UNL     1      -5.445  83.117  -9.936  1.00  0.00     0.013 A 
ATOM     17  C   UNL     1      -4.138  82.627  -9.982  1.00  0.00     0.047 A 
BRANCH  15  18
ATOM     18  O   UNL     1      -1.876  82.598  -9.106  1.00  0.00    -0.508 OA
ATOM     19  H   UNL     1      -1.151  82.981  -8.510  1.00  0.00     0.293 HD
ENDBRANCH  15  18
ENDBRANCH   1  12
BRANCH  11  20
ATOM     20  C   UNL     1     -12.245  84.361  -7.752  1.00  0.00     0.188 C 
ATOM     21  C   UNL     1     -12.567  83.375  -8.927  1.00  0.00     0.179 C 
ATOM     22  O   UNL     1     -13.375  84.800  -6.979  1.00  0.00    -0.362 OA
ATOM     23  C   UNL     1     -13.823  83.789  -9.681  1.00  0.00     0.177 C 
ATOM     24  C   UNL     1     -14.701  84.791  -7.543  1.00  0.00     0.176 C 
ATOM     25  C   UNL     1     -14.974  83.792  -8.690  1.00  0.00     0.177 C 
BRANCH  21  26
ATOM     26  O   UNL     1     -11.514  83.255  -9.855  1.00  0.00    -0.387 OA
ATOM     27  H   UNL     1     -10.686  83.034  -9.349  1.00  0.00     0.211 HD
ENDBRANCH  21  26
BRANCH  23  28
ATOM     28  O   UNL     1     -13.678  85.064 -10.256  1.00  0.00    -0.387 OA
ATOM     29  H   UNL     1     -14.344  85.662  -9.821  1.00  0.00     0.211 HD
ENDBRANCH  23  28
BRANCH  24  30
ATOM     30  C   UNL     1     -15.181  86.224  -7.900  1.00  0.00     0.191 C 
BRANCH  30  31
ATOM     31  O   UNL     1     -16.121  86.218  -8.945  1.00  0.00    -0.394 OA
ATOM     32  H   UNL     1     -16.300  85.276  -9.198  1.00  0.00     0.210 HD
ENDBRANCH  30  31
ENDBRANCH  24  30
BRANCH  25  33
ATOM     33  O   UNL     1     -15.179  82.508  -8.152  1.00  0.00    -0.388 OA
ATOM     34  H   UNL     1     -14.619  81.879  -8.680  1.00  0.00     0.211 HD
ENDBRANCH  25  33
ENDBRANCH  11  20
BRANCH  10  35
ATOM     35  O   UNL     1     -12.658  87.451  -7.572  1.00  0.00    -0.507 OA
ATOM     36  H   UNL     1     -12.590  88.398  -7.232  1.00  0.00     0.293 HD
ENDBRANCH  10  35
TORSDOF 9
ENDMDL
MODEL 7
REMARK VINA RESULT:    -5.309      5.274      8.111
REMARK INTER + INTRA:          -7.692
REMARK INTER:                  -7.117
REMARK INTRA:                  -0.575
REMARK UNBOUND:                -0.521
REMARK SMILES O=c1c(-c2ccc(O)cc2)coc2c([C@H]3O[C@@H](CO)[C@H](O)[C@@H](O)[C@H]3O)c(O)ccc12
REMARK SMILES IDX 3 1 11 2 12 3 13 4 30 5 2 6 1 7 29 8 28 9 26 10 14 11 4 12
REMARK SMILES IDX 5 13 6 14 7 15 10 16 9 17 8 18 15 20 24 21 16 22 22 23 17 24
REMARK SMILES IDX 20 25 25 26 23 28 18 30 19 31 21 33 27 35
REMARK H PARENT 8 19 25 27 23 29 19 32 21 34 27 36
REMARK Flexibility Score: inf
ROOT
ATOM      1  C   UNL     1      -6.721  88.453 -10.013  1.00  0.00     0.065 A 
ATOM      2  C   UNL     1      -7.773  88.698  -9.115  1.00  0.00     0.208 A 
ATOM      3  O   UNL     1      -8.889  89.289  -9.515  1.00  0.00    -0.463 OA
ATOM      4  C   UNL     1      -9.092  89.704 -10.763  1.00  0.00     0.147 A 
ATOM      5  C   UNL     1      -8.082  89.514 -11.731  1.00  0.00     0.066 A 
ATOM      6  C   UNL     1      -6.896  88.856 -11.352  1.00  0.00     0.200 A 
ATOM      7  O   UNL     1      -5.995  88.635 -12.204  1.00  0.00    -0.288 OA
ATOM      8  C   UNL     1      -8.284  89.990 -13.037  1.00  0.00     0.020 A 
ATOM      9  C   UNL     1      -9.386  90.796 -13.313  1.00  0.00     0.047 A 
ATOM     10  C   UNL     1     -10.323  91.082 -12.315  1.00  0.00     0.125 A 
ATOM     11  C   UNL     1     -10.313  90.336 -11.110  1.00  0.00     0.069 A 
ENDROOT
BRANCH   1  12
ATOM     12  C   UNL     1      -5.454  87.848  -9.512  1.00  0.00    -0.011 A 
ATOM     13  C   UNL     1      -4.544  88.607  -8.756  1.00  0.00     0.013 A 
ATOM     14  C   UNL     1      -3.416  88.005  -8.188  1.00  0.00     0.047 A 
ATOM     15  C   UNL     1      -3.178  86.639  -8.372  1.00  0.00     0.115 A 
ATOM     16  C   UNL     1      -5.200  86.478  -9.700  1.00  0.00     0.013 A 
ATOM     17  C   UNL     1      -4.078  85.877  -9.125  1.00  0.00     0.047 A 
BRANCH  15  18
ATOM     18  O   UNL     1      -2.052  86.049  -7.801  1.00  0.00    -0.508 OA
ATOM     19  H   UNL     1      -2.064  85.089  -7.477  1.00  0.00     0.293 HD
ENDBRANCH  15  18
ENDBRANCH   1  12
BRANCH  11  20
ATOM     20  C   UNL     1     -11.541  90.130 -10.197  1.00  0.00     0.188 C 
ATOM     21  C   UNL     1     -12.009  88.640 -10.077  1.00  0.00     0.179 C 
ATOM     22  O   UNL     1     -12.586  91.097 -10.399  1.00  0.00    -0.362 OA
ATOM     23  C   UNL     1     -13.095  88.306 -11.090  1.00  0.00     0.177 C 
ATOM     24  C   UNL     1     -13.847  90.708 -10.981  1.00  0.00     0.176 C 
ATOM     25  C   UNL     1     -14.270  89.230 -10.824  1.00  0.00     0.177 C 
BRANCH  21  26
ATOM     26  O   UNL     1     -10.959  87.714 -10.235  1.00  0.00    -0.387 OA
ATOM     27  H   UNL     1     -10.297  88.108 -10.865  1.00  0.00     0.211 HD
ENDBRANCH  21  26
BRANCH  23  28
ATOM     28  O   UNL     1     -12.636  88.477 -12.408  1.00  0.00    -0.387 OA
ATOM     29  H   UNL     1     -12.359  89.428 -12.505  1.00  0.00     0.211 HD
ENDBRANCH  23  28
BRANCH  24  30
ATOM     30  C   UNL     1     -13.972  91.191 -12.451  1.00  0.00     0.191 C 
BRANCH  30  31
ATOM     31  O   UNL     1     -14.796  90.345 -13.214  1.00  0.00    -0.394 OA
ATOM     32  H   UNL     1     -14.815  89.455 -12.779  1.00  0.00     0.210 HD
ENDBRANCH  30  31
ENDBRANCH  24  30
BRANCH  25  33
ATOM     33  O   UNL     1     -14.788  89.027  -9.531  1.00  0.00    -0.388 OA
ATOM     34  H   UNL     1     -14.014  88.857  -8.932  1.00  0.00     0.211 HD
ENDBRANCH  25  33
ENDBRANCH  11  20
BRANCH  10  35
ATOM     35  O   UNL     1     -11.140  92.190 -12.509  1.00  0.00    -0.507 OA
ATOM     36  H   UNL     1     -11.257  92.615 -13.417  1.00  0.00     0.293 HD
ENDBRANCH  10  35
TORSDOF 9
ENDMDL
MODEL 8
REMARK VINA RESULT:    -5.292      8.445     11.421
REMARK INTER + INTRA:          -7.669
REMARK INTER:                  -7.203
REMARK INTRA:                  -0.467
REMARK UNBOUND:                -0.521
REMARK SMILES O=c1c(-c2ccc(O)cc2)coc2c([C@H]3O[C@@H](CO)[C@H](O)[C@@H](O)[C@H]3O)c(O)ccc12
REMARK SMILES IDX 3 1 11 2 12 3 13 4 30 5 2 6 1 7 29 8 28 9 26 10 14 11 4 12
REMARK SMILES IDX 5 13 6 14 7 15 10 16 9 17 8 18 15 20 24 21 16 22 22 23 17 24
REMARK SMILES IDX 20 25 25 26 23 28 18 30 19 31 21 33 27 35
REMARK H PARENT 8 19 25 27 23 29 19 32 21 34 27 36
REMARK Flexibility Score: inf
ROOT
ATOM      1  C   UNL     1      -5.081  91.496 -14.205  1.00  0.00     0.065 A 
ATOM      2  C   UNL     1      -5.926  92.434 -14.819  1.00  0.00     0.208 A 
ATOM      3  O   UNL     1      -5.575  93.037 -15.945  1.00  0.00    -0.463 OA
ATOM      4  C   UNL     1      -4.415  92.823 -16.560  1.00  0.00     0.147 A 
ATOM      5  C   UNL     1      -3.493  91.907 -16.005  1.00  0.00     0.066 A 
ATOM      6  C   UNL     1      -3.847  91.219 -14.829  1.00  0.00     0.200 A 
ATOM      7  O   UNL     1      -3.064  90.365 -14.335  1.00  0.00    -0.288 OA
ATOM      8  C   UNL     1      -2.253  91.714 -16.636  1.00  0.00     0.020 A 
ATOM      9  C   UNL     1      -1.875  92.552 -17.682  1.00  0.00     0.047 A 
ATOM     10  C   UNL     1      -2.747  93.541 -18.149  1.00  0.00     0.125 A 
ATOM     11  C   UNL     1      -4.109  93.515 -17.759  1.00  0.00     0.069 A 
ENDROOT
BRANCH   1  12
ATOM     12  C   UNL     1      -5.480  90.888 -12.904  1.00  0.00    -0.011 A 
ATOM     13  C   UNL     1      -6.253  89.714 -12.865  1.00  0.00     0.013 A 
ATOM     14  C   UNL     1      -6.525  89.082 -11.647  1.00  0.00     0.047 A 
ATOM     15  C   UNL     1      -6.033  89.615 -10.452  1.00  0.00     0.115 A 
ATOM     16  C   UNL     1      -4.999  91.421 -11.695  1.00  0.00     0.013 A 
ATOM     17  C   UNL     1      -5.264  90.783 -10.481  1.00  0.00     0.047 A 
BRANCH  15  18
ATOM     18  O   UNL     1      -6.308  88.976  -9.244  1.00  0.00    -0.508 OA
ATOM     19  H   UNL     1      -5.929  89.315  -8.367  1.00  0.00     0.293 HD
ENDBRANCH  15  18
ENDBRANCH   1  12
BRANCH  11  20
ATOM     20  C   UNL     1      -5.265  94.139 -18.571  1.00  0.00     0.188 C 
ATOM     21  C   UNL     1      -5.716  93.284 -19.804  1.00  0.00     0.179 C 
ATOM     22  O   UNL     1      -5.114  95.548 -18.812  1.00  0.00    -0.362 OA
ATOM     23  C   UNL     1      -5.002  93.712 -21.079  1.00  0.00     0.177 C 
ATOM     24  C   UNL     1      -4.861  96.046 -20.141  1.00  0.00     0.176 C 
ATOM     25  C   UNL     1      -5.337  95.173 -21.324  1.00  0.00     0.177 C 
BRANCH  21  26
ATOM     26  O   UNL     1      -5.511  91.902 -19.626  1.00  0.00    -0.387 OA
ATOM     27  H   UNL     1      -4.595  91.685 -19.950  1.00  0.00     0.211 HD
ENDBRANCH  21  26
BRANCH  23  28
ATOM     28  O   UNL     1      -3.610  93.548 -20.966  1.00  0.00    -0.387 OA
ATOM     29  H   UNL     1      -3.199  93.941 -21.783  1.00  0.00     0.211 HD
ENDBRANCH  23  28
BRANCH  24  30
ATOM     30  C   UNL     1      -3.384  96.494 -20.312  1.00  0.00     0.191 C 
BRANCH  30  31
ATOM     31  O   UNL     1      -2.932  97.243 -19.212  1.00  0.00    -0.394 OA
ATOM     32  H   UNL     1      -3.412  98.110 -19.207  1.00  0.00     0.210 HD
ENDBRANCH  30  31
ENDBRANCH  24  30
BRANCH  25  33
ATOM     33  O   UNL     1      -6.721  95.349 -21.507  1.00  0.00    -0.388 OA
ATOM     34  H   UNL     1      -6.837  96.135 -22.104  1.00  0.00     0.211 HD
ENDBRANCH  25  33
ENDBRANCH  11  20
BRANCH  10  35
ATOM     35  O   UNL     1      -2.190  94.588 -18.874  1.00  0.00    -0.507 OA
ATOM     36  H   UNL     1      -1.497  95.204 -18.477  1.00  0.00     0.293 HD
ENDBRANCH  10  35
TORSDOF 9
ENDMDL
