MODEL 1
REMARK VINA RESULT:    -5.642      0.000      0.000
REMARK INTER + INTRA:         -18.061
REMARK INTER:                 -14.877
REMARK INTRA:                  -3.184
REMARK UNBOUND:                -3.184
REMARK SMILES CCCCCCCCCCCCCCCCCCCCCCCCCCCCCC(=O)[O-]
REMARK SMILES IDX 16 1 17 2 18 3 19 4 20 5 21 6 22 7 23 8 24 9 25 10 26 11
REMARK SMILES IDX 27 12 28 13 29 14 30 15 31 16 32 17 15 18 14 19 13 20 12 21
REMARK SMILES IDX 11 22 10 23 9 24 8 25 7 26 6 27 5 28 4 29 3 30 2 31 1 32
REMARK H PARENT
REMARK Flexibility Score: inf
ROOT
ATOM      1  C   UNL     1     -20.393  41.655  89.150  1.00  0.00     0.000 C 
ENDROOT
BRANCH   1   2
ATOM      2  C   UNL     1     -21.549  42.220  88.310  1.00  0.00     0.000 C 
BRANCH   2   3
ATOM      3  C   UNL     1     -21.296  42.109  86.793  1.00  0.00     0.000 C 
BRANCH   3   4
ATOM      4  C   UNL     1     -19.806  42.285  86.434  1.00  0.00     0.000 C 
BRANCH   4   5
ATOM      5  C   UNL     1     -19.453  43.691  85.918  1.00  0.00     0.000 C 
BRANCH   5   6
ATOM      6  C   UNL     1     -20.671  44.455  85.385  1.00  0.00     0.000 C 
BRANCH   6   7
ATOM      7  C   UNL     1     -20.846  45.797  86.109  1.00  0.00     0.000 C 
BRANCH   7   8
ATOM      8  C   UNL     1     -22.332  46.163  86.234  1.00  0.00     0.000 C 
BRANCH   8   9
ATOM      9  C   UNL     1     -22.922  45.817  87.612  1.00  0.00     0.000 C 
BRANCH   9  10
ATOM     10  C   UNL     1     -23.948  44.666  87.574  1.00  0.00     0.000 C 
BRANCH  10  11
ATOM     11  C   UNL     1     -24.535  44.367  88.963  1.00  0.00     0.000 C 
BRANCH  11  12
ATOM     12  C   UNL     1     -25.759  45.253  89.285  1.00  0.00     0.000 C 
BRANCH  12  13
ATOM     13  C   UNL     1     -26.315  45.040  90.702  1.00  0.00     0.006 C 
BRANCH  13  14
ATOM     14  C   UNL     1     -27.808  44.682  90.706  1.00  0.00     0.053 C 
BRANCH  14  15
ATOM     15  C   UNL     1     -28.024  43.198  90.707  1.00  0.00     0.041 C 
ATOM     16  O   UNL     1     -28.025  42.550  89.626  1.00  0.00    -0.550 OA
ATOM     17  O   UNL     1     -28.298  42.540  91.904  1.00  0.00    -0.550 OA
ENDBRANCH  14  15
ENDBRANCH  13  14
ENDBRANCH  12  13
ENDBRANCH  11  12
ENDBRANCH  10  11
ENDBRANCH   9  10
ENDBRANCH   8   9
ENDBRANCH   7   8
ENDBRANCH   6   7
ENDBRANCH   5   6
ENDBRANCH   4   5
ENDBRANCH   3   4
ENDBRANCH   2   3
ENDBRANCH   1   2
BRANCH   1  18
ATOM     18  C   UNL     1     -20.840  41.209  90.555  1.00  0.00     0.000 C 
BRANCH  18  19
ATOM     19  C   UNL     1     -19.987  40.047  91.093  1.00  0.00     0.000 C 
BRANCH  19  20
ATOM     20  C   UNL     1     -18.580  40.017  90.478  1.00  0.00     0.000 C 
BRANCH  20  21
ATOM     21  C   UNL     1     -18.038  38.579  90.425  1.00  0.00     0.000 C 
BRANCH  21  22
ATOM     22  C   UNL     1     -19.046  37.574  89.836  1.00  0.00     0.000 C 
BRANCH  22  23
ATOM     23  C   UNL     1     -19.214  37.637  88.305  1.00  0.00     0.000 C 
BRANCH  23  24
ATOM     24  C   UNL     1     -20.616  38.052  87.818  1.00  0.00    -0.000 C 
BRANCH  24  25
ATOM     25  C   UNL     1     -20.614  38.763  86.446  1.00  0.00    -0.000 C 
BRANCH  25  26
ATOM     26  C   UNL     1     -19.307  38.534  85.666  1.00  0.00    -0.000 C 
BRANCH  26  27
ATOM     27  C   UNL     1     -19.453  37.443  84.583  1.00  0.00    -0.000 C 
BRANCH  27  28
ATOM     28  C   UNL     1     -18.115  36.806  84.156  1.00  0.00    -0.000 C 
BRANCH  28  29
ATOM     29  C   UNL     1     -17.552  37.318  82.820  1.00  0.00    -0.000 C 
BRANCH  29  30
ATOM     30  C   UNL     1     -18.355  36.822  81.609  1.00  0.00    -0.000 C 
BRANCH  30  31
ATOM     31  C   UNL     1     -17.604  37.108  80.302  1.00  0.00    -0.003 C 
ATOM     32  C   UNL     1     -18.551  37.080  79.107  1.00  0.00     0.004 C 
ENDBRANCH  30  31
ENDBRANCH  29  30
ENDBRANCH  28  29
ENDBRANCH  27  28
ENDBRANCH  26  27
ENDBRANCH  25  26
ENDBRANCH  24  25
ENDBRANCH  23  24
ENDBRANCH  22  23
ENDBRANCH  21  22
ENDBRANCH  20  21
ENDBRANCH  19  20
ENDBRANCH  18  19
ENDBRANCH   1  18
TORSDOF 28
ENDMDL
MODEL 2
REMARK VINA RESULT:    -5.638      3.984     11.142
REMARK INTER + INTRA:         -18.050
REMARK INTER:                 -15.339
REMARK INTRA:                  -2.711
REMARK UNBOUND:                -3.184
REMARK SMILES CCCCCCCCCCCCCCCCCCCCCCCCCCCCCC(=O)[O-]
REMARK SMILES IDX 16 1 17 2 18 3 19 4 20 5 21 6 22 7 23 8 24 9 25 10 26 11
REMARK SMILES IDX 27 12 28 13 29 14 30 15 31 16 32 17 15 18 14 19 13 20 12 21
REMARK SMILES IDX 11 22 10 23 9 24 8 25 7 26 6 27 5 28 4 29 3 30 2 31 1 32
REMARK H PARENT
REMARK Flexibility Score: inf
ROOT
ATOM      1  C   UNL     1     -20.335  42.283  87.793  1.00  0.00     0.000 C 
ENDROOT
BRANCH   1   2
ATOM      2  C   UNL     1     -19.852  40.949  88.385  1.00  0.00     0.000 C 
BRANCH   2   3
ATOM      3  C   UNL     1     -20.995  39.935  88.588  1.00  0.00     0.000 C 
BRANCH   3   4
ATOM      4  C   UNL     1     -20.734  38.605  87.850  1.00  0.00     0.000 C 
BRANCH   4   5
ATOM      5  C   UNL     1     -20.587  38.757  86.326  1.00  0.00     0.000 C 
BRANCH   5   6
ATOM      6  C   UNL     1     -19.275  38.167  85.791  1.00  0.00     0.000 C 
BRANCH   6   7
ATOM      7  C   UNL     1     -19.460  37.591  84.381  1.00  0.00     0.000 C 
BRANCH   7   8
ATOM      8  C   UNL     1     -18.107  37.215  83.761  1.00  0.00     0.000 C 
BRANCH   8   9
ATOM      9  C   UNL     1     -17.505  35.934  84.364  1.00  0.00     0.000 C 
BRANCH   9  10
ATOM     10  C   UNL     1     -16.616  35.147  83.379  1.00  0.00     0.000 C 
BRANCH  10  11
ATOM     11  C   UNL     1     -16.681  35.721  81.954  1.00  0.00     0.000 C 
BRANCH  11  12
ATOM     12  C   UNL     1     -17.161  34.675  80.923  1.00  0.00     0.000 C 
BRANCH  12  13
ATOM     13  C   UNL     1     -18.277  35.191  80.001  1.00  0.00     0.006 C 
BRANCH  13  14
ATOM     14  C   UNL     1     -18.655  36.652  80.287  1.00  0.00     0.053 C 
BRANCH  14  15
ATOM     15  C   UNL     1     -19.279  37.309  79.092  1.00  0.00     0.041 C 
ATOM     16  O   UNL     1     -20.494  37.645  79.107  1.00  0.00    -0.550 OA
ATOM     17  O   UNL     1     -18.532  37.484  77.930  1.00  0.00    -0.550 OA
ENDBRANCH  14  15
ENDBRANCH  13  14
ENDBRANCH  12  13
ENDBRANCH  11  12
ENDBRANCH  10  11
ENDBRANCH   9  10
ENDBRANCH   8   9
ENDBRANCH   7   8
ENDBRANCH   6   7
ENDBRANCH   5   6
ENDBRANCH   4   5
ENDBRANCH   3   4
ENDBRANCH   2   3
ENDBRANCH   1   2
BRANCH   1  18
ATOM     18  C   UNL     1     -20.242  42.322  86.257  1.00  0.00     0.000 C 
BRANCH  18  19
ATOM     19  C   UNL     1     -19.170  43.310  85.766  1.00  0.00     0.000 C 
BRANCH  19  20
ATOM     20  C   UNL     1     -19.675  44.761  85.743  1.00  0.00     0.000 C 
BRANCH  20  21
ATOM     21  C   UNL     1     -20.785  44.937  84.693  1.00  0.00     0.000 C 
BRANCH  21  22
ATOM     22  C   UNL     1     -21.741  46.101  85.014  1.00  0.00     0.000 C 
BRANCH  22  23
ATOM     23  C   UNL     1     -21.546  46.743  86.402  1.00  0.00     0.000 C 
BRANCH  23  24
ATOM     24  C   UNL     1     -22.683  46.480  87.409  1.00  0.00    -0.000 C 
BRANCH  24  25
ATOM     25  C   UNL     1     -22.461  45.226  88.285  1.00  0.00    -0.000 C 
BRANCH  25  26
ATOM     26  C   UNL     1     -23.518  44.137  88.032  1.00  0.00    -0.000 C 
BRANCH  26  27
ATOM     27  C   UNL     1     -23.898  43.377  89.322  1.00  0.00    -0.000 C 
BRANCH  27  28
ATOM     28  C   UNL     1     -25.011  44.059  90.142  1.00  0.00    -0.000 C 
BRANCH  28  29
ATOM     29  C   UNL     1     -25.258  43.447  91.532  1.00  0.00    -0.000 C 
BRANCH  29  30
ATOM     30  C   UNL     1     -26.749  43.244  91.833  1.00  0.00    -0.000 C 
BRANCH  30  31
ATOM     31  C   UNL     1     -27.620  43.881  90.743  1.00  0.00    -0.003 C 
ATOM     32  C   UNL     1     -28.484  42.835  90.048  1.00  0.00     0.004 C 
ENDBRANCH  30  31
ENDBRANCH  29  30
ENDBRANCH  28  29
ENDBRANCH  27  28
ENDBRANCH  26  27
ENDBRANCH  25  26
ENDBRANCH  24  25
ENDBRANCH  23  24
ENDBRANCH  22  23
ENDBRANCH  21  22
ENDBRANCH  20  21
ENDBRANCH  19  20
ENDBRANCH  18  19
ENDBRANCH   1  18
TORSDOF 28
ENDMDL
MODEL 3
REMARK VINA RESULT:    -5.624      3.925     10.239
REMARK INTER + INTRA:         -18.013
REMARK INTER:                 -14.490
REMARK INTRA:                  -3.524
REMARK UNBOUND:                -3.184
REMARK SMILES CCCCCCCCCCCCCCCCCCCCCCCCCCCCCC(=O)[O-]
REMARK SMILES IDX 16 1 17 2 18 3 19 4 20 5 21 6 22 7 23 8 24 9 25 10 26 11
REMARK SMILES IDX 27 12 28 13 29 14 30 15 31 16 32 17 15 18 14 19 13 20 12 21
REMARK SMILES IDX 11 22 10 23 9 24 8 25 7 26 6 27 5 28 4 29 3 30 2 31 1 32
REMARK H PARENT
REMARK Flexibility Score: inf
ROOT
ATOM      1  C   UNL     1     -19.827  42.619  86.224  1.00  0.00     0.000 C 
ENDROOT
BRANCH   1   2
ATOM      2  C   UNL     1     -20.556  43.245  87.425  1.00  0.00     0.000 C 
BRANCH   2   3
ATOM      3  C   UNL     1     -21.611  42.305  88.040  1.00  0.00     0.000 C 
BRANCH   3   4
ATOM      4  C   UNL     1     -21.520  42.250  89.579  1.00  0.00     0.000 C 
BRANCH   4   5
ATOM      5  C   UNL     1     -20.835  40.980  90.116  1.00  0.00     0.000 C 
BRANCH   5   6
ATOM      6  C   UNL     1     -19.304  41.076  90.102  1.00  0.00     0.000 C 
BRANCH   6   7
ATOM      7  C   UNL     1     -18.672  39.800  89.531  1.00  0.00     0.000 C 
BRANCH   7   8
ATOM      8  C   UNL     1     -19.686  38.647  89.513  1.00  0.00     0.000 C 
BRANCH   8   9
ATOM      9  C   UNL     1     -19.847  38.012  88.121  1.00  0.00     0.000 C 
BRANCH   9  10
ATOM     10  C   UNL     1     -21.008  38.610  87.299  1.00  0.00     0.000 C 
BRANCH  10  11
ATOM     11  C   UNL     1     -20.644  38.770  85.814  1.00  0.00     0.000 C 
BRANCH  11  12
ATOM     12  C   UNL     1     -19.241  38.212  85.491  1.00  0.00     0.000 C 
BRANCH  12  13
ATOM     13  C   UNL     1     -19.191  37.393  84.191  1.00  0.00     0.006 C 
BRANCH  13  14
ATOM     14  C   UNL     1     -17.825  37.472  83.492  1.00  0.00     0.053 C 
BRANCH  14  15
ATOM     15  C   UNL     1     -17.105  36.158  83.530  1.00  0.00     0.041 C 
ATOM     16  O   UNL     1     -17.169  35.421  84.552  1.00  0.00    -0.550 OA
ATOM     17  O   UNL     1     -16.300  35.778  82.459  1.00  0.00    -0.550 OA
ENDBRANCH  14  15
ENDBRANCH  13  14
ENDBRANCH  12  13
ENDBRANCH  11  12
ENDBRANCH  10  11
ENDBRANCH   9  10
ENDBRANCH   8   9
ENDBRANCH   7   8
ENDBRANCH   6   7
ENDBRANCH   5   6
ENDBRANCH   4   5
ENDBRANCH   3   4
ENDBRANCH   2   3
ENDBRANCH   1   2
BRANCH   1  18
ATOM     18  C   UNL     1     -19.357  43.669  85.200  1.00  0.00     0.000 C 
BRANCH  18  19
ATOM     19  C   UNL     1     -18.173  44.499  85.722  1.00  0.00     0.000 C 
BRANCH  19  20
ATOM     20  C   UNL     1     -17.677  45.527  84.694  1.00  0.00     0.000 C 
BRANCH  20  21
ATOM     21  C   UNL     1     -18.604  45.565  83.469  1.00  0.00     0.000 C 
BRANCH  21  22
ATOM     22  C   UNL     1     -19.324  46.917  83.298  1.00  0.00     0.000 C 
BRANCH  22  23
ATOM     23  C   UNL     1     -20.813  46.919  83.695  1.00  0.00     0.000 C 
BRANCH  23  24
ATOM     24  C   UNL     1     -21.085  47.041  85.207  1.00  0.00    -0.000 C 
BRANCH  24  25
ATOM     25  C   UNL     1     -22.094  46.003  85.746  1.00  0.00    -0.000 C 
BRANCH  25  26
ATOM     26  C   UNL     1     -22.496  46.273  87.206  1.00  0.00    -0.000 C 
BRANCH  26  27
ATOM     27  C   UNL     1     -23.723  45.442  87.642  1.00  0.00    -0.000 C 
BRANCH  27  28
ATOM     28  C   UNL     1     -25.072  46.144  87.388  1.00  0.00    -0.000 C 
BRANCH  28  29
ATOM     29  C   UNL     1     -26.194  45.761  88.369  1.00  0.00    -0.000 C 
BRANCH  29  30
ATOM     30  C   UNL     1     -25.721  45.732  89.829  1.00  0.00    -0.000 C 
BRANCH  30  31
ATOM     31  C   UNL     1     -26.548  44.736  90.652  1.00  0.00    -0.003 C 
ATOM     32  C   UNL     1     -25.652  43.702  91.325  1.00  0.00     0.004 C 
ENDBRANCH  30  31
ENDBRANCH  29  30
ENDBRANCH  28  29
ENDBRANCH  27  28
ENDBRANCH  26  27
ENDBRANCH  25  26
ENDBRANCH  24  25
ENDBRANCH  23  24
ENDBRANCH  22  23
ENDBRANCH  21  22
ENDBRANCH  20  21
ENDBRANCH  19  20
ENDBRANCH  18  19
ENDBRANCH   1  18
TORSDOF 28
ENDMDL
MODEL 4
REMARK VINA RESULT:    -5.623      1.213      2.479
REMARK INTER + INTRA:         -18.011
REMARK INTER:                 -15.511
REMARK INTRA:                  -2.500
REMARK UNBOUND:                -3.184
REMARK SMILES CCCCCCCCCCCCCCCCCCCCCCCCCCCCCC(=O)[O-]
REMARK SMILES IDX 16 1 17 2 18 3 19 4 20 5 21 6 22 7 23 8 24 9 25 10 26 11
REMARK SMILES IDX 27 12 28 13 29 14 30 15 31 16 32 17 15 18 14 19 13 20 12 21
REMARK SMILES IDX 11 22 10 23 9 24 8 25 7 26 6 27 5 28 4 29 3 30 2 31 1 32
REMARK H PARENT
REMARK Flexibility Score: inf
ROOT
ATOM      1  C   UNL     1     -19.603  41.202  89.923  1.00  0.00     0.000 C 
ENDROOT
BRANCH   1   2
ATOM      2  C   UNL     1     -21.014  41.297  89.319  1.00  0.00     0.000 C 
BRANCH   2   3
ATOM      3  C   UNL     1     -21.268  42.637  88.600  1.00  0.00     0.000 C 
BRANCH   3   4
ATOM      4  C   UNL     1     -20.658  42.666  87.183  1.00  0.00     0.000 C 
BRANCH   4   5
ATOM      5  C   UNL     1     -20.194  44.062  86.735  1.00  0.00     0.000 C 
BRANCH   5   6
ATOM      6  C   UNL     1     -20.845  44.514  85.420  1.00  0.00     0.000 C 
BRANCH   6   7
ATOM      7  C   UNL     1     -21.631  45.818  85.610  1.00  0.00     0.000 C 
BRANCH   7   8
ATOM      8  C   UNL     1     -22.074  45.985  87.070  1.00  0.00     0.000 C 
BRANCH   8   9
ATOM      9  C   UNL     1     -23.490  45.445  87.334  1.00  0.00     0.000 C 
BRANCH   9  10
ATOM     10  C   UNL     1     -24.606  46.464  87.024  1.00  0.00     0.000 C 
BRANCH  10  11
ATOM     11  C   UNL     1     -25.981  45.986  87.521  1.00  0.00     0.000 C 
BRANCH  11  12
ATOM     12  C   UNL     1     -26.447  46.751  88.779  1.00  0.00     0.000 C 
BRANCH  12  13
ATOM     13  C   UNL     1     -26.307  45.940  90.078  1.00  0.00     0.006 C 
BRANCH  13  14
ATOM     14  C   UNL     1     -26.365  44.424  89.839  1.00  0.00     0.053 C 
BRANCH  14  15
ATOM     15  C   UNL     1     -27.250  43.738  90.836  1.00  0.00     0.041 C 
ATOM     16  O   UNL     1     -28.475  43.562  90.592  1.00  0.00    -0.550 OA
ATOM     17  O   UNL     1     -26.734  43.357  92.072  1.00  0.00    -0.550 OA
ENDBRANCH  14  15
ENDBRANCH  13  14
ENDBRANCH  12  13
ENDBRANCH  11  12
ENDBRANCH  10  11
ENDBRANCH   9  10
ENDBRANCH   8   9
ENDBRANCH   7   8
ENDBRANCH   6   7
ENDBRANCH   5   6
ENDBRANCH   4   5
ENDBRANCH   3   4
ENDBRANCH   2   3
ENDBRANCH   1   2
BRANCH   1  18
ATOM     18  C   UNL     1     -18.849  39.936  89.478  1.00  0.00     0.000 C 
BRANCH  18  19
ATOM     19  C   UNL     1     -19.681  38.660  89.691  1.00  0.00     0.000 C 
BRANCH  19  20
ATOM     20  C   UNL     1     -19.711  37.763  88.444  1.00  0.00     0.000 C 
BRANCH  20  21
ATOM     21  C   UNL     1     -20.893  38.134  87.533  1.00  0.00     0.000 C 
BRANCH  21  22
ATOM     22  C   UNL     1     -20.453  38.579  86.125  1.00  0.00     0.000 C 
BRANCH  22  23
ATOM     23  C   UNL     1     -19.139  37.951  85.622  1.00  0.00     0.000 C 
BRANCH  23  24
ATOM     24  C   UNL     1     -19.162  37.477  84.155  1.00  0.00    -0.000 C 
BRANCH  24  25
ATOM     25  C   UNL     1     -17.761  37.377  83.510  1.00  0.00    -0.000 C 
BRANCH  25  26
ATOM     26  C   UNL     1     -17.140  35.978  83.665  1.00  0.00    -0.000 C 
BRANCH  26  27
ATOM     27  C   UNL     1     -16.746  35.357  82.307  1.00  0.00    -0.000 C 
BRANCH  27  28
ATOM     28  C   UNL     1     -17.941  34.799  81.507  1.00  0.00    -0.000 C 
BRANCH  28  29
ATOM     29  C   UNL     1     -18.026  35.284  80.050  1.00  0.00    -0.000 C 
BRANCH  29  30
ATOM     30  C   UNL     1     -17.663  36.767  79.896  1.00  0.00    -0.000 C 
BRANCH  30  31
ATOM     31  C   UNL     1     -18.463  37.411  78.756  1.00  0.00    -0.003 C 
ATOM     32  C   UNL     1     -19.955  37.422  79.071  1.00  0.00     0.004 C 
ENDBRANCH  30  31
ENDBRANCH  29  30
ENDBRANCH  28  29
ENDBRANCH  27  28
ENDBRANCH  26  27
ENDBRANCH  25  26
ENDBRANCH  24  25
ENDBRANCH  23  24
ENDBRANCH  22  23
ENDBRANCH  21  22
ENDBRANCH  20  21
ENDBRANCH  19  20
ENDBRANCH  18  19
ENDBRANCH   1  18
TORSDOF 28
ENDMDL
MODEL 5
REMARK VINA RESULT:    -5.623      4.234     10.850
REMARK INTER + INTRA:         -18.010
REMARK INTER:                 -14.863
REMARK INTRA:                  -3.146
REMARK UNBOUND:                -3.184
REMARK SMILES CCCCCCCCCCCCCCCCCCCCCCCCCCCCCC(=O)[O-]
REMARK SMILES IDX 16 1 17 2 18 3 19 4 20 5 21 6 22 7 23 8 24 9 25 10 26 11
REMARK SMILES IDX 27 12 28 13 29 14 30 15 31 16 32 17 15 18 14 19 13 20 12 21
REMARK SMILES IDX 11 22 10 23 9 24 8 25 7 26 6 27 5 28 4 29 3 30 2 31 1 32
REMARK H PARENT
REMARK Flexibility Score: inf
ROOT
ATOM      1  C   UNL     1     -20.012  41.581  89.230  1.00  0.00     0.000 C 
ENDROOT
BRANCH   1   2
ATOM      2  C   UNL     1     -21.011  41.452  90.391  1.00  0.00     0.000 C 
BRANCH   2   3
ATOM      3  C   UNL     1     -20.463  40.614  91.562  1.00  0.00     0.000 C 
BRANCH   3   4
ATOM      4  C   UNL     1     -20.563  39.097  91.294  1.00  0.00     0.000 C 
BRANCH   4   5
ATOM      5  C   UNL     1     -19.217  38.438  90.945  1.00  0.00     0.000 C 
BRANCH   5   6
ATOM      6  C   UNL     1     -19.289  37.562  89.687  1.00  0.00     0.000 C 
BRANCH   6   7
ATOM      7  C   UNL     1     -19.453  38.417  88.424  1.00  0.00     0.000 C 
BRANCH   7   8
ATOM      8  C   UNL     1     -20.784  38.110  87.723  1.00  0.00     0.000 C 
BRANCH   8   9
ATOM      9  C   UNL     1     -20.840  38.644  86.281  1.00  0.00     0.000 C 
BRANCH   9  10
ATOM     10  C   UNL     1     -19.465  38.682  85.582  1.00  0.00     0.000 C 
BRANCH  10  11
ATOM     11  C   UNL     1     -19.083  37.318  84.982  1.00  0.00     0.000 C 
BRANCH  11  12
ATOM     12  C   UNL     1     -18.788  37.406  83.469  1.00  0.00     0.000 C 
BRANCH  12  13
ATOM     13  C   UNL     1     -17.287  37.460  83.139  1.00  0.00     0.006 C 
BRANCH  13  14
ATOM     14  C   UNL     1     -16.782  36.175  82.466  1.00  0.00     0.053 C 
BRANCH  14  15
ATOM     15  C   UNL     1     -17.119  36.142  81.006  1.00  0.00     0.041 C 
ATOM     16  O   UNL     1     -17.213  35.043  80.395  1.00  0.00    -0.550 OA
ATOM     17  O   UNL     1     -17.259  37.335  80.301  1.00  0.00    -0.550 OA
ENDBRANCH  14  15
ENDBRANCH  13  14
ENDBRANCH  12  13
ENDBRANCH  11  12
ENDBRANCH  10  11
ENDBRANCH   9  10
ENDBRANCH   8   9
ENDBRANCH   7   8
ENDBRANCH   6   7
ENDBRANCH   5   6
ENDBRANCH   4   5
ENDBRANCH   3   4
ENDBRANCH   2   3
ENDBRANCH   1   2
BRANCH   1  18
ATOM     18  C   UNL     1     -20.649  42.171  87.959  1.00  0.00     0.000 C 
BRANCH  18  19
ATOM     19  C   UNL     1     -22.155  41.870  87.871  1.00  0.00     0.000 C 
BRANCH  19  20
ATOM     20  C   UNL     1     -23.015  43.139  87.973  1.00  0.00     0.000 C 
BRANCH  20  21
ATOM     21  C   UNL     1     -22.280  44.347  87.372  1.00  0.00     0.000 C 
BRANCH  21  22
ATOM     22  C   UNL     1     -22.327  45.594  88.275  1.00  0.00     0.000 C 
BRANCH  22  23
ATOM     23  C   UNL     1     -23.187  46.756  87.742  1.00  0.00     0.000 C 
BRANCH  23  24
ATOM     24  C   UNL     1     -24.022  46.428  86.488  1.00  0.00    -0.000 C 
BRANCH  24  25
ATOM     25  C   UNL     1     -25.548  46.511  86.716  1.00  0.00    -0.000 C 
BRANCH  25  26
ATOM     26  C   UNL     1     -25.994  45.770  87.989  1.00  0.00    -0.000 C 
BRANCH  26  27
ATOM     27  C   UNL     1     -26.706  46.703  88.993  1.00  0.00    -0.000 C 
BRANCH  27  28
ATOM     28  C   UNL     1     -26.932  46.069  90.380  1.00  0.00    -0.000 C 
BRANCH  28  29
ATOM     29  C   UNL     1     -26.041  44.854  90.688  1.00  0.00    -0.000 C 
BRANCH  29  30
ATOM     30  C   UNL     1     -26.804  43.721  91.389  1.00  0.00    -0.000 C 
BRANCH  30  31
ATOM     31  C   UNL     1     -28.197  43.537  90.773  1.00  0.00    -0.003 C 
ATOM     32  C   UNL     1     -28.147  42.595  89.575  1.00  0.00     0.004 C 
ENDBRANCH  30  31
ENDBRANCH  29  30
ENDBRANCH  28  29
ENDBRANCH  27  28
ENDBRANCH  26  27
ENDBRANCH  25  26
ENDBRANCH  24  25
ENDBRANCH  23  24
ENDBRANCH  22  23
ENDBRANCH  21  22
ENDBRANCH  20  21
ENDBRANCH  19  20
ENDBRANCH  18  19
ENDBRANCH   1  18
TORSDOF 28
ENDMDL
MODEL 6
REMARK VINA RESULT:    -5.598      3.416      9.552
REMARK INTER + INTRA:         -17.945
REMARK INTER:                 -14.243
REMARK INTRA:                  -3.702
REMARK UNBOUND:                -3.184
REMARK SMILES CCCCCCCCCCCCCCCCCCCCCCCCCCCCCC(=O)[O-]
REMARK SMILES IDX 16 1 17 2 18 3 19 4 20 5 21 6 22 7 23 8 24 9 25 10 26 11
REMARK SMILES IDX 27 12 28 13 29 14 30 15 31 16 32 17 15 18 14 19 13 20 12 21
REMARK SMILES IDX 11 22 10 23 9 24 8 25 7 26 6 27 5 28 4 29 3 30 2 31 1 32
REMARK H PARENT
REMARK Flexibility Score: inf
ROOT
ATOM      1  C   UNL     1     -18.426  44.514  85.984  1.00  0.00     0.000 C 
ENDROOT
BRANCH   1   2
ATOM      2  C   UNL     1     -19.387  43.487  85.363  1.00  0.00     0.000 C 
BRANCH   2   3
ATOM      3  C   UNL     1     -20.276  42.789  86.411  1.00  0.00     0.000 C 
BRANCH   3   4
ATOM      4  C   UNL     1     -20.638  43.721  87.585  1.00  0.00     0.000 C 
BRANCH   4   5
ATOM      5  C   UNL     1     -21.391  43.018  88.728  1.00  0.00     0.000 C 
BRANCH   5   6
ATOM      6  C   UNL     1     -20.556  41.925  89.409  1.00  0.00     0.000 C 
BRANCH   6   7
ATOM      7  C   UNL     1     -21.272  41.371  90.648  1.00  0.00     0.000 C 
BRANCH   7   8
ATOM      8  C   UNL     1     -20.275  40.696  91.601  1.00  0.00     0.000 C 
BRANCH   8   9
ATOM      9  C   UNL     1     -18.810  40.889  91.173  1.00  0.00     0.000 C 
BRANCH   9  10
ATOM     10  C   UNL     1     -17.909  39.678  91.492  1.00  0.00     0.000 C 
BRANCH  10  11
ATOM     11  C   UNL     1     -17.715  38.763  90.271  1.00  0.00     0.000 C 
BRANCH  11  12
ATOM     12  C   UNL     1     -18.780  37.647  90.201  1.00  0.00     0.000 C 
BRANCH  12  13
ATOM     13  C   UNL     1     -19.460  37.534  88.827  1.00  0.00     0.006 C 
BRANCH  13  14
ATOM     14  C   UNL     1     -19.697  38.900  88.168  1.00  0.00     0.053 C 
BRANCH  14  15
ATOM     15  C   UNL     1     -20.323  38.763  86.813  1.00  0.00     0.041 C 
ATOM     16  O   UNL     1     -19.770  38.066  85.919  1.00  0.00    -0.550 OA
ATOM     17  O   UNL     1     -21.486  39.467  86.513  1.00  0.00    -0.550 OA
ENDBRANCH  14  15
ENDBRANCH  13  14
ENDBRANCH  12  13
ENDBRANCH  11  12
ENDBRANCH  10  11
ENDBRANCH   9  10
ENDBRANCH   8   9
ENDBRANCH   7   8
ENDBRANCH   6   7
ENDBRANCH   5   6
ENDBRANCH   4   5
ENDBRANCH   3   4
ENDBRANCH   2   3
ENDBRANCH   1   2
BRANCH   1  18
ATOM     18  C   UNL     1     -17.589  45.261  84.929  1.00  0.00     0.000 C 
BRANCH  18  19
ATOM     19  C   UNL     1     -18.326  45.384  83.585  1.00  0.00     0.000 C 
BRANCH  19  20
ATOM     20  C   UNL     1     -19.173  46.663  83.494  1.00  0.00     0.000 C 
BRANCH  20  21
ATOM     21  C   UNL     1     -20.610  46.337  83.056  1.00  0.00     0.000 C 
BRANCH  21  22
ATOM     22  C   UNL     1     -21.614  46.341  84.225  1.00  0.00     0.000 C 
BRANCH  22  23
ATOM     23  C   UNL     1     -21.103  46.997  85.523  1.00  0.00     0.000 C 
BRANCH  23  24
ATOM     24  C   UNL     1     -22.090  46.960  86.706  1.00  0.00    -0.000 C 
BRANCH  24  25
ATOM     25  C   UNL     1     -23.503  46.464  86.323  1.00  0.00    -0.000 C 
BRANCH  25  26
ATOM     26  C   UNL     1     -24.104  45.523  87.382  1.00  0.00    -0.000 C 
BRANCH  26  27
ATOM     27  C   UNL     1     -25.639  45.659  87.487  1.00  0.00    -0.000 C 
BRANCH  27  28
ATOM     28  C   UNL     1     -26.164  45.692  88.936  1.00  0.00    -0.000 C 
BRANCH  28  29
ATOM     29  C   UNL     1     -25.337  44.874  89.942  1.00  0.00    -0.000 C 
BRANCH  29  30
ATOM     30  C   UNL     1     -26.045  43.584  90.381  1.00  0.00    -0.000 C 
BRANCH  30  31
ATOM     31  C   UNL     1     -27.424  43.465  89.720  1.00  0.00    -0.003 C 
ATOM     32  C   UNL     1     -28.502  43.144  90.751  1.00  0.00     0.004 C 
ENDBRANCH  30  31
ENDBRANCH  29  30
ENDBRANCH  28  29
ENDBRANCH  27  28
ENDBRANCH  26  27
ENDBRANCH  25  26
ENDBRANCH  24  25
ENDBRANCH  23  24
ENDBRANCH  22  23
ENDBRANCH  21  22
ENDBRANCH  20  21
ENDBRANCH  19  20
ENDBRANCH  18  19
ENDBRANCH   1  18
TORSDOF 28
ENDMDL
MODEL 7
REMARK VINA RESULT:    -5.581      2.354      4.804
REMARK INTER + INTRA:         -17.900
REMARK INTER:                 -14.168
REMARK INTRA:                  -3.731
REMARK UNBOUND:                -3.184
REMARK SMILES CCCCCCCCCCCCCCCCCCCCCCCCCCCCCC(=O)[O-]
REMARK SMILES IDX 16 1 17 2 18 3 19 4 20 5 21 6 22 7 23 8 24 9 25 10 26 11
REMARK SMILES IDX 27 12 28 13 29 14 30 15 31 16 32 17 15 18 14 19 13 20 12 21
REMARK SMILES IDX 11 22 10 23 9 24 8 25 7 26 6 27 5 28 4 29 3 30 2 31 1 32
REMARK H PARENT
REMARK Flexibility Score: inf
ROOT
ATOM      1  C   UNL     1     -18.723  43.791  85.095  1.00  0.00     0.000 C 
ENDROOT
BRANCH   1   2
ATOM      2  C   UNL     1     -17.700  44.888  85.433  1.00  0.00     0.000 C 
BRANCH   2   3
ATOM      3  C   UNL     1     -17.798  46.107  84.496  1.00  0.00     0.000 C 
BRANCH   3   4
ATOM      4  C   UNL     1     -18.706  45.837  83.277  1.00  0.00     0.000 C 
BRANCH   4   5
ATOM      5  C   UNL     1     -19.354  47.104  82.692  1.00  0.00     0.000 C 
BRANCH   5   6
ATOM      6  C   UNL     1     -20.885  47.099  82.806  1.00  0.00     0.000 C 
BRANCH   6   7
ATOM      7  C   UNL     1     -21.352  46.214  83.970  1.00  0.00     0.000 C 
BRANCH   7   8
ATOM      8  C   UNL     1     -21.885  47.068  85.128  1.00  0.00     0.000 C 
BRANCH   8   9
ATOM      9  C   UNL     1     -21.396  46.585  86.505  1.00  0.00     0.000 C 
BRANCH   9  10
ATOM     10  C   UNL     1     -22.489  46.618  87.594  1.00  0.00     0.000 C 
BRANCH  10  11
ATOM     11  C   UNL     1     -23.871  46.235  87.039  1.00  0.00     0.000 C 
BRANCH  11  12
ATOM     12  C   UNL     1     -24.537  45.105  87.854  1.00  0.00     0.000 C 
BRANCH  12  13
ATOM     13  C   UNL     1     -24.817  45.486  89.317  1.00  0.00     0.006 C 
BRANCH  13  14
ATOM     14  C   UNL     1     -25.219  44.280  90.178  1.00  0.00     0.053 C 
BRANCH  14  15
ATOM     15  C   UNL     1     -26.534  44.499  90.863  1.00  0.00     0.041 C 
ATOM     16  O   UNL     1     -27.037  43.598  91.588  1.00  0.00    -0.550 OA
ATOM     17  O   UNL     1     -27.242  45.678  90.642  1.00  0.00    -0.550 OA
ENDBRANCH  14  15
ENDBRANCH  13  14
ENDBRANCH  12  13
ENDBRANCH  11  12
ENDBRANCH  10  11
ENDBRANCH   9  10
ENDBRANCH   8   9
ENDBRANCH   7   8
ENDBRANCH   6   7
ENDBRANCH   5   6
ENDBRANCH   4   5
ENDBRANCH   3   4
ENDBRANCH   2   3
ENDBRANCH   1   2
BRANCH   1  18
ATOM     18  C   UNL     1     -19.871  43.711  86.117  1.00  0.00     0.000 C 
BRANCH  18  19
ATOM     19  C   UNL     1     -20.136  42.269  86.581  1.00  0.00     0.000 C 
BRANCH  19  20
ATOM     20  C   UNL     1     -21.370  42.160  87.489  1.00  0.00     0.000 C 
BRANCH  20  21
ATOM     21  C   UNL     1     -21.263  43.133  88.675  1.00  0.00     0.000 C 
BRANCH  21  22
ATOM     22  C   UNL     1     -21.799  42.542  89.992  1.00  0.00     0.000 C 
BRANCH  22  23
ATOM     23  C   UNL     1     -21.171  41.197  90.409  1.00  0.00     0.000 C 
BRANCH  23  24
ATOM     24  C   UNL     1     -19.650  41.236  90.656  1.00  0.00    -0.000 C 
BRANCH  24  25
ATOM     25  C   UNL     1     -19.207  40.486  91.933  1.00  0.00    -0.000 C 
BRANCH  25  26
ATOM     26  C   UNL     1     -18.047  39.509  91.669  1.00  0.00    -0.000 C 
BRANCH  26  27
ATOM     27  C   UNL     1     -17.993  39.047  90.196  1.00  0.00    -0.000 C 
BRANCH  27  28
ATOM     28  C   UNL     1     -18.539  37.623  89.970  1.00  0.00    -0.000 C 
BRANCH  28  29
ATOM     29  C   UNL     1     -19.371  37.445  88.688  1.00  0.00    -0.000 C 
BRANCH  29  30
ATOM     30  C   UNL     1     -20.453  38.523  88.529  1.00  0.00    -0.000 C 
BRANCH  30  31
ATOM     31  C   UNL     1     -20.986  38.554  87.091  1.00  0.00    -0.003 C 
ATOM     32  C   UNL     1     -19.879  38.249  86.088  1.00  0.00     0.004 C 
ENDBRANCH  30  31
ENDBRANCH  29  30
ENDBRANCH  28  29
ENDBRANCH  27  28
ENDBRANCH  26  27
ENDBRANCH  25  26
ENDBRANCH  24  25
ENDBRANCH  23  24
ENDBRANCH  22  23
ENDBRANCH  21  22
ENDBRANCH  20  21
ENDBRANCH  19  20
ENDBRANCH  18  19
ENDBRANCH   1  18
TORSDOF 28
ENDMDL
MODEL 8
REMARK VINA RESULT:    -5.565      4.200     10.803
REMARK INTER + INTRA:         -17.859
REMARK INTER:                 -14.781
REMARK INTRA:                  -3.077
REMARK UNBOUND:                -3.184
REMARK SMILES CCCCCCCCCCCCCCCCCCCCCCCCCCCCCC(=O)[O-]
REMARK SMILES IDX 16 1 17 2 18 3 19 4 20 5 21 6 22 7 23 8 24 9 25 10 26 11
REMARK SMILES IDX 27 12 28 13 29 14 30 15 31 16 32 17 15 18 14 19 13 20 12 21
REMARK SMILES IDX 11 22 10 23 9 24 8 25 7 26 6 27 5 28 4 29 3 30 2 31 1 32
REMARK H PARENT
REMARK Flexibility Score: inf
ROOT
ATOM      1  C   UNL     1     -21.297  42.205  87.237  1.00  0.00     0.000 C 
ENDROOT
BRANCH   1   2
ATOM      2  C   UNL     1     -21.356  41.893  88.741  1.00  0.00     0.000 C 
BRANCH   2   3
ATOM      3  C   UNL     1     -20.042  41.295  89.280  1.00  0.00     0.000 C 
BRANCH   3   4
ATOM      4  C   UNL     1     -20.271  40.400  90.516  1.00  0.00     0.000 C 
BRANCH   4   5
ATOM      5  C   UNL     1     -20.672  38.955  90.173  1.00  0.00     0.000 C 
BRANCH   5   6
ATOM      6  C   UNL     1     -19.470  38.066  89.831  1.00  0.00     0.000 C 
BRANCH   6   7
ATOM      7  C   UNL     1     -19.418  37.754  88.330  1.00  0.00     0.000 C 
BRANCH   7   8
ATOM      8  C   UNL     1     -20.738  38.138  87.644  1.00  0.00     0.000 C 
BRANCH   8   9
ATOM      9  C   UNL     1     -20.551  38.565  86.178  1.00  0.00     0.000 C 
BRANCH   9  10
ATOM     10  C   UNL     1     -19.169  38.196  85.599  1.00  0.00     0.000 C 
BRANCH  10  11
ATOM     11  C   UNL     1     -19.281  37.506  84.229  1.00  0.00     0.000 C 
BRANCH  11  12
ATOM     12  C   UNL     1     -17.971  36.794  83.824  1.00  0.00     0.000 C 
BRANCH  12  13
ATOM     13  C   UNL     1     -17.455  37.204  82.435  1.00  0.00     0.006 C 
BRANCH  13  14
ATOM     14  C   UNL     1     -18.362  36.716  81.297  1.00  0.00     0.053 C 
BRANCH  14  15
ATOM     15  C   UNL     1     -17.877  35.422  80.715  1.00  0.00     0.041 C 
ATOM     16  O   UNL     1     -18.017  35.180  79.485  1.00  0.00    -0.550 OA
ATOM     17  O   UNL     1     -17.332  34.449  81.549  1.00  0.00    -0.550 OA
ENDBRANCH  14  15
ENDBRANCH  13  14
ENDBRANCH  12  13
ENDBRANCH  11  12
ENDBRANCH  10  11
ENDBRANCH   9  10
ENDBRANCH   8   9
ENDBRANCH   7   8
ENDBRANCH   6   7
ENDBRANCH   5   6
ENDBRANCH   4   5
ENDBRANCH   3   4
ENDBRANCH   2   3
ENDBRANCH   1   2
BRANCH   1  18
ATOM     18  C   UNL     1     -19.857  42.383  86.721  1.00  0.00     0.000 C 
BRANCH  18  19
ATOM     19  C   UNL     1     -19.797  43.260  85.459  1.00  0.00     0.000 C 
BRANCH  19  20
ATOM     20  C   UNL     1     -18.928  44.512  85.654  1.00  0.00     0.000 C 
BRANCH  20  21
ATOM     21  C   UNL     1     -19.645  45.763  85.122  1.00  0.00     0.000 C 
BRANCH  21  22
ATOM     22  C   UNL     1     -21.175  45.602  85.058  1.00  0.00     0.000 C 
BRANCH  22  23
ATOM     23  C   UNL     1     -21.974  46.599  85.920  1.00  0.00     0.000 C 
BRANCH  23  24
ATOM     24  C   UNL     1     -23.052  45.966  86.821  1.00  0.00    -0.000 C 
BRANCH  24  25
ATOM     25  C   UNL     1     -22.514  45.475  88.185  1.00  0.00    -0.000 C 
BRANCH  25  26
ATOM     26  C   UNL     1     -23.571  44.698  88.989  1.00  0.00    -0.000 C 
BRANCH  26  27
ATOM     27  C   UNL     1     -25.004  45.208  88.724  1.00  0.00    -0.000 C 
BRANCH  27  28
ATOM     28  C   UNL     1     -25.466  46.306  89.703  1.00  0.00    -0.000 C 
BRANCH  28  29
ATOM     29  C   UNL     1     -26.862  46.084  90.310  1.00  0.00    -0.000 C 
BRANCH  29  30
ATOM     30  C   UNL     1     -26.987  44.737  91.035  1.00  0.00    -0.000 C 
BRANCH  30  31
ATOM     31  C   UNL     1     -28.307  44.043  90.675  1.00  0.00    -0.003 C 
ATOM     32  C   UNL     1     -28.078  42.580  90.312  1.00  0.00     0.004 C 
ENDBRANCH  30  31
ENDBRANCH  29  30
ENDBRANCH  28  29
ENDBRANCH  27  28
ENDBRANCH  26  27
ENDBRANCH  25  26
ENDBRANCH  24  25
ENDBRANCH  23  24
ENDBRANCH  22  23
ENDBRANCH  21  22
ENDBRANCH  20  21
ENDBRANCH  19  20
ENDBRANCH  18  19
ENDBRANCH   1  18
TORSDOF 28
ENDMDL
MODEL 9
REMARK VINA RESULT:    -5.496      3.824     10.550
REMARK INTER + INTRA:         -17.677
REMARK INTER:                 -14.538
REMARK INTRA:                  -3.139
REMARK UNBOUND:                -3.184
REMARK SMILES CCCCCCCCCCCCCCCCCCCCCCCCCCCCCC(=O)[O-]
REMARK SMILES IDX 16 1 17 2 18 3 19 4 20 5 21 6 22 7 23 8 24 9 25 10 26 11
REMARK SMILES IDX 27 12 28 13 29 14 30 15 31 16 32 17 15 18 14 19 13 20 12 21
REMARK SMILES IDX 11 22 10 23 9 24 8 25 7 26 6 27 5 28 4 29 3 30 2 31 1 32
REMARK H PARENT
REMARK Flexibility Score: inf
ROOT
ATOM      1  C   UNL     1     -18.950  40.329  90.319  1.00  0.00     0.000 C 
ENDROOT
BRANCH   1   2
ATOM      2  C   UNL     1     -20.087  39.580  91.033  1.00  0.00     0.000 C 
BRANCH   2   3
ATOM      3  C   UNL     1     -20.229  38.119  90.562  1.00  0.00     0.000 C 
BRANCH   3   4
ATOM      4  C   UNL     1     -19.031  37.661  89.704  1.00  0.00     0.000 C 
BRANCH   4   5
ATOM      5  C   UNL     1     -19.386  37.401  88.229  1.00  0.00     0.000 C 
BRANCH   5   6
ATOM      6  C   UNL     1     -20.689  38.087  87.798  1.00  0.00     0.000 C 
BRANCH   6   7
ATOM      7  C   UNL     1     -20.634  38.508  86.324  1.00  0.00     0.000 C 
BRANCH   7   8
ATOM      8  C   UNL     1     -19.301  38.091  85.684  1.00  0.00     0.000 C 
BRANCH   8   9
ATOM      9  C   UNL     1     -19.469  37.518  84.267  1.00  0.00     0.000 C 
BRANCH   9  10
ATOM     10  C   UNL     1     -18.139  37.372  83.499  1.00  0.00     0.000 C 
BRANCH  10  11
ATOM     11  C   UNL     1     -17.465  36.015  83.759  1.00  0.00     0.000 C 
BRANCH  11  12
ATOM     12  C   UNL     1     -17.096  35.283  82.450  1.00  0.00     0.000 C 
BRANCH  12  13
ATOM     13  C   UNL     1     -17.064  36.204  81.221  1.00  0.00     0.006 C 
BRANCH  13  14
ATOM     14  C   UNL     1     -18.056  35.774  80.131  1.00  0.00     0.053 C 
BRANCH  14  15
ATOM     15  C   UNL     1     -18.695  36.954  79.462  1.00  0.00     0.041 C 
ATOM     16  O   UNL     1     -19.866  37.307  79.768  1.00  0.00    -0.550 OA
ATOM     17  O   UNL     1     -18.018  37.623  78.445  1.00  0.00    -0.550 OA
ENDBRANCH  14  15
ENDBRANCH  13  14
ENDBRANCH  12  13
ENDBRANCH  11  12
ENDBRANCH  10  11
ENDBRANCH   9  10
ENDBRANCH   8   9
ENDBRANCH   7   8
ENDBRANCH   6   7
ENDBRANCH   5   6
ENDBRANCH   4   5
ENDBRANCH   3   4
ENDBRANCH   2   3
ENDBRANCH   1   2
BRANCH   1  18
ATOM     18  C   UNL     1     -19.457  41.491  89.446  1.00  0.00     0.000 C 
BRANCH  18  19
ATOM     19  C   UNL     1     -20.965  41.386  89.161  1.00  0.00     0.000 C 
BRANCH  19  20
ATOM     20  C   UNL     1     -21.329  41.855  87.744  1.00  0.00     0.000 C 
BRANCH  20  21
ATOM     21  C   UNL     1     -20.076  41.940  86.858  1.00  0.00     0.000 C 
BRANCH  21  22
ATOM     22  C   UNL     1     -20.013  43.233  86.023  1.00  0.00     0.000 C 
BRANCH  22  23
ATOM     23  C   UNL     1     -20.516  44.500  86.742  1.00  0.00     0.000 C 
BRANCH  23  24
ATOM     24  C   UNL     1     -21.278  45.499  85.848  1.00  0.00    -0.000 C 
BRANCH  24  25
ATOM     25  C   UNL     1     -22.662  45.903  86.405  1.00  0.00    -0.000 C 
BRANCH  25  26
ATOM     26  C   UNL     1     -22.574  46.518  87.813  1.00  0.00    -0.000 C 
BRANCH  26  27
ATOM     27  C   UNL     1     -23.586  45.886  88.794  1.00  0.00    -0.000 C 
BRANCH  27  28
ATOM     28  C   UNL     1     -23.594  44.344  88.774  1.00  0.00    -0.000 C 
BRANCH  28  29
ATOM     29  C   UNL     1     -24.511  43.688  89.820  1.00  0.00    -0.000 C 
BRANCH  29  30
ATOM     30  C   UNL     1     -25.919  44.300  89.841  1.00  0.00    -0.000 C 
BRANCH  30  31
ATOM     31  C   UNL     1     -26.742  43.739  91.008  1.00  0.00    -0.003 C 
ATOM     32  C   UNL     1     -28.237  43.845  90.727  1.00  0.00     0.004 C 
ENDBRANCH  30  31
ENDBRANCH  29  30
ENDBRANCH  28  29
ENDBRANCH  27  28
ENDBRANCH  26  27
ENDBRANCH  25  26
ENDBRANCH  24  25
ENDBRANCH  23  24
ENDBRANCH  22  23
ENDBRANCH  21  22
ENDBRANCH  20  21
ENDBRANCH  19  20
ENDBRANCH  18  19
ENDBRANCH   1  18
TORSDOF 28
ENDMDL
