MODEL 1
REMARK VINA RESULT:    -6.667      0.000      0.000
REMARK INTER + INTRA:          -7.475
REMARK INTER:                  -7.252
REMARK INTRA:                  -0.223
REMARK UNBOUND:                -0.223
REMARK SMILES C=C1C[C@]2(O)O[C@]3(C[C@H]2C(C)C)[C@H](C)CC[C@H]13
REMARK SMILES IDX 14 1 13 2 15 3 16 4 17 5 7 6 8 7 9 8 4 9 6 10 3 11 2 12 1 13
REMARK SMILES IDX 10 14 11 15 12 16 5 17
REMARK H PARENT 5 18
REMARK Flexibility Score: inf
ROOT
ATOM      1  C   UNL     1     -31.117 -16.511 -29.200  1.00  0.00     0.011 C 
ATOM      2  C   UNL     1     -30.857 -17.919 -29.759  1.00  0.00     0.019 C 
ATOM      3  C   UNL     1     -30.970 -19.001 -28.677  1.00  0.00     0.007 C 
ATOM      4  C   UNL     1     -29.860 -20.021 -28.938  1.00  0.00     0.011 C 
ATOM      5  C   UNL     1     -29.176 -19.612 -30.246  1.00  0.00     0.047 C 
ATOM      6  C   UNL     1     -29.464 -18.099 -30.384  1.00  0.00     0.081 C 
ATOM      7  C   UNL     1     -29.368 -17.606 -31.822  1.00  0.00     0.046 C 
ATOM      8  C   UNL     1     -27.869 -17.386 -32.003  1.00  0.00     0.054 C 
ATOM      9  C   UNL     1     -27.351 -17.436 -30.522  1.00  0.00     0.173 C 
ATOM     10  O   UNL     1     -28.484 -17.377 -29.684  1.00  0.00    -0.342 OA
ATOM     11  C   UNL     1     -26.661 -18.799 -30.234  1.00  0.00     0.096 C 
ATOM     12  C   UNL     1     -27.682 -19.923 -30.236  1.00  0.00    -0.066 C 
ATOM     13  C   UNL     1     -27.262 -21.196 -30.220  1.00  0.00     0.008 C 
ENDROOT
BRANCH   8  14
ATOM     14  C   UNL     1     -27.512 -16.102 -32.822  1.00  0.00    -0.009 C 
ATOM     15  C   UNL     1     -26.539 -16.430 -33.970  1.00  0.00     0.008 C 
ATOM     16  C   UNL     1     -28.762 -15.444 -33.442  1.00  0.00     0.008 C 
ENDBRANCH   8  14
BRANCH   9  17
ATOM     17  O   UNL     1     -26.522 -16.339 -30.206  1.00  0.00    -0.365 OA
ATOM     18  H   UNL     1     -27.011 -15.715 -29.609  1.00  0.00     0.214 HD
ENDBRANCH   9  17
TORSDOF 2
ENDMDL
MODEL 2
REMARK VINA RESULT:    -6.655      1.281      1.405
REMARK INTER + INTRA:          -7.461
REMARK INTER:                  -7.257
REMARK INTRA:                  -0.205
REMARK UNBOUND:                -0.223
REMARK SMILES C=C1C[C@]2(O)O[C@]3(C[C@H]2C(C)C)[C@H](C)CC[C@H]13
REMARK SMILES IDX 14 1 13 2 15 3 16 4 17 5 7 6 8 7 9 8 4 9 6 10 3 11 2 12 1 13
REMARK SMILES IDX 10 14 11 15 12 16 5 17
REMARK H PARENT 5 18
REMARK Flexibility Score: inf
ROOT
ATOM      1  C   UNL     1     -30.186 -15.107 -27.742  1.00  0.00     0.011 C 
ATOM      2  C   UNL     1     -30.540 -16.527 -28.210  1.00  0.00     0.019 C 
ATOM      3  C   UNL     1     -30.599 -17.522 -27.043  1.00  0.00     0.007 C 
ATOM      4  C   UNL     1     -29.980 -18.833 -27.534  1.00  0.00     0.011 C 
ATOM      5  C   UNL     1     -29.675 -18.652 -29.023  1.00  0.00     0.047 C 
ATOM      6  C   UNL     1     -29.543 -17.125 -29.216  1.00  0.00     0.081 C 
ATOM      7  C   UNL     1     -29.786 -16.685 -30.655  1.00  0.00     0.046 C 
ATOM      8  C   UNL     1     -28.433 -16.933 -31.315  1.00  0.00     0.054 C 
ATOM      9  C   UNL     1     -27.496 -17.138 -30.072  1.00  0.00     0.173 C 
ATOM     10  O   UNL     1     -28.223 -16.735 -28.933  1.00  0.00    -0.342 OA
ATOM     11  C   UNL     1     -27.173 -18.646 -29.878  1.00  0.00     0.096 C 
ATOM     12  C   UNL     1     -28.416 -19.405 -29.449  1.00  0.00    -0.066 C 
ATOM     13  C   UNL     1     -28.401 -20.746 -29.436  1.00  0.00     0.008 C 
ENDROOT
BRANCH   8  14
ATOM     14  C   UNL     1     -28.009 -15.819 -32.329  1.00  0.00    -0.009 C 
ATOM     15  C   UNL     1     -27.296 -16.427 -33.552  1.00  0.00     0.008 C 
ATOM     16  C   UNL     1     -29.220 -15.015 -32.845  1.00  0.00     0.008 C 
ENDBRANCH   8  14
BRANCH   9  17
ATOM     17  O   UNL     1     -26.331 -16.346 -30.141  1.00  0.00    -0.365 OA
ATOM     18  H   UNL     1     -25.662 -16.790 -30.724  1.00  0.00     0.214 HD
ENDBRANCH   9  17
TORSDOF 2
ENDMDL
MODEL 3
REMARK VINA RESULT:    -6.618      2.093      3.820
REMARK INTER + INTRA:          -7.421
REMARK INTER:                  -7.171
REMARK INTRA:                  -0.250
REMARK UNBOUND:                -0.223
REMARK SMILES C=C1C[C@]2(O)O[C@]3(C[C@H]2C(C)C)[C@H](C)CC[C@H]13
REMARK SMILES IDX 14 1 13 2 15 3 16 4 17 5 7 6 8 7 9 8 4 9 6 10 3 11 2 12 1 13
REMARK SMILES IDX 10 14 11 15 12 16 5 17
REMARK H PARENT 5 18
REMARK Flexibility Score: inf
ROOT
ATOM      1  C   UNL     1     -30.028 -13.959 -31.041  1.00  0.00     0.011 C 
ATOM      2  C   UNL     1     -30.763 -15.025 -30.214  1.00  0.00     0.019 C 
ATOM      3  C   UNL     1     -31.742 -14.404 -29.209  1.00  0.00     0.007 C 
ATOM      4  C   UNL     1     -31.649 -15.223 -27.920  1.00  0.00     0.011 C 
ATOM      5  C   UNL     1     -30.715 -16.402 -28.206  1.00  0.00     0.047 C 
ATOM      6  C   UNL     1     -29.835 -15.929 -29.386  1.00  0.00     0.081 C 
ATOM      7  C   UNL     1     -29.235 -17.083 -30.179  1.00  0.00     0.046 C 
ATOM      8  C   UNL     1     -28.009 -17.458 -29.352  1.00  0.00     0.054 C 
ATOM      9  C   UNL     1     -27.873 -16.224 -28.393  1.00  0.00     0.173 C 
ATOM     10  O   UNL     1     -28.732 -15.219 -28.884  1.00  0.00    -0.342 OA
ATOM     11  C   UNL     1     -28.385 -16.583 -26.970  1.00  0.00     0.096 C 
ATOM     12  C   UNL     1     -29.889 -16.792 -26.983  1.00  0.00    -0.066 C 
ATOM     13  C   UNL     1     -30.493 -17.316 -25.906  1.00  0.00     0.008 C 
ENDROOT
BRANCH   8  14
ATOM     14  C   UNL     1     -26.750 -17.813 -30.211  1.00  0.00    -0.009 C 
ATOM     15  C   UNL     1     -26.495 -19.333 -30.217  1.00  0.00     0.008 C 
ATOM     16  C   UNL     1     -26.903 -17.359 -31.678  1.00  0.00     0.008 C 
ENDBRANCH   8  14
BRANCH   9  17
ATOM     17  O   UNL     1     -26.563 -15.700 -28.373  1.00  0.00    -0.365 OA
ATOM     18  H   UNL     1     -25.911 -16.432 -28.526  1.00  0.00     0.214 HD
ENDBRANCH   9  17
TORSDOF 2
ENDMDL
MODEL 4
REMARK VINA RESULT:    -6.539      1.954      2.725
REMARK INTER + INTRA:          -7.335
REMARK INTER:                  -7.119
REMARK INTRA:                  -0.216
REMARK UNBOUND:                -0.223
REMARK SMILES C=C1C[C@]2(O)O[C@]3(C[C@H]2C(C)C)[C@H](C)CC[C@H]13
REMARK SMILES IDX 14 1 13 2 15 3 16 4 17 5 7 6 8 7 9 8 4 9 6 10 3 11 2 12 1 13
REMARK SMILES IDX 10 14 11 15 12 16 5 17
REMARK H PARENT 5 18
REMARK Flexibility Score: inf
ROOT
ATOM      1  C   UNL     1     -31.578 -18.829 -28.708  1.00  0.00     0.011 C 
ATOM      2  C   UNL     1     -30.560 -19.015 -29.844  1.00  0.00     0.019 C 
ATOM      3  C   UNL     1     -29.818 -20.354 -29.743  1.00  0.00     0.007 C 
ATOM      4  C   UNL     1     -28.359 -20.094 -30.126  1.00  0.00     0.011 C 
ATOM      5  C   UNL     1     -28.270 -18.634 -30.577  1.00  0.00     0.047 C 
ATOM      6  C   UNL     1     -29.466 -17.936 -29.891  1.00  0.00     0.081 C 
ATOM      7  C   UNL     1     -29.896 -16.658 -30.602  1.00  0.00     0.046 C 
ATOM      8  C   UNL     1     -28.917 -15.624 -30.055  1.00  0.00     0.054 C 
ATOM      9  C   UNL     1     -28.296 -16.380 -28.827  1.00  0.00     0.173 C 
ATOM     10  O   UNL     1     -29.086 -17.526 -28.603  1.00  0.00    -0.342 OA
ATOM     11  C   UNL     1     -26.868 -16.890 -29.169  1.00  0.00     0.096 C 
ATOM     12  C   UNL     1     -26.933 -17.997 -30.206  1.00  0.00    -0.066 C 
ATOM     13  C   UNL     1     -25.803 -18.422 -30.791  1.00  0.00     0.008 C 
ENDROOT
BRANCH   8  14
ATOM     14  C   UNL     1     -29.567 -14.232 -29.757  1.00  0.00    -0.009 C 
ATOM     15  C   UNL     1     -28.687 -13.085 -30.292  1.00  0.00     0.008 C 
ATOM     16  C   UNL     1     -30.960 -14.093 -30.406  1.00  0.00     0.008 C 
ENDBRANCH   8  14
BRANCH   9  17
ATOM     17  O   UNL     1     -28.319 -15.603 -27.650  1.00  0.00    -0.365 OA
ATOM     18  H   UNL     1     -28.314 -16.200 -26.858  1.00  0.00     0.214 HD
ENDBRANCH   9  17
TORSDOF 2
ENDMDL
MODEL 5
REMARK VINA RESULT:    -6.444      1.871      4.437
REMARK INTER + INTRA:          -7.232
REMARK INTER:                  -7.023
REMARK INTRA:                  -0.209
REMARK UNBOUND:                -0.223
REMARK SMILES C=C1C[C@]2(O)O[C@]3(C[C@H]2C(C)C)[C@H](C)CC[C@H]13
REMARK SMILES IDX 14 1 13 2 15 3 16 4 17 5 7 6 8 7 9 8 4 9 6 10 3 11 2 12 1 13
REMARK SMILES IDX 10 14 11 15 12 16 5 17
REMARK H PARENT 5 18
REMARK Flexibility Score: inf
ROOT
ATOM      1  C   UNL     1     -27.506 -20.920 -29.232  1.00  0.00     0.011 C 
ATOM      2  C   UNL     1     -28.801 -20.553 -29.974  1.00  0.00     0.019 C 
ATOM      3  C   UNL     1     -28.719 -20.871 -31.473  1.00  0.00     0.007 C 
ATOM      4  C   UNL     1     -29.414 -19.729 -32.217  1.00  0.00     0.011 C 
ATOM      5  C   UNL     1     -30.018 -18.807 -31.155  1.00  0.00     0.047 C 
ATOM      6  C   UNL     1     -29.177 -19.065 -29.884  1.00  0.00     0.081 C 
ATOM      7  C   UNL     1     -29.910 -18.694 -28.601  1.00  0.00     0.046 C 
ATOM      8  C   UNL     1     -29.679 -17.189 -28.506  1.00  0.00     0.054 C 
ATOM      9  C   UNL     1     -28.534 -16.967 -29.556  1.00  0.00     0.173 C 
ATOM     10  O   UNL     1     -28.040 -18.240 -29.907  1.00  0.00    -0.342 OA
ATOM     11  C   UNL     1     -29.106 -16.343 -30.859  1.00  0.00     0.096 C 
ATOM     12  C   UNL     1     -29.992 -17.341 -31.583  1.00  0.00    -0.066 C 
ATOM     13  C   UNL     1     -30.748 -16.930 -32.611  1.00  0.00     0.008 C 
ENDROOT
BRANCH   8  14
ATOM     14  C   UNL     1     -29.397 -16.682 -27.052  1.00  0.00    -0.009 C 
ATOM     15  C   UNL     1     -30.106 -15.341 -26.786  1.00  0.00     0.008 C 
ATOM     16  C   UNL     1     -29.881 -17.687 -25.985  1.00  0.00     0.008 C 
ENDBRANCH   8  14
BRANCH   9  17
ATOM     17  O   UNL     1     -27.461 -16.218 -29.031  1.00  0.00    -0.365 OA
ATOM     18  H   UNL     1     -27.566 -16.130 -28.048  1.00  0.00     0.214 HD
ENDBRANCH   9  17
TORSDOF 2
ENDMDL
MODEL 6
REMARK VINA RESULT:    -6.411      1.752      4.443
REMARK INTER + INTRA:          -7.196
REMARK INTER:                  -6.942
REMARK INTRA:                  -0.254
REMARK UNBOUND:                -0.223
REMARK SMILES C=C1C[C@]2(O)O[C@]3(C[C@H]2C(C)C)[C@H](C)CC[C@H]13
REMARK SMILES IDX 14 1 13 2 15 3 16 4 17 5 7 6 8 7 9 8 4 9 6 10 3 11 2 12 1 13
REMARK SMILES IDX 10 14 11 15 12 16 5 17
REMARK H PARENT 5 18
REMARK Flexibility Score: inf
ROOT
ATOM      1  C   UNL     1     -28.381 -15.556 -31.414  1.00  0.00     0.011 C 
ATOM      2  C   UNL     1     -27.421 -16.554 -30.745  1.00  0.00     0.019 C 
ATOM      3  C   UNL     1     -26.622 -17.366 -31.772  1.00  0.00     0.007 C 
ATOM      4  C   UNL     1     -26.529 -18.799 -31.243  1.00  0.00     0.011 C 
ATOM      5  C   UNL     1     -27.158 -18.802 -29.848  1.00  0.00     0.047 C 
ATOM      6  C   UNL     1     -28.117 -17.589 -29.847  1.00  0.00     0.081 C 
ATOM      7  C   UNL     1     -28.424 -17.077 -28.445  1.00  0.00     0.046 C 
ATOM      8  C   UNL     1     -29.534 -18.016 -27.980  1.00  0.00     0.054 C 
ATOM      9  C   UNL     1     -29.961 -18.705 -29.323  1.00  0.00     0.173 C 
ATOM     10  O   UNL     1     -29.359 -17.981 -30.372  1.00  0.00    -0.342 OA
ATOM     11  C   UNL     1     -29.388 -20.148 -29.399  1.00  0.00     0.096 C 
ATOM     12  C   UNL     1     -27.877 -20.114 -29.544  1.00  0.00    -0.066 C 
ATOM     13  C   UNL     1     -27.175 -21.248 -29.413  1.00  0.00     0.008 C 
ENDROOT
BRANCH   8  14
ATOM     14  C   UNL     1     -30.668 -17.303 -27.172  1.00  0.00    -0.009 C 
ATOM     15  C   UNL     1     -30.411 -17.398 -25.655  1.00  0.00     0.008 C 
ATOM     16  C   UNL     1     -30.785 -15.808 -27.533  1.00  0.00     0.008 C 
ENDBRANCH   8  14
BRANCH   9  17
ATOM     17  O   UNL     1     -31.357 -18.673 -29.523  1.00  0.00    -0.365 OA
ATOM     18  H   UNL     1     -31.606 -19.318 -30.234  1.00  0.00     0.214 HD
ENDBRANCH   9  17
TORSDOF 2
ENDMDL
MODEL 7
REMARK VINA RESULT:    -6.358      1.811      4.344
REMARK INTER + INTRA:          -7.139
REMARK INTER:                  -6.923
REMARK INTRA:                  -0.216
REMARK UNBOUND:                -0.223
REMARK SMILES C=C1C[C@]2(O)O[C@]3(C[C@H]2C(C)C)[C@H](C)CC[C@H]13
REMARK SMILES IDX 14 1 13 2 15 3 16 4 17 5 7 6 8 7 9 8 4 9 6 10 3 11 2 12 1 13
REMARK SMILES IDX 10 14 11 15 12 16 5 17
REMARK H PARENT 5 18
REMARK Flexibility Score: inf
ROOT
ATOM      1  C   UNL     1     -31.834 -16.674 -32.436  1.00  0.00     0.011 C 
ATOM      2  C   UNL     1     -30.338 -16.363 -32.264  1.00  0.00     0.019 C 
ATOM      3  C   UNL     1     -29.510 -16.819 -33.473  1.00  0.00     0.007 C 
ATOM      4  C   UNL     1     -28.201 -17.397 -32.933  1.00  0.00     0.011 C 
ATOM      5  C   UNL     1     -28.200 -17.163 -31.420  1.00  0.00     0.047 C 
ATOM      6  C   UNL     1     -29.693 -17.034 -31.041  1.00  0.00     0.081 C 
ATOM      7  C   UNL     1     -29.911 -16.274 -29.738  1.00  0.00     0.046 C 
ATOM      8  C   UNL     1     -29.686 -17.350 -28.680  1.00  0.00     0.054 C 
ATOM      9  C   UNL     1     -29.731 -18.664 -29.537  1.00  0.00     0.173 C 
ATOM     10  O   UNL     1     -30.224 -18.314 -30.811  1.00  0.00    -0.342 OA
ATOM     11  C   UNL     1     -28.295 -19.217 -29.758  1.00  0.00     0.096 C 
ATOM     12  C   UNL     1     -27.502 -18.291 -30.664  1.00  0.00    -0.066 C 
ATOM     13  C   UNL     1     -26.182 -18.476 -30.805  1.00  0.00     0.008 C 
ENDROOT
BRANCH   8  14
ATOM     14  C   UNL     1     -30.682 -17.271 -27.476  1.00  0.00    -0.009 C 
ATOM     15  C   UNL     1     -29.944 -17.453 -26.135  1.00  0.00     0.008 C 
ATOM     16  C   UNL     1     -31.421 -15.917 -27.423  1.00  0.00     0.008 C 
ENDBRANCH   8  14
BRANCH   9  17
ATOM     17  O   UNL     1     -30.598 -19.633 -28.990  1.00  0.00    -0.365 OA
ATOM     18  H   UNL     1     -30.920 -20.234 -29.710  1.00  0.00     0.214 HD
ENDBRANCH   9  17
TORSDOF 2
ENDMDL
MODEL 8
REMARK VINA RESULT:    -6.321      2.371      4.170
REMARK INTER + INTRA:          -7.099
REMARK INTER:                  -7.256
REMARK INTRA:                   0.158
REMARK UNBOUND:                -0.223
REMARK SMILES C=C1C[C@]2(O)O[C@]3(C[C@H]2C(C)C)[C@H](C)CC[C@H]13
REMARK SMILES IDX 14 1 13 2 15 3 16 4 17 5 7 6 8 7 9 8 4 9 6 10 3 11 2 12 1 13
REMARK SMILES IDX 10 14 11 15 12 16 5 17
REMARK H PARENT 5 18
REMARK Flexibility Score: inf
ROOT
ATOM      1  C   UNL     1     -29.088 -16.624 -26.233  1.00  0.00     0.011 C 
ATOM      2  C   UNL     1     -29.502 -15.981 -27.566  1.00  0.00     0.019 C 
ATOM      3  C   UNL     1     -30.881 -15.314 -27.483  1.00  0.00     0.007 C 
ATOM      4  C   UNL     1     -31.603 -15.602 -28.801  1.00  0.00     0.011 C 
ATOM      5  C   UNL     1     -30.605 -16.325 -29.709  1.00  0.00     0.047 C 
ATOM      6  C   UNL     1     -29.588 -16.970 -28.740  1.00  0.00     0.081 C 
ATOM      7  C   UNL     1     -28.244 -17.260 -29.397  1.00  0.00     0.046 C 
ATOM      8  C   UNL     1     -28.493 -18.592 -30.098  1.00  0.00     0.054 C 
ATOM      9  C   UNL     1     -29.838 -19.060 -29.440  1.00  0.00     0.173 C 
ATOM     10  O   UNL     1     -30.071 -18.223 -28.329  1.00  0.00    -0.342 OA
ATOM     11  C   UNL     1     -31.028 -18.837 -30.416  1.00  0.00     0.096 C 
ATOM     12  C   UNL     1     -31.285 -17.353 -30.609  1.00  0.00    -0.066 C 
ATOM     13  C   UNL     1     -32.125 -16.949 -31.573  1.00  0.00     0.008 C 
ENDROOT
BRANCH   8  14
ATOM     14  C   UNL     1     -27.291 -19.589 -30.009  1.00  0.00    -0.009 C 
ATOM     15  C   UNL     1     -27.536 -20.832 -30.886  1.00  0.00     0.008 C 
ATOM     16  C   UNL     1     -25.968 -18.944 -30.472  1.00  0.00     0.008 C 
ENDBRANCH   8  14
BRANCH   9  17
ATOM     17  O   UNL     1     -29.773 -20.389 -28.972  1.00  0.00    -0.365 OA
ATOM     18  H   UNL     1     -30.139 -21.002 -29.661  1.00  0.00     0.214 HD
ENDBRANCH   9  17
TORSDOF 2
ENDMDL
MODEL 9
REMARK VINA RESULT:    -6.284      2.643      3.879
REMARK INTER + INTRA:          -7.058
REMARK INTER:                  -6.810
REMARK INTRA:                  -0.248
REMARK UNBOUND:                -0.223
REMARK SMILES C=C1C[C@]2(O)O[C@]3(C[C@H]2C(C)C)[C@H](C)CC[C@H]13
REMARK SMILES IDX 14 1 13 2 15 3 16 4 17 5 7 6 8 7 9 8 4 9 6 10 3 11 2 12 1 13
REMARK SMILES IDX 10 14 11 15 12 16 5 17
REMARK H PARENT 5 18
REMARK Flexibility Score: inf
ROOT
ATOM      1  C   UNL     1     -31.230 -18.679 -31.331  1.00  0.00     0.011 C 
ATOM      2  C   UNL     1     -30.114 -18.572 -30.280  1.00  0.00     0.019 C 
ATOM      3  C   UNL     1     -30.305 -19.570 -29.130  1.00  0.00     0.007 C 
ATOM      4  C   UNL     1     -29.914 -18.850 -27.837  1.00  0.00     0.011 C 
ATOM      5  C   UNL     1     -29.371 -17.476 -28.237  1.00  0.00     0.047 C 
ATOM      6  C   UNL     1     -30.004 -17.189 -29.617  1.00  0.00     0.081 C 
ATOM      7  C   UNL     1     -29.210 -16.178 -30.436  1.00  0.00     0.046 C 
ATOM      8  C   UNL     1     -29.696 -14.842 -29.882  1.00  0.00     0.054 C 
ATOM      9  C   UNL     1     -30.973 -15.269 -29.075  1.00  0.00     0.173 C 
ATOM     10  O   UNL     1     -31.266 -16.601 -29.434  1.00  0.00    -0.342 OA
ATOM     11  C   UNL     1     -30.673 -15.280 -27.549  1.00  0.00     0.096 C 
ATOM     12  C   UNL     1     -29.708 -16.402 -27.206  1.00  0.00    -0.066 C 
ATOM     13  C   UNL     1     -29.159 -16.450 -25.984  1.00  0.00     0.008 C 
ENDROOT
BRANCH   8  14
ATOM     14  C   UNL     1     -29.900 -13.740 -30.974  1.00  0.00    -0.009 C 
ATOM     15  C   UNL     1     -28.627 -12.891 -31.147  1.00  0.00     0.008 C 
ATOM     16  C   UNL     1     -30.248 -14.346 -32.349  1.00  0.00     0.008 C 
ENDBRANCH   8  14
BRANCH   9  17
ATOM     17  O   UNL     1     -32.098 -14.479 -29.392  1.00  0.00    -0.365 OA
ATOM     18  H   UNL     1     -32.055 -14.207 -30.345  1.00  0.00     0.214 HD
ENDBRANCH   9  17
TORSDOF 2
ENDMDL
