MODEL 1
REMARK VINA RESULT:    -4.863      0.000      0.000
REMARK INTER + INTRA:          -7.229
REMARK INTER:                  -6.853
REMARK INTRA:                  -0.375
REMARK UNBOUND:                -0.375
REMARK SMILES C=CCCCCCCC(=O)[O-]
REMARK SMILES IDX 6 1 7 2 8 3 9 4 10 5 11 6 5 7 4 8 3 9 2 10 1 11
REMARK H PARENT
REMARK Flexibility Score: inf
ROOT
ATOM      1  C   UNL     1      12.962   4.008  56.009  1.00  0.00     0.000 C 
ENDROOT
BRANCH   1   2
ATOM      2  C   UNL     1      12.798   4.219  54.495  1.00  0.00     0.006 C 
BRANCH   2   3
ATOM      3  C   UNL     1      11.388   3.874  54.001  1.00  0.00     0.053 C 
BRANCH   3   4
ATOM      4  C   UNL     1      10.362   4.637  54.777  1.00  0.00     0.041 C 
ATOM      5  O   UNL     1       9.531   4.027  55.500  1.00  0.00    -0.550 OA
ATOM      6  O   UNL     1      10.292   6.020  54.664  1.00  0.00    -0.550 OA
ENDBRANCH   3   4
ENDBRANCH   2   3
ENDBRANCH   1   2
BRANCH   1   7
ATOM      7  C   UNL     1      14.087   3.020  56.349  1.00  0.00     0.000 C 
BRANCH   7   8
ATOM      8  C   UNL     1      15.420   3.474  55.741  1.00  0.00     0.004 C 
BRANCH   8   9
ATOM      9  C   UNL     1      16.262   2.271  55.299  1.00  0.00     0.027 C 
BRANCH   9  10
ATOM     10  C   UNL     1      16.114   1.120  56.257  1.00  0.00    -0.035 C 
ATOM     11  C   UNL     1      16.516  -0.114  55.941  1.00  0.00     0.004 C 
ENDBRANCH   9  10
ENDBRANCH   8   9
ENDBRANCH   7   8
ENDBRANCH   1   7
TORSDOF 7
ENDMDL
MODEL 2
REMARK VINA RESULT:    -4.692      1.611      2.184
REMARK INTER + INTRA:          -6.987
REMARK INTER:                  -6.588
REMARK INTRA:                  -0.399
REMARK UNBOUND:                -0.375
REMARK SMILES C=CCCCCCCC(=O)[O-]
REMARK SMILES IDX 6 1 7 2 8 3 9 4 10 5 11 6 5 7 4 8 3 9 2 10 1 11
REMARK H PARENT
REMARK Flexibility Score: inf
ROOT
ATOM      1  C   UNL     1      13.022   3.325  57.414  1.00  0.00     0.000 C 
ENDROOT
BRANCH   1   2
ATOM      2  C   UNL     1      11.989   3.844  56.402  1.00  0.00     0.006 C 
BRANCH   2   3
ATOM      3  C   UNL     1      12.628   4.286  55.080  1.00  0.00     0.053 C 
BRANCH   3   4
ATOM      4  C   UNL     1      11.790   3.842  53.922  1.00  0.00     0.041 C 
ATOM      5  O   UNL     1      12.014   4.292  52.767  1.00  0.00    -0.550 OA
ATOM      6  O   UNL     1      10.730   2.967  54.126  1.00  0.00    -0.550 OA
ENDBRANCH   3   4
ENDBRANCH   2   3
ENDBRANCH   1   2
BRANCH   1   7
ATOM      7  C   UNL     1      12.975   1.799  57.578  1.00  0.00     0.000 C 
BRANCH   7   8
ATOM      8  C   UNL     1      14.352   1.176  57.318  1.00  0.00     0.004 C 
BRANCH   8   9
ATOM      9  C   UNL     1      15.195   2.068  56.399  1.00  0.00     0.027 C 
BRANCH   9  10
ATOM     10  C   UNL     1      16.411   1.338  55.897  1.00  0.00    -0.035 C 
ATOM     11  C   UNL     1      16.478   0.004  55.889  1.00  0.00     0.004 C 
ENDBRANCH   9  10
ENDBRANCH   8   9
ENDBRANCH   7   8
ENDBRANCH   1   7
TORSDOF 7
ENDMDL
MODEL 3
REMARK VINA RESULT:    -4.603      3.060      5.448
REMARK INTER + INTRA:          -6.862
REMARK INTER:                  -6.053
REMARK INTRA:                  -0.808
REMARK UNBOUND:                -0.375
REMARK SMILES C=CCCCCCCC(=O)[O-]
REMARK SMILES IDX 6 1 7 2 8 3 9 4 10 5 11 6 5 7 4 8 3 9 2 10 1 11
REMARK H PARENT
REMARK Flexibility Score: inf
ROOT
ATOM      1  C   UNL     1      11.906   4.226  52.992  1.00  0.00     0.000 C 
ENDROOT
BRANCH   1   2
ATOM      2  C   UNL     1      11.537   3.613  54.353  1.00  0.00     0.006 C 
BRANCH   2   3
ATOM      3  C   UNL     1      12.594   3.887  55.430  1.00  0.00     0.053 C 
BRANCH   3   4
ATOM      4  C   UNL     1      12.048   3.573  56.788  1.00  0.00     0.041 C 
ATOM      5  O   UNL     1      11.332   4.414  57.393  1.00  0.00    -0.550 OA
ATOM      6  O   UNL     1      12.369   2.371  57.406  1.00  0.00    -0.550 OA
ENDBRANCH   3   4
ENDBRANCH   2   3
ENDBRANCH   1   2
BRANCH   1   7
ATOM      7  C   UNL     1      12.502   5.635  53.121  1.00  0.00     0.000 C 
BRANCH   7   8
ATOM      8  C   UNL     1      11.441   6.707  52.842  1.00  0.00     0.004 C 
BRANCH   8   9
ATOM      9  C   UNL     1      11.415   7.760  53.956  1.00  0.00     0.027 C 
BRANCH   9  10
ATOM     10  C   UNL     1      10.850   7.193  55.230  1.00  0.00    -0.035 C 
ATOM     11  C   UNL     1       9.599   6.730  55.299  1.00  0.00     0.004 C 
ENDBRANCH   9  10
ENDBRANCH   8   9
ENDBRANCH   7   8
ENDBRANCH   1   7
TORSDOF 7
ENDMDL
MODEL 4
REMARK VINA RESULT:    -4.581      3.432      5.438
REMARK INTER + INTRA:          -6.831
REMARK INTER:                  -6.057
REMARK INTRA:                  -0.773
REMARK UNBOUND:                -0.375
REMARK SMILES C=CCCCCCCC(=O)[O-]
REMARK SMILES IDX 6 1 7 2 8 3 9 4 10 5 11 6 5 7 4 8 3 9 2 10 1 11
REMARK H PARENT
REMARK Flexibility Score: inf
ROOT
ATOM      1  C   UNL     1       9.494   5.474  55.981  1.00  0.00     0.000 C 
ENDROOT
BRANCH   1   2
ATOM      2  C   UNL     1       9.494   4.080  55.334  1.00  0.00     0.006 C 
BRANCH   2   3
ATOM      3  C   UNL     1      10.899   3.616  54.932  1.00  0.00     0.053 C 
BRANCH   3   4
ATOM      4  C   UNL     1      11.869   3.866  56.045  1.00  0.00     0.041 C 
ATOM      5  O   UNL     1      12.825   4.670  55.883  1.00  0.00    -0.550 OA
ATOM      6  O   UNL     1      11.746   3.174  57.243  1.00  0.00    -0.550 OA
ENDBRANCH   3   4
ENDBRANCH   2   3
ENDBRANCH   1   2
BRANCH   1   7
ATOM      7  C   UNL     1       9.503   6.607  54.945  1.00  0.00     0.000 C 
BRANCH   7   8
ATOM      8  C   UNL     1      10.593   7.636  55.266  1.00  0.00     0.004 C 
BRANCH   8   9
ATOM      9  C   UNL     1      11.513   7.859  54.059  1.00  0.00     0.027 C 
BRANCH   9  10
ATOM     10  C   UNL     1      11.257   6.840  52.983  1.00  0.00    -0.035 C 
ATOM     11  C   UNL     1      12.186   5.950  52.620  1.00  0.00     0.004 C 
ENDBRANCH   9  10
ENDBRANCH   8   9
ENDBRANCH   7   8
ENDBRANCH   1   7
TORSDOF 7
ENDMDL
MODEL 5
REMARK VINA RESULT:    -4.579      2.473      3.986
REMARK INTER + INTRA:          -6.828
REMARK INTER:                  -6.127
REMARK INTRA:                  -0.701
REMARK UNBOUND:                -0.375
REMARK SMILES C=CCCCCCCC(=O)[O-]
REMARK SMILES IDX 6 1 7 2 8 3 9 4 10 5 11 6 5 7 4 8 3 9 2 10 1 11
REMARK H PARENT
REMARK Flexibility Score: inf
ROOT
ATOM      1  C   UNL     1       9.891   5.187  55.876  1.00  0.00     0.000 C 
ENDROOT
BRANCH   1   2
ATOM      2  C   UNL     1       9.749   6.555  55.189  1.00  0.00     0.006 C 
BRANCH   2   3
ATOM      3  C   UNL     1      11.094   7.124  54.723  1.00  0.00     0.053 C 
BRANCH   3   4
ATOM      4  C   UNL     1      11.201   7.057  53.232  1.00  0.00     0.041 C 
ATOM      5  O   UNL     1      12.062   6.313  52.692  1.00  0.00    -0.550 OA
ATOM      6  O   UNL     1      10.382   7.851  52.440  1.00  0.00    -0.550 OA
ENDBRANCH   3   4
ENDBRANCH   2   3
ENDBRANCH   1   2
BRANCH   1   7
ATOM      7  C   UNL     1       9.660   4.014  54.912  1.00  0.00     0.000 C 
BRANCH   7   8
ATOM      8  C   UNL     1      10.991   3.379  54.491  1.00  0.00     0.004 C 
BRANCH   8   9
ATOM      9  C   UNL     1      12.041   3.517  55.600  1.00  0.00     0.027 C 
BRANCH   9  10
ATOM     10  C   UNL     1      13.327   4.086  55.066  1.00  0.00    -0.035 C 
ATOM     11  C   UNL     1      14.507   3.804  55.627  1.00  0.00     0.004 C 
ENDBRANCH   9  10
ENDBRANCH   8   9
ENDBRANCH   7   8
ENDBRANCH   1   7
TORSDOF 7
ENDMDL
MODEL 6
REMARK VINA RESULT:    -4.578      2.918      5.557
REMARK INTER + INTRA:          -6.827
REMARK INTER:                  -6.042
REMARK INTRA:                  -0.785
REMARK UNBOUND:                -0.375
REMARK SMILES C=CCCCCCCC(=O)[O-]
REMARK SMILES IDX 6 1 7 2 8 3 9 4 10 5 11 6 5 7 4 8 3 9 2 10 1 11
REMARK H PARENT
REMARK Flexibility Score: inf
ROOT
ATOM      1  C   UNL     1       9.635   4.182  54.893  1.00  0.00     0.000 C 
ENDROOT
BRANCH   1   2
ATOM      2  C   UNL     1      10.979   3.437  54.875  1.00  0.00     0.006 C 
BRANCH   2   3
ATOM      3  C   UNL     1      11.764   3.604  56.182  1.00  0.00     0.053 C 
BRANCH   3   4
ATOM      4  C   UNL     1      13.235   3.523  55.920  1.00  0.00     0.041 C 
ATOM      5  O   UNL     1      13.757   4.226  55.015  1.00  0.00    -0.550 OA
ATOM      6  O   UNL     1      14.023   2.636  56.643  1.00  0.00    -0.550 OA
ENDBRANCH   3   4
ENDBRANCH   2   3
ENDBRANCH   1   2
BRANCH   1   7
ATOM      7  C   UNL     1       9.609   5.330  55.914  1.00  0.00     0.000 C 
BRANCH   7   8
ATOM      8  C   UNL     1       9.704   6.690  55.212  1.00  0.00     0.004 C 
BRANCH   8   9
ATOM      9  C   UNL     1      11.159   7.169  55.136  1.00  0.00     0.027 C 
BRANCH   9  10
ATOM     10  C   UNL     1      11.572   7.434  53.714  1.00  0.00    -0.035 C 
ATOM     11  C   UNL     1      11.853   6.439  52.866  1.00  0.00     0.004 C 
ENDBRANCH   9  10
ENDBRANCH   8   9
ENDBRANCH   7   8
ENDBRANCH   1   7
TORSDOF 7
ENDMDL
MODEL 7
REMARK VINA RESULT:    -4.567      3.695      4.690
REMARK INTER + INTRA:          -6.811
REMARK INTER:                  -6.076
REMARK INTRA:                  -0.735
REMARK UNBOUND:                -0.375
REMARK SMILES C=CCCCCCCC(=O)[O-]
REMARK SMILES IDX 6 1 7 2 8 3 9 4 10 5 11 6 5 7 4 8 3 9 2 10 1 11
REMARK H PARENT
REMARK Flexibility Score: inf
ROOT
ATOM      1  C   UNL     1       9.502   5.205  55.856  1.00  0.00     0.000 C 
ENDROOT
BRANCH   1   2
ATOM      2  C   UNL     1       9.422   6.717  55.592  1.00  0.00     0.006 C 
BRANCH   2   3
ATOM      3  C   UNL     1       9.165   7.046  54.117  1.00  0.00     0.053 C 
BRANCH   3   4
ATOM      4  C   UNL     1      10.282   7.876  53.566  1.00  0.00     0.041 C 
ATOM      5  O   UNL     1      10.265   8.241  52.361  1.00  0.00    -0.550 OA
ATOM      6  O   UNL     1      11.364   8.208  54.371  1.00  0.00    -0.550 OA
ENDBRANCH   3   4
ENDBRANCH   2   3
ENDBRANCH   1   2
BRANCH   1   7
ATOM      7  C   UNL     1      10.818   4.792  56.534  1.00  0.00     0.000 C 
BRANCH   7   8
ATOM      8  C   UNL     1      11.528   3.696  55.730  1.00  0.00     0.004 C 
BRANCH   8   9
ATOM      9  C   UNL     1      10.834   3.463  54.383  1.00  0.00     0.027 C 
BRANCH   9  10
ATOM     10  C   UNL     1      11.768   3.729  53.234  1.00  0.00    -0.035 C 
ATOM     11  C   UNL     1      12.229   4.956  52.971  1.00  0.00     0.004 C 
ENDBRANCH   9  10
ENDBRANCH   8   9
ENDBRANCH   7   8
ENDBRANCH   1   7
TORSDOF 7
ENDMDL
MODEL 8
REMARK VINA RESULT:    -4.509      3.682      6.951
REMARK INTER + INTRA:          -6.729
REMARK INTER:                  -6.228
REMARK INTRA:                  -0.501
REMARK UNBOUND:                -0.375
REMARK SMILES C=CCCCCCCC(=O)[O-]
REMARK SMILES IDX 6 1 7 2 8 3 9 4 10 5 11 6 5 7 4 8 3 9 2 10 1 11
REMARK H PARENT
REMARK Flexibility Score: inf
ROOT
ATOM      1  C   UNL     1      10.091   5.148  55.939  1.00  0.00     0.000 C 
ENDROOT
BRANCH   1   2
ATOM      2  C   UNL     1       9.739   4.133  54.840  1.00  0.00     0.006 C 
BRANCH   2   3
ATOM      3  C   UNL     1      10.944   3.286  54.412  1.00  0.00     0.053 C 
BRANCH   3   4
ATOM      4  C   UNL     1      12.075   4.168  53.984  1.00  0.00     0.041 C 
ATOM      5  O   UNL     1      12.002   4.812  52.904  1.00  0.00    -0.550 OA
ATOM      6  O   UNL     1      13.229   4.240  54.753  1.00  0.00    -0.550 OA
ENDBRANCH   3   4
ENDBRANCH   2   3
ENDBRANCH   1   2
BRANCH   1   7
ATOM      7  C   UNL     1       9.491   6.537  55.673  1.00  0.00     0.000 C 
BRANCH   7   8
ATOM      8  C   UNL     1       9.372   6.805  54.168  1.00  0.00     0.004 C 
BRANCH   8   9
ATOM      9  C   UNL     1       8.519   8.050  53.896  1.00  0.00     0.027 C 
BRANCH   9  10
ATOM     10  C   UNL     1       8.210   8.788  55.170  1.00  0.00    -0.035 C 
ATOM     11  C   UNL     1       7.044   9.415  55.355  1.00  0.00     0.004 C 
ENDBRANCH   9  10
ENDBRANCH   8   9
ENDBRANCH   7   8
ENDBRANCH   1   7
TORSDOF 7
ENDMDL
MODEL 9
REMARK VINA RESULT:    -4.477      3.384      5.722
REMARK INTER + INTRA:          -6.685
REMARK INTER:                  -5.988
REMARK INTRA:                  -0.697
REMARK UNBOUND:                -0.375
REMARK SMILES C=CCCCCCCC(=O)[O-]
REMARK SMILES IDX 6 1 7 2 8 3 9 4 10 5 11 6 5 7 4 8 3 9 2 10 1 11
REMARK H PARENT
REMARK Flexibility Score: inf
ROOT
ATOM      1  C   UNL     1      12.470   5.346  53.532  1.00  0.00     0.000 C 
ENDROOT
BRANCH   1   2
ATOM      2  C   UNL     1      11.931   3.917  53.368  1.00  0.00     0.006 C 
BRANCH   2   3
ATOM      3  C   UNL     1      10.983   3.509  54.502  1.00  0.00     0.053 C 
BRANCH   3   4
ATOM      4  C   UNL     1      11.675   3.622  55.825  1.00  0.00     0.041 C 
ATOM      5  O   UNL     1      12.752   3.002  56.031  1.00  0.00    -0.550 OA
ATOM      6  O   UNL     1      11.105   4.372  56.846  1.00  0.00    -0.550 OA
ENDBRANCH   3   4
ENDBRANCH   2   3
ENDBRANCH   1   2
BRANCH   1   7
ATOM      7  C   UNL     1      11.734   6.361  52.645  1.00  0.00     0.000 C 
BRANCH   7   8
ATOM      8  C   UNL     1      11.375   7.624  53.437  1.00  0.00     0.004 C 
BRANCH   8   9
ATOM      9  C   UNL     1      11.165   7.301  54.922  1.00  0.00     0.027 C 
BRANCH   9  10
ATOM     10  C   UNL     1       9.703   7.153  55.246  1.00  0.00    -0.035 C 
ATOM     11  C   UNL     1       8.777   7.946  54.699  1.00  0.00     0.004 C 
ENDBRANCH   9  10
ENDBRANCH   8   9
ENDBRANCH   7   8
ENDBRANCH   1   7
TORSDOF 7
ENDMDL
