MODEL 1
REMARK VINA RESULT:    -3.632      0.000      0.000
REMARK INTER + INTRA:          -4.821
REMARK INTER:                  -4.482
REMARK INTRA:                  -0.339
REMARK UNBOUND:                -0.339
REMARK SMILES C=CCc1ccc(OC)c(OC)c1
REMARK SMILES IDX 7 1 10 2 13 3 4 4 5 5 6 6 8 7 9 8 11 9 12 10 3 11 2 12 1 13
REMARK H PARENT
REMARK Flexibility Score: inf
ROOT
ATOM      1  C   UNL     1       7.417   3.368  45.535  1.00  0.00     0.160 A 
ATOM      2  C   UNL     1       7.054   2.260  44.754  1.00  0.00     0.160 A 
ATOM      3  C   UNL     1       7.793   1.065  44.852  1.00  0.00     0.054 A 
ATOM      4  C   UNL     1       8.893   0.977  45.718  1.00  0.00    -0.040 A 
ATOM      5  C   UNL     1       9.244   2.084  46.501  1.00  0.00     0.008 A 
ATOM      6  C   UNL     1       8.516   3.271  46.410  1.00  0.00     0.051 A 
ENDROOT
BRANCH   1   7
ATOM      7  O   UNL     1       6.662   4.546  45.414  1.00  0.00    -0.493 OA
ATOM      8  C   UNL     1       5.751   5.024  46.399  1.00  0.00     0.278 C 
ENDBRANCH   1   7
BRANCH   2   9
ATOM      9  O   UNL     1       5.950   2.384  43.894  1.00  0.00    -0.493 OA
ATOM     10  C   UNL     1       4.658   1.845  44.156  1.00  0.00     0.278 C 
ENDBRANCH   2   9
BRANCH   4  11
ATOM     11  C   UNL     1       9.660  -0.314  45.839  1.00  0.00     0.062 C 
BRANCH  11  12
ATOM     12  C   UNL     1      11.141  -0.057  45.831  1.00  0.00    -0.030 C 
ATOM     13  C   UNL     1      11.911  -0.419  44.800  1.00  0.00     0.004 C 
ENDBRANCH  11  12
ENDBRANCH   4  11
TORSDOF 4
ENDMDL
MODEL 2
REMARK VINA RESULT:    -3.615      4.747      7.661
REMARK INTER + INTRA:          -4.799
REMARK INTER:                  -4.523
REMARK INTRA:                  -0.275
REMARK UNBOUND:                -0.339
REMARK SMILES C=CCc1ccc(OC)c(OC)c1
REMARK SMILES IDX 7 1 10 2 13 3 4 4 5 5 6 6 8 7 9 8 11 9 12 10 3 11 2 12 1 13
REMARK H PARENT
REMARK Flexibility Score: inf
ROOT
ATOM      1  C   UNL     1      15.062   0.279  44.921  1.00  0.00     0.160 A 
ATOM      2  C   UNL     1      14.569   0.930  46.063  1.00  0.00     0.160 A 
ATOM      3  C   UNL     1      13.232   0.726  46.459  1.00  0.00     0.054 A 
ATOM      4  C   UNL     1      12.389  -0.114  45.717  1.00  0.00    -0.040 A 
ATOM      5  C   UNL     1      12.892  -0.768  44.585  1.00  0.00     0.008 A 
ATOM      6  C   UNL     1      14.215  -0.572  44.186  1.00  0.00     0.051 A 
ENDROOT
BRANCH   1   7
ATOM      7  O   UNL     1      16.398   0.503  44.551  1.00  0.00    -0.493 OA
ATOM      8  C   UNL     1      16.805   1.306  43.448  1.00  0.00     0.278 C 
ENDBRANCH   1   7
BRANCH   2   9
ATOM      9  O   UNL     1      15.438   1.768  46.780  1.00  0.00    -0.493 OA
ATOM     10  C   UNL     1      15.882   1.523  48.111  1.00  0.00     0.278 C 
ENDBRANCH   2   9
BRANCH   4  11
ATOM     11  C   UNL     1      10.970  -0.350  46.165  1.00  0.00     0.062 C 
BRANCH  11  12
ATOM     12  C   UNL     1       9.998   0.080  45.101  1.00  0.00    -0.030 C 
ATOM     13  C   UNL     1       8.860   0.712  45.405  1.00  0.00     0.004 C 
ENDBRANCH  11  12
ENDBRANCH   4  11
TORSDOF 4
ENDMDL
MODEL 3
REMARK VINA RESULT:    -3.609     10.285     12.114
REMARK INTER + INTRA:          -4.792
REMARK INTER:                  -4.461
REMARK INTRA:                  -0.331
REMARK UNBOUND:                -0.339
REMARK SMILES C=CCc1ccc(OC)c(OC)c1
REMARK SMILES IDX 7 1 10 2 13 3 4 4 5 5 6 6 8 7 9 8 11 9 12 10 3 11 2 12 1 13
REMARK H PARENT
REMARK Flexibility Score: inf
ROOT
ATOM      1  C   UNL     1      15.184   0.655  35.860  1.00  0.00     0.160 A 
ATOM      2  C   UNL     1      15.995   1.802  35.835  1.00  0.00     0.160 A 
ATOM      3  C   UNL     1      15.994   2.680  36.936  1.00  0.00     0.054 A 
ATOM      4  C   UNL     1      15.184   2.424  38.052  1.00  0.00    -0.040 A 
ATOM      5  C   UNL     1      14.385   1.273  38.074  1.00  0.00     0.008 A 
ATOM      6  C   UNL     1      14.381   0.397  36.987  1.00  0.00     0.051 A 
ENDROOT
BRANCH   1   7
ATOM      7  O   UNL     1      15.205  -0.201  34.748  1.00  0.00    -0.493 OA
ATOM      8  C   UNL     1      14.309  -0.112  33.645  1.00  0.00     0.278 C 
ENDBRANCH   1   7
BRANCH   2   9
ATOM      9  O   UNL     1      16.789   2.031  34.700  1.00  0.00    -0.493 OA
ATOM     10  C   UNL     1      16.499   2.994  33.692  1.00  0.00     0.278 C 
ENDBRANCH   2   9
BRANCH   4  11
ATOM     11  C   UNL     1      15.211   3.353  39.237  1.00  0.00     0.062 C 
BRANCH  11  12
ATOM     12  C   UNL     1      16.419   3.089  40.094  1.00  0.00    -0.030 C 
ATOM     13  C   UNL     1      16.424   2.127  41.021  1.00  0.00     0.004 C 
ENDBRANCH  11  12
ENDBRANCH   4  11
TORSDOF 4
ENDMDL
MODEL 4
REMARK VINA RESULT:    -3.590     10.837     13.254
REMARK INTER + INTRA:          -4.768
REMARK INTER:                  -4.473
REMARK INTRA:                  -0.295
REMARK UNBOUND:                -0.339
REMARK SMILES C=CCc1ccc(OC)c(OC)c1
REMARK SMILES IDX 7 1 10 2 13 3 4 4 5 5 6 6 8 7 9 8 11 9 12 10 3 11 2 12 1 13
REMARK H PARENT
REMARK Flexibility Score: inf
ROOT
ATOM      1  C   UNL     1      16.911  -0.380  34.739  1.00  0.00     0.160 A 
ATOM      2  C   UNL     1      15.525  -0.178  34.634  1.00  0.00     0.160 A 
ATOM      3  C   UNL     1      14.791   0.218  35.768  1.00  0.00     0.054 A 
ATOM      4  C   UNL     1      15.430   0.405  37.003  1.00  0.00    -0.040 A 
ATOM      5  C   UNL     1      16.814   0.211  37.097  1.00  0.00     0.008 A 
ATOM      6  C   UNL     1      17.550  -0.182  35.978  1.00  0.00     0.051 A 
ENDROOT
BRANCH   1   7
ATOM      7  O   UNL     1      17.616  -0.776  33.591  1.00  0.00    -0.493 OA
ATOM      8  C   UNL     1      18.879  -1.434  33.609  1.00  0.00     0.278 C 
ENDBRANCH   1   7
BRANCH   2   9
ATOM      9  O   UNL     1      14.916  -0.379  33.385  1.00  0.00    -0.493 OA
ATOM     10  C   UNL     1      13.588   0.020  33.061  1.00  0.00     0.278 C 
ENDBRANCH   2   9
BRANCH   4  11
ATOM     11  C   UNL     1      14.642   0.858  38.204  1.00  0.00     0.062 C 
BRANCH  11  12
ATOM     12  C   UNL     1      15.489   1.710  39.107  1.00  0.00    -0.030 C 
ATOM     13  C   UNL     1      15.463   3.044  39.040  1.00  0.00     0.004 C 
ENDBRANCH  11  12
ENDBRANCH   4  11
TORSDOF 4
ENDMDL
MODEL 5
REMARK VINA RESULT:    -3.588      9.741     11.148
REMARK INTER + INTRA:          -4.766
REMARK INTER:                  -4.511
REMARK INTRA:                  -0.255
REMARK UNBOUND:                -0.339
REMARK SMILES C=CCc1ccc(OC)c(OC)c1
REMARK SMILES IDX 7 1 10 2 13 3 4 4 5 5 6 6 8 7 9 8 11 9 12 10 3 11 2 12 1 13
REMARK H PARENT
REMARK Flexibility Score: inf
ROOT
ATOM      1  C   UNL     1      15.376   1.671  37.014  1.00  0.00     0.160 A 
ATOM      2  C   UNL     1      15.587   3.054  37.131  1.00  0.00     0.160 A 
ATOM      3  C   UNL     1      15.835   3.616  38.399  1.00  0.00     0.054 A 
ATOM      4  C   UNL     1      15.863   2.807  39.545  1.00  0.00    -0.040 A 
ATOM      5  C   UNL     1      15.661   1.427  39.418  1.00  0.00     0.008 A 
ATOM      6  C   UNL     1      15.416   0.862  38.166  1.00  0.00     0.051 A 
ENDROOT
BRANCH   1   7
ATOM      7  O   UNL     1      15.131   1.139  35.738  1.00  0.00    -0.493 OA
ATOM      8  C   UNL     1      15.224  -0.244  35.410  1.00  0.00     0.278 C 
ENDBRANCH   1   7
BRANCH   2   9
ATOM      9  O   UNL     1      15.548   3.834  35.965  1.00  0.00    -0.493 OA
ATOM     10  C   UNL     1      15.153   5.202  35.922  1.00  0.00     0.278 C 
ENDBRANCH   2   9
BRANCH   4  11
ATOM     11  C   UNL     1      16.157   3.413  40.892  1.00  0.00     0.062 C 
BRANCH  11  12
ATOM     12  C   UNL     1      16.672   2.370  41.845  1.00  0.00    -0.030 C 
ATOM     13  C   UNL     1      16.702   2.579  43.164  1.00  0.00     0.004 C 
ENDBRANCH  11  12
ENDBRANCH   4  11
TORSDOF 4
ENDMDL
MODEL 6
REMARK VINA RESULT:    -3.581      5.729      8.340
REMARK INTER + INTRA:          -4.757
REMARK INTER:                  -4.458
REMARK INTRA:                  -0.299
REMARK UNBOUND:                -0.339
REMARK SMILES C=CCc1ccc(OC)c(OC)c1
REMARK SMILES IDX 7 1 10 2 13 3 4 4 5 5 6 6 8 7 9 8 11 9 12 10 3 11 2 12 1 13
REMARK H PARENT
REMARK Flexibility Score: inf
ROOT
ATOM      1  C   UNL     1      16.189   1.651  45.682  1.00  0.00     0.160 A 
ATOM      2  C   UNL     1      16.215   0.772  44.588  1.00  0.00     0.160 A 
ATOM      3  C   UNL     1      15.091  -0.031  44.313  1.00  0.00     0.054 A 
ATOM      4  C   UNL     1      13.950   0.034  45.127  1.00  0.00    -0.040 A 
ATOM      5  C   UNL     1      13.928   0.921  46.211  1.00  0.00     0.008 A 
ATOM      6  C   UNL     1      15.038   1.721  46.490  1.00  0.00     0.051 A 
ENDROOT
BRANCH   1   7
ATOM      7  O   UNL     1      17.324   2.439  45.933  1.00  0.00    -0.493 OA
ATOM      8  C   UNL     1      17.924   2.603  47.214  1.00  0.00     0.278 C 
ENDBRANCH   1   7
BRANCH   2   9
ATOM      9  O   UNL     1      17.374   0.728  43.797  1.00  0.00    -0.493 OA
ATOM     10  C   UNL     1      17.513   1.367  42.532  1.00  0.00     0.278 C 
ENDBRANCH   2   9
BRANCH   4  11
ATOM     11  C   UNL     1      12.742  -0.807  44.807  1.00  0.00     0.062 C 
BRANCH  11  12
ATOM     12  C   UNL     1      11.603  -0.477  45.731  1.00  0.00    -0.030 C 
ATOM     13  C   UNL     1      10.415  -0.082  45.266  1.00  0.00     0.004 C 
ENDBRANCH  11  12
ENDBRANCH   4  11
TORSDOF 4
ENDMDL
MODEL 7
REMARK VINA RESULT:    -3.576      9.920     11.682
REMARK INTER + INTRA:          -4.751
REMARK INTER:                  -4.497
REMARK INTRA:                  -0.254
REMARK UNBOUND:                -0.339
REMARK SMILES C=CCc1ccc(OC)c(OC)c1
REMARK SMILES IDX 7 1 10 2 13 3 4 4 5 5 6 6 8 7 9 8 11 9 12 10 3 11 2 12 1 13
REMARK H PARENT
REMARK Flexibility Score: inf
ROOT
ATOM      1  C   UNL     1      15.795   3.052  38.489  1.00  0.00     0.160 A 
ATOM      2  C   UNL     1      15.923   3.266  37.107  1.00  0.00     0.160 A 
ATOM      3  C   UNL     1      15.718   2.196  36.214  1.00  0.00     0.054 A 
ATOM      4  C   UNL     1      15.396   0.918  36.694  1.00  0.00    -0.040 A 
ATOM      5  C   UNL     1      15.260   0.715  38.073  1.00  0.00     0.008 A 
ATOM      6  C   UNL     1      15.461   1.769  38.965  1.00  0.00     0.051 A 
ENDROOT
BRANCH   1   7
ATOM      7  O   UNL     1      16.006   4.137  39.355  1.00  0.00    -0.493 OA
ATOM      8  C   UNL     1      16.024   4.042  40.776  1.00  0.00     0.278 C 
ENDBRANCH   1   7
BRANCH   2   9
ATOM      9  O   UNL     1      16.251   4.556  36.661  1.00  0.00    -0.493 OA
ATOM     10  C   UNL     1      15.317   5.485  36.120  1.00  0.00     0.278 C 
ENDBRANCH   2   9
BRANCH   4  11
ATOM     11  C   UNL     1      15.149  -0.213  35.730  1.00  0.00     0.062 C 
BRANCH  11  12
ATOM     12  C   UNL     1      15.363   0.239  34.312  1.00  0.00    -0.030 C 
ATOM     13  C   UNL     1      14.570  -0.172  33.318  1.00  0.00     0.004 C 
ENDBRANCH  11  12
ENDBRANCH   4  11
TORSDOF 4
ENDMDL
MODEL 8
REMARK VINA RESULT:    -3.505     10.093     11.975
REMARK INTER + INTRA:          -4.663
REMARK INTER:                  -4.381
REMARK INTRA:                  -0.283
REMARK UNBOUND:                -0.339
REMARK SMILES C=CCc1ccc(OC)c(OC)c1
REMARK SMILES IDX 7 1 10 2 13 3 4 4 5 5 6 6 8 7 9 8 11 9 12 10 3 11 2 12 1 13
REMARK H PARENT
REMARK Flexibility Score: inf
ROOT
ATOM      1  C   UNL     1      15.375   0.076  36.637  1.00  0.00     0.160 A 
ATOM      2  C   UNL     1      16.677   0.121  37.162  1.00  0.00     0.160 A 
ATOM      3  C   UNL     1      16.914   0.785  38.381  1.00  0.00     0.054 A 
ATOM      4  C   UNL     1      15.863   1.408  39.071  1.00  0.00    -0.040 A 
ATOM      5  C   UNL     1      14.566   1.350  38.545  1.00  0.00     0.008 A 
ATOM      6  C   UNL     1      14.322   0.694  37.338  1.00  0.00     0.051 A 
ENDROOT
BRANCH   1   7
ATOM      7  O   UNL     1      15.170  -0.593  35.419  1.00  0.00    -0.493 OA
ATOM      8  C   UNL     1      14.797   0.046  34.203  1.00  0.00     0.278 C 
ENDBRANCH   1   7
BRANCH   2   9
ATOM      9  O   UNL     1      17.706  -0.509  36.445  1.00  0.00    -0.493 OA
ATOM     10  C   UNL     1      18.621   0.164  35.586  1.00  0.00     0.278 C 
ENDBRANCH   2   9
BRANCH   4  11
ATOM     11  C   UNL     1      16.121   2.090  40.388  1.00  0.00     0.062 C 
BRANCH  11  12
ATOM     12  C   UNL     1      15.886   3.571  40.277  1.00  0.00    -0.030 C 
ATOM     13  C   UNL     1      16.035   4.386  41.325  1.00  0.00     0.004 C 
ENDBRANCH  11  12
ENDBRANCH   4  11
TORSDOF 4
ENDMDL
MODEL 9
REMARK VINA RESULT:    -3.486      9.757     11.816
REMARK INTER + INTRA:          -4.641
REMARK INTER:                  -4.366
REMARK INTRA:                  -0.275
REMARK UNBOUND:                -0.339
REMARK SMILES C=CCc1ccc(OC)c(OC)c1
REMARK SMILES IDX 7 1 10 2 13 3 4 4 5 5 6 6 8 7 9 8 11 9 12 10 3 11 2 12 1 13
REMARK H PARENT
REMARK Flexibility Score: inf
ROOT
ATOM      1  C   UNL     1      15.945   1.605  39.235  1.00  0.00     0.160 A 
ATOM      2  C   UNL     1      17.114   1.055  38.686  1.00  0.00     0.160 A 
ATOM      3  C   UNL     1      17.050   0.369  37.457  1.00  0.00     0.054 A 
ATOM      4  C   UNL     1      15.829   0.225  36.782  1.00  0.00    -0.040 A 
ATOM      5  C   UNL     1      14.669   0.785  37.333  1.00  0.00     0.008 A 
ATOM      6  C   UNL     1      14.723   1.466  38.550  1.00  0.00     0.051 A 
ENDROOT
BRANCH   1   7
ATOM      7  O   UNL     1      16.039   2.281  40.462  1.00  0.00    -0.493 OA
ATOM      8  C   UNL     1      15.949   3.694  40.612  1.00  0.00     0.278 C 
ENDBRANCH   1   7
BRANCH   2   9
ATOM      9  O   UNL     1      18.319   1.213  39.389  1.00  0.00    -0.493 OA
ATOM     10  C   UNL     1      18.869   0.245  40.277  1.00  0.00     0.278 C 
ENDBRANCH   2   9
BRANCH   4  11
ATOM     11  C   UNL     1      15.776  -0.484  35.454  1.00  0.00     0.062 C 
BRANCH  11  12
ATOM     12  C   UNL     1      14.597  -0.015  34.647  1.00  0.00    -0.030 C 
ATOM     13  C   UNL     1      14.540  -0.189  33.323  1.00  0.00     0.004 C 
ENDBRANCH  11  12
ENDBRANCH   4  11
TORSDOF 4
ENDMDL
