MODEL 1
REMARK VINA RESULT:    -7.329      0.000      0.000
REMARK INTER + INTRA:          -9.194
REMARK INTER:                  -8.400
REMARK INTRA:                  -0.794
REMARK UNBOUND:                -0.794
REMARK SMILES C=C(C)[C@@H]1CC[C@@]2(C(=O)[O-])CC[C@]3(C)[C@@H](CC[C@H]4[C@@]5(C)CC[C@H](O)C(C)(C)[C@@H]5CC[C@]43C)[C@@H]12
REMARK SMILES IDX 7 1 6 2 33 3 11 4 5 5 15 6 4 7 12 8 16 9 13 10 17 11 31 12
REMARK SMILES IDX 14 13 18 14 30 15 32 16 19 17 29 18 21 19 20 20 28 21 22 22
REMARK SMILES IDX 25 23 23 24 26 25 27 26 8 27 9 28 10 29 2 30 3 31 1 32 24 33
REMARK H PARENT 24 34
REMARK Flexibility Score: inf
ROOT
ATOM      1  C   UNL     1      96.918 -63.767 103.702  1.00  0.00     0.014 C 
ATOM      2  C   UNL     1      97.898 -64.900 103.313  1.00  0.00     0.014 C 
ATOM      3  C   UNL     1      95.960 -64.450 104.725  1.00  0.00     0.012 C 
ATOM      4  C   UNL     1      96.225 -63.128 102.463  1.00  0.00     0.014 C 
ATOM      5  C   UNL     1      97.930 -65.896 104.479  1.00  0.00     0.009 C 
ATOM      6  C   UNL     1      94.665 -65.110 104.102  1.00  0.00     0.000 C 
ATOM      7  C   UNL     1      96.864 -65.446 105.497  1.00  0.00     0.018 C 
ATOM      8  C   UNL     1      94.901 -63.753 101.993  1.00  0.00     0.008 C 
ATOM      9  C   UNL     1      94.913 -66.467 103.416  1.00  0.00     0.005 C 
ATOM     10  C   UNL     1      93.901 -64.138 103.137  1.00  0.00    -0.024 C 
ATOM     11  C   UNL     1      93.616 -67.130 103.016  1.00  0.00     0.005 C 
ATOM     12  C   UNL     1      92.543 -64.809 102.525  1.00  0.00    -0.024 C 
ATOM     13  C   UNL     1      93.544 -62.840 103.949  1.00  0.00     0.012 C 
ATOM     14  C   UNL     1      92.769 -66.309 102.007  1.00  0.00     0.002 C 
ATOM     15  C   UNL     1      91.412 -64.833 103.607  1.00  0.00     0.008 C 
ATOM     16  C   UNL     1      92.055 -63.907 101.339  1.00  0.00     0.012 C 
ATOM     17  C   UNL     1      91.423 -67.100 101.587  1.00  0.00    -0.026 C 
ATOM     18  C   UNL     1      90.117 -65.550 103.193  1.00  0.00     0.005 C 
ATOM     19  C   UNL     1      91.704 -68.625 101.341  1.00  0.00     0.010 C 
ATOM     20  C   UNL     1      90.897 -66.515 100.231  1.00  0.00     0.012 C 
ATOM     21  C   UNL     1      90.370 -67.010 102.758  1.00  0.00     0.003 C 
ATOM     22  C   UNL     1      90.444 -69.470 101.090  1.00  0.00     0.033 C 
ATOM     23  C   UNL     1      89.055 -67.885 102.584  1.00  0.00    -0.006 C 
ATOM     24  C   UNL     1      89.458 -69.360 102.261  1.00  0.00     0.120 C 
ATOM     25  C   UNL     1      88.269 -67.915 103.927  1.00  0.00     0.014 C 
ATOM     26  C   UNL     1      88.081 -67.338 101.507  1.00  0.00     0.014 C 
ENDROOT
BRANCH   1  27
ATOM     27  C   UNL     1      97.704 -62.635 104.369  1.00  0.00     0.048 C 
ATOM     28  O   UNL     1      98.962 -62.598 104.308  1.00  0.00    -0.550 OA
ATOM     29  O   UNL     1      97.055 -61.709 105.180  1.00  0.00    -0.550 OA
ENDBRANCH   1  27
BRANCH   7  30
ATOM     30  C   UNL     1      97.416 -64.829 106.790  1.00  0.00    -0.077 C 
ATOM     31  C   UNL     1      98.889 -64.761 107.136  1.00  0.00     0.039 C 
ATOM     32  C   UNL     1      96.546 -64.322 107.679  1.00  0.00     0.008 C 
ENDBRANCH   7  30
BRANCH  24  33
ATOM     33  O   UNL     1      88.316 -70.133 101.980  1.00  0.00    -0.393 OA
ATOM     34  H   UNL     1      87.680 -69.546 101.495  1.00  0.00     0.210 HD
ENDBRANCH  24  33
TORSDOF 3
ENDMDL
MODEL 2
REMARK VINA RESULT:    -7.115      1.630      8.166
REMARK INTER + INTRA:          -8.949
REMARK INTER:                  -8.141
REMARK INTRA:                  -0.808
REMARK UNBOUND:                -0.794
REMARK SMILES C=C(C)[C@@H]1CC[C@@]2(C(=O)[O-])CC[C@]3(C)[C@@H](CC[C@H]4[C@@]5(C)CC[C@H](O)C(C)(C)[C@@H]5CC[C@]43C)[C@@H]12
REMARK SMILES IDX 7 1 6 2 33 3 11 4 5 5 15 6 4 7 12 8 16 9 13 10 17 11 31 12
REMARK SMILES IDX 14 13 18 14 30 15 32 16 19 17 29 18 21 19 20 20 28 21 22 22
REMARK SMILES IDX 25 23 23 24 26 25 27 26 8 27 9 28 10 29 2 30 3 31 1 32 24 33
REMARK H PARENT 24 34
REMARK Flexibility Score: inf
ROOT
ATOM      1  C   UNL     1      90.703 -66.152 102.464  1.00  0.00     0.014 C 
ATOM      2  C   UNL     1      90.334 -67.008 103.699  1.00  0.00     0.014 C 
ATOM      3  C   UNL     1      92.120 -66.674 102.070  1.00  0.00     0.012 C 
ATOM      4  C   UNL     1      90.611 -64.624 102.750  1.00  0.00     0.014 C 
ATOM      5  C   UNL     1      91.125 -68.318 103.599  1.00  0.00     0.009 C 
ATOM      6  C   UNL     1      93.332 -65.908 102.738  1.00  0.00     0.000 C 
ATOM      7  C   UNL     1      92.078 -68.190 102.394  1.00  0.00     0.018 C 
ATOM      8  C   UNL     1      91.874 -63.927 103.282  1.00  0.00     0.008 C 
ATOM      9  C   UNL     1      93.591 -66.291 104.208  1.00  0.00     0.005 C 
ATOM     10  C   UNL     1      93.214 -64.351 102.588  1.00  0.00    -0.024 C 
ATOM     11  C   UNL     1      94.870 -65.674 104.723  1.00  0.00     0.005 C 
ATOM     12  C   UNL     1      94.488 -63.566 103.244  1.00  0.00    -0.024 C 
ATOM     13  C   UNL     1      93.110 -64.025 101.054  1.00  0.00     0.012 C 
ATOM     14  C   UNL     1      94.882 -64.122 104.695  1.00  0.00     0.002 C 
ATOM     15  C   UNL     1      95.742 -63.691 102.316  1.00  0.00     0.008 C 
ATOM     16  C   UNL     1      94.113 -62.046 103.345  1.00  0.00     0.012 C 
ATOM     17  C   UNL     1      96.257 -63.533 105.305  1.00  0.00    -0.026 C 
ATOM     18  C   UNL     1      97.042 -63.094 102.881  1.00  0.00     0.005 C 
ATOM     19  C   UNL     1      96.696 -64.313 106.595  1.00  0.00     0.010 C 
ATOM     20  C   UNL     1      96.020 -62.045 105.738  1.00  0.00     0.012 C 
ATOM     21  C   UNL     1      97.418 -63.700 104.250  1.00  0.00     0.003 C 
ATOM     22  C   UNL     1      98.076 -63.910 107.142  1.00  0.00     0.033 C 
ATOM     23  C   UNL     1      98.880 -63.334 104.754  1.00  0.00    -0.006 C 
ATOM     24  C   UNL     1      99.172 -64.103 106.084  1.00  0.00     0.120 C 
ATOM     25  C   UNL     1      99.927 -63.821 103.712  1.00  0.00     0.014 C 
ATOM     26  C   UNL     1      99.110 -61.811 104.944  1.00  0.00     0.014 C 
ENDROOT
BRANCH   1  27
ATOM     27  C   UNL     1      89.695 -66.428 101.346  1.00  0.00     0.048 C 
ATOM     28  O   UNL     1      89.919 -66.048 100.165  1.00  0.00    -0.550 OA
ATOM     29  O   UNL     1      88.448 -66.971 101.640  1.00  0.00    -0.550 OA
ENDBRANCH   1  27
BRANCH   7  30
ATOM     30  C   UNL     1      91.691 -69.025 101.165  1.00  0.00    -0.077 C 
ATOM     31  C   UNL     1      90.628 -70.102 101.172  1.00  0.00     0.039 C 
ATOM     32  C   UNL     1      92.336 -68.796 100.009  1.00  0.00     0.008 C 
ENDBRANCH   7  30
BRANCH  24  33
ATOM     33  O   UNL     1     100.410 -63.705 106.621  1.00  0.00    -0.393 OA
ATOM     34  H   UNL     1     100.280 -63.594 107.599  1.00  0.00     0.210 HD
ENDBRANCH  24  33
TORSDOF 3
ENDMDL
MODEL 3
REMARK VINA RESULT:    -7.038      2.726      5.309
REMARK INTER + INTRA:          -8.860
REMARK INTER:                  -8.068
REMARK INTRA:                  -0.791
REMARK UNBOUND:                -0.794
REMARK SMILES C=C(C)[C@@H]1CC[C@@]2(C(=O)[O-])CC[C@]3(C)[C@@H](CC[C@H]4[C@@]5(C)CC[C@H](O)C(C)(C)[C@@H]5CC[C@]43C)[C@@H]12
REMARK SMILES IDX 7 1 6 2 33 3 11 4 5 5 15 6 4 7 12 8 16 9 13 10 17 11 31 12
REMARK SMILES IDX 14 13 18 14 30 15 32 16 19 17 29 18 21 19 20 20 28 21 22 22
REMARK SMILES IDX 25 23 23 24 26 25 27 26 8 27 9 28 10 29 2 30 3 31 1 32 24 33
REMARK H PARENT 24 34
REMARK Flexibility Score: inf
ROOT
ATOM      1  C   UNL     1     100.078 -63.829 105.834  1.00  0.00     0.014 C 
ATOM      2  C   UNL     1     100.058 -62.303 106.088  1.00  0.00     0.014 C 
ATOM      3  C   UNL     1      99.876 -63.943 104.291  1.00  0.00     0.012 C 
ATOM      4  C   UNL     1      99.031 -64.591 106.701  1.00  0.00     0.014 C 
ATOM      5  C   UNL     1     100.491 -61.617 104.786  1.00  0.00     0.009 C 
ATOM      6  C   UNL     1      98.373 -64.064 103.813  1.00  0.00     0.000 C 
ATOM      7  C   UNL     1     100.623 -62.714 103.711  1.00  0.00     0.018 C 
ATOM      8  C   UNL     1      97.624 -64.776 106.111  1.00  0.00     0.008 C 
ATOM      9  C   UNL     1      97.595 -62.734 103.825  1.00  0.00     0.005 C 
ATOM     10  C   UNL     1      97.582 -65.171 104.595  1.00  0.00    -0.024 C 
ATOM     11  C   UNL     1      96.237 -62.882 103.179  1.00  0.00     0.005 C 
ATOM     12  C   UNL     1      96.041 -65.320 104.071  1.00  0.00    -0.024 C 
ATOM     13  C   UNL     1      98.350 -66.529 104.409  1.00  0.00     0.012 C 
ATOM     14  C   UNL     1      95.308 -63.907 103.883  1.00  0.00     0.002 C 
ATOM     15  C   UNL     1      96.002 -66.076 102.701  1.00  0.00     0.008 C 
ATOM     16  C   UNL     1      95.261 -66.185 105.121  1.00  0.00     0.012 C 
ATOM     17  C   UNL     1      93.860 -63.976 103.170  1.00  0.00    -0.026 C 
ATOM     18  C   UNL     1      94.616 -66.176 102.043  1.00  0.00     0.005 C 
ATOM     19  C   UNL     1      93.333 -62.545 102.796  1.00  0.00     0.010 C 
ATOM     20  C   UNL     1      92.828 -64.584 104.181  1.00  0.00     0.012 C 
ATOM     21  C   UNL     1      93.971 -64.791 101.824  1.00  0.00     0.003 C 
ATOM     22  C   UNL     1      92.033 -62.541 101.974  1.00  0.00     0.033 C 
ATOM     23  C   UNL     1      92.675 -64.804 100.905  1.00  0.00    -0.006 C 
ATOM     24  C   UNL     1      92.196 -63.335 100.670  1.00  0.00     0.120 C 
ATOM     25  C   UNL     1      93.033 -65.391  99.509  1.00  0.00     0.014 C 
ATOM     26  C   UNL     1      91.518 -65.670 101.472  1.00  0.00     0.014 C 
ENDROOT
BRANCH   1  27
ATOM     27  C   UNL     1     101.443 -64.387 106.243  1.00  0.00     0.048 C 
ATOM     28  O   UNL     1     102.290 -63.658 106.825  1.00  0.00    -0.550 OA
ATOM     29  O   UNL     1     101.830 -65.664 105.849  1.00  0.00    -0.550 OA
ENDBRANCH   1  27
BRANCH   7  30
ATOM     30  C   UNL     1     102.063 -63.062 103.307  1.00  0.00    -0.077 C 
ATOM     31  C   UNL     1     103.273 -62.237 103.688  1.00  0.00     0.039 C 
ATOM     32  C   UNL     1     102.270 -64.161 102.563  1.00  0.00     0.008 C 
ENDBRANCH   7  30
BRANCH  24  33
ATOM     33  O   UNL     1      90.980 -63.319  99.963  1.00  0.00    -0.393 OA
ATOM     34  H   UNL     1      91.122 -63.837  99.128  1.00  0.00     0.210 HD
ENDBRANCH  24  33
TORSDOF 3
ENDMDL
MODEL 4
REMARK VINA RESULT:    -7.012      4.988     11.243
REMARK INTER + INTRA:          -8.831
REMARK INTER:                  -8.072
REMARK INTRA:                  -0.759
REMARK UNBOUND:                -0.794
REMARK SMILES C=C(C)[C@@H]1CC[C@@]2(C(=O)[O-])CC[C@]3(C)[C@@H](CC[C@H]4[C@@]5(C)CC[C@H](O)C(C)(C)[C@@H]5CC[C@]43C)[C@@H]12
REMARK SMILES IDX 7 1 6 2 33 3 11 4 5 5 15 6 4 7 12 8 16 9 13 10 17 11 31 12
REMARK SMILES IDX 14 13 18 14 30 15 32 16 19 17 29 18 21 19 20 20 28 21 22 22
REMARK SMILES IDX 25 23 23 24 26 25 27 26 8 27 9 28 10 29 2 30 3 31 1 32 24 33
REMARK H PARENT 24 34
REMARK Flexibility Score: inf
ROOT
ATOM      1  C   UNL     1      97.672 -64.308 105.262  1.00  0.00     0.014 C 
ATOM      2  C   UNL     1      97.508 -65.123 103.957  1.00  0.00     0.014 C 
ATOM      3  C   UNL     1      97.887 -62.849 104.756  1.00  0.00     0.012 C 
ATOM      4  C   UNL     1      98.802 -64.870 106.175  1.00  0.00     0.014 C 
ATOM      5  C   UNL     1      96.995 -64.159 102.879  1.00  0.00     0.009 C 
ATOM      6  C   UNL     1      99.393 -62.431 104.517  1.00  0.00     0.000 C 
ATOM      7  C   UNL     1      96.997 -62.744 103.490  1.00  0.00     0.018 C 
ATOM      8  C   UNL     1     100.222 -64.320 105.964  1.00  0.00     0.008 C 
ATOM      9  C   UNL     1     100.005 -62.981 103.215  1.00  0.00     0.005 C 
ATOM     10  C   UNL     1     100.311 -62.770 105.743  1.00  0.00    -0.024 C 
ATOM     11  C   UNL     1     101.371 -62.391 102.953  1.00  0.00     0.005 C 
ATOM     12  C   UNL     1     101.859 -62.302 105.509  1.00  0.00    -0.024 C 
ATOM     13  C   UNL     1      99.713 -62.049 107.004  1.00  0.00     0.012 C 
ATOM     14  C   UNL     1     102.417 -62.696 104.059  1.00  0.00     0.002 C 
ATOM     15  C   UNL     1     101.990 -60.751 105.675  1.00  0.00     0.008 C 
ATOM     16  C   UNL     1     102.738 -62.980 106.616  1.00  0.00     0.012 C 
ATOM     17  C   UNL     1     103.863 -62.079 103.689  1.00  0.00    -0.026 C 
ATOM     18  C   UNL     1     103.377 -60.168 105.362  1.00  0.00     0.005 C 
ATOM     19  C   UNL     1     104.214 -62.299 102.174  1.00  0.00     0.010 C 
ATOM     20  C   UNL     1     104.961 -62.831 104.518  1.00  0.00     0.012 C 
ATOM     21  C   UNL     1     103.851 -60.521 103.935  1.00  0.00     0.003 C 
ATOM     22  C   UNL     1     105.505 -61.602 101.713  1.00  0.00     0.033 C 
ATOM     23  C   UNL     1     105.140 -59.726 103.452  1.00  0.00    -0.006 C 
ATOM     24  C   UNL     1     105.438 -60.088 101.962  1.00  0.00     0.120 C 
ATOM     25  C   UNL     1     104.856 -58.197 103.498  1.00  0.00     0.014 C 
ATOM     26  C   UNL     1     106.393 -59.976 104.335  1.00  0.00     0.014 C 
ENDROOT
BRANCH   1  27
ATOM     27  C   UNL     1      96.383 -64.413 106.082  1.00  0.00     0.048 C 
ATOM     28  O   UNL     1      96.298 -63.881 107.221  1.00  0.00    -0.550 OA
ATOM     29  O   UNL     1      95.336 -65.221 105.649  1.00  0.00    -0.550 OA
ENDBRANCH   1  27
BRANCH   7  30
ATOM     30  C   UNL     1      95.610 -62.172 103.814  1.00  0.00    -0.077 C 
ATOM     31  C   UNL     1      94.314 -62.727 103.263  1.00  0.00     0.039 C 
ATOM     32  C   UNL     1      95.532 -61.109 104.632  1.00  0.00     0.008 C 
ENDBRANCH   7  30
BRANCH  24  33
ATOM     33  O   UNL     1     106.644 -59.496 101.542  1.00  0.00    -0.393 OA
ATOM     34  H   UNL     1     107.079 -60.135 100.919  1.00  0.00     0.210 HD
ENDBRANCH  24  33
TORSDOF 3
ENDMDL
MODEL 5
REMARK VINA RESULT:    -6.972      5.499     10.480
REMARK INTER + INTRA:          -8.785
REMARK INTER:                  -7.977
REMARK INTRA:                  -0.808
REMARK UNBOUND:                -0.794
REMARK SMILES C=C(C)[C@@H]1CC[C@@]2(C(=O)[O-])CC[C@]3(C)[C@@H](CC[C@H]4[C@@]5(C)CC[C@H](O)C(C)(C)[C@@H]5CC[C@]43C)[C@@H]12
REMARK SMILES IDX 7 1 6 2 33 3 11 4 5 5 15 6 4 7 12 8 16 9 13 10 17 11 31 12
REMARK SMILES IDX 14 13 18 14 30 15 32 16 19 17 29 18 21 19 20 20 28 21 22 22
REMARK SMILES IDX 25 23 23 24 26 25 27 26 8 27 9 28 10 29 2 30 3 31 1 32 24 33
REMARK H PARENT 24 34
REMARK Flexibility Score: inf
ROOT
ATOM      1  C   UNL     1      99.672 -64.191 105.664  1.00  0.00     0.014 C 
ATOM      2  C   UNL     1      99.253 -65.679 105.607  1.00  0.00     0.014 C 
ATOM      3  C   UNL     1      99.246 -63.640 104.268  1.00  0.00     0.012 C 
ATOM      4  C   UNL     1     101.177 -64.010 106.021  1.00  0.00     0.014 C 
ATOM      5  C   UNL     1      98.110 -65.793 104.591  1.00  0.00     0.009 C 
ATOM      6  C   UNL     1     100.353 -63.722 103.142  1.00  0.00     0.000 C 
ATOM      7  C   UNL     1      97.945 -64.411 103.928  1.00  0.00     0.018 C 
ATOM      8  C   UNL     1     102.181 -63.976 104.857  1.00  0.00     0.008 C 
ATOM      9  C   UNL     1     100.540 -65.127 102.539  1.00  0.00     0.005 C 
ATOM     10  C   UNL     1     101.731 -63.137 103.611  1.00  0.00    -0.024 C 
ATOM     11  C   UNL     1     101.466 -65.098 101.345  1.00  0.00     0.005 C 
ATOM     12  C   UNL     1     102.862 -63.188 102.433  1.00  0.00    -0.024 C 
ATOM     13  C   UNL     1     101.491 -61.652 104.066  1.00  0.00     0.012 C 
ATOM     14  C   UNL     1     102.899 -64.595 101.666  1.00  0.00     0.002 C 
ATOM     15  C   UNL     1     102.597 -62.064 101.376  1.00  0.00     0.008 C 
ATOM     16  C   UNL     1     104.256 -62.909 103.094  1.00  0.00     0.012 C 
ATOM     17  C   UNL     1     103.845 -64.639 100.357  1.00  0.00    -0.026 C 
ATOM     18  C   UNL     1     103.525 -62.081 100.149  1.00  0.00     0.005 C 
ATOM     19  C   UNL     1     103.626 -65.955  99.531  1.00  0.00     0.010 C 
ATOM     20  C   UNL     1     105.344 -64.641 100.818  1.00  0.00     0.012 C 
ATOM     21  C   UNL     1     103.486 -63.433  99.405  1.00  0.00     0.003 C 
ATOM     22  C   UNL     1     104.378 -65.996  98.190  1.00  0.00     0.033 C 
ATOM     23  C   UNL     1     104.199 -63.426  97.985  1.00  0.00    -0.006 C 
ATOM     24  C   UNL     1     103.985 -64.812  97.295  1.00  0.00     0.120 C 
ATOM     25  C   UNL     1     103.532 -62.358  97.072  1.00  0.00     0.014 C 
ATOM     26  C   UNL     1     105.711 -63.079  98.050  1.00  0.00     0.014 C 
ENDROOT
BRANCH   1  27
ATOM     27  C   UNL     1      98.892 -63.495 106.782  1.00  0.00     0.048 C 
ATOM     28  O   UNL     1      98.894 -62.239 106.886  1.00  0.00    -0.550 OA
ATOM     29  O   UNL     1      98.289 -64.241 107.790  1.00  0.00    -0.550 OA
ENDBRANCH   1  27
BRANCH   7  30
ATOM     30  C   UNL     1      96.692 -63.631 104.352  1.00  0.00    -0.077 C 
ATOM     31  C   UNL     1      95.553 -64.225 105.153  1.00  0.00     0.039 C 
ATOM     32  C   UNL     1      96.589 -62.341 103.988  1.00  0.00     0.008 C 
ENDBRANCH   7  30
BRANCH  24  33
ATOM     33  O   UNL     1     104.709 -64.880  96.090  1.00  0.00    -0.393 OA
ATOM     34  H   UNL     1     104.566 -65.789  95.717  1.00  0.00     0.210 HD
ENDBRANCH  24  33
TORSDOF 3
ENDMDL
MODEL 6
REMARK VINA RESULT:    -6.914      3.300      9.441
REMARK INTER + INTRA:          -8.718
REMARK INTER:                  -7.974
REMARK INTRA:                  -0.744
REMARK UNBOUND:                -0.794
REMARK SMILES C=C(C)[C@@H]1CC[C@@]2(C(=O)[O-])CC[C@]3(C)[C@@H](CC[C@H]4[C@@]5(C)CC[C@H](O)C(C)(C)[C@@H]5CC[C@]43C)[C@@H]12
REMARK SMILES IDX 7 1 6 2 33 3 11 4 5 5 15 6 4 7 12 8 16 9 13 10 17 11 31 12
REMARK SMILES IDX 14 13 18 14 30 15 32 16 19 17 29 18 21 19 20 20 28 21 22 22
REMARK SMILES IDX 25 23 23 24 26 25 27 26 8 27 9 28 10 29 2 30 3 31 1 32 24 33
REMARK H PARENT 24 34
REMARK Flexibility Score: inf
ROOT
ATOM      1  C   UNL     1      94.360 -64.931 103.566  1.00  0.00     0.014 C 
ATOM      2  C   UNL     1      94.636 -65.488 102.149  1.00  0.00     0.014 C 
ATOM      3  C   UNL     1      94.986 -63.503 103.523  1.00  0.00     0.012 C 
ATOM      4  C   UNL     1      94.904 -65.864 104.688  1.00  0.00     0.014 C 
ATOM      5  C   UNL     1      94.775 -64.287 101.205  1.00  0.00     0.009 C 
ATOM      6  C   UNL     1      96.498 -63.414 103.978  1.00  0.00     0.000 C 
ATOM      7  C   UNL     1      94.736 -63.014 102.073  1.00  0.00     0.018 C 
ATOM      8  C   UNL     1      96.347 -65.632 105.164  1.00  0.00     0.008 C 
ATOM      9  C   UNL     1      97.508 -63.897 102.919  1.00  0.00     0.005 C 
ATOM     10  C   UNL     1      96.755 -64.130 105.350  1.00  0.00    -0.024 C 
ATOM     11  C   UNL     1      98.930 -63.606 103.338  1.00  0.00     0.005 C 
ATOM     12  C   UNL     1      98.310 -64.002 105.836  1.00  0.00    -0.024 C 
ATOM     13  C   UNL     1      95.801 -63.479 106.416  1.00  0.00     0.012 C 
ATOM     14  C   UNL     1      99.357 -64.301 104.659  1.00  0.00     0.002 C 
ATOM     15  C   UNL     1      98.593 -62.564 106.385  1.00  0.00     0.008 C 
ATOM     16  C   UNL     1      98.530 -65.018 107.010  1.00  0.00     0.012 C 
ATOM     17  C   UNL     1     100.901 -63.987 105.018  1.00  0.00    -0.026 C 
ATOM     18  C   UNL     1     100.055 -62.278 106.765  1.00  0.00     0.005 C 
ATOM     19  C   UNL     1     101.815 -64.061 103.744  1.00  0.00     0.010 C 
ATOM     20  C   UNL     1     101.422 -65.084 106.009  1.00  0.00     0.012 C 
ATOM     21  C   UNL     1     101.023 -62.521 105.587  1.00  0.00     0.003 C 
ATOM     22  C   UNL     1     103.270 -63.621 103.980  1.00  0.00     0.033 C 
ATOM     23  C   UNL     1     102.500 -61.984 105.824  1.00  0.00    -0.006 C 
ATOM     24  C   UNL     1     103.336 -62.185 104.520  1.00  0.00     0.120 C 
ATOM     25  C   UNL     1     102.458 -60.454 106.103  1.00  0.00     0.014 C 
ATOM     26  C   UNL     1     103.214 -62.640 107.036  1.00  0.00     0.014 C 
ENDROOT
BRANCH   1  27
ATOM     27  C   UNL     1      92.847 -64.853 103.786  1.00  0.00     0.048 C 
ATOM     28  O   UNL     1      92.359 -64.073 104.647  1.00  0.00    -0.550 OA
ATOM     29  O   UNL     1      91.994 -65.746 103.145  1.00  0.00    -0.550 OA
ENDBRANCH   1  27
BRANCH   7  30
ATOM     30  C   UNL     1      93.444 -62.191 101.965  1.00  0.00    -0.077 C 
ATOM     31  C   UNL     1      92.281 -62.552 101.067  1.00  0.00     0.039 C 
ATOM     32  C   UNL     1      93.334 -61.074 102.705  1.00  0.00     0.008 C 
ENDBRANCH   7  30
BRANCH  24  33
ATOM     33  O   UNL     1     104.681 -61.834 104.737  1.00  0.00    -0.393 OA
ATOM     34  H   UNL     1     105.232 -62.420 104.155  1.00  0.00     0.210 HD
ENDBRANCH  24  33
TORSDOF 3
ENDMDL
MODEL 7
REMARK VINA RESULT:    -6.886      2.575      8.466
REMARK INTER + INTRA:          -8.686
REMARK INTER:                  -7.908
REMARK INTRA:                  -0.778
REMARK UNBOUND:                -0.794
REMARK SMILES C=C(C)[C@@H]1CC[C@@]2(C(=O)[O-])CC[C@]3(C)[C@@H](CC[C@H]4[C@@]5(C)CC[C@H](O)C(C)(C)[C@@H]5CC[C@]43C)[C@@H]12
REMARK SMILES IDX 7 1 6 2 33 3 11 4 5 5 15 6 4 7 12 8 16 9 13 10 17 11 31 12
REMARK SMILES IDX 14 13 18 14 30 15 32 16 19 17 29 18 21 19 20 20 28 21 22 22
REMARK SMILES IDX 25 23 23 24 26 25 27 26 8 27 9 28 10 29 2 30 3 31 1 32 24 33
REMARK H PARENT 24 34
REMARK Flexibility Score: inf
ROOT
ATOM      1  C   UNL     1      92.491 -64.754 102.756  1.00  0.00     0.014 C 
ATOM      2  C   UNL     1      92.016 -65.987 103.562  1.00  0.00     0.014 C 
ATOM      3  C   UNL     1      93.809 -65.246 102.082  1.00  0.00     0.012 C 
ATOM      4  C   UNL     1      92.631 -63.481 103.643  1.00  0.00     0.014 C 
ATOM      5  C   UNL     1      92.603 -67.230 102.881  1.00  0.00     0.009 C 
ATOM      6  C   UNL     1      95.130 -64.987 102.912  1.00  0.00     0.000 C 
ATOM      7  C   UNL     1      93.548 -66.741 101.766  1.00  0.00     0.018 C 
ATOM      8  C   UNL     1      93.990 -63.235 104.318  1.00  0.00     0.008 C 
ATOM      9  C   UNL     1      95.350 -65.971 104.077  1.00  0.00     0.005 C 
ATOM     10  C   UNL     1      95.242 -63.505 103.415  1.00  0.00    -0.024 C 
ATOM     11  C   UNL     1      96.713 -65.793 104.702  1.00  0.00     0.005 C 
ATOM     12  C   UNL     1      96.627 -63.232 104.238  1.00  0.00    -0.024 C 
ATOM     13  C   UNL     1      95.167 -62.566 102.157  1.00  0.00     0.012 C 
ATOM     14  C   UNL     1      96.955 -64.383 105.305  1.00  0.00     0.002 C 
ATOM     15  C   UNL     1      97.836 -63.125 103.250  1.00  0.00     0.008 C 
ATOM     16  C   UNL     1      96.483 -61.855 104.973  1.00  0.00     0.012 C 
ATOM     17  C   UNL     1      98.410 -64.280 105.999  1.00  0.00    -0.026 C 
ATOM     18  C   UNL     1      99.218 -62.987 103.911  1.00  0.00     0.005 C 
ATOM     19  C   UNL     1      98.746 -65.572 106.826  1.00  0.00     0.010 C 
ATOM     20  C   UNL     1      98.402 -63.086 107.015  1.00  0.00     0.012 C 
ATOM     21  C   UNL     1      99.519 -64.146 104.885  1.00  0.00     0.003 C 
ATOM     22  C   UNL     1     100.178 -65.612 107.387  1.00  0.00     0.033 C 
ATOM     23  C   UNL     1     101.025 -64.214 105.386  1.00  0.00    -0.006 C 
ATOM     24  C   UNL     1     101.219 -65.492 106.264  1.00  0.00     0.120 C 
ATOM     25  C   UNL     1     101.974 -64.359 104.161  1.00  0.00     0.014 C 
ATOM     26  C   UNL     1     101.482 -62.947 106.159  1.00  0.00     0.014 C 
ENDROOT
BRANCH   1  27
ATOM     27  C   UNL     1      91.437 -64.412 101.699  1.00  0.00     0.048 C 
ATOM     28  O   UNL     1      90.319 -64.992 101.691  1.00  0.00    -0.550 OA
ATOM     29  O   UNL     1      91.750 -63.564 100.641  1.00  0.00    -0.550 OA
ENDBRANCH   1  27
BRANCH   7  30
ATOM     30  C   UNL     1      93.024 -66.938 100.336  1.00  0.00    -0.077 C 
ATOM     31  C   UNL     1      93.572 -66.214  99.125  1.00  0.00     0.039 C 
ATOM     32  C   UNL     1      92.012 -67.800 100.139  1.00  0.00     0.008 C 
ENDBRANCH   7  30
BRANCH  24  33
ATOM     33  O   UNL     1     102.510 -65.515 106.824  1.00  0.00    -0.393 OA
ATOM     34  H   UNL     1     102.888 -66.414 106.643  1.00  0.00     0.210 HD
ENDBRANCH  24  33
TORSDOF 3
ENDMDL
MODEL 8
REMARK VINA RESULT:    -6.834      1.546      8.212
REMARK INTER + INTRA:          -8.626
REMARK INTER:                  -7.911
REMARK INTRA:                  -0.715
REMARK UNBOUND:                -0.794
REMARK SMILES C=C(C)[C@@H]1CC[C@@]2(C(=O)[O-])CC[C@]3(C)[C@@H](CC[C@H]4[C@@]5(C)CC[C@H](O)C(C)(C)[C@@H]5CC[C@]43C)[C@@H]12
REMARK SMILES IDX 7 1 6 2 33 3 11 4 5 5 15 6 4 7 12 8 16 9 13 10 17 11 31 12
REMARK SMILES IDX 14 13 18 14 30 15 32 16 19 17 29 18 21 19 20 20 28 21 22 22
REMARK SMILES IDX 25 23 23 24 26 25 27 26 8 27 9 28 10 29 2 30 3 31 1 32 24 33
REMARK H PARENT 24 34
REMARK Flexibility Score: inf
ROOT
ATOM      1  C   UNL     1      89.756 -67.230 100.910  1.00  0.00     0.014 C 
ATOM      2  C   UNL     1      88.731 -66.444 101.762  1.00  0.00     0.014 C 
ATOM      3  C   UNL     1      90.685 -67.891 101.975  1.00  0.00     0.012 C 
ATOM      4  C   UNL     1      90.477 -66.327  99.865  1.00  0.00     0.014 C 
ATOM      5  C   UNL     1      88.656 -67.130 103.132  1.00  0.00     0.009 C 
ATOM      6  C   UNL     1      91.951 -67.040 102.389  1.00  0.00     0.000 C 
ATOM      7  C   UNL     1      89.739 -68.227 103.157  1.00  0.00     0.018 C 
ATOM      8  C   UNL     1      91.775 -65.631 100.307  1.00  0.00     0.008 C 
ATOM      9  C   UNL     1      91.648 -65.882 103.360  1.00  0.00     0.005 C 
ATOM     10  C   UNL     1      92.756 -66.519 101.147  1.00  0.00    -0.024 C 
ATOM     11  C   UNL     1      92.917 -65.236 103.863  1.00  0.00     0.005 C 
ATOM     12  C   UNL     1      94.086 -65.673 101.578  1.00  0.00    -0.024 C 
ATOM     13  C   UNL     1      93.166 -67.767 100.284  1.00  0.00     0.012 C 
ATOM     14  C   UNL     1      93.799 -64.615 102.747  1.00  0.00     0.002 C 
ATOM     15  C   UNL     1      95.214 -66.643 102.066  1.00  0.00     0.008 C 
ATOM     16  C   UNL     1      94.612 -64.926 100.304  1.00  0.00     0.012 C 
ATOM     17  C   UNL     1      95.111 -63.899 103.362  1.00  0.00    -0.026 C 
ATOM     18  C   UNL     1      96.479 -65.962 102.614  1.00  0.00     0.005 C 
ATOM     19  C   UNL     1      94.767 -63.081 104.658  1.00  0.00     0.010 C 
ATOM     20  C   UNL     1      95.662 -62.871 102.315  1.00  0.00     0.012 C 
ATOM     21  C   UNL     1      96.165 -64.996 103.777  1.00  0.00     0.003 C 
ATOM     22  C   UNL     1      95.991 -62.501 105.386  1.00  0.00     0.033 C 
ATOM     23  C   UNL     1      97.443 -64.475 104.565  1.00  0.00    -0.006 C 
ATOM     24  C   UNL     1      96.980 -63.608 105.780  1.00  0.00     0.120 C 
ATOM     25  C   UNL     1      98.226 -65.687 105.147  1.00  0.00     0.014 C 
ATOM     26  C   UNL     1      98.441 -63.681 103.679  1.00  0.00     0.014 C 
ENDROOT
BRANCH   1  27
ATOM     27  C   UNL     1      89.017 -68.298 100.098  1.00  0.00     0.048 C 
ATOM     28  O   UNL     1      89.643 -69.064  99.318  1.00  0.00    -0.550 OA
ATOM     29  O   UNL     1      87.627 -68.343 100.095  1.00  0.00    -0.550 OA
ENDBRANCH   1  27
BRANCH   7  30
ATOM     30  C   UNL     1      89.211 -69.666 103.073  1.00  0.00    -0.077 C 
ATOM     31  C   UNL     1      89.967 -70.811 102.435  1.00  0.00     0.039 C 
ATOM     32  C   UNL     1      88.000 -69.933 103.591  1.00  0.00     0.008 C 
ENDBRANCH   7  30
BRANCH  24  33
ATOM     33  O   UNL     1      98.089 -63.030 106.425  1.00  0.00    -0.393 OA
ATOM     34  H   UNL     1      98.484 -63.731 107.006  1.00  0.00     0.210 HD
ENDBRANCH  24  33
TORSDOF 3
ENDMDL
MODEL 9
REMARK VINA RESULT:    -6.598      2.091      8.551
REMARK INTER + INTRA:          -8.356
REMARK INTER:                  -7.559
REMARK INTRA:                  -0.797
REMARK UNBOUND:                -0.794
REMARK SMILES C=C(C)[C@@H]1CC[C@@]2(C(=O)[O-])CC[C@]3(C)[C@@H](CC[C@H]4[C@@]5(C)CC[C@H](O)C(C)(C)[C@@H]5CC[C@]43C)[C@@H]12
REMARK SMILES IDX 7 1 6 2 33 3 11 4 5 5 15 6 4 7 12 8 16 9 13 10 17 11 31 12
REMARK SMILES IDX 14 13 18 14 30 15 32 16 19 17 29 18 21 19 20 20 28 21 22 22
REMARK SMILES IDX 25 23 23 24 26 25 27 26 8 27 9 28 10 29 2 30 3 31 1 32 24 33
REMARK H PARENT 24 34
REMARK Flexibility Score: inf
ROOT
ATOM      1  C   UNL     1      90.021 -68.450  99.664  1.00  0.00     0.014 C 
ATOM      2  C   UNL     1      91.043 -69.166  98.749  1.00  0.00     0.014 C 
ATOM      3  C   UNL     1      90.324 -66.937  99.433  1.00  0.00     0.012 C 
ATOM      4  C   UNL     1      90.109 -68.929 101.143  1.00  0.00     0.014 C 
ATOM      5  C   UNL     1      91.406 -68.193  97.620  1.00  0.00     0.009 C 
ATOM      6  C   UNL     1      91.383 -66.301 100.420  1.00  0.00     0.000 C 
ATOM      7  C   UNL     1      90.725 -66.847  97.937  1.00  0.00     0.018 C 
ATOM      8  C   UNL     1      91.073 -68.176 102.074  1.00  0.00     0.008 C 
ATOM      9  C   UNL     1      92.846 -66.653 100.092  1.00  0.00     0.005 C 
ATOM     10  C   UNL     1      91.065 -66.616 101.924  1.00  0.00    -0.024 C 
ATOM     11  C   UNL     1      93.810 -65.864 100.948  1.00  0.00     0.005 C 
ATOM     12  C   UNL     1      92.139 -65.925 102.943  1.00  0.00    -0.024 C 
ATOM     13  C   UNL     1      89.616 -66.090 102.227  1.00  0.00     0.012 C 
ATOM     14  C   UNL     1      93.658 -66.117 102.472  1.00  0.00     0.002 C 
ATOM     15  C   UNL     1      91.859 -64.390 103.071  1.00  0.00     0.008 C 
ATOM     16  C   UNL     1      91.938 -66.569 104.359  1.00  0.00     0.012 C 
ATOM     17  C   UNL     1      94.751 -65.281 103.319  1.00  0.00    -0.026 C 
ATOM     18  C   UNL     1      92.876 -63.601 103.911  1.00  0.00     0.005 C 
ATOM     19  C   UNL     1      96.165 -65.324 102.638  1.00  0.00     0.010 C 
ATOM     20  C   UNL     1      94.912 -65.946 104.730  1.00  0.00     0.012 C 
ATOM     21  C   UNL     1      94.319 -63.765 103.387  1.00  0.00     0.003 C 
ATOM     22  C   UNL     1      97.218 -64.423 103.304  1.00  0.00     0.033 C 
ATOM     23  C   UNL     1      95.374 -62.766 104.032  1.00  0.00    -0.006 C 
ATOM     24  C   UNL     1      96.758 -62.958 103.334  1.00  0.00     0.120 C 
ATOM     25  C   UNL     1      94.931 -61.299 103.765  1.00  0.00     0.014 C 
ATOM     26  C   UNL     1      95.514 -62.918 105.571  1.00  0.00     0.014 C 
ENDROOT
BRANCH   1  27
ATOM     27  C   UNL     1      88.604 -68.796  99.197  1.00  0.00     0.048 C 
ATOM     28  O   UNL     1      88.403 -69.742  98.390  1.00  0.00    -0.550 OA
ATOM     29  O   UNL     1      87.531 -67.979  99.539  1.00  0.00    -0.550 OA
ENDBRANCH   1  27
BRANCH   7  30
ATOM     30  C   UNL     1      89.525 -66.497  97.046  1.00  0.00    -0.077 C 
ATOM     31  C   UNL     1      89.088 -67.318  95.852  1.00  0.00     0.039 C 
ATOM     32  C   UNL     1      88.818 -65.391  97.331  1.00  0.00     0.008 C 
ENDBRANCH   7  30
BRANCH  24  33
ATOM     33  O   UNL     1      97.743 -62.176 103.966  1.00  0.00    -0.393 OA
ATOM     34  H   UNL     1      97.506 -62.135 104.929  1.00  0.00     0.210 HD
ENDBRANCH  24  33
TORSDOF 3
ENDMDL
