MODEL 1
REMARK VINA RESULT:    -3.834      0.000      0.000
REMARK INTER + INTRA:          -6.041
REMARK INTER:                  -5.851
REMARK INTRA:                  -0.190
REMARK UNBOUND:                -0.190
REMARK SMILES CC1=CCC[C@@H](C)C(=O)C[C@H](C(C)C)C(=O)C1
REMARK SMILES IDX 8 1 9 2 6 3 7 4 5 5 4 6 3 7 2 8 1 9 10 11 11 12 15 13 16 14
REMARK SMILES IDX 17 15 12 17 13 18 14 19
REMARK H PARENT
REMARK Flexibility Score: 70.00
ROOT
ATOM      1  C   UNL     1      -8.933  -8.182  16.036  1.00  0.00     0.136 C 
ATOM      2  O   UNL     1      -9.947  -8.790  15.735  1.00  0.00    -0.299 OA
ENDROOT
BRANCH   1   3
ATOM      3  C   UNL     1      -7.680  -8.975  16.364  1.00  0.00     0.053 C 
ATOM      4  C   UNL     1      -7.208  -9.760  15.133  1.00  0.00     0.016 C 
BRANCH   3   5
ATOM      5  C   UNL     1      -7.889  -9.910  17.573  1.00  0.00     0.015 C 
BRANCH   5   6
ATOM      6  C   UNL     1      -7.193  -9.383  18.841  1.00  0.00     0.028 C 
BRANCH   6   7
ATOM      7  C   UNL     1      -5.917  -8.660  18.499  1.00  0.00    -0.028 C 
ATOM      8  C   UNL     1      -5.705  -7.338  18.689  1.00  0.00    -0.070 CG0
ATOM      9  C   UNL     1      -4.357  -6.778  18.311  1.00  0.00     0.039 C 
ATOM     10  G   UNL     1      -6.763  -6.384  19.226  1.00  0.00     0.000 G0
ENDBRANCH   6   7
ENDBRANCH   5   6
ENDBRANCH   3   5
ENDBRANCH   1   3
BRANCH   1  11
ATOM     11  C   UNL     1      -9.000  -6.686  16.257  1.00  0.00     0.087 C 
BRANCH  11  12
ATOM     12  C   UNL     1      -8.950  -6.165  17.724  1.00  0.00     0.066 C 
BRANCH  12  13
ATOM     13  C   UNL     1      -7.568  -5.680  18.160  1.00  0.00     0.140 C 
ATOM     14  O   UNL     1      -7.079  -4.725  17.572  1.00  0.00    -0.299 OA
BRANCH  13  15
ATOM     15  C   UNL     1      -6.747  -6.360  19.233  1.00  0.00     0.106 CG0
ATOM     16  G   UNL     1      -5.731  -7.341  18.666  1.00  0.00     0.000 G0
ENDBRANCH  13  15
ENDBRANCH  12  13
BRANCH  12  17
ATOM     17  C   UNL     1     -10.157  -5.311  18.256  1.00  0.00    -0.006 C 
ATOM     18  C   UNL     1     -11.566  -5.885  18.027  1.00  0.00     0.008 C 
ATOM     19  C   UNL     1      -9.986  -4.901  19.728  1.00  0.00     0.008 C 
ENDBRANCH  12  17
ENDBRANCH  11  12
ENDBRANCH   1  11
TORSDOF 1
ENDMDL
MODEL 2
REMARK VINA RESULT:    -3.710      2.200      5.582
REMARK INTER + INTRA:          -5.852
REMARK INTER:                  -5.770
REMARK INTRA:                  -0.082
REMARK UNBOUND:                -0.190
REMARK SMILES CC1=CCC[C@@H](C)C(=O)C[C@H](C(C)C)C(=O)C1
REMARK SMILES IDX 8 1 9 2 6 3 7 4 5 5 4 6 3 7 2 8 1 9 10 11 11 12 15 13 16 14
REMARK SMILES IDX 17 15 12 17 13 18 14 19
REMARK H PARENT
REMARK Flexibility Score: 70.00
ROOT
ATOM      1  C   UNL     1      -8.299  -5.390  19.258  1.00  0.00     0.136 C 
ATOM      2  O   UNL     1      -7.580  -5.622  20.216  1.00  0.00    -0.299 OA
ENDROOT
BRANCH   1   3
ATOM      3  C   UNL     1      -9.640  -4.721  19.500  1.00  0.00     0.053 C 
ATOM      4  C   UNL     1      -9.790  -4.347  20.981  1.00  0.00     0.016 C 
BRANCH   3   5
ATOM      5  C   UNL     1     -10.817  -5.599  19.027  1.00  0.00     0.015 C 
BRANCH   5   6
ATOM      6  C   UNL     1     -11.486  -5.038  17.759  1.00  0.00     0.028 C 
BRANCH   6   7
ATOM      7  C   UNL     1     -12.075  -6.143  16.923  1.00  0.00    -0.028 C 
ATOM      8  C   UNL     1     -11.379  -6.902  16.047  1.00  0.00    -0.070 CG0
ATOM      9  C   UNL     1     -12.121  -7.984  15.305  1.00  0.00     0.039 C 
ATOM     10  G   UNL     1      -9.901  -6.698  15.746  1.00  0.00     0.000 G0
ENDBRANCH   6   7
ENDBRANCH   5   6
ENDBRANCH   3   5
ENDBRANCH   1   3
BRANCH   1  11
ATOM     11  C   UNL     1      -7.925  -5.939  17.897  1.00  0.00     0.087 C 
BRANCH  11  12
ATOM     12  C   UNL     1      -8.172  -7.453  17.631  1.00  0.00     0.066 C 
BRANCH  12  13
ATOM     13  C   UNL     1      -9.007  -7.733  16.383  1.00  0.00     0.140 C 
ATOM     14  O   UNL     1      -8.904  -8.832  15.855  1.00  0.00    -0.299 OA
BRANCH  13  15
ATOM     15  C   UNL     1      -9.899  -6.702  15.729  1.00  0.00     0.106 CG0
ATOM     16  G   UNL     1     -11.372  -6.904  16.055  1.00  0.00     0.000 G0
ENDBRANCH  13  15
ENDBRANCH  12  13
BRANCH  12  17
ATOM     17  C   UNL     1      -6.990  -8.459  17.885  1.00  0.00    -0.006 C 
ATOM     18  C   UNL     1      -5.633  -7.849  18.272  1.00  0.00     0.008 C 
ATOM     19  C   UNL     1      -7.369  -9.574  18.873  1.00  0.00     0.008 C 
ENDBRANCH  12  17
ENDBRANCH  11  12
ENDBRANCH   1  11
TORSDOF 1
ENDMDL
MODEL 3
REMARK VINA RESULT:    -3.680      2.176      5.096
REMARK INTER + INTRA:          -5.806
REMARK INTER:                  -5.655
REMARK INTRA:                  -0.151
REMARK UNBOUND:                -0.190
REMARK SMILES CC1=CCC[C@@H](C)C(=O)C[C@H](C(C)C)C(=O)C1
REMARK SMILES IDX 8 1 9 2 6 3 7 4 5 5 4 6 3 7 2 8 1 9 10 11 11 12 15 13 16 14
REMARK SMILES IDX 17 15 12 17 13 18 14 19
REMARK H PARENT
REMARK Flexibility Score: 70.00
ROOT
ATOM      1  C   UNL     1      -8.257  -5.240  19.125  1.00  0.00     0.136 C 
ATOM      2  O   UNL     1      -8.441  -5.287  20.330  1.00  0.00    -0.299 OA
ENDROOT
BRANCH   1   3
ATOM      3  C   UNL     1      -9.332  -4.618  18.250  1.00  0.00     0.053 C 
ATOM      4  C   UNL     1      -9.729  -3.238  18.792  1.00  0.00     0.016 C 
BRANCH   3   5
ATOM      5  C   UNL     1     -10.564  -5.536  18.111  1.00  0.00     0.015 C 
BRANCH   5   6
ATOM      6  C   UNL     1     -11.066  -5.617  16.657  1.00  0.00     0.028 C 
BRANCH   6   7
ATOM      7  C   UNL     1     -10.912  -7.009  16.107  1.00  0.00    -0.028 C 
ATOM      8  C   UNL     1      -9.755  -7.531  15.641  1.00  0.00    -0.070 CG0
ATOM      9  C   UNL     1      -9.771  -8.954  15.145  1.00  0.00     0.039 C 
ATOM     10  G   UNL     1      -8.452  -6.747  15.557  1.00  0.00     0.000 G0
ENDBRANCH   6   7
ENDBRANCH   5   6
ENDBRANCH   3   5
ENDBRANCH   1   3
BRANCH   1  11
ATOM     11  C   UNL     1      -7.071  -5.962  18.523  1.00  0.00     0.087 C 
BRANCH  11  12
ATOM     12  C   UNL     1      -7.314  -7.369  17.903  1.00  0.00     0.066 C 
BRANCH  12  13
ATOM     13  C   UNL     1      -7.326  -7.377  16.375  1.00  0.00     0.140 C 
ATOM     14  O   UNL     1      -6.365  -7.861  15.793  1.00  0.00    -0.299 OA
BRANCH  13  15
ATOM     15  C   UNL     1      -8.430  -6.757  15.548  1.00  0.00     0.106 CG0
ATOM     16  G   UNL     1      -9.742  -7.523  15.645  1.00  0.00     0.000 G0
ENDBRANCH  13  15
ENDBRANCH  12  13
BRANCH  12  17
ATOM     17  C   UNL     1      -6.622  -8.611  18.573  1.00  0.00    -0.006 C 
ATOM     18  C   UNL     1      -5.995  -8.391  19.959  1.00  0.00     0.008 C 
ATOM     19  C   UNL     1      -7.531  -9.851  18.595  1.00  0.00     0.008 C 
ENDBRANCH  12  17
ENDBRANCH  11  12
ENDBRANCH   1  11
TORSDOF 1
ENDMDL
MODEL 4
REMARK VINA RESULT:    -3.594      1.957      3.637
REMARK INTER + INTRA:          -5.676
REMARK INTER:                  -5.370
REMARK INTRA:                  -0.306
REMARK UNBOUND:                -0.190
REMARK SMILES CC1=CCC[C@@H](C)C(=O)C[C@H](C(C)C)C(=O)C1
REMARK SMILES IDX 8 1 9 2 6 3 7 4 5 5 4 6 3 7 2 8 1 9 10 11 11 12 15 13 16 14
REMARK SMILES IDX 17 15 12 17 13 18 14 19
REMARK H PARENT
REMARK Flexibility Score: 70.00
ROOT
ATOM      1  C   UNL     1      -6.401  -6.728  17.509  1.00  0.00     0.136 C 
ATOM      2  O   UNL     1      -5.646  -7.123  16.635  1.00  0.00    -0.299 OA
ENDROOT
BRANCH   1   3
ATOM      3  C   UNL     1      -6.624  -7.605  18.728  1.00  0.00     0.053 C 
ATOM      4  C   UNL     1      -5.667  -7.202  19.858  1.00  0.00     0.016 C 
BRANCH   3   5
ATOM      5  C   UNL     1      -6.488  -9.105  18.392  1.00  0.00     0.015 C 
BRANCH   5   6
ATOM      6  C   UNL     1      -7.825  -9.723  17.943  1.00  0.00     0.028 C 
BRANCH   6   7
ATOM      7  C   UNL     1      -7.911  -9.796  16.442  1.00  0.00    -0.028 C 
ATOM      8  C   UNL     1      -8.703  -9.013  15.676  1.00  0.00    -0.070 CG0
ATOM      9  C   UNL     1      -8.650  -9.203  14.181  1.00  0.00     0.039 C 
ATOM     10  G   UNL     1      -9.668  -7.981  16.243  1.00  0.00     0.000 G0
ENDBRANCH   6   7
ENDBRANCH   5   6
ENDBRANCH   3   5
ENDBRANCH   1   3
BRANCH   1  11
ATOM     11  C   UNL     1      -7.228  -5.483  17.271  1.00  0.00     0.087 C 
BRANCH  11  12
ATOM     12  C   UNL     1      -8.774  -5.643  17.181  1.00  0.00     0.066 C 
BRANCH  12  13
ATOM     13  C   UNL     1      -9.237  -6.545  16.038  1.00  0.00     0.140 C 
ATOM     14  O   UNL     1      -9.304  -6.065  14.915  1.00  0.00    -0.299 OA
BRANCH  13  15
ATOM     15  C   UNL     1      -9.681  -7.978  16.235  1.00  0.00     0.106 CG0
ATOM     16  G   UNL     1      -8.678  -8.986  15.694  1.00  0.00     0.000 G0
ENDBRANCH  13  15
ENDBRANCH  12  13
BRANCH  12  17
ATOM     17  C   UNL     1      -9.590  -5.786  18.518  1.00  0.00    -0.006 C 
ATOM     18  C   UNL     1      -9.131  -4.922  19.705  1.00  0.00     0.008 C 
ATOM     19  C   UNL     1     -11.104  -5.628  18.304  1.00  0.00     0.008 C 
ENDBRANCH  12  17
ENDBRANCH  11  12
ENDBRANCH   1  11
TORSDOF 1
ENDMDL
MODEL 5
REMARK VINA RESULT:    -3.298     19.236     20.786
REMARK INTER + INTRA:          -5.224
REMARK INTER:                  -4.983
REMARK INTRA:                  -0.241
REMARK UNBOUND:                -0.190
REMARK SMILES CC1=CCC[C@@H](C)C(=O)C[C@H](C(C)C)C(=O)C1
REMARK SMILES IDX 8 1 9 2 6 3 7 4 5 5 4 6 3 7 2 8 1 9 10 11 11 12 15 13 16 14
REMARK SMILES IDX 17 15 12 17 13 18 14 19
REMARK H PARENT
REMARK Flexibility Score: 70.00
ROOT
ATOM      1  C   UNL     1       4.021   3.714  27.929  1.00  0.00     0.136 C 
ATOM      2  O   UNL     1       4.595   2.708  28.312  1.00  0.00    -0.299 OA
ENDROOT
BRANCH   1   3
ATOM      3  C   UNL     1       4.758   4.663  27.000  1.00  0.00     0.053 C 
ATOM      4  C   UNL     1       5.830   3.905  26.204  1.00  0.00     0.016 C 
BRANCH   3   5
ATOM      5  C   UNL     1       5.370   5.856  27.762  1.00  0.00     0.015 C 
BRANCH   5   6
ATOM      6  C   UNL     1       4.742   7.198  27.341  1.00  0.00     0.028 C 
BRANCH   6   7
ATOM      7  C   UNL     1       4.476   8.071  28.538  1.00  0.00    -0.028 C 
ATOM      8  C   UNL     1       3.309   8.111  29.220  1.00  0.00    -0.070 CG0
ATOM      9  C   UNL     1       3.220   9.029  30.413  1.00  0.00     0.039 C 
ATOM     10  G   UNL     1       2.076   7.311  28.824  1.00  0.00     0.000 G0
ENDBRANCH   6   7
ENDBRANCH   5   6
ENDBRANCH   3   5
ENDBRANCH   1   3
BRANCH   1  11
ATOM     11  C   UNL     1       2.681   4.082  28.531  1.00  0.00     0.087 C 
BRANCH  11  12
ATOM     12  C   UNL     1       2.680   4.894  29.859  1.00  0.00     0.066 C 
BRANCH  12  13
ATOM     13  C   UNL     1       1.821   6.157  29.811  1.00  0.00     0.140 C 
ATOM     14  O   UNL     1       0.847   6.221  30.548  1.00  0.00    -0.299 OA
BRANCH  13  15
ATOM     15  C   UNL     1       2.074   7.299  28.852  1.00  0.00     0.106 CG0
ATOM     16  G   UNL     1       3.309   8.111  29.214  1.00  0.00     0.000 G0
ENDBRANCH  13  15
ENDBRANCH  12  13
BRANCH  12  17
ATOM     17  C   UNL     1       2.633   4.105  31.218  1.00  0.00    -0.006 C 
ATOM     18  C   UNL     1       1.674   2.904  31.289  1.00  0.00     0.008 C 
ATOM     19  C   UNL     1       4.031   3.695  31.710  1.00  0.00     0.008 C 
ENDBRANCH  12  17
ENDBRANCH  11  12
ENDBRANCH   1  11
TORSDOF 1
ENDMDL
MODEL 6
REMARK VINA RESULT:    -3.291      2.556      4.061
REMARK INTER + INTRA:          -5.213
REMARK INTER:                  -5.157
REMARK INTRA:                  -0.056
REMARK UNBOUND:                -0.190
REMARK SMILES CC1=CCC[C@@H](C)C(=O)C[C@H](C(C)C)C(=O)C1
REMARK SMILES IDX 8 1 9 2 6 3 7 4 5 5 4 6 3 7 2 8 1 9 10 11 11 12 15 13 16 14
REMARK SMILES IDX 17 15 12 17 13 18 14 19
REMARK H PARENT
REMARK Flexibility Score: 70.00
ROOT
ATOM      1  C   UNL     1      -7.035  -9.387  18.182  1.00  0.00     0.136 C 
ATOM      2  O   UNL     1      -7.724 -10.031  18.956  1.00  0.00    -0.299 OA
ENDROOT
BRANCH   1   3
ATOM      3  C   UNL     1      -6.261  -8.196  18.718  1.00  0.00     0.053 C 
ATOM      4  C   UNL     1      -5.670  -8.519  20.098  1.00  0.00     0.016 C 
BRANCH   3   5
ATOM      5  C   UNL     1      -7.127  -6.920  18.770  1.00  0.00     0.015 C 
BRANCH   5   6
ATOM      6  C   UNL     1      -6.625  -5.837  17.799  1.00  0.00     0.028 C 
BRANCH   6   7
ATOM      7  C   UNL     1      -5.173  -6.044  17.460  1.00  0.00    -0.028 C 
ATOM      8  C   UNL     1      -4.704  -6.358  16.231  1.00  0.00    -0.070 CG0
ATOM      9  C   UNL     1      -3.214  -6.507  16.061  1.00  0.00     0.039 C 
ATOM     10  G   UNL     1      -5.601  -6.604  15.026  1.00  0.00     0.000 G0
ENDBRANCH   6   7
ENDBRANCH   5   6
ENDBRANCH   3   5
ENDBRANCH   1   3
BRANCH   1  11
ATOM     11  C   UNL     1      -7.118  -9.671  16.698  1.00  0.00     0.087 C 
BRANCH  11  12
ATOM     12  C   UNL     1      -7.381  -8.470  15.742  1.00  0.00     0.066 C 
BRANCH  12  13
ATOM     13  C   UNL     1      -6.147  -8.019  14.962  1.00  0.00     0.140 C 
ATOM     14  O   UNL     1      -5.536  -8.858  14.314  1.00  0.00    -0.299 OA
BRANCH  13  15
ATOM     15  C   UNL     1      -5.604  -6.608  15.005  1.00  0.00     0.106 CG0
ATOM     16  G   UNL     1      -4.715  -6.354  16.214  1.00  0.00     0.000 G0
ENDBRANCH  13  15
ENDBRANCH  12  13
BRANCH  12  17
ATOM     17  C   UNL     1      -8.730  -8.437  14.936  1.00  0.00    -0.006 C 
ATOM     18  C   UNL     1      -9.084  -9.696  14.126  1.00  0.00     0.008 C 
ATOM     19  C   UNL     1      -9.926  -8.015  15.806  1.00  0.00     0.008 C 
ENDBRANCH  12  17
ENDBRANCH  11  12
ENDBRANCH   1  11
TORSDOF 1
ENDMDL
MODEL 7
REMARK VINA RESULT:    -3.233      1.874      4.183
REMARK INTER + INTRA:          -5.124
REMARK INTER:                  -5.082
REMARK INTRA:                  -0.042
REMARK UNBOUND:                -0.190
REMARK SMILES CC1=CCC[C@@H](C)C(=O)C[C@H](C(C)C)C(=O)C1
REMARK SMILES IDX 8 1 9 2 6 3 7 4 5 5 4 6 3 7 2 8 1 9 10 11 11 12 15 13 16 14
REMARK SMILES IDX 17 15 12 17 13 18 14 19
REMARK H PARENT
REMARK Flexibility Score: 70.00
ROOT
ATOM      1  C   UNL     1      -7.932  -9.092  16.672  1.00  0.00     0.136 C 
ATOM      2  O   UNL     1      -7.000  -9.746  16.235  1.00  0.00    -0.299 OA
ENDROOT
BRANCH   1   3
ATOM      3  C   UNL     1      -9.092  -8.770  15.745  1.00  0.00     0.053 C 
ATOM      4  C   UNL     1      -8.941  -9.527  14.419  1.00  0.00     0.016 C 
BRANCH   3   5
ATOM      5  C   UNL     1      -9.236  -7.253  15.506  1.00  0.00     0.015 C 
BRANCH   5   6
ATOM      6  C   UNL     1     -10.635  -6.736  15.887  1.00  0.00     0.028 C 
BRANCH   6   7
ATOM      7  C   UNL     1     -10.567  -5.327  16.414  1.00  0.00    -0.028 C 
ATOM      8  C   UNL     1     -10.152  -4.986  17.655  1.00  0.00    -0.070 CG0
ATOM      9  C   UNL     1     -10.126  -3.522  18.013  1.00  0.00     0.039 C 
ATOM     10  G   UNL     1      -9.749  -6.001  18.715  1.00  0.00     0.000 G0
ENDBRANCH   6   7
ENDBRANCH   5   6
ENDBRANCH   3   5
ENDBRANCH   1   3
BRANCH   1  11
ATOM     11  C   UNL     1      -7.823  -8.465  18.045  1.00  0.00     0.087 C 
BRANCH  11  12
ATOM     12  C   UNL     1      -7.331  -6.991  18.135  1.00  0.00     0.066 C 
BRANCH  12  13
ATOM     13  C   UNL     1      -8.251  -6.080  18.946  1.00  0.00     0.140 C 
ATOM     14  O   UNL     1      -7.758  -5.419  19.850  1.00  0.00    -0.299 OA
BRANCH  13  15
ATOM     15  C   UNL     1      -9.747  -6.007  18.735  1.00  0.00     0.106 CG0
ATOM     16  G   UNL     1     -10.144  -4.993  17.672  1.00  0.00     0.000 G0
ENDBRANCH  13  15
ENDBRANCH  12  13
BRANCH  12  17
ATOM     17  C   UNL     1      -5.793  -6.726  18.324  1.00  0.00    -0.006 C 
ATOM     18  C   UNL     1      -5.019  -7.729  19.196  1.00  0.00     0.008 C 
ATOM     19  C   UNL     1      -5.063  -6.516  16.987  1.00  0.00     0.008 C 
ENDBRANCH  12  17
ENDBRANCH  11  12
ENDBRANCH   1  11
TORSDOF 1
ENDMDL
MODEL 8
REMARK VINA RESULT:    -3.185      2.502      4.046
REMARK INTER + INTRA:          -5.051
REMARK INTER:                  -5.428
REMARK INTRA:                   0.377
REMARK UNBOUND:                -0.190
REMARK SMILES CC1=CCC[C@@H](C)C(=O)C[C@H](C(C)C)C(=O)C1
REMARK SMILES IDX 8 1 9 2 6 3 7 4 5 5 4 6 3 7 2 8 1 9 10 11 11 12 15 13 16 14
REMARK SMILES IDX 17 15 12 17 13 18 14 19
REMARK H PARENT
REMARK Flexibility Score: 70.00
ROOT
ATOM      1  C   UNL     1      -7.480  -7.510  17.998  1.00  0.00     0.136 C 
ATOM      2  O   UNL     1      -6.795  -7.442  19.006  1.00  0.00    -0.299 OA
ENDROOT
BRANCH   1   3
ATOM      3  C   UNL     1      -7.914  -8.879  17.506  1.00  0.00     0.053 C 
ATOM      4  C   UNL     1      -7.636  -9.944  18.576  1.00  0.00     0.016 C 
BRANCH   3   5
ATOM      5  C   UNL     1      -7.244  -9.250  16.167  1.00  0.00     0.015 C 
BRANCH   5   6
ATOM      6  C   UNL     1      -8.136  -8.911  14.958  1.00  0.00     0.028 C 
BRANCH   6   7
ATOM      7  C   UNL     1      -9.589  -8.873  15.351  1.00  0.00    -0.028 C 
ATOM      8  C   UNL     1     -10.361  -7.763  15.344  1.00  0.00    -0.070 CG0
ATOM      9  C   UNL     1     -11.807  -7.907  15.746  1.00  0.00     0.039 C 
ATOM     10  G   UNL     1      -9.839  -6.378  14.990  1.00  0.00     0.000 G0
ENDBRANCH   6   7
ENDBRANCH   5   6
ENDBRANCH   3   5
ENDBRANCH   1   3
BRANCH   1  11
ATOM     11  C   UNL     1      -7.716  -6.264  17.172  1.00  0.00     0.087 C 
BRANCH  11  12
ATOM     12  C   UNL     1      -9.051  -5.491  17.387  1.00  0.00     0.066 C 
BRANCH  12  13
ATOM     13  C   UNL     1      -9.916  -5.392  16.132  1.00  0.00     0.140 C 
ATOM     14  O   UNL     1     -10.752  -4.501  16.075  1.00  0.00    -0.299 OA
BRANCH  13  15
ATOM     15  C   UNL     1      -9.840  -6.379  14.987  1.00  0.00     0.106 CG0
ATOM     16  G   UNL     1     -10.370  -7.757  15.360  1.00  0.00     0.000 G0
ENDBRANCH  13  15
ENDBRANCH  12  13
BRANCH  12  17
ATOM     17  C   UNL     1      -9.840  -5.721  18.727  1.00  0.00    -0.006 C 
ATOM     18  C   UNL     1      -9.472  -4.812  19.912  1.00  0.00     0.008 C 
ATOM     19  C   UNL     1     -11.363  -5.727  18.519  1.00  0.00     0.008 C 
ENDBRANCH  12  17
ENDBRANCH  11  12
ENDBRANCH   1  11
TORSDOF 1
ENDMDL
MODEL 9
REMARK VINA RESULT:    -3.174     19.597     21.861
REMARK INTER + INTRA:          -5.035
REMARK INTER:                  -5.105
REMARK INTRA:                   0.070
REMARK UNBOUND:                -0.190
REMARK SMILES CC1=CCC[C@@H](C)C(=O)C[C@H](C(C)C)C(=O)C1
REMARK SMILES IDX 8 1 9 2 6 3 7 4 5 5 4 6 3 7 2 8 1 9 10 11 11 12 15 13 16 14
REMARK SMILES IDX 17 15 12 17 13 18 14 19
REMARK H PARENT
REMARK Flexibility Score: 70.00
ROOT
ATOM      1  C   UNL     1       3.761   3.752  30.359  1.00  0.00     0.136 C 
ATOM      2  O   UNL     1       4.830   3.177  30.237  1.00  0.00    -0.299 OA
ENDROOT
BRANCH   1   3
ATOM      3  C   UNL     1       2.940   4.033  29.113  1.00  0.00     0.053 C 
ATOM      4  C   UNL     1       3.616   3.419  27.879  1.00  0.00     0.016 C 
BRANCH   3   5
ATOM      5  C   UNL     1       2.688   5.542  28.915  1.00  0.00     0.015 C 
BRANCH   5   6
ATOM      6  C   UNL     1       1.186   5.879  28.877  1.00  0.00     0.028 C 
BRANCH   6   7
ATOM      7  C   UNL     1       0.926   7.259  29.420  1.00  0.00    -0.028 C 
ATOM      8  C   UNL     1       0.961   7.592  30.730  1.00  0.00    -0.070 CG0
ATOM      9  C   UNL     1       0.698   9.030  31.100  1.00  0.00     0.039 C 
ATOM     10  G   UNL     1       1.214   6.589  31.847  1.00  0.00     0.000 G0
ENDBRANCH   6   7
ENDBRANCH   5   6
ENDBRANCH   3   5
ENDBRANCH   1   3
BRANCH   1  11
ATOM     11  C   UNL     1       3.375   4.331  31.704  1.00  0.00     0.087 C 
BRANCH  11  12
ATOM     12  C   UNL     1       3.778   5.804  32.003  1.00  0.00     0.066 C 
BRANCH  12  13
ATOM     13  C   UNL     1       2.611   6.688  32.438  1.00  0.00     0.140 C 
ATOM     14  O   UNL     1       2.796   7.481  33.351  1.00  0.00    -0.299 OA
BRANCH  13  15
ATOM     15  C   UNL     1       1.222   6.585  31.846  1.00  0.00     0.106 CG0
ATOM     16  G   UNL     1       0.972   7.606  30.746  1.00  0.00     0.000 G0
ENDBRANCH  13  15
ENDBRANCH  12  13
BRANCH  12  17
ATOM     17  C   UNL     1       5.134   6.071  32.753  1.00  0.00    -0.006 C 
ATOM     18  C   UNL     1       5.853   4.845  33.342  1.00  0.00     0.008 C 
ATOM     19  C   UNL     1       6.115   6.907  31.916  1.00  0.00     0.008 C 
ENDBRANCH  12  17
ENDBRANCH  11  12
ENDBRANCH   1  11
TORSDOF 1
ENDMDL
