MODEL 1
REMARK VINA RESULT:    -2.563      0.000      0.000
REMARK INTER + INTRA:          -3.106
REMARK INTER:                  -3.012
REMARK INTRA:                  -0.093
REMARK UNBOUND:                -0.093
REMARK SMILES CCCCC(=O)[O-]
REMARK SMILES IDX 4 1 5 2 6 3 7 4 3 5 2 6 1 7
REMARK H PARENT
REMARK Flexibility Score: inf
ROOT
ATOM      1  C   UNL     1      58.249  18.249  50.719  1.00  0.00     0.053 C 
ENDROOT
BRANCH   1   2
ATOM      2  C   UNL     1      56.849  18.555  51.154  1.00  0.00     0.041 C 
ATOM      3  O   UNL     1      55.871  18.161  50.466  1.00  0.00    -0.550 OA
ATOM      4  O   UNL     1      56.624  19.303  52.304  1.00  0.00    -0.550 OA
ENDBRANCH   1   2
BRANCH   1   5
ATOM      5  C   UNL     1      58.536  16.743  50.742  1.00  0.00     0.006 C 
BRANCH   5   6
ATOM      6  C   UNL     1      59.223  16.262  49.455  1.00  0.00    -0.003 C 
ATOM      7  C   UNL     1      58.245  16.243  48.284  1.00  0.00     0.004 C 
ENDBRANCH   5   6
ENDBRANCH   1   5
TORSDOF 3
ENDMDL
MODEL 2
REMARK VINA RESULT:    -2.555     10.207     10.874
REMARK INTER + INTRA:          -3.097
REMARK INTER:                  -3.071
REMARK INTRA:                  -0.026
REMARK UNBOUND:                -0.093
REMARK SMILES CCCCC(=O)[O-]
REMARK SMILES IDX 4 1 5 2 6 3 7 4 3 5 2 6 1 7
REMARK H PARENT
REMARK Flexibility Score: inf
ROOT
ATOM      1  C   UNL     1      58.140  27.397  50.736  1.00  0.00     0.053 C 
ENDROOT
BRANCH   1   2
ATOM      2  C   UNL     1      59.157  28.165  49.950  1.00  0.00     0.041 C 
ATOM      3  O   UNL     1      58.909  29.339  49.569  1.00  0.00    -0.550 OA
ATOM      4  O   UNL     1      60.367  27.573  49.610  1.00  0.00    -0.550 OA
ENDBRANCH   1   2
BRANCH   1   5
ATOM      5  C   UNL     1      56.784  28.114  50.767  1.00  0.00     0.006 C 
BRANCH   5   6
ATOM      6  C   UNL     1      55.607  27.139  50.617  1.00  0.00    -0.003 C 
ATOM      7  C   UNL     1      54.308  27.885  50.325  1.00  0.00     0.004 C 
ENDBRANCH   5   6
ENDBRANCH   1   5
TORSDOF 3
ENDMDL
MODEL 3
REMARK VINA RESULT:    -2.555      9.334     10.917
REMARK INTER + INTRA:          -3.097
REMARK INTER:                  -3.061
REMARK INTRA:                  -0.036
REMARK UNBOUND:                -0.093
REMARK SMILES CCCCC(=O)[O-]
REMARK SMILES IDX 4 1 5 2 6 3 7 4 3 5 2 6 1 7
REMARK H PARENT
REMARK Flexibility Score: inf
ROOT
ATOM      1  C   UNL     1      55.536  27.647  50.759  1.00  0.00     0.053 C 
ENDROOT
BRANCH   1   2
ATOM      2  C   UNL     1      55.730  26.210  50.384  1.00  0.00     0.041 C 
ATOM      3  O   UNL     1      56.790  25.611  50.699  1.00  0.00    -0.550 OA
ATOM      4  O   UNL     1      54.752  25.542  49.658  1.00  0.00    -0.550 OA
ENDBRANCH   1   2
BRANCH   1   5
ATOM      5  C   UNL     1      54.155  28.165  50.337  1.00  0.00     0.006 C 
BRANCH   5   6
ATOM      6  C   UNL     1      53.971  29.656  50.657  1.00  0.00    -0.003 C 
ATOM      7  C   UNL     1      55.310  30.325  50.953  1.00  0.00     0.004 C 
ENDBRANCH   5   6
ENDBRANCH   1   5
TORSDOF 3
ENDMDL
MODEL 4
REMARK VINA RESULT:    -2.530     10.069     11.382
REMARK INTER + INTRA:          -3.067
REMARK INTER:                  -3.049
REMARK INTRA:                  -0.018
REMARK UNBOUND:                -0.093
REMARK SMILES CCCCC(=O)[O-]
REMARK SMILES IDX 4 1 5 2 6 3 7 4 3 5 2 6 1 7
REMARK H PARENT
REMARK Flexibility Score: inf
ROOT
ATOM      1  C   UNL     1      59.054  28.772  49.881  1.00  0.00     0.053 C 
ENDROOT
BRANCH   1   2
ATOM      2  C   UNL     1      59.916  27.548  49.825  1.00  0.00     0.041 C 
ATOM      3  O   UNL     1      61.166  27.658  49.724  1.00  0.00    -0.550 OA
ATOM      4  O   UNL     1      59.336  26.286  49.853  1.00  0.00    -0.550 OA
ENDBRANCH   1   2
BRANCH   1   5
ATOM      5  C   UNL     1      57.745  28.513  50.637  1.00  0.00     0.006 C 
BRANCH   5   6
ATOM      6  C   UNL     1      56.967  29.807  50.913  1.00  0.00    -0.003 C 
ATOM      7  C   UNL     1      55.465  29.542  50.985  1.00  0.00     0.004 C 
ENDBRANCH   5   6
ENDBRANCH   1   5
TORSDOF 3
ENDMDL
MODEL 5
REMARK VINA RESULT:    -2.505      8.963     10.214
REMARK INTER + INTRA:          -3.037
REMARK INTER:                  -2.936
REMARK INTRA:                  -0.101
REMARK UNBOUND:                -0.093
REMARK SMILES CCCCC(=O)[O-]
REMARK SMILES IDX 4 1 5 2 6 3 7 4 3 5 2 6 1 7
REMARK H PARENT
REMARK Flexibility Score: inf
ROOT
ATOM      1  C   UNL     1      55.744  27.731  50.745  1.00  0.00     0.053 C 
ENDROOT
BRANCH   1   2
ATOM      2  C   UNL     1      55.917  26.283  50.405  1.00  0.00     0.041 C 
ATOM      3  O   UNL     1      55.001  25.660  49.807  1.00  0.00    -0.550 OA
ATOM      4  O   UNL     1      57.076  25.614  50.776  1.00  0.00    -0.550 OA
ENDBRANCH   1   2
BRANCH   1   5
ATOM      5  C   UNL     1      56.974  28.298  51.466  1.00  0.00     0.006 C 
BRANCH   5   6
ATOM      6  C   UNL     1      57.686  29.379  50.640  1.00  0.00    -0.003 C 
ATOM      7  C   UNL     1      58.895  28.805  49.907  1.00  0.00     0.004 C 
ENDBRANCH   5   6
ENDBRANCH   1   5
TORSDOF 3
ENDMDL
MODEL 6
REMARK VINA RESULT:    -2.475     10.350     10.967
REMARK INTER + INTRA:          -3.002
REMARK INTER:                  -2.983
REMARK INTRA:                  -0.020
REMARK UNBOUND:                -0.093
REMARK SMILES CCCCC(=O)[O-]
REMARK SMILES IDX 4 1 5 2 6 3 7 4 3 5 2 6 1 7
REMARK H PARENT
REMARK Flexibility Score: inf
ROOT
ATOM      1  C   UNL     1      55.528  28.610  51.072  1.00  0.00     0.053 C 
ENDROOT
BRANCH   1   2
ATOM      2  C   UNL     1      54.488  27.826  50.334  1.00  0.00     0.041 C 
ATOM      3  O   UNL     1      53.401  28.369  50.003  1.00  0.00    -0.550 OA
ATOM      4  O   UNL     1      54.704  26.486  50.039  1.00  0.00    -0.550 OA
ENDBRANCH   1   2
BRANCH   1   5
ATOM      5  C   UNL     1      56.945  28.115  50.756  1.00  0.00     0.006 C 
BRANCH   5   6
ATOM      6  C   UNL     1      57.912  29.270  50.457  1.00  0.00    -0.003 C 
ATOM      7  C   UNL     1      59.244  28.749  49.924  1.00  0.00     0.004 C 
ENDBRANCH   5   6
ENDBRANCH   1   5
TORSDOF 3
ENDMDL
MODEL 7
REMARK VINA RESULT:    -2.448     10.105     11.355
REMARK INTER + INTRA:          -2.971
REMARK INTER:                  -2.926
REMARK INTRA:                  -0.045
REMARK UNBOUND:                -0.093
REMARK SMILES CCCCC(=O)[O-]
REMARK SMILES IDX 4 1 5 2 6 3 7 4 3 5 2 6 1 7
REMARK H PARENT
REMARK Flexibility Score: inf
ROOT
ATOM      1  C   UNL     1      55.079  28.843  51.460  1.00  0.00     0.053 C 
ENDROOT
BRANCH   1   2
ATOM      2  C   UNL     1      55.964  29.927  50.928  1.00  0.00     0.041 C 
ATOM      3  O   UNL     1      57.197  29.723  50.781  1.00  0.00    -0.550 OA
ATOM      4  O   UNL     1      55.432  31.174  50.624  1.00  0.00    -0.550 OA
ENDBRANCH   1   2
BRANCH   1   5
ATOM      5  C   UNL     1      54.534  27.950  50.338  1.00  0.00     0.006 C 
BRANCH   5   6
ATOM      6  C   UNL     1      55.182  26.558  50.336  1.00  0.00    -0.003 C 
ATOM      7  C   UNL     1      54.257  25.520  49.706  1.00  0.00     0.004 C 
ENDBRANCH   5   6
ENDBRANCH   1   5
TORSDOF 3
ENDMDL
MODEL 8
REMARK VINA RESULT:    -2.443      8.233      9.362
REMARK INTER + INTRA:          -2.964
REMARK INTER:                  -2.929
REMARK INTRA:                  -0.036
REMARK UNBOUND:                -0.093
REMARK SMILES CCCCC(=O)[O-]
REMARK SMILES IDX 4 1 5 2 6 3 7 4 3 5 2 6 1 7
REMARK H PARENT
REMARK Flexibility Score: inf
ROOT
ATOM      1  C   UNL     1      55.641  26.458  50.365  1.00  0.00     0.053 C 
ENDROOT
BRANCH   1   2
ATOM      2  C   UNL     1      56.781  25.708  50.982  1.00  0.00     0.041 C 
ATOM      3  O   UNL     1      56.628  25.115  52.082  1.00  0.00    -0.550 OA
ATOM      4  O   UNL     1      58.023  25.692  50.359  1.00  0.00    -0.550 OA
ENDBRANCH   1   2
BRANCH   1   5
ATOM      5  C   UNL     1      54.505  25.518  49.940  1.00  0.00     0.006 C 
BRANCH   5   6
ATOM      6  C   UNL     1      53.224  26.282  49.575  1.00  0.00    -0.003 C 
ATOM      7  C   UNL     1      53.285  27.725  50.067  1.00  0.00     0.004 C 
ENDBRANCH   5   6
ENDBRANCH   1   5
TORSDOF 3
ENDMDL
