MODEL 1
REMARK VINA RESULT:    -3.660      0.000      0.000
REMARK INTER + INTRA:          -8.470
REMARK INTER:                  -6.655
REMARK INTRA:                  -1.816
REMARK UNBOUND:                -1.816
REMARK SMILES CCCCCCCCCCCCCCCC(=O)[O-]
REMARK SMILES IDX 9 1 10 2 11 3 12 4 13 5 14 6 15 7 16 8 17 9 18 10 8 11 7 12
REMARK SMILES IDX 6 13 5 14 4 15 3 16 2 17 1 18
REMARK H PARENT
REMARK Flexibility Score: inf
ROOT
ATOM      1  C   UNL     1      39.569  25.431 224.113  1.00  0.00     0.000 C 
ENDROOT
BRANCH   1   2
ATOM      2  C   UNL     1      40.592  24.410 223.585  1.00  0.00     0.000 C 
BRANCH   2   3
ATOM      3  C   UNL     1      40.384  23.971 222.124  1.00  0.00     0.000 C 
BRANCH   3   4
ATOM      4  C   UNL     1      40.461  22.445 221.941  1.00  0.00     0.000 C 
BRANCH   4   5
ATOM      5  C   UNL     1      40.855  21.715 223.236  1.00  0.00     0.000 C 
BRANCH   5   6
ATOM      6  C   UNL     1      39.849  20.623 223.630  1.00  0.00     0.006 C 
BRANCH   6   7
ATOM      7  C   UNL     1      40.424  19.228 223.362  1.00  0.00     0.053 C 
BRANCH   7   8
ATOM      8  C   UNL     1      40.451  18.422 224.623  1.00  0.00     0.041 C 
ATOM      9  O   UNL     1      39.497  17.649 224.901  1.00  0.00    -0.550 OA
ATOM     10  O   UNL     1      41.508  18.560 225.513  1.00  0.00    -0.550 OA
ENDBRANCH   7   8
ENDBRANCH   6   7
ENDBRANCH   5   6
ENDBRANCH   4   5
ENDBRANCH   3   4
ENDBRANCH   2   3
ENDBRANCH   1   2
BRANCH   1  11
ATOM     11  C   UNL     1      38.715  24.885 225.266  1.00  0.00     0.000 C 
BRANCH  11  12
ATOM     12  C   UNL     1      37.953  23.622 224.834  1.00  0.00    -0.000 C 
BRANCH  12  13
ATOM     13  C   UNL     1      36.961  23.892 223.691  1.00  0.00    -0.000 C 
BRANCH  13  14
ATOM     14  C   UNL     1      36.793  22.680 222.757  1.00  0.00    -0.000 C 
BRANCH  14  15
ATOM     15  C   UNL     1      35.731  22.917 221.671  1.00  0.00    -0.000 C 
BRANCH  15  16
ATOM     16  C   UNL     1      35.881  24.282 220.986  1.00  0.00    -0.000 C 
BRANCH  16  17
ATOM     17  C   UNL     1      35.893  24.132 219.460  1.00  0.00    -0.003 C 
ATOM     18  C   UNL     1      37.060  23.260 219.002  1.00  0.00     0.004 C 
ENDBRANCH  16  17
ENDBRANCH  15  16
ENDBRANCH  14  15
ENDBRANCH  13  14
ENDBRANCH  12  13
ENDBRANCH  11  12
ENDBRANCH   1  11
TORSDOF 14
ENDMDL
MODEL 2
REMARK VINA RESULT:    -3.571      3.500      6.461
REMARK INTER + INTRA:          -8.310
REMARK INTER:                  -6.609
REMARK INTRA:                  -1.701
REMARK UNBOUND:                -1.816
REMARK SMILES CCCCCCCCCCCCCCCC(=O)[O-]
REMARK SMILES IDX 9 1 10 2 11 3 12 4 13 5 14 6 15 7 16 8 17 9 18 10 8 11 7 12
REMARK SMILES IDX 6 13 5 14 4 15 3 16 2 17 1 18
REMARK H PARENT
REMARK Flexibility Score: inf
ROOT
ATOM      1  C   UNL     1      38.741  25.687 224.067  1.00  0.00     0.000 C 
ENDROOT
BRANCH   1   2
ATOM      2  C   UNL     1      37.695  24.907 224.884  1.00  0.00     0.000 C 
BRANCH   2   3
ATOM      3  C   UNL     1      36.235  25.104 224.436  1.00  0.00     0.000 C 
BRANCH   3   4
ATOM      4  C   UNL     1      36.031  24.854 222.932  1.00  0.00     0.000 C 
BRANCH   4   5
ATOM      5  C   UNL     1      36.099  23.362 222.567  1.00  0.00     0.000 C 
BRANCH   5   6
ATOM      6  C   UNL     1      36.341  23.128 221.069  1.00  0.00     0.006 C 
BRANCH   6   7
ATOM      7  C   UNL     1      35.987  24.377 220.257  1.00  0.00     0.053 C 
BRANCH   7   8
ATOM      8  C   UNL     1      35.381  23.993 218.942  1.00  0.00     0.041 C 
ATOM      9  O   UNL     1      34.147  24.138 218.747  1.00  0.00    -0.550 OA
ATOM     10  O   UNL     1      36.174  23.430 217.951  1.00  0.00    -0.550 OA
ENDBRANCH   7   8
ENDBRANCH   6   7
ENDBRANCH   5   6
ENDBRANCH   4   5
ENDBRANCH   3   4
ENDBRANCH   2   3
ENDBRANCH   1   2
BRANCH   1  11
ATOM     11  C   UNL     1      39.903  24.808 223.582  1.00  0.00     0.000 C 
BRANCH  11  12
ATOM     12  C   UNL     1      39.693  24.378 222.122  1.00  0.00    -0.000 C 
BRANCH  12  13
ATOM     13  C   UNL     1      40.013  22.893 221.891  1.00  0.00    -0.000 C 
BRANCH  13  14
ATOM     14  C   UNL     1      39.447  21.988 223.001  1.00  0.00    -0.000 C 
BRANCH  14  15
ATOM     15  C   UNL     1      40.268  20.702 223.188  1.00  0.00    -0.000 C 
BRANCH  15  16
ATOM     16  C   UNL     1      40.446  20.324 224.665  1.00  0.00    -0.000 C 
BRANCH  16  17
ATOM     17  C   UNL     1      39.940  18.902 224.932  1.00  0.00    -0.003 C 
ATOM     18  C   UNL     1      40.698  18.254 226.087  1.00  0.00     0.004 C 
ENDBRANCH  16  17
ENDBRANCH  15  16
ENDBRANCH  14  15
ENDBRANCH  13  14
ENDBRANCH  12  13
ENDBRANCH  11  12
ENDBRANCH   1  11
TORSDOF 14
ENDMDL
MODEL 3
REMARK VINA RESULT:    -3.570      3.515      6.094
REMARK INTER + INTRA:          -8.307
REMARK INTER:                  -6.744
REMARK INTRA:                  -1.564
REMARK UNBOUND:                -1.816
REMARK SMILES CCCCCCCCCCCCCCCC(=O)[O-]
REMARK SMILES IDX 9 1 10 2 11 3 12 4 13 5 14 6 15 7 16 8 17 9 18 10 8 11 7 12
REMARK SMILES IDX 6 13 5 14 4 15 3 16 2 17 1 18
REMARK H PARENT
REMARK Flexibility Score: inf
ROOT
ATOM      1  C   UNL     1      39.924  25.570 225.230  1.00  0.00     0.000 C 
ENDROOT
BRANCH   1   2
ATOM      2  C   UNL     1      39.120  26.548 224.354  1.00  0.00     0.000 C 
BRANCH   2   3
ATOM      3  C   UNL     1      38.108  25.890 223.399  1.00  0.00     0.000 C 
BRANCH   3   4
ATOM      4  C   UNL     1      37.045  25.054 224.135  1.00  0.00     0.000 C 
BRANCH   4   5
ATOM      5  C   UNL     1      37.123  23.559 223.783  1.00  0.00     0.000 C 
BRANCH   5   6
ATOM      6  C   UNL     1      36.507  23.240 222.412  1.00  0.00     0.006 C 
BRANCH   6   7
ATOM      7  C   UNL     1      35.166  23.957 222.236  1.00  0.00     0.053 C 
BRANCH   7   8
ATOM      8  C   UNL     1      34.731  23.911 220.804  1.00  0.00     0.041 C 
ATOM      9  O   UNL     1      35.584  23.972 219.881  1.00  0.00    -0.550 OA
ATOM     10  O   UNL     1      33.380  23.847 220.491  1.00  0.00    -0.550 OA
ENDBRANCH   7   8
ENDBRANCH   6   7
ENDBRANCH   5   6
ENDBRANCH   4   5
ENDBRANCH   3   4
ENDBRANCH   2   3
ENDBRANCH   1   2
BRANCH   1  11
ATOM     11  C   UNL     1      41.441  25.695 225.033  1.00  0.00     0.000 C 
BRANCH  11  12
ATOM     12  C   UNL     1      41.994  24.491 224.254  1.00  0.00    -0.000 C 
BRANCH  12  13
ATOM     13  C   UNL     1      40.898  23.491 223.855  1.00  0.00    -0.000 C 
BRANCH  13  14
ATOM     14  C   UNL     1      40.609  23.503 222.343  1.00  0.00    -0.000 C 
BRANCH  14  15
ATOM     15  C   UNL     1      40.637  22.095 221.727  1.00  0.00    -0.000 C 
BRANCH  15  16
ATOM     16  C   UNL     1      41.493  21.112 222.538  1.00  0.00    -0.000 C 
BRANCH  16  17
ATOM     17  C   UNL     1      42.876  20.934 221.902  1.00  0.00    -0.003 C 
ATOM     18  C   UNL     1      43.906  20.489 222.937  1.00  0.00     0.004 C 
ENDBRANCH  16  17
ENDBRANCH  15  16
ENDBRANCH  14  15
ENDBRANCH  13  14
ENDBRANCH  12  13
ENDBRANCH  11  12
ENDBRANCH   1  11
TORSDOF 14
ENDMDL
MODEL 4
REMARK VINA RESULT:    -3.549      3.533      6.297
REMARK INTER + INTRA:          -8.270
REMARK INTER:                  -6.092
REMARK INTRA:                  -2.178
REMARK UNBOUND:                -1.816
REMARK SMILES CCCCCCCCCCCCCCCC(=O)[O-]
REMARK SMILES IDX 9 1 10 2 11 3 12 4 13 5 14 6 15 7 16 8 17 9 18 10 8 11 7 12
REMARK SMILES IDX 6 13 5 14 4 15 3 16 2 17 1 18
REMARK H PARENT
REMARK Flexibility Score: inf
ROOT
ATOM      1  C   UNL     1      41.703  22.345 225.193  1.00  0.00     0.000 C 
ENDROOT
BRANCH   1   2
ATOM      2  C   UNL     1      42.176  23.564 224.382  1.00  0.00     0.000 C 
BRANCH   2   3
ATOM      3  C   UNL     1      41.109  24.195 223.468  1.00  0.00     0.000 C 
BRANCH   3   4
ATOM      4  C   UNL     1      39.931  23.248 223.180  1.00  0.00     0.000 C 
BRANCH   4   5
ATOM      5  C   UNL     1      39.400  23.388 221.744  1.00  0.00     0.000 C 
BRANCH   5   6
ATOM      6  C   UNL     1      37.867  23.463 221.683  1.00  0.00     0.006 C 
BRANCH   6   7
ATOM      7  C   UNL     1      37.370  23.322 220.240  1.00  0.00     0.053 C 
BRANCH   7   8
ATOM      8  C   UNL     1      36.010  23.930 220.093  1.00  0.00     0.041 C 
ATOM      9  O   UNL     1      35.694  24.527 219.032  1.00  0.00    -0.550 OA
ATOM     10  O   UNL     1      35.109  23.878 221.149  1.00  0.00    -0.550 OA
ENDBRANCH   7   8
ENDBRANCH   6   7
ENDBRANCH   5   6
ENDBRANCH   4   5
ENDBRANCH   3   4
ENDBRANCH   2   3
ENDBRANCH   1   2
BRANCH   1  11
ATOM     11  C   UNL     1      42.706  21.182 225.169  1.00  0.00     0.000 C 
BRANCH  11  12
ATOM     12  C   UNL     1      43.729  21.363 224.036  1.00  0.00    -0.000 C 
BRANCH  12  13
ATOM     13  C   UNL     1      43.520  20.364 222.887  1.00  0.00    -0.000 C 
BRANCH  13  14
ATOM     14  C   UNL     1      42.753  20.979 221.703  1.00  0.00    -0.000 C 
BRANCH  14  15
ATOM     15  C   UNL     1      41.366  20.347 221.508  1.00  0.00    -0.000 C 
BRANCH  15  16
ATOM     16  C   UNL     1      41.117  19.164 222.454  1.00  0.00    -0.000 C 
BRANCH  16  17
ATOM     17  C   UNL     1      39.987  19.479 223.441  1.00  0.00    -0.003 C 
ATOM     18  C   UNL     1      40.063  18.579 224.672  1.00  0.00     0.004 C 
ENDBRANCH  16  17
ENDBRANCH  15  16
ENDBRANCH  14  15
ENDBRANCH  13  14
ENDBRANCH  12  13
ENDBRANCH  11  12
ENDBRANCH   1  11
TORSDOF 14
ENDMDL
MODEL 5
REMARK VINA RESULT:    -3.546      1.518      2.306
REMARK INTER + INTRA:          -8.265
REMARK INTER:                  -6.616
REMARK INTRA:                  -1.649
REMARK UNBOUND:                -1.816
REMARK SMILES CCCCCCCCCCCCCCCC(=O)[O-]
REMARK SMILES IDX 9 1 10 2 11 3 12 4 13 5 14 6 15 7 16 8 17 9 18 10 8 11 7 12
REMARK SMILES IDX 6 13 5 14 4 15 3 16 2 17 1 18
REMARK H PARENT
REMARK Flexibility Score: inf
ROOT
ATOM      1  C   UNL     1      40.629  22.733 224.039  1.00  0.00     0.000 C 
ENDROOT
BRANCH   1   2
ATOM      2  C   UNL     1      42.130  22.940 223.772  1.00  0.00     0.000 C 
BRANCH   2   3
ATOM      3  C   UNL     1      43.037  21.769 224.194  1.00  0.00     0.000 C 
BRANCH   3   4
ATOM      4  C   UNL     1      43.569  20.962 222.997  1.00  0.00     0.000 C 
BRANCH   4   5
ATOM      5  C   UNL     1      42.652  19.784 222.626  1.00  0.00     0.000 C 
BRANCH   5   6
ATOM      6  C   UNL     1      41.919  19.198 223.842  1.00  0.00     0.006 C 
BRANCH   6   7
ATOM      7  C   UNL     1      40.460  18.880 223.498  1.00  0.00     0.053 C 
BRANCH   7   8
ATOM      8  C   UNL     1      39.658  18.686 224.747  1.00  0.00     0.041 C 
ATOM      9  O   UNL     1      39.310  17.531 225.104  1.00  0.00    -0.550 OA
ATOM     10  O   UNL     1      39.253  19.788 225.489  1.00  0.00    -0.550 OA
ENDBRANCH   7   8
ENDBRANCH   6   7
ENDBRANCH   5   6
ENDBRANCH   4   5
ENDBRANCH   3   4
ENDBRANCH   2   3
ENDBRANCH   1   2
BRANCH   1  11
ATOM     11  C   UNL     1      39.854  22.280 222.793  1.00  0.00     0.000 C 
BRANCH  11  12
ATOM     12  C   UNL     1      39.634  23.454 221.826  1.00  0.00    -0.000 C 
BRANCH  12  13
ATOM     13  C   UNL     1      38.436  24.330 222.223  1.00  0.00    -0.000 C 
BRANCH  13  14
ATOM     14  C   UNL     1      37.197  23.500 222.603  1.00  0.00    -0.000 C 
BRANCH  14  15
ATOM     15  C   UNL     1      36.373  23.077 221.377  1.00  0.00    -0.000 C 
BRANCH  15  16
ATOM     16  C   UNL     1      35.820  24.276 220.594  1.00  0.00    -0.000 C 
BRANCH  16  17
ATOM     17  C   UNL     1      35.960  24.056 219.083  1.00  0.00    -0.003 C 
ATOM     18  C   UNL     1      37.161  23.171 218.764  1.00  0.00     0.004 C 
ENDBRANCH  16  17
ENDBRANCH  15  16
ENDBRANCH  14  15
ENDBRANCH  13  14
ENDBRANCH  12  13
ENDBRANCH  11  12
ENDBRANCH   1  11
TORSDOF 14
ENDMDL
MODEL 6
REMARK VINA RESULT:    -3.509      1.507      2.319
REMARK INTER + INTRA:          -8.197
REMARK INTER:                  -6.652
REMARK INTRA:                  -1.545
REMARK UNBOUND:                -1.816
REMARK SMILES CCCCCCCCCCCCCCCC(=O)[O-]
REMARK SMILES IDX 9 1 10 2 11 3 12 4 13 5 14 6 15 7 16 8 17 9 18 10 8 11 7 12
REMARK SMILES IDX 6 13 5 14 4 15 3 16 2 17 1 18
REMARK H PARENT
REMARK Flexibility Score: inf
ROOT
ATOM      1  C   UNL     1      40.936  22.862 222.093  1.00  0.00     0.000 C 
ENDROOT
BRANCH   1   2
ATOM      2  C   UNL     1      41.545  22.907 223.506  1.00  0.00     0.000 C 
BRANCH   2   3
ATOM      3  C   UNL     1      42.709  21.928 223.748  1.00  0.00     0.000 C 
BRANCH   3   4
ATOM      4  C   UNL     1      42.269  20.454 223.713  1.00  0.00     0.000 C 
BRANCH   4   5
ATOM      5  C   UNL     1      41.090  20.168 224.658  1.00  0.00     0.000 C 
BRANCH   5   6
ATOM      6  C   UNL     1      39.913  19.483 223.948  1.00  0.00     0.006 C 
BRANCH   6   7
ATOM      7  C   UNL     1      38.606  19.708 224.715  1.00  0.00     0.053 C 
BRANCH   7   8
ATOM      8  C   UNL     1      37.943  18.400 225.016  1.00  0.00     0.041 C 
ATOM      9  O   UNL     1      36.746  18.204 224.680  1.00  0.00    -0.550 OA
ATOM     10  O   UNL     1      38.634  17.415 225.709  1.00  0.00    -0.550 OA
ENDBRANCH   7   8
ENDBRANCH   6   7
ENDBRANCH   5   6
ENDBRANCH   4   5
ENDBRANCH   3   4
ENDBRANCH   2   3
ENDBRANCH   1   2
BRANCH   1  11
ATOM     11  C   UNL     1      39.411  22.677 222.101  1.00  0.00     0.000 C 
BRANCH  11  12
ATOM     12  C   UNL     1      38.757  23.562 223.174  1.00  0.00    -0.000 C 
BRANCH  12  13
ATOM     13  C   UNL     1      37.395  23.020 223.637  1.00  0.00    -0.000 C 
BRANCH  13  14
ATOM     14  C   UNL     1      36.217  23.871 223.128  1.00  0.00    -0.000 C 
BRANCH  14  15
ATOM     15  C   UNL     1      35.734  23.434 221.736  1.00  0.00    -0.000 C 
BRANCH  15  16
ATOM     16  C   UNL     1      36.131  24.426 220.634  1.00  0.00    -0.000 C 
BRANCH  16  17
ATOM     17  C   UNL     1      35.454  24.071 219.306  1.00  0.00    -0.003 C 
ATOM     18  C   UNL     1      36.471  23.568 218.285  1.00  0.00     0.004 C 
ENDBRANCH  16  17
ENDBRANCH  15  16
ENDBRANCH  14  15
ENDBRANCH  13  14
ENDBRANCH  12  13
ENDBRANCH  11  12
ENDBRANCH   1  11
TORSDOF 14
ENDMDL
MODEL 7
REMARK VINA RESULT:    -3.496      3.365      6.305
REMARK INTER + INTRA:          -8.173
REMARK INTER:                  -6.512
REMARK INTRA:                  -1.660
REMARK UNBOUND:                -1.816
REMARK SMILES CCCCCCCCCCCCCCCC(=O)[O-]
REMARK SMILES IDX 9 1 10 2 11 3 12 4 13 5 14 6 15 7 16 8 17 9 18 10 8 11 7 12
REMARK SMILES IDX 6 13 5 14 4 15 3 16 2 17 1 18
REMARK H PARENT
REMARK Flexibility Score: inf
ROOT
ATOM      1  C   UNL     1      40.405  23.779 222.255  1.00  0.00     0.000 C 
ENDROOT
BRANCH   1   2
ATOM      2  C   UNL     1      39.862  24.105 223.657  1.00  0.00     0.000 C 
BRANCH   2   3
ATOM      3  C   UNL     1      38.986  25.369 223.742  1.00  0.00     0.000 C 
BRANCH   3   4
ATOM      4  C   UNL     1      37.569  25.154 223.183  1.00  0.00     0.000 C 
BRANCH   4   5
ATOM      5  C   UNL     1      36.968  23.802 223.602  1.00  0.00     0.000 C 
BRANCH   5   6
ATOM      6  C   UNL     1      36.592  22.922 222.401  1.00  0.00     0.006 C 
BRANCH   6   7
ATOM      7  C   UNL     1      36.782  23.683 221.086  1.00  0.00     0.053 C 
BRANCH   7   8
ATOM      8  C   UNL     1      35.462  23.906 220.415  1.00  0.00     0.041 C 
ATOM      9  O   UNL     1      34.399  23.896 221.088  1.00  0.00    -0.550 OA
ATOM     10  O   UNL     1      35.404  24.077 219.038  1.00  0.00    -0.550 OA
ENDBRANCH   7   8
ENDBRANCH   6   7
ENDBRANCH   5   6
ENDBRANCH   4   5
ENDBRANCH   3   4
ENDBRANCH   2   3
ENDBRANCH   1   2
BRANCH   1  11
ATOM     11  C   UNL     1      40.898  22.331 222.124  1.00  0.00     0.000 C 
BRANCH  11  12
ATOM     12  C   UNL     1      39.983  21.367 222.896  1.00  0.00    -0.000 C 
BRANCH  12  13
ATOM     13  C   UNL     1      40.694  20.060 223.283  1.00  0.00    -0.000 C 
BRANCH  13  14
ATOM     14  C   UNL     1      41.119  20.036 224.763  1.00  0.00    -0.000 C 
BRANCH  14  15
ATOM     15  C   UNL     1      40.209  19.145 225.622  1.00  0.00    -0.000 C 
BRANCH  15  16
ATOM     16  C   UNL     1      39.354  18.187 224.781  1.00  0.00    -0.000 C 
BRANCH  16  17
ATOM     17  C   UNL     1      37.862  18.382 225.074  1.00  0.00    -0.003 C 
ATOM     18  C   UNL     1      37.650  19.094 226.407  1.00  0.00     0.004 C 
ENDBRANCH  16  17
ENDBRANCH  15  16
ENDBRANCH  14  15
ENDBRANCH  13  14
ENDBRANCH  12  13
ENDBRANCH  11  12
ENDBRANCH   1  11
TORSDOF 14
ENDMDL
MODEL 8
REMARK VINA RESULT:    -3.461      3.685      5.768
REMARK INTER + INTRA:          -8.110
REMARK INTER:                  -5.973
REMARK INTRA:                  -2.137
REMARK UNBOUND:                -1.816
REMARK SMILES CCCCCCCCCCCCCCCC(=O)[O-]
REMARK SMILES IDX 9 1 10 2 11 3 12 4 13 5 14 6 15 7 16 8 17 9 18 10 8 11 7 12
REMARK SMILES IDX 6 13 5 14 4 15 3 16 2 17 1 18
REMARK H PARENT
REMARK Flexibility Score: inf
ROOT
ATOM      1  C   UNL     1      40.979  27.184 225.132  1.00  0.00     0.000 C 
ENDROOT
BRANCH   1   2
ATOM      2  C   UNL     1      39.474  26.877 225.231  1.00  0.00     0.000 C 
BRANCH   2   3
ATOM      3  C   UNL     1      38.853  26.235 223.977  1.00  0.00     0.000 C 
BRANCH   3   4
ATOM      4  C   UNL     1      37.514  25.534 224.264  1.00  0.00     0.000 C 
BRANCH   4   5
ATOM      5  C   UNL     1      36.685  25.301 222.990  1.00  0.00     0.000 C 
BRANCH   5   6
ATOM      6  C   UNL     1      36.064  23.897 222.934  1.00  0.00     0.006 C 
BRANCH   6   7
ATOM      7  C   UNL     1      36.237  23.279 221.543  1.00  0.00     0.053 C 
BRANCH   7   8
ATOM      8  C   UNL     1      35.289  23.907 220.569  1.00  0.00     0.041 C 
ATOM      9  O   UNL     1      34.053  23.922 220.808  1.00  0.00    -0.550 OA
ATOM     10  O   UNL     1      35.766  24.431 219.375  1.00  0.00    -0.550 OA
ENDBRANCH   7   8
ENDBRANCH   6   7
ENDBRANCH   5   6
ENDBRANCH   4   5
ENDBRANCH   3   4
ENDBRANCH   2   3
ENDBRANCH   1   2
BRANCH   1  11
ATOM     11  C   UNL     1      41.859  25.937 225.303  1.00  0.00     0.000 C 
BRANCH  11  12
ATOM     12  C   UNL     1      41.397  25.101 226.507  1.00  0.00    -0.000 C 
BRANCH  12  13
ATOM     13  C   UNL     1      41.466  23.589 226.238  1.00  0.00    -0.000 C 
BRANCH  13  14
ATOM     14  C   UNL     1      40.072  22.945 226.129  1.00  0.00    -0.000 C 
BRANCH  14  15
ATOM     15  C   UNL     1      39.648  22.702 224.672  1.00  0.00    -0.000 C 
BRANCH  15  16
ATOM     16  C   UNL     1      40.817  22.255 223.782  1.00  0.00    -0.000 C 
BRANCH  16  17
ATOM     17  C   UNL     1      41.083  23.278 222.672  1.00  0.00    -0.003 C 
ATOM     18  C   UNL     1      39.866  23.436 221.765  1.00  0.00     0.004 C 
ENDBRANCH  16  17
ENDBRANCH  15  16
ENDBRANCH  14  15
ENDBRANCH  13  14
ENDBRANCH  12  13
ENDBRANCH  11  12
ENDBRANCH   1  11
TORSDOF 14
ENDMDL
MODEL 9
REMARK VINA RESULT:    -3.446      1.860      3.034
REMARK INTER + INTRA:          -8.083
REMARK INTER:                  -6.397
REMARK INTRA:                  -1.685
REMARK UNBOUND:                -1.816
REMARK SMILES CCCCCCCCCCCCCCCC(=O)[O-]
REMARK SMILES IDX 9 1 10 2 11 3 12 4 13 5 14 6 15 7 16 8 17 9 18 10 8 11 7 12
REMARK SMILES IDX 6 13 5 14 4 15 3 16 2 17 1 18
REMARK H PARENT
REMARK Flexibility Score: inf
ROOT
ATOM      1  C   UNL     1      40.675  22.868 222.057  1.00  0.00     0.000 C 
ENDROOT
BRANCH   1   2
ATOM      2  C   UNL     1      40.835  22.205 223.436  1.00  0.00     0.000 C 
BRANCH   2   3
ATOM      3  C   UNL     1      39.857  21.052 223.725  1.00  0.00     0.000 C 
BRANCH   3   4
ATOM      4  C   UNL     1      39.154  21.190 225.087  1.00  0.00     0.000 C 
BRANCH   4   5
ATOM      5  C   UNL     1      38.012  20.176 225.267  1.00  0.00     0.000 C 
BRANCH   5   6
ATOM      6  C   UNL     1      38.358  18.787 224.709  1.00  0.00     0.006 C 
BRANCH   6   7
ATOM      7  C   UNL     1      38.798  17.842 225.831  1.00  0.00     0.053 C 
BRANCH   7   8
ATOM      8  C   UNL     1      37.691  17.654 226.821  1.00  0.00     0.041 C 
ATOM      9  O   UNL     1      37.900  17.840 228.048  1.00  0.00    -0.550 OA
ATOM     10  O   UNL     1      36.441  17.227 226.392  1.00  0.00    -0.550 OA
ENDBRANCH   7   8
ENDBRANCH   6   7
ENDBRANCH   5   6
ENDBRANCH   4   5
ENDBRANCH   3   4
ENDBRANCH   2   3
ENDBRANCH   1   2
BRANCH   1  11
ATOM     11  C   UNL     1      39.870  24.174 222.108  1.00  0.00     0.000 C 
BRANCH  11  12
ATOM     12  C   UNL     1      39.773  24.704 223.547  1.00  0.00    -0.000 C 
BRANCH  12  13
ATOM     13  C   UNL     1      38.463  25.464 223.811  1.00  0.00    -0.000 C 
BRANCH  13  14
ATOM     14  C   UNL     1      37.327  25.026 222.870  1.00  0.00    -0.000 C 
BRANCH  14  15
ATOM     15  C   UNL     1      36.734  23.662 223.258  1.00  0.00    -0.000 C 
BRANCH  15  16
ATOM     16  C   UNL     1      36.301  22.836 222.038  1.00  0.00    -0.000 C 
BRANCH  16  17
ATOM     17  C   UNL     1      36.129  23.729 220.804  1.00  0.00    -0.003 C 
ATOM     18  C   UNL     1      37.043  23.281 219.667  1.00  0.00     0.004 C 
ENDBRANCH  16  17
ENDBRANCH  15  16
ENDBRANCH  14  15
ENDBRANCH  13  14
ENDBRANCH  12  13
ENDBRANCH  11  12
ENDBRANCH   1  11
TORSDOF 14
ENDMDL
