MODEL 1
REMARK VINA RESULT:    -4.131      0.000      0.000
REMARK INTER + INTRA:          -5.485
REMARK INTER:                  -5.339
REMARK INTRA:                  -0.146
REMARK UNBOUND:                -0.146
REMARK SMILES CCO[C@H]1O[C@H](CO)[C@H](O)[C@H](O)[C@H]1O
REMARK SMILES IDX 4 1 13 2 11 3 9 4 6 5 5 6 3 7 2 8 1 9 14 10 12 12 7 14 8 15
REMARK SMILES IDX 10 17
REMARK H PARENT 14 11 12 13 8 16 10 18
REMARK Flexibility Score: inf
ROOT
ATOM      1  C   UNL     1       7.123  -6.214  -2.424  1.00  0.00     0.281 C 
ATOM      2  C   UNL     1       8.584  -5.769  -2.668  1.00  0.00     0.202 C 
ATOM      3  C   UNL     1       9.051  -4.783  -1.581  1.00  0.00     0.179 C 
ATOM      4  C   UNL     1       8.027  -3.643  -1.441  1.00  0.00     0.177 C 
ATOM      5  C   UNL     1       6.622  -4.249  -1.230  1.00  0.00     0.178 C 
ATOM      6  O   UNL     1       6.262  -5.086  -2.321  1.00  0.00    -0.341 OA
ENDROOT
BRANCH   1   7
ATOM      7  O   UNL     1       7.044  -7.031  -1.263  1.00  0.00    -0.350 OA
BRANCH   7   8
ATOM      8  C   UNL     1       6.487  -8.304  -1.544  1.00  0.00     0.160 C 
ATOM      9  C   UNL     1       6.176  -9.060  -0.256  1.00  0.00     0.035 C 
ENDBRANCH   7   8
ENDBRANCH   1   7
BRANCH   2  10
ATOM     10  O   UNL     1       9.441  -6.880  -2.758  1.00  0.00    -0.385 OA
ATOM     11  H   UNL     1       8.961  -7.598  -3.248  1.00  0.00     0.211 HD
ENDBRANCH   2  10
BRANCH   3  12
ATOM     12  O   UNL     1      10.311  -4.268  -1.923  1.00  0.00    -0.387 OA
ATOM     13  H   UNL     1      10.802  -4.126  -1.073  1.00  0.00     0.211 HD
ENDBRANCH   3  12
BRANCH   5  14
ATOM     14  C   UNL     1       5.568  -3.140  -1.081  1.00  0.00     0.191 C 
BRANCH  14  15
ATOM     15  O   UNL     1       4.988  -3.180   0.195  1.00  0.00    -0.394 OA
ATOM     16  H   UNL     1       4.012  -3.047   0.068  1.00  0.00     0.210 HD
ENDBRANCH  14  15
ENDBRANCH   5  14
BRANCH   4  17
ATOM     17  O   UNL     1       8.038  -2.846  -2.602  1.00  0.00    -0.387 OA
ATOM     18  H   UNL     1       7.182  -2.342  -2.624  1.00  0.00     0.211 HD
ENDBRANCH   4  17
TORSDOF 7
ENDMDL
MODEL 2
REMARK VINA RESULT:    -4.131      1.531      3.919
REMARK INTER + INTRA:          -5.484
REMARK INTER:                  -5.002
REMARK INTRA:                  -0.483
REMARK UNBOUND:                -0.146
REMARK SMILES CCO[C@H]1O[C@H](CO)[C@H](O)[C@H](O)[C@H]1O
REMARK SMILES IDX 4 1 13 2 11 3 9 4 6 5 5 6 3 7 2 8 1 9 14 10 12 12 7 14 8 15
REMARK SMILES IDX 10 17
REMARK H PARENT 14 11 12 13 8 16 10 18
REMARK Flexibility Score: inf
ROOT
ATOM      1  C   UNL     1       7.186  -4.785  -1.423  1.00  0.00     0.281 C 
ATOM      2  C   UNL     1       8.671  -4.404  -1.227  1.00  0.00     0.202 C 
ATOM      3  C   UNL     1       9.582  -5.232  -2.154  1.00  0.00     0.179 C 
ATOM      4  C   UNL     1       9.257  -6.728  -1.998  1.00  0.00     0.177 C 
ATOM      5  C   UNL     1       7.739  -6.938  -2.194  1.00  0.00     0.178 C 
ATOM      6  O   UNL     1       6.995  -6.184  -1.246  1.00  0.00    -0.341 OA
ENDROOT
BRANCH   1   7
ATOM      7  O   UNL     1       6.732  -4.359  -2.702  1.00  0.00    -0.350 OA
BRANCH   7   8
ATOM      8  C   UNL     1       5.402  -3.873  -2.661  1.00  0.00     0.160 C 
ATOM      9  C   UNL     1       5.209  -2.908  -1.495  1.00  0.00     0.035 C 
ENDBRANCH   7   8
ENDBRANCH   1   7
BRANCH   2  10
ATOM     10  O   UNL     1       8.867  -3.024  -1.414  1.00  0.00    -0.385 OA
ATOM     11  H   UNL     1       9.128  -2.877  -2.361  1.00  0.00     0.211 HD
ENDBRANCH   2  10
BRANCH   3  12
ATOM     12  O   UNL     1      10.926  -4.989  -1.832  1.00  0.00    -0.387 OA
ATOM     13  H   UNL     1      11.304  -5.850  -1.515  1.00  0.00     0.211 HD
ENDBRANCH   3  12
BRANCH   5  14
ATOM     14  C   UNL     1       7.373  -8.424  -2.050  1.00  0.00     0.191 C 
BRANCH  14  15
ATOM     15  O   UNL     1       7.232  -8.768  -0.699  1.00  0.00    -0.394 OA
ATOM     16  H   UNL     1       7.864  -9.515  -0.528  1.00  0.00     0.210 HD
ENDBRANCH  14  15
ENDBRANCH   5  14
BRANCH   4  17
ATOM     17  O   UNL     1       9.641  -7.169  -0.716  1.00  0.00    -0.387 OA
ATOM     18  H   UNL     1       9.434  -6.438  -0.076  1.00  0.00     0.211 HD
ENDBRANCH   4  17
TORSDOF 7
ENDMDL
MODEL 3
REMARK VINA RESULT:    -4.020      2.171      4.416
REMARK INTER + INTRA:          -5.341
REMARK INTER:                  -4.959
REMARK INTRA:                  -0.382
REMARK UNBOUND:                -0.146
REMARK SMILES CCO[C@H]1O[C@H](CO)[C@H](O)[C@H](O)[C@H]1O
REMARK SMILES IDX 4 1 13 2 11 3 9 4 6 5 5 6 3 7 2 8 1 9 14 10 12 12 7 14 8 15
REMARK SMILES IDX 10 17
REMARK H PARENT 14 11 12 13 8 16 10 18
REMARK Flexibility Score: inf
ROOT
ATOM      1  C   UNL     1       6.577  -4.581  -1.845  1.00  0.00     0.281 C 
ATOM      2  C   UNL     1       6.855  -4.205  -0.371  1.00  0.00     0.202 C 
ATOM      3  C   UNL     1       8.190  -3.448  -0.235  1.00  0.00     0.179 C 
ATOM      4  C   UNL     1       9.307  -4.238  -0.938  1.00  0.00     0.177 C 
ATOM      5  C   UNL     1       8.868  -4.557  -2.384  1.00  0.00     0.178 C 
ATOM      6  O   UNL     1       7.665  -5.315  -2.394  1.00  0.00    -0.341 OA
ENDROOT
BRANCH   1   7
ATOM      7  O   UNL     1       6.306  -3.412  -2.609  1.00  0.00    -0.350 OA
BRANCH   7   8
ATOM      8  C   UNL     1       4.983  -3.401  -3.115  1.00  0.00     0.160 C 
ATOM      9  C   UNL     1       4.307  -2.060  -2.846  1.00  0.00     0.035 C 
ENDBRANCH   7   8
ENDBRANCH   1   7
BRANCH   2  10
ATOM     10  O   UNL     1       5.788  -3.468   0.171  1.00  0.00    -0.385 OA
ATOM     11  H   UNL     1       5.829  -3.552   1.160  1.00  0.00     0.211 HD
ENDBRANCH   2  10
BRANCH   3  12
ATOM     12  O   UNL     1       8.495  -3.275   1.124  1.00  0.00    -0.387 OA
ATOM     13  H   UNL     1       8.122  -4.061   1.602  1.00  0.00     0.211 HD
ENDBRANCH   3  12
BRANCH   5  14
ATOM     14  C   UNL     1       9.961  -5.343  -3.125  1.00  0.00     0.191 C 
BRANCH  14  15
ATOM     15  O   UNL     1      11.233  -4.943  -2.694  1.00  0.00    -0.394 OA
ATOM     16  H   UNL     1      11.103  -4.128  -2.141  1.00  0.00     0.210 HD
ENDBRANCH  14  15
ENDBRANCH   5  14
BRANCH   4  17
ATOM     17  O   UNL     1       9.560  -5.434  -0.238  1.00  0.00    -0.387 OA
ATOM     18  H   UNL     1       9.857  -5.185   0.677  1.00  0.00     0.211 HD
ENDBRANCH   4  17
TORSDOF 7
ENDMDL
MODEL 4
REMARK VINA RESULT:    -3.703      1.641      3.322
REMARK INTER + INTRA:          -4.931
REMARK INTER:                  -4.539
REMARK INTRA:                  -0.393
REMARK UNBOUND:                -0.146
REMARK SMILES CCO[C@H]1O[C@H](CO)[C@H](O)[C@H](O)[C@H]1O
REMARK SMILES IDX 4 1 13 2 11 3 9 4 6 5 5 6 3 7 2 8 1 9 14 10 12 12 7 14 8 15
REMARK SMILES IDX 10 17
REMARK H PARENT 14 11 12 13 8 16 10 18
REMARK Flexibility Score: inf
ROOT
ATOM      1  C   UNL     1       6.687  -5.792  -1.820  1.00  0.00     0.281 C 
ATOM      2  C   UNL     1       6.303  -4.294  -1.842  1.00  0.00     0.202 C 
ATOM      3  C   UNL     1       7.356  -3.464  -2.603  1.00  0.00     0.179 C 
ATOM      4  C   UNL     1       8.758  -3.779  -2.055  1.00  0.00     0.177 C 
ATOM      5  C   UNL     1       8.976  -5.308  -2.073  1.00  0.00     0.178 C 
ATOM      6  O   UNL     1       7.994  -5.971  -1.287  1.00  0.00    -0.341 OA
ENDROOT
BRANCH   1   7
ATOM      7  O   UNL     1       6.581  -6.348  -3.125  1.00  0.00    -0.350 OA
BRANCH   7   8
ATOM      8  C   UNL     1       5.880  -7.578  -3.125  1.00  0.00     0.160 C 
ATOM      9  C   UNL     1       6.817  -8.742  -2.816  1.00  0.00     0.035 C 
ENDBRANCH   7   8
ENDBRANCH   1   7
BRANCH   2  10
ATOM     10  O   UNL     1       5.017  -4.111  -2.381  1.00  0.00    -0.385 OA
ATOM     11  H   UNL     1       4.602  -5.007  -2.493  1.00  0.00     0.211 HD
ENDBRANCH   2  10
BRANCH   3  12
ATOM     12  O   UNL     1       7.070  -2.098  -2.458  1.00  0.00    -0.387 OA
ATOM     13  H   UNL     1       6.755  -1.777  -3.343  1.00  0.00     0.211 HD
ENDBRANCH   3  12
BRANCH   5  14
ATOM     14  C   UNL     1      10.372  -5.665  -1.536  1.00  0.00     0.191 C 
BRANCH  14  15
ATOM     15  O   UNL     1      10.365  -5.704  -0.135  1.00  0.00    -0.394 OA
ATOM     16  H   UNL     1      11.038  -5.041   0.171  1.00  0.00     0.210 HD
ENDBRANCH  14  15
ENDBRANCH   5  14
BRANCH   4  17
ATOM     17  O   UNL     1       8.877  -3.293  -0.738  1.00  0.00    -0.387 OA
ATOM     18  H   UNL     1       7.982  -3.364  -0.313  1.00  0.00     0.211 HD
ENDBRANCH   4  17
TORSDOF 7
ENDMDL
MODEL 5
REMARK VINA RESULT:    -3.537      1.733      4.025
REMARK INTER + INTRA:          -4.717
REMARK INTER:                  -4.338
REMARK INTRA:                  -0.379
REMARK UNBOUND:                -0.146
REMARK SMILES CCO[C@H]1O[C@H](CO)[C@H](O)[C@H](O)[C@H]1O
REMARK SMILES IDX 4 1 13 2 11 3 9 4 6 5 5 6 3 7 2 8 1 9 14 10 12 12 7 14 8 15
REMARK SMILES IDX 10 17
REMARK H PARENT 14 11 12 13 8 16 10 18
REMARK Flexibility Score: inf
ROOT
ATOM      1  C   UNL     1       7.257  -5.151  -2.435  1.00  0.00     0.281 C 
ATOM      2  C   UNL     1       7.796  -6.503  -1.913  1.00  0.00     0.202 C 
ATOM      3  C   UNL     1       9.052  -6.300  -1.044  1.00  0.00     0.179 C 
ATOM      4  C   UNL     1      10.070  -5.428  -1.800  1.00  0.00     0.177 C 
ATOM      5  C   UNL     1       9.373  -4.135  -2.275  1.00  0.00     0.178 C 
ATOM      6  O   UNL     1       8.273  -4.433  -3.125  1.00  0.00    -0.341 OA
ENDROOT
BRANCH   1   7
ATOM      7  O   UNL     1       6.723  -4.386  -1.361  1.00  0.00    -0.350 OA
BRANCH   7   8
ATOM      8  C   UNL     1       5.575  -3.652  -1.748  1.00  0.00     0.160 C 
ATOM      9  C   UNL     1       5.936  -2.207  -2.079  1.00  0.00     0.035 C 
ENDBRANCH   7   8
ENDBRANCH   1   7
BRANCH   2  10
ATOM     10  O   UNL     1       6.799  -7.210  -1.219  1.00  0.00    -0.385 OA
ATOM     11  H   UNL     1       5.916  -6.903  -1.555  1.00  0.00     0.211 HD
ENDBRANCH   2  10
BRANCH   3  12
ATOM     12  O   UNL     1       9.613  -7.548  -0.731  1.00  0.00    -0.387 OA
ATOM     13  H   UNL     1      10.598  -7.443  -0.805  1.00  0.00     0.211 HD
ENDBRANCH   3  12
BRANCH   5  14
ATOM     14  C   UNL     1      10.360  -3.232  -3.033  1.00  0.00     0.191 C 
BRANCH  14  15
ATOM     15  O   UNL     1      11.682  -3.619  -2.772  1.00  0.00    -0.394 OA
ATOM     16  H   UNL     1      11.672  -4.605  -2.655  1.00  0.00     0.210 HD
ENDBRANCH  14  15
ENDBRANCH   5  14
BRANCH   4  17
ATOM     17  O   UNL     1      10.575  -6.137  -2.907  1.00  0.00    -0.387 OA
ATOM     18  H   UNL     1       9.798  -6.433  -3.451  1.00  0.00     0.211 HD
ENDBRANCH   4  17
TORSDOF 7
ENDMDL
MODEL 6
REMARK VINA RESULT:    -3.509      1.799      4.603
REMARK INTER + INTRA:          -4.680
REMARK INTER:                  -4.271
REMARK INTRA:                  -0.410
REMARK UNBOUND:                -0.146
REMARK SMILES CCO[C@H]1O[C@H](CO)[C@H](O)[C@H](O)[C@H]1O
REMARK SMILES IDX 4 1 13 2 11 3 9 4 6 5 5 6 3 7 2 8 1 9 14 10 12 12 7 14 8 15
REMARK SMILES IDX 10 17
REMARK H PARENT 14 11 12 13 8 16 10 18
REMARK Flexibility Score: inf
ROOT
ATOM      1  C   UNL     1       7.391  -4.242  -3.114  1.00  0.00     0.281 C 
ATOM      2  C   UNL     1       6.641  -5.582  -2.935  1.00  0.00     0.202 C 
ATOM      3  C   UNL     1       7.126  -6.323  -1.674  1.00  0.00     0.179 C 
ATOM      4  C   UNL     1       8.661  -6.421  -1.688  1.00  0.00     0.177 C 
ATOM      5  C   UNL     1       9.255  -5.011  -1.902  1.00  0.00     0.178 C 
ATOM      6  O   UNL     1       8.799  -4.448  -3.125  1.00  0.00    -0.341 OA
ENDROOT
BRANCH   1   7
ATOM      7  O   UNL     1       7.011  -3.324  -2.097  1.00  0.00    -0.350 OA
BRANCH   7   8
ATOM      8  C   UNL     1       6.614  -2.072  -2.629  1.00  0.00     0.160 C 
ATOM      9  C   UNL     1       5.144  -1.793  -2.330  1.00  0.00     0.035 C 
ENDBRANCH   7   8
ENDBRANCH   1   7
BRANCH   2  10
ATOM     10  O   UNL     1       5.250  -5.382  -2.911  1.00  0.00    -0.385 OA
ATOM     11  H   UNL     1       5.074  -4.499  -2.493  1.00  0.00     0.211 HD
ENDBRANCH   2  10
BRANCH   3  12
ATOM     12  O   UNL     1       6.555  -7.605  -1.633  1.00  0.00    -0.387 OA
ATOM     13  H   UNL     1       5.662  -7.506  -1.210  1.00  0.00     0.211 HD
ENDBRANCH   3  12
BRANCH   5  14
ATOM     14  C   UNL     1      10.791  -5.065  -1.919  1.00  0.00     0.191 C 
BRANCH  14  15
ATOM     15  O   UNL     1      11.264  -5.960  -0.948  1.00  0.00    -0.394 OA
ATOM     16  H   UNL     1      11.206  -5.490  -0.075  1.00  0.00     0.210 HD
ENDBRANCH  14  15
ENDBRANCH   5  14
BRANCH   4  17
ATOM     17  O   UNL     1       9.075  -7.279  -2.726  1.00  0.00    -0.387 OA
ATOM     18  H   UNL     1       8.897  -8.210  -2.430  1.00  0.00     0.211 HD
ENDBRANCH   4  17
TORSDOF 7
ENDMDL
MODEL 7
REMARK VINA RESULT:    -3.205      1.811      3.430
REMARK INTER + INTRA:          -4.287
REMARK INTER:                  -3.813
REMARK INTRA:                  -0.475
REMARK UNBOUND:                -0.146
REMARK SMILES CCO[C@H]1O[C@H](CO)[C@H](O)[C@H](O)[C@H]1O
REMARK SMILES IDX 4 1 13 2 11 3 9 4 6 5 5 6 3 7 2 8 1 9 14 10 12 12 7 14 8 15
REMARK SMILES IDX 10 17
REMARK H PARENT 14 11 12 13 8 16 10 18
REMARK Flexibility Score: inf
ROOT
ATOM      1  C   UNL     1       8.521  -4.991  -1.402  1.00  0.00     0.281 C 
ATOM      2  C   UNL     1       7.222  -5.759  -1.740  1.00  0.00     0.202 C 
ATOM      3  C   UNL     1       6.505  -5.129  -2.949  1.00  0.00     0.179 C 
ATOM      4  C   UNL     1       6.340  -3.616  -2.723  1.00  0.00     0.177 C 
ATOM      5  C   UNL     1       7.713  -3.005  -2.371  1.00  0.00     0.178 C 
ATOM      6  O   UNL     1       8.254  -3.608  -1.203  1.00  0.00    -0.341 OA
ENDROOT
BRANCH   1   7
ATOM      7  O   UNL     1       9.490  -5.187  -2.426  1.00  0.00    -0.350 OA
BRANCH   7   8
ATOM      8  C   UNL     1      10.791  -5.379  -1.899  1.00  0.00     0.160 C 
ATOM      9  C   UNL     1      10.749  -6.241  -0.641  1.00  0.00     0.035 C 
ENDBRANCH   7   8
ENDBRANCH   1   7
BRANCH   2  10
ATOM     10  O   UNL     1       7.484  -7.124  -1.951  1.00  0.00    -0.385 OA
ATOM     11  H   UNL     1       8.201  -7.399  -1.321  1.00  0.00     0.211 HD
ENDBRANCH   2  10
BRANCH   3  12
ATOM     12  O   UNL     1       5.252  -5.737  -3.121  1.00  0.00    -0.387 OA
ATOM     13  H   UNL     1       4.770  -5.208  -3.808  1.00  0.00     0.211 HD
ENDBRANCH   3  12
BRANCH   5  14
ATOM     14  C   UNL     1       7.592  -1.490  -2.141  1.00  0.00     0.191 C 
BRANCH  14  15
ATOM     15  O   UNL     1       6.504  -0.969  -2.855  1.00  0.00    -0.394 OA
ATOM     16  H   UNL     1       6.495  -1.426  -3.736  1.00  0.00     0.210 HD
ENDBRANCH  14  15
ENDBRANCH   5  14
BRANCH   4  17
ATOM     17  O   UNL     1       5.429  -3.387  -1.673  1.00  0.00    -0.387 OA
ATOM     18  H   UNL     1       5.574  -2.459  -1.351  1.00  0.00     0.211 HD
ENDBRANCH   4  17
TORSDOF 7
ENDMDL
MODEL 8
REMARK VINA RESULT:    -3.202      2.428      4.046
REMARK INTER + INTRA:          -4.283
REMARK INTER:                  -4.366
REMARK INTRA:                   0.083
REMARK UNBOUND:                -0.146
REMARK SMILES CCO[C@H]1O[C@H](CO)[C@H](O)[C@H](O)[C@H]1O
REMARK SMILES IDX 4 1 13 2 11 3 9 4 6 5 5 6 3 7 2 8 1 9 14 10 12 12 7 14 8 15
REMARK SMILES IDX 10 17
REMARK H PARENT 14 11 12 13 8 16 10 18
REMARK Flexibility Score: inf
ROOT
ATOM      1  C   UNL     1       8.375  -2.492  -1.793  1.00  0.00     0.281 C 
ATOM      2  C   UNL     1       7.986  -3.527  -0.713  1.00  0.00     0.202 C 
ATOM      3  C   UNL     1       6.759  -4.350  -1.150  1.00  0.00     0.179 C 
ATOM      4  C   UNL     1       5.632  -3.403  -1.594  1.00  0.00     0.177 C 
ATOM      5  C   UNL     1       6.184  -2.420  -2.649  1.00  0.00     0.178 C 
ATOM      6  O   UNL     1       7.266  -1.663  -2.121  1.00  0.00    -0.341 OA
ENDROOT
BRANCH   1   7
ATOM      7  O   UNL     1       8.886  -3.151  -2.946  1.00  0.00    -0.350 OA
BRANCH   7   8
ATOM      8  C   UNL     1      10.294  -3.299  -2.895  1.00  0.00     0.160 C 
ATOM      9  C   UNL     1      10.698  -4.752  -3.124  1.00  0.00     0.035 C 
ENDBRANCH   7   8
ENDBRANCH   1   7
BRANCH   2  10
ATOM     10  O   UNL     1       9.076  -4.357  -0.395  1.00  0.00    -0.385 OA
ATOM     11  H   UNL     1       9.783  -3.791   0.013  1.00  0.00     0.211 HD
ENDBRANCH   2  10
BRANCH   3  12
ATOM     12  O   UNL     1       6.329  -5.155  -0.084  1.00  0.00    -0.387 OA
ATOM     13  H   UNL     1       5.345  -5.244  -0.173  1.00  0.00     0.211 HD
ENDBRANCH   3  12
BRANCH   5  14
ATOM     14  C   UNL     1       5.084  -1.456  -3.124  1.00  0.00     0.191 C 
BRANCH  14  15
ATOM     15  O   UNL     1       4.750  -0.551  -2.107  1.00  0.00    -0.394 OA
ATOM     16  H   UNL     1       4.802   0.357  -2.506  1.00  0.00     0.210 HD
ENDBRANCH  14  15
ENDBRANCH   5  14
BRANCH   4  17
ATOM     17  O   UNL     1       5.142  -2.690  -0.483  1.00  0.00    -0.387 OA
ATOM     18  H   UNL     1       4.536  -1.982  -0.827  1.00  0.00     0.211 HD
ENDBRANCH   4  17
TORSDOF 7
ENDMDL
