MODEL 1
REMARK VINA RESULT:    -2.963      0.000      0.000
REMARK INTER + INTRA:          -3.050
REMARK INTER:                  -3.050
REMARK INTRA:                   0.000
REMARK UNBOUND:                 0.000
REMARK SMILES O=c1ccc2ccc(O)cc2o1
REMARK SMILES IDX 6 1 7 2 8 3 10 4 11 5 5 6 4 7 3 8 2 9 1 10 12 11 9 12
REMARK H PARENT 9 13
REMARK Flexibility Score: inf
ROOT
ATOM      1  C   UNL     1     -46.724 -25.642  41.981  1.00  0.00     0.016 A 
ATOM      2  C   UNL     1     -46.731 -24.846  40.830  1.00  0.00     0.047 A 
ATOM      3  C   UNL     1     -45.998 -23.653  40.790  1.00  0.00     0.119 A 
ATOM      4  C   UNL     1     -45.255 -23.251  41.910  1.00  0.00     0.094 A 
ATOM      5  C   UNL     1     -45.242 -24.040  43.065  1.00  0.00     0.142 A 
ATOM      6  C   UNL     1     -45.982 -25.243  43.101  1.00  0.00     0.018 A 
ATOM      7  C   UNL     1     -45.950 -26.010  44.270  1.00  0.00     0.019 A 
ATOM      8  C   UNL     1     -45.197 -25.569  45.357  1.00  0.00     0.094 A 
ATOM      9  C   UNL     1     -44.489 -24.366  45.249  1.00  0.00     0.336 A 
ATOM     10  O   UNL     1     -43.803 -23.952  46.220  1.00  0.00    -0.246 OA
ATOM     11  O   UNL     1     -44.536 -23.656  44.126  1.00  0.00    -0.423 OA
ENDROOT
BRANCH   3  12
ATOM     12  O   UNL     1     -46.017 -22.875  39.634  1.00  0.00    -0.508 OA
ATOM     13  H   UNL     1     -45.180 -22.423  39.288  1.00  0.00     0.293 HD
ENDBRANCH   3  12
TORSDOF 1
ENDMDL
MODEL 2
REMARK VINA RESULT:    -2.950     23.915     24.580
REMARK INTER + INTRA:          -3.036
REMARK INTER:                  -3.036
REMARK INTRA:                   0.000
REMARK UNBOUND:                 0.000
REMARK SMILES O=c1ccc2ccc(O)cc2o1
REMARK SMILES IDX 6 1 7 2 8 3 10 4 11 5 5 6 4 7 3 8 2 9 1 10 12 11 9 12
REMARK H PARENT 9 13
REMARK Flexibility Score: inf
ROOT
ATOM      1  C   UNL     1     -27.400 -40.584  42.929  1.00  0.00     0.016 A 
ATOM      2  C   UNL     1     -27.237 -41.240  41.705  1.00  0.00     0.047 A 
ATOM      3  C   UNL     1     -27.833 -42.488  41.485  1.00  0.00     0.119 A 
ATOM      4  C   UNL     1     -28.598 -43.086  42.498  1.00  0.00     0.094 A 
ATOM      5  C   UNL     1     -28.767 -42.437  43.726  1.00  0.00     0.142 A 
ATOM      6  C   UNL     1     -28.164 -41.178  43.944  1.00  0.00     0.018 A 
ATOM      7  C   UNL     1     -28.350 -40.555  45.181  1.00  0.00     0.019 A 
ATOM      8  C   UNL     1     -29.119 -41.188  46.157  1.00  0.00     0.094 A 
ATOM      9  C   UNL     1     -29.686 -42.435  45.871  1.00  0.00     0.336 A 
ATOM     10  O   UNL     1     -30.382 -43.022  46.740  1.00  0.00    -0.246 OA
ATOM     11  O   UNL     1     -29.493 -43.006  44.685  1.00  0.00    -0.423 OA
ENDROOT
BRANCH   3  12
ATOM     12  O   UNL     1     -27.659 -43.125  40.258  1.00  0.00    -0.508 OA
ATOM     13  H   UNL     1     -27.932 -42.682  39.389  1.00  0.00     0.293 HD
ENDBRANCH   3  12
TORSDOF 1
ENDMDL
MODEL 3
REMARK VINA RESULT:    -2.937     16.755     17.585
REMARK INTER + INTRA:          -3.023
REMARK INTER:                  -3.023
REMARK INTRA:                   0.000
REMARK UNBOUND:                 0.000
REMARK SMILES O=c1ccc2ccc(O)cc2o1
REMARK SMILES IDX 6 1 7 2 8 3 10 4 11 5 5 6 4 7 3 8 2 9 1 10 12 11 9 12
REMARK H PARENT 9 13
REMARK Flexibility Score: inf
ROOT
ATOM      1  C   UNL     1     -29.466 -23.766  42.713  1.00  0.00     0.016 A 
ATOM      2  C   UNL     1     -28.795 -23.604  41.496  1.00  0.00     0.047 A 
ATOM      3  C   UNL     1     -27.526 -24.166  41.307  1.00  0.00     0.119 A 
ATOM      4  C   UNL     1     -26.922 -24.895  42.342  1.00  0.00     0.094 A 
ATOM      5  C   UNL     1     -27.585 -25.063  43.562  1.00  0.00     0.142 A 
ATOM      6  C   UNL     1     -28.865 -24.494  43.750  1.00  0.00     0.018 A 
ATOM      7  C   UNL     1     -29.502 -24.679  44.981  1.00  0.00     0.019 A 
ATOM      8  C   UNL     1     -28.862 -25.411  45.980  1.00  0.00     0.094 A 
ATOM      9  C   UNL     1     -27.594 -25.944  45.723  1.00  0.00     0.336 A 
ATOM     10  O   UNL     1     -27.001 -26.608  46.613  1.00  0.00    -0.246 OA
ATOM     11  O   UNL     1     -27.010 -25.755  44.543  1.00  0.00    -0.423 OA
ENDROOT
BRANCH   3  12
ATOM     12  O   UNL     1     -26.875 -23.994  40.087  1.00  0.00    -0.508 OA
ATOM     13  H   UNL     1     -27.170 -24.491  39.255  1.00  0.00     0.293 HD
ENDBRANCH   3  12
TORSDOF 1
ENDMDL
MODEL 4
REMARK VINA RESULT:    -2.914     16.466     17.368
REMARK INTER + INTRA:          -2.999
REMARK INTER:                  -2.999
REMARK INTRA:                   0.000
REMARK UNBOUND:                 0.000
REMARK SMILES O=c1ccc2ccc(O)cc2o1
REMARK SMILES IDX 6 1 7 2 8 3 10 4 11 5 5 6 4 7 3 8 2 9 1 10 12 11 9 12
REMARK H PARENT 9 13
REMARK Flexibility Score: inf
ROOT
ATOM      1  C   UNL     1     -44.400 -42.853  42.333  1.00  0.00     0.016 A 
ATOM      2  C   UNL     1     -45.101 -42.928  41.125  1.00  0.00     0.047 A 
ATOM      3  C   UNL     1     -46.329 -42.271  40.977  1.00  0.00     0.119 A 
ATOM      4  C   UNL     1     -46.860 -41.533  42.045  1.00  0.00     0.094 A 
ATOM      5  C   UNL     1     -46.167 -41.452  43.257  1.00  0.00     0.142 A 
ATOM      6  C   UNL     1     -44.928 -42.116  43.402  1.00  0.00     0.018 A 
ATOM      7  C   UNL     1     -44.258 -42.016  44.625  1.00  0.00     0.019 A 
ATOM      8  C   UNL     1     -44.826 -41.272  45.658  1.00  0.00     0.094 A 
ATOM      9  C   UNL     1     -46.057 -40.641  45.442  1.00  0.00     0.336 A 
ATOM     10  O   UNL     1     -46.585 -39.964  46.363  1.00  0.00    -0.246 OA
ATOM     11  O   UNL     1     -46.673 -40.751  44.268  1.00  0.00    -0.423 OA
ENDROOT
BRANCH   3  12
ATOM     12  O   UNL     1     -47.012 -42.358  39.765  1.00  0.00    -0.508 OA
ATOM     13  H   UNL     1     -47.748 -41.705  39.525  1.00  0.00     0.293 HD
ENDBRANCH   3  12
TORSDOF 1
ENDMDL
MODEL 5
REMARK VINA RESULT:    -2.897      1.590      2.325
REMARK INTER + INTRA:          -2.981
REMARK INTER:                  -2.981
REMARK INTRA:                   0.000
REMARK UNBOUND:                 0.000
REMARK SMILES O=c1ccc2ccc(O)cc2o1
REMARK SMILES IDX 6 1 7 2 8 3 10 4 11 5 5 6 4 7 3 8 2 9 1 10 12 11 9 12
REMARK H PARENT 9 13
REMARK Flexibility Score: inf
ROOT
ATOM      1  C   UNL     1     -45.023 -22.887  41.618  1.00  0.00     0.016 A 
ATOM      2  C   UNL     1     -45.550 -23.078  40.336  1.00  0.00     0.047 A 
ATOM      3  C   UNL     1     -46.277 -24.236  40.035  1.00  0.00     0.119 A 
ATOM      4  C   UNL     1     -46.477 -25.213  41.021  1.00  0.00     0.094 A 
ATOM      5  C   UNL     1     -45.954 -25.032  42.306  1.00  0.00     0.142 A 
ATOM      6  C   UNL     1     -45.221 -23.862  42.607  1.00  0.00     0.018 A 
ATOM      7  C   UNL     1     -44.711 -23.709  43.899  1.00  0.00     0.019 A 
ATOM      8  C   UNL     1     -44.936 -24.708  44.846  1.00  0.00     0.094 A 
ATOM      9  C   UNL     1     -45.670 -25.840  44.477  1.00  0.00     0.336 A 
ATOM     10  O   UNL     1     -45.883 -26.752  45.318  1.00  0.00    -0.246 OA
ATOM     11  O   UNL     1     -46.146 -25.960  43.240  1.00  0.00    -0.423 OA
ENDROOT
BRANCH   3  12
ATOM     12  O   UNL     1     -46.794 -24.407  38.752  1.00  0.00    -0.508 OA
ATOM     13  H   UNL     1     -46.657 -23.710  38.030  1.00  0.00     0.293 HD
ENDBRANCH   3  12
TORSDOF 1
ENDMDL
MODEL 6
REMARK VINA RESULT:    -2.879     16.329     17.133
REMARK INTER + INTRA:          -2.964
REMARK INTER:                  -2.964
REMARK INTRA:                   0.000
REMARK UNBOUND:                 0.000
REMARK SMILES O=c1ccc2ccc(O)cc2o1
REMARK SMILES IDX 6 1 7 2 8 3 10 4 11 5 5 6 4 7 3 8 2 9 1 10 12 11 9 12
REMARK H PARENT 9 13
REMARK Flexibility Score: inf
ROOT
ATOM      1  C   UNL     1     -26.875 -25.145  41.332  1.00  0.00     0.016 A 
ATOM      2  C   UNL     1     -27.136 -24.485  40.126  1.00  0.00     0.047 A 
ATOM      3  C   UNL     1     -28.247 -23.641  40.008  1.00  0.00     0.119 A 
ATOM      4  C   UNL     1     -29.104 -23.455  41.102  1.00  0.00     0.094 A 
ATOM      5  C   UNL     1     -28.852 -24.110  42.312  1.00  0.00     0.142 A 
ATOM      6  C   UNL     1     -27.730 -24.961  42.428  1.00  0.00     0.018 A 
ATOM      7  C   UNL     1     -27.504 -25.603  43.650  1.00  0.00     0.019 A 
ATOM      8  C   UNL     1     -28.385 -25.387  44.709  1.00  0.00     0.094 A 
ATOM      9  C   UNL     1     -29.475 -24.530  44.521  1.00  0.00     0.336 A 
ATOM     10  O   UNL     1     -30.281 -24.323  45.466  1.00  0.00    -0.246 OA
ATOM     11  O   UNL     1     -29.667 -23.931  43.349  1.00  0.00    -0.423 OA
ENDROOT
BRANCH   3  12
ATOM     12  O   UNL     1     -28.489 -22.992  38.798  1.00  0.00    -0.508 OA
ATOM     13  H   UNL     1     -27.813 -23.010  38.044  1.00  0.00     0.293 HD
ENDBRANCH   3  12
TORSDOF 1
ENDMDL
MODEL 7
REMARK VINA RESULT:    -2.756      1.110      4.180
REMARK INTER + INTRA:          -2.836
REMARK INTER:                  -2.836
REMARK INTRA:                   0.000
REMARK UNBOUND:                 0.000
REMARK SMILES O=c1ccc2ccc(O)cc2o1
REMARK SMILES IDX 6 1 7 2 8 3 10 4 11 5 5 6 4 7 3 8 2 9 1 10 12 11 9 12
REMARK H PARENT 9 13
REMARK Flexibility Score: inf
ROOT
ATOM      1  C   UNL     1     -45.632 -25.882  44.905  1.00  0.00     0.016 A 
ATOM      2  C   UNL     1     -44.833 -25.034  45.681  1.00  0.00     0.047 A 
ATOM      3  C   UNL     1     -44.337 -23.841  45.143  1.00  0.00     0.119 A 
ATOM      4  C   UNL     1     -44.639 -23.491  43.819  1.00  0.00     0.094 A 
ATOM      5  C   UNL     1     -45.437 -24.332  43.035  1.00  0.00     0.142 A 
ATOM      6  C   UNL     1     -45.937 -25.535  43.581  1.00  0.00     0.018 A 
ATOM      7  C   UNL     1     -46.731 -26.355  42.774  1.00  0.00     0.019 A 
ATOM      8  C   UNL     1     -47.004 -25.965  41.463  1.00  0.00     0.094 A 
ATOM      9  C   UNL     1     -46.475 -24.759  40.989  1.00  0.00     0.336 A 
ATOM     10  O   UNL     1     -46.712 -24.391  39.809  1.00  0.00    -0.246 OA
ATOM     11  O   UNL     1     -45.723 -23.997  41.779  1.00  0.00    -0.423 OA
ENDROOT
BRANCH   3  12
ATOM     12  O   UNL     1     -43.544 -23.010  45.932  1.00  0.00    -0.508 OA
ATOM     13  H   UNL     1     -43.943 -22.443  46.670  1.00  0.00     0.293 HD
ENDBRANCH   3  12
TORSDOF 1
ENDMDL
MODEL 8
REMARK VINA RESULT:    -2.729     16.402     17.759
REMARK INTER + INTRA:          -2.809
REMARK INTER:                  -2.809
REMARK INTRA:                   0.000
REMARK UNBOUND:                 0.000
REMARK SMILES O=c1ccc2ccc(O)cc2o1
REMARK SMILES IDX 6 1 7 2 8 3 10 4 11 5 5 6 4 7 3 8 2 9 1 10 12 11 9 12
REMARK H PARENT 9 13
REMARK Flexibility Score: inf
ROOT
ATOM      1  C   UNL     1     -29.611 -24.749  45.246  1.00  0.00     0.016 A 
ATOM      2  C   UNL     1     -28.849 -25.568  46.086  1.00  0.00     0.047 A 
ATOM      3  C   UNL     1     -27.619 -26.078  45.653  1.00  0.00     0.119 A 
ATOM      4  C   UNL     1     -27.146 -25.768  44.370  1.00  0.00     0.094 A 
ATOM      5  C   UNL     1     -27.900 -24.950  43.521  1.00  0.00     0.142 A 
ATOM      6  C   UNL     1     -29.141 -24.438  43.962  1.00  0.00     0.018 A 
ATOM      7  C   UNL     1     -29.872 -23.623  43.092  1.00  0.00     0.019 A 
ATOM      8  C   UNL     1     -29.362 -23.343  41.825  1.00  0.00     0.094 A 
ATOM      9  C   UNL     1     -28.126 -23.886  41.457  1.00  0.00     0.336 A 
ATOM     10  O   UNL     1     -27.648 -23.645  40.317  1.00  0.00    -0.246 OA
ATOM     11  O   UNL     1     -27.450 -24.658  42.304  1.00  0.00    -0.423 OA
ENDROOT
BRANCH   3  12
ATOM     12  O   UNL     1     -26.875 -26.891  46.506  1.00  0.00    -0.508 OA
ATOM     13  H   UNL     1     -27.252 -27.217  47.388  1.00  0.00     0.293 HD
ENDBRANCH   3  12
TORSDOF 1
ENDMDL
MODEL 9
REMARK VINA RESULT:    -2.722     23.795     24.668
REMARK INTER + INTRA:          -2.802
REMARK INTER:                  -2.802
REMARK INTRA:                   0.000
REMARK UNBOUND:                 0.000
REMARK SMILES O=c1ccc2ccc(O)cc2o1
REMARK SMILES IDX 6 1 7 2 8 3 10 4 11 5 5 6 4 7 3 8 2 9 1 10 12 11 9 12
REMARK H PARENT 9 13
REMARK Flexibility Score: inf
ROOT
ATOM      1  C   UNL     1     -28.443 -40.416  45.538  1.00  0.00     0.016 A 
ATOM      2  C   UNL     1     -29.305 -41.162  46.349  1.00  0.00     0.047 A 
ATOM      3  C   UNL     1     -29.834 -42.375  45.891  1.00  0.00     0.119 A 
ATOM      4  C   UNL     1     -29.500 -42.846  44.612  1.00  0.00     0.094 A 
ATOM      5  C   UNL     1     -28.639 -42.107  43.794  1.00  0.00     0.142 A 
ATOM      6  C   UNL     1     -28.107 -40.883  44.259  1.00  0.00     0.018 A 
ATOM      7  C   UNL     1     -27.250 -40.167  43.419  1.00  0.00     0.019 A 
ATOM      8  C   UNL     1     -26.948 -40.675  42.156  1.00  0.00     0.094 A 
ATOM      9  C   UNL     1     -27.512 -41.894  41.762  1.00  0.00     0.336 A 
ATOM     10  O   UNL     1     -27.250 -42.368  40.626  1.00  0.00    -0.246 OA
ATOM     11  O   UNL     1     -28.324 -42.556  42.581  1.00  0.00    -0.423 OA
ENDROOT
BRANCH   3  12
ATOM     12  O   UNL     1     -30.690 -43.104  46.714  1.00  0.00    -0.508 OA
ATOM     13  H   UNL     1     -30.417 -43.379  47.650  1.00  0.00     0.293 HD
ENDBRANCH   3  12
TORSDOF 1
ENDMDL
