MODEL 1
REMARK VINA RESULT:    -4.763      0.000      0.000
REMARK INTER + INTRA:          -5.180
REMARK INTER:                  -5.180
REMARK INTRA:                   0.000
REMARK UNBOUND:                 0.000
REMARK SMILES C[C@@H]1CC[C@H]2[N@@H+](C1)C[C@@H]1[C@@H]3C[C@H]4[C@@H](C[C@H](O)[C@H]5C[C@H](O)CC[C@@]54C)[C@H]3CC[C@@H]1[C@]2(C)O
REMARK SMILES IDX 5 1 6 2 8 3 7 4 4 5 29 6 3 7 28 8 30 9 2 10 27 11 9 12 1 13
REMARK SMILES IDX 26 14 10 15 25 16 11 17 13 18 12 19 14 20 23 21 15 22 17 23
REMARK SMILES IDX 22 24 24 25 18 26 21 27 19 28 31 30 16 32 20 34
REMARK H PARENT 6 29 31 31 16 33 20 35
REMARK Flexibility Score: inf
ROOT
ATOM      1  C   UNL     1     -25.380 -21.957 -14.792  1.00  0.00     0.216 C 
ATOM      2  N   UNL     1     -26.225 -22.880 -13.975  1.00  0.00    -0.330 N 
ATOM      3  C   UNL     1     -26.860 -22.214 -12.819  1.00  0.00     0.266 C 
ATOM      4  C   UNL     1     -25.594 -24.169 -13.612  1.00  0.00     0.265 C 
ATOM      5  C   UNL     1     -24.738 -22.691 -16.002  1.00  0.00     0.069 C 
ATOM      6  C   UNL     1     -24.382 -21.006 -13.995  1.00  0.00     0.117 C 
ATOM      7  C   UNL     1     -24.141 -24.066 -15.664  1.00  0.00     0.015 C 
ATOM      8  C   UNL     1     -25.063 -20.394 -12.720  1.00  0.00     0.036 C 
ATOM      9  C   UNL     1     -23.074 -21.709 -13.568  1.00  0.00     0.049 C 
ATOM     10  C   UNL     1     -25.126 -24.926 -14.867  1.00  0.00     0.041 C 
ATOM     11  C   UNL     1     -25.926 -19.113 -13.000  1.00  0.00     0.007 C 
ATOM     12  C   UNL     1     -25.843 -21.481 -11.919  1.00  0.00     0.054 C 
ATOM     13  C   UNL     1     -24.487 -26.267 -14.484  1.00  0.00     0.013 C 
ATOM     14  C   UNL     1     -26.601 -18.539 -11.726  1.00  0.00     0.004 C 
ATOM     15  C   UNL     1     -26.463 -20.795 -10.684  1.00  0.00     0.002 C 
ATOM     16  C   UNL     1     -27.406 -19.652 -11.062  1.00  0.00    -0.004 C 
ATOM     17  C   UNL     1     -27.229 -21.592  -9.625  1.00  0.00     0.009 C 
ATOM     18  C   UNL     1     -28.242 -19.391  -9.791  1.00  0.00    -0.001 C 
ATOM     19  C   UNL     1     -27.748 -20.425  -8.770  1.00  0.00    -0.001 C 
ATOM     20  C   UNL     1     -28.268 -18.009  -9.140  1.00  0.00     0.036 C 
ATOM     21  C   UNL     1     -28.765 -20.636  -7.609  1.00  0.00    -0.024 C 
ATOM     22  C   UNL     1     -29.244 -18.052  -7.929  1.00  0.00     0.118 C 
ATOM     23  C   UNL     1     -28.924 -19.221  -6.931  1.00  0.00     0.026 C 
ATOM     24  C   UNL     1     -28.180 -21.645  -6.562  1.00  0.00     0.010 C 
ATOM     25  C   UNL     1     -30.125 -21.188  -8.132  1.00  0.00     0.012 C 
ATOM     26  C   UNL     1     -29.920 -19.270  -5.749  1.00  0.00     0.038 C 
ATOM     27  C   UNL     1     -28.413 -21.245  -5.086  1.00  0.00     0.032 C 
ATOM     28  C   UNL     1     -29.757 -20.533  -4.859  1.00  0.00     0.114 C 
ATOM     29  H   UNL     1     -27.031 -23.146 -14.595  1.00  0.00     0.348 HD
ENDROOT
BRANCH   6  30
ATOM     30  O   UNL     1     -23.953 -19.956 -14.842  1.00  0.00    -0.384 OA
ATOM     31  H   UNL     1     -24.607 -19.825 -15.575  1.00  0.00     0.211 HD
ENDBRANCH   6  30
BRANCH  22  32
ATOM     32  O   UNL     1     -29.236 -16.813  -7.264  1.00  0.00    -0.393 OA
ATOM     33  H   UNL     1     -29.165 -16.995  -6.291  1.00  0.00     0.210 HD
ENDBRANCH  22  32
BRANCH  28  34
ATOM     34  O   UNL     1     -29.860 -20.183  -3.504  1.00  0.00    -0.393 OA
ATOM     35  H   UNL     1     -30.146 -19.232  -3.475  1.00  0.00     0.210 HD
ENDBRANCH  28  34
TORSDOF 3
ENDMDL
