MODEL 1
REMARK VINA RESULT:    71.230      0.000      0.000
REMARK INTER + INTRA:          99.534
REMARK INTER:                  98.296
REMARK INTRA:                   1.238
REMARK UNBOUND:                 1.238
REMARK SMILES O=C([O-])[C@H]1O[C@H](Oc2cc3oc(-c4ccccc4)cc(=O)c3c(O)c2O)[C@H](O)[C@@H](O)[C@H]1O
REMARK SMILES IDX 7 1 6 2 4 3 31 4 5 5 29 6 27 7 2 8 1 9 3 10 32 11 30 13
REMARK SMILES IDX 28 15 8 17 25 18 9 19 23 20 10 21 22 22 11 23 20 24 12 25
REMARK SMILES IDX 19 26 21 27 26 28 24 30 13 32 14 33 18 34 15 35 17 36 16 37
REMARK H PARENT 32 12 30 14 28 16 26 29 24 31
REMARK Flexibility Score: inf
ROOT
ATOM      1  O   UNL     1      12.377   2.542  29.590  1.00  0.00    -0.458 OA
ENDROOT
BRANCH   1   2
ATOM      2  C   UNL     1      11.143   3.189  29.236  1.00  0.00     0.339 C 
ATOM      3  C   UNL     1      12.255   5.191  28.698  1.00  0.00     0.199 C 
ATOM      4  C   UNL     1      11.908   5.104  27.195  1.00  0.00     0.180 C 
ATOM      5  O   UNL     1      11.245   4.584  29.492  1.00  0.00    -0.328 OA
ATOM      6  C   UNL     1      11.736   3.628  26.802  1.00  0.00     0.181 C 
ATOM      7  C   UNL     1      10.738   2.946  27.761  1.00  0.00     0.214 C 
BRANCH   3   8
ATOM      8  C   UNL     1      12.413   6.624  29.117  1.00  0.00     0.073 C 
ATOM      9  O   UNL     1      13.545   7.065  29.446  1.00  0.00    -0.547 OA
ATOM     10  O   UNL     1      11.321   7.484  29.097  1.00  0.00    -0.547 OA
ENDBRANCH   3   8
BRANCH   4  11
ATOM     11  O   UNL     1      10.718   5.806  26.923  1.00  0.00    -0.387 OA
ATOM     12  H   UNL     1      10.137   5.199  26.395  1.00  0.00     0.211 HD
ENDBRANCH   4  11
BRANCH   6  13
ATOM     13  O   UNL     1      11.264   3.525  25.483  1.00  0.00    -0.387 OA
ATOM     14  H   UNL     1      11.485   4.383  25.033  1.00  0.00     0.211 HD
ENDBRANCH   6  13
BRANCH   7  15
ATOM     15  O   UNL     1      10.579   1.577  27.480  1.00  0.00    -0.384 OA
ATOM     16  H   UNL     1      11.278   1.071  27.970  1.00  0.00     0.211 HD
ENDBRANCH   7  15
ENDBRANCH   1   2
BRANCH   1  17
ATOM     17  C   UNL     1      13.408   2.099  28.741  1.00  0.00     0.172 A 
ATOM     18  C   UNL     1      14.577   2.843  28.451  1.00  0.00     0.201 A 
ATOM     19  C   UNL     1      13.221   0.853  28.142  1.00  0.00     0.098 A 
ATOM     20  C   UNL     1      15.588   2.276  27.631  1.00  0.00     0.176 A 
ATOM     21  C   UNL     1      14.184   0.305  27.299  1.00  0.00     0.146 A 
ATOM     22  C   UNL     1      15.381   1.006  27.039  1.00  0.00     0.111 A 
ATOM     23  O   UNL     1      13.962  -0.886  26.754  1.00  0.00    -0.456 OA
ATOM     24  C   UNL     1      16.325   0.384  26.192  1.00  0.00     0.197 A 
ATOM     25  C   UNL     1      14.823  -1.493  25.942  1.00  0.00     0.138 A 
ATOM     26  C   UNL     1      16.044  -0.868  25.645  1.00  0.00     0.100 A 
ATOM     27  O   UNL     1      17.426   0.934  25.917  1.00  0.00    -0.289 OA
BRANCH  18  28
ATOM     28  O   UNL     1      14.699   4.142  28.948  1.00  0.00    -0.502 OA
ATOM     29  H   UNL     1      14.764   4.970  28.374  1.00  0.00     0.293 HD
ENDBRANCH  18  28
BRANCH  20  30
ATOM     30  O   UNL     1      16.796   2.942  27.402  1.00  0.00    -0.504 OA
ATOM     31  H   UNL     1      17.483   2.662  26.716  1.00  0.00     0.293 HD
ENDBRANCH  20  30
BRANCH  25  32
ATOM     32  C   UNL     1      14.467  -2.823  25.389  1.00  0.00     0.017 A 
ATOM     33  C   UNL     1      13.117  -3.135  25.149  1.00  0.00     0.012 A 
ATOM     34  C   UNL     1      15.452  -3.781  25.067  1.00  0.00     0.012 A 
ATOM     35  C   UNL     1      12.757  -4.378  24.619  1.00  0.00     0.001 A 
ATOM     36  C   UNL     1      15.086  -5.022  24.537  1.00  0.00     0.001 A 
ATOM     37  C   UNL     1      13.740  -5.321  24.317  1.00  0.00     0.000 A 
ENDBRANCH  25  32
ENDBRANCH   1  17
TORSDOF 9
ENDMDL
MODEL 2
REMARK VINA RESULT:    71.802      1.484      3.106
REMARK INTER + INTRA:         100.324
REMARK INTER:                 101.483
REMARK INTRA:                  -1.159
REMARK UNBOUND:                 1.238
REMARK SMILES O=C([O-])[C@H]1O[C@H](Oc2cc3oc(-c4ccccc4)cc(=O)c3c(O)c2O)[C@H](O)[C@@H](O)[C@H]1O
REMARK SMILES IDX 7 1 6 2 4 3 31 4 5 5 29 6 27 7 2 8 1 9 3 10 32 11 30 13
REMARK SMILES IDX 28 15 8 17 25 18 9 19 23 20 10 21 22 22 11 23 20 24 12 25
REMARK SMILES IDX 19 26 21 27 26 28 24 30 13 32 14 33 18 34 15 35 17 36 16 37
REMARK H PARENT 32 12 30 14 28 16 26 29 24 31
REMARK Flexibility Score: inf
ROOT
ATOM      1  O   UNL     1      12.808   2.368  28.457  1.00  0.00    -0.458 OA
ENDROOT
BRANCH   1   2
ATOM      2  C   UNL     1      11.724   3.101  27.862  1.00  0.00     0.339 C 
ATOM      3  C   UNL     1      10.189   2.262  29.434  1.00  0.00     0.199 C 
ATOM      4  C   UNL     1       9.934   3.642  30.079  1.00  0.00     0.180 C 
ATOM      5  O   UNL     1      10.506   2.393  28.055  1.00  0.00    -0.328 OA
ATOM      6  C   UNL     1      11.183   4.521  29.901  1.00  0.00     0.181 C 
ATOM      7  C   UNL     1      11.597   4.542  28.415  1.00  0.00     0.214 C 
BRANCH   3   8
ATOM      8  C   UNL     1       8.978   1.386  29.577  1.00  0.00     0.073 C 
ATOM      9  O   UNL     1       9.092   0.134  29.498  1.00  0.00    -0.547 OA
ATOM     10  O   UNL     1       7.735   1.945  29.846  1.00  0.00    -0.547 OA
ENDBRANCH   3   8
BRANCH   4  11
ATOM     11  O   UNL     1       8.826   4.270  29.478  1.00  0.00    -0.387 OA
ATOM     12  H   UNL     1       8.651   3.796  28.624  1.00  0.00     0.211 HD
ENDBRANCH   4  11
BRANCH   6  13
ATOM     13  O   UNL     1      10.925   5.831  30.335  1.00  0.00    -0.387 OA
ATOM     14  H   UNL     1      11.178   5.870  31.294  1.00  0.00     0.211 HD
ENDBRANCH   6  13
BRANCH   7  15
ATOM     15  O   UNL     1      12.768   5.291  28.198  1.00  0.00    -0.384 OA
ATOM     16  H   UNL     1      13.332   5.237  29.012  1.00  0.00     0.211 HD
ENDBRANCH   7  15
ENDBRANCH   1   2
BRANCH   1  17
ATOM     17  C   UNL     1      13.886   1.728  27.818  1.00  0.00     0.172 A 
ATOM     18  C   UNL     1      15.188   2.274  27.711  1.00  0.00     0.201 A 
ATOM     19  C   UNL     1      13.612   0.486  27.242  1.00  0.00     0.098 A 
ATOM     20  C   UNL     1      16.222   1.515  27.101  1.00  0.00     0.176 A 
ATOM     21  C   UNL     1      14.607  -0.247  26.600  1.00  0.00     0.146 A 
ATOM     22  C   UNL     1      15.924   0.254  26.528  1.00  0.00     0.111 A 
ATOM     23  O   UNL     1      14.297  -1.424  26.068  1.00  0.00    -0.456 OA
ATOM     24  C   UNL     1      16.889  -0.550  25.883  1.00  0.00     0.197 A 
ATOM     25  C   UNL     1      15.179  -2.200  25.442  1.00  0.00     0.138 A 
ATOM     26  C   UNL     1      16.514  -1.779  25.341  1.00  0.00     0.100 A 
ATOM     27  O   UNL     1      18.092  -0.185  25.785  1.00  0.00    -0.289 OA
BRANCH  18  28
ATOM     28  O   UNL     1      15.424   3.569  28.174  1.00  0.00    -0.502 OA
ATOM     29  H   UNL     1      15.043   4.405  27.755  1.00  0.00     0.293 HD
ENDBRANCH  18  28
BRANCH  20  30
ATOM     30  O   UNL     1      17.540   1.983  27.064  1.00  0.00    -0.504 OA
ATOM     31  H   UNL     1      17.874   2.790  27.572  1.00  0.00     0.293 HD
ENDBRANCH  20  30
BRANCH  25  32
ATOM     32  C   UNL     1      14.720  -3.496  24.884  1.00  0.00     0.017 A 
ATOM     33  C   UNL     1      15.649  -4.532  24.683  1.00  0.00     0.012 A 
ATOM     34  C   UNL     1      13.364  -3.732  24.575  1.00  0.00     0.012 A 
ATOM     35  C   UNL     1      15.239  -5.765  24.167  1.00  0.00     0.001 A 
ATOM     36  C   UNL     1      12.960  -4.968  24.059  1.00  0.00     0.001 A 
ATOM     37  C   UNL     1      13.896  -5.982  23.853  1.00  0.00     0.000 A 
ENDBRANCH  25  32
ENDBRANCH   1  17
TORSDOF 9
ENDMDL
MODEL 3
REMARK VINA RESULT:    72.243      3.968      9.150
REMARK INTER + INTRA:         100.933
REMARK INTER:                 102.267
REMARK INTRA:                  -1.335
REMARK UNBOUND:                 1.238
REMARK SMILES O=C([O-])[C@H]1O[C@H](Oc2cc3oc(-c4ccccc4)cc(=O)c3c(O)c2O)[C@H](O)[C@@H](O)[C@H]1O
REMARK SMILES IDX 7 1 6 2 4 3 31 4 5 5 29 6 27 7 2 8 1 9 3 10 32 11 30 13
REMARK SMILES IDX 28 15 8 17 25 18 9 19 23 20 10 21 22 22 11 23 20 24 12 25
REMARK SMILES IDX 19 26 21 27 26 28 24 30 13 32 14 33 18 34 15 35 17 36 16 37
REMARK H PARENT 32 12 30 14 28 16 26 29 24 31
REMARK Flexibility Score: inf
ROOT
ATOM      1  O   UNL     1      12.732   4.794  28.620  1.00  0.00    -0.458 OA
ENDROOT
BRANCH   1   2
ATOM      2  C   UNL     1      12.272   3.743  27.754  1.00  0.00     0.339 C 
ATOM      3  C   UNL     1      14.166   2.427  28.215  1.00  0.00     0.199 C 
ATOM      4  C   UNL     1      13.357   1.326  28.937  1.00  0.00     0.180 C 
ATOM      5  O   UNL     1      13.389   3.054  27.205  1.00  0.00    -0.328 OA
ATOM      6  C   UNL     1      12.092   1.950  29.549  1.00  0.00     0.181 C 
ATOM      7  C   UNL     1      11.329   2.744  28.469  1.00  0.00     0.214 C 
BRANCH   3   8
ATOM      8  C   UNL     1      15.401   1.844  27.591  1.00  0.00     0.073 C 
ATOM      9  O   UNL     1      16.123   2.552  26.840  1.00  0.00    -0.547 OA
ATOM     10  O   UNL     1      15.783   0.539  27.878  1.00  0.00    -0.547 OA
ENDBRANCH   3   8
BRANCH   4  11
ATOM     11  O   UNL     1      12.992   0.310  28.032  1.00  0.00    -0.387 OA
ATOM     12  H   UNL     1      12.358   0.713  27.383  1.00  0.00     0.211 HD
ENDBRANCH   4  11
BRANCH   6  13
ATOM     13  O   UNL     1      11.258   0.949  30.072  1.00  0.00    -0.387 OA
ATOM     14  H   UNL     1      10.755   1.360  30.824  1.00  0.00     0.211 HD
ENDBRANCH   6  13
BRANCH   7  15
ATOM     15  O   UNL     1      10.185   3.382  28.984  1.00  0.00    -0.384 OA
ATOM     16  H   UNL     1      10.336   4.362  28.966  1.00  0.00     0.211 HD
ENDBRANCH   7  15
ENDBRANCH   1   2
BRANCH   1  17
ATOM     17  C   UNL     1      12.588   6.184  28.461  1.00  0.00     0.172 A 
ATOM     18  C   UNL     1      11.635   6.972  29.151  1.00  0.00     0.201 A 
ATOM     19  C   UNL     1      13.439   6.791  27.536  1.00  0.00     0.098 A 
ATOM     20  C   UNL     1      11.616   8.379  28.965  1.00  0.00     0.176 A 
ATOM     21  C   UNL     1      13.399   8.164  27.310  1.00  0.00     0.146 A 
ATOM     22  C   UNL     1      12.494   8.975  28.025  1.00  0.00     0.111 A 
ATOM     23  O   UNL     1      14.231   8.695  26.420  1.00  0.00    -0.456 OA
ATOM     24  C   UNL     1      12.520  10.363  27.765  1.00  0.00     0.197 A 
ATOM     25  C   UNL     1      14.272   9.995  26.141  1.00  0.00     0.138 A 
ATOM     26  C   UNL     1      13.413  10.871  26.820  1.00  0.00     0.100 A 
ATOM     27  O   UNL     1      11.754  11.162  28.368  1.00  0.00    -0.289 OA
BRANCH  18  28
ATOM     28  O   UNL     1      10.701   6.343  29.976  1.00  0.00    -0.502 OA
ATOM     29  H   UNL     1      10.936   5.774  30.776  1.00  0.00     0.293 HD
ENDBRANCH  18  28
BRANCH  20  30
ATOM     30  O   UNL     1      10.754   9.198  29.701  1.00  0.00    -0.504 OA
ATOM     31  H   UNL     1       9.937   9.657  29.322  1.00  0.00     0.293 HD
ENDBRANCH  20  30
BRANCH  25  32
ATOM     32  C   UNL     1      15.242  10.476  25.125  1.00  0.00     0.017 A 
ATOM     33  C   UNL     1      15.695   9.595  24.127  1.00  0.00     0.012 A 
ATOM     34  C   UNL     1      15.702  11.810  25.112  1.00  0.00     0.012 A 
ATOM     35  C   UNL     1      16.601  10.027  23.154  1.00  0.00     0.001 A 
ATOM     36  C   UNL     1      16.608  12.237  24.136  1.00  0.00     0.001 A 
ATOM     37  C   UNL     1      17.059  11.346  23.160  1.00  0.00     0.000 A 
ENDBRANCH  25  32
ENDBRANCH   1  17
TORSDOF 9
ENDMDL
MODEL 4
REMARK VINA RESULT:    73.332      1.331      2.047
REMARK INTER + INTRA:         102.436
REMARK INTER:                 103.366
REMARK INTRA:                  -0.930
REMARK UNBOUND:                 1.238
REMARK SMILES O=C([O-])[C@H]1O[C@H](Oc2cc3oc(-c4ccccc4)cc(=O)c3c(O)c2O)[C@H](O)[C@@H](O)[C@H]1O
REMARK SMILES IDX 7 1 6 2 4 3 31 4 5 5 29 6 27 7 2 8 1 9 3 10 32 11 30 13
REMARK SMILES IDX 28 15 8 17 25 18 9 19 23 20 10 21 22 22 11 23 20 24 12 25
REMARK SMILES IDX 19 26 21 27 26 28 24 30 13 32 14 33 18 34 15 35 17 36 16 37
REMARK H PARENT 32 12 30 14 28 16 26 29 24 31
REMARK Flexibility Score: inf
ROOT
ATOM      1  O   UNL     1      13.740   2.993  27.691  1.00  0.00    -0.458 OA
ENDROOT
BRANCH   1   2
ATOM      2  C   UNL     1      13.236   3.148  29.028  1.00  0.00     0.339 C 
ATOM      3  C   UNL     1      11.943   5.012  28.409  1.00  0.00     0.199 C 
ATOM      4  C   UNL     1      10.597   4.296  28.662  1.00  0.00     0.180 C 
ATOM      5  O   UNL     1      12.955   4.520  29.276  1.00  0.00    -0.328 OA
ATOM      6  C   UNL     1      10.785   2.784  28.457  1.00  0.00     0.181 C 
ATOM      7  C   UNL     1      11.977   2.288  29.301  1.00  0.00     0.214 C 
BRANCH   3   8
ATOM      8  C   UNL     1      11.796   6.492  28.619  1.00  0.00     0.073 C 
ATOM      9  O   UNL     1      11.958   6.986  29.766  1.00  0.00    -0.547 OA
ATOM     10  O   UNL     1      11.529   7.329  27.543  1.00  0.00    -0.547 OA
ENDBRANCH   3   8
BRANCH   4  11
ATOM     11  O   UNL     1      10.147   4.542  29.973  1.00  0.00    -0.387 OA
ATOM     12  H   UNL     1      10.054   5.525  30.070  1.00  0.00     0.211 HD
ENDBRANCH   4  11
BRANCH   6  13
ATOM     13  O   UNL     1       9.623   2.092  28.835  1.00  0.00    -0.387 OA
ATOM     14  H   UNL     1       9.919   1.297  29.353  1.00  0.00     0.211 HD
ENDBRANCH   6  13
BRANCH   7  15
ATOM     15  O   UNL     1      12.230   0.917  29.115  1.00  0.00    -0.384 OA
ATOM     16  H   UNL     1      12.142   0.709  28.148  1.00  0.00     0.211 HD
ENDBRANCH   7  15
ENDBRANCH   1   2
BRANCH   1  17
ATOM     17  C   UNL     1      14.725   2.103  27.226  1.00  0.00     0.172 A 
ATOM     18  C   UNL     1      16.113   2.383  27.219  1.00  0.00     0.201 A 
ATOM     19  C   UNL     1      14.268   0.884  26.723  1.00  0.00     0.098 A 
ATOM     20  C   UNL     1      17.030   1.389  26.786  1.00  0.00     0.176 A 
ATOM     21  C   UNL     1      15.155  -0.081  26.254  1.00  0.00     0.146 A 
ATOM     22  C   UNL     1      16.545   0.156  26.286  1.00  0.00     0.111 A 
ATOM     23  O   UNL     1      14.671  -1.227  25.786  1.00  0.00    -0.456 OA
ATOM     24  C   UNL     1      17.390  -0.874  25.815  1.00  0.00     0.197 A 
ATOM     25  C   UNL     1      15.438  -2.211  25.323  1.00  0.00     0.138 A 
ATOM     26  C   UNL     1      16.832  -2.059  25.334  1.00  0.00     0.100 A 
ATOM     27  O   UNL     1      18.645  -0.751  25.820  1.00  0.00    -0.289 OA
BRANCH  18  28
ATOM     28  O   UNL     1      16.555   3.651  27.601  1.00  0.00    -0.502 OA
ATOM     29  H   UNL     1      16.404   4.494  27.067  1.00  0.00     0.293 HD
ENDBRANCH  18  28
BRANCH  20  30
ATOM     30  O   UNL     1      18.412   1.596  26.856  1.00  0.00    -0.504 OA
ATOM     31  H   UNL     1      18.951   2.094  26.161  1.00  0.00     0.293 HD
ENDBRANCH  20  30
BRANCH  25  32
ATOM     32  C   UNL     1      14.787  -3.447  24.822  1.00  0.00     0.017 A 
ATOM     33  C   UNL     1      15.564  -4.599  24.601  1.00  0.00     0.012 A 
ATOM     34  C   UNL     1      13.397  -3.512  24.588  1.00  0.00     0.012 A 
ATOM     35  C   UNL     1      14.972  -5.778  24.138  1.00  0.00     0.001 A 
ATOM     36  C   UNL     1      12.811  -4.695  24.126  1.00  0.00     0.001 A 
ATOM     37  C   UNL     1      13.598  -5.825  23.898  1.00  0.00     0.000 A 
ENDBRANCH  25  32
ENDBRANCH   1  17
TORSDOF 9
ENDMDL
