MODEL 1
REMARK VINA RESULT:    -3.875      0.000      0.000
REMARK INTER + INTRA:          -4.571
REMARK INTER:                  -4.555
REMARK INTRA:                  -0.016
REMARK UNBOUND:                -0.016
REMARK SMILES CCCCC(=O)[O-]
REMARK SMILES IDX 4 1 5 2 6 3 7 4 3 5 2 6 1 7
REMARK H PARENT
REMARK Flexibility Score: inf
ROOT
ATOM      1  C   UNL     1      17.943 117.226 293.068  1.00  0.00     0.053 C 
ENDROOT
BRANCH   1   2
ATOM      2  C   UNL     1      16.890 117.954 293.847  1.00  0.00     0.041 C 
ATOM      3  O   UNL     1      16.458 119.067 293.443  1.00  0.00    -0.550 OA
ATOM      4  O   UNL     1      16.360 117.388 295.000  1.00  0.00    -0.550 OA
ENDBRANCH   1   2
BRANCH   1   5
ATOM      5  C   UNL     1      17.343 116.105 292.209  1.00  0.00     0.006 C 
BRANCH   5   6
ATOM      6  C   UNL     1      18.211 115.787 290.982  1.00  0.00    -0.003 C 
ATOM      7  C   UNL     1      17.527 114.768 290.075  1.00  0.00     0.004 C 
ENDBRANCH   5   6
ENDBRANCH   1   5
TORSDOF 3
ENDMDL
MODEL 2
REMARK VINA RESULT:    -3.857      2.993      4.255
REMARK INTER + INTRA:          -4.550
REMARK INTER:                  -4.531
REMARK INTRA:                  -0.018
REMARK UNBOUND:                -0.016
REMARK SMILES CCCCC(=O)[O-]
REMARK SMILES IDX 4 1 5 2 6 3 7 4 3 5 2 6 1 7
REMARK H PARENT
REMARK Flexibility Score: inf
ROOT
ATOM      1  C   UNL     1      17.235 115.809 292.000  1.00  0.00     0.053 C 
ENDROOT
BRANCH   1   2
ATOM      2  C   UNL     1      18.048 115.432 290.799  1.00  0.00     0.041 C 
ATOM      3  O   UNL     1      17.506 114.846 289.825  1.00  0.00    -0.550 OA
ATOM      4  O   UNL     1      19.398 115.758 290.742  1.00  0.00    -0.550 OA
ENDBRANCH   1   2
BRANCH   1   5
ATOM      5  C   UNL     1      17.846 117.001 292.750  1.00  0.00     0.006 C 
BRANCH   5   6
ATOM      6  C   UNL     1      16.910 117.540 293.842  1.00  0.00    -0.003 C 
ATOM      7  C   UNL     1      17.069 116.752 295.140  1.00  0.00     0.004 C 
ENDBRANCH   5   6
ENDBRANCH   1   5
TORSDOF 3
ENDMDL
MODEL 3
REMARK VINA RESULT:    -3.835      0.802      1.378
REMARK INTER + INTRA:          -4.524
REMARK INTER:                  -4.508
REMARK INTRA:                  -0.016
REMARK UNBOUND:                -0.016
REMARK SMILES CCCCC(=O)[O-]
REMARK SMILES IDX 4 1 5 2 6 3 7 4 3 5 2 6 1 7
REMARK H PARENT
REMARK Flexibility Score: inf
ROOT
ATOM      1  C   UNL     1      17.960 117.269 293.230  1.00  0.00     0.053 C 
ENDROOT
BRANCH   1   2
ATOM      2  C   UNL     1      17.160 117.283 294.497  1.00  0.00     0.041 C 
ATOM      3  O   UNL     1      17.554 116.637 295.503  1.00  0.00    -0.550 OA
ATOM      4  O   UNL     1      15.995 118.037 294.576  1.00  0.00    -0.550 OA
ENDBRANCH   1   2
BRANCH   1   5
ATOM      5  C   UNL     1      17.284 116.431 292.137  1.00  0.00     0.006 C 
BRANCH   5   6
ATOM      6  C   UNL     1      18.301 115.809 291.170  1.00  0.00    -0.003 C 
ATOM      7  C   UNL     1      17.654 114.721 290.317  1.00  0.00     0.004 C 
ENDBRANCH   5   6
ENDBRANCH   1   5
TORSDOF 3
ENDMDL
MODEL 4
REMARK VINA RESULT:    -3.812      1.355      1.435
REMARK INTER + INTRA:          -4.498
REMARK INTER:                  -4.479
REMARK INTRA:                  -0.019
REMARK UNBOUND:                -0.016
REMARK SMILES CCCCC(=O)[O-]
REMARK SMILES IDX 4 1 5 2 6 3 7 4 3 5 2 6 1 7
REMARK H PARENT
REMARK Flexibility Score: inf
ROOT
ATOM      1  C   UNL     1      17.611 117.478 293.111  1.00  0.00     0.053 C 
ENDROOT
BRANCH   1   2
ATOM      2  C   UNL     1      18.012 117.380 294.552  1.00  0.00     0.041 C 
ATOM      3  O   UNL     1      19.101 117.876 294.942  1.00  0.00    -0.550 OA
ATOM      4  O   UNL     1      17.165 116.771 295.470  1.00  0.00    -0.550 OA
ENDBRANCH   1   2
BRANCH   1   5
ATOM      5  C   UNL     1      17.330 116.098 292.502  1.00  0.00     0.006 C 
BRANCH   5   6
ATOM      6  C   UNL     1      18.109 115.869 291.199  1.00  0.00    -0.003 C 
ATOM      7  C   UNL     1      17.513 114.714 290.399  1.00  0.00     0.004 C 
ENDBRANCH   5   6
ENDBRANCH   1   5
TORSDOF 3
ENDMDL
MODEL 5
REMARK VINA RESULT:    -3.374      7.966      8.355
REMARK INTER + INTRA:          -3.982
REMARK INTER:                  -3.922
REMARK INTRA:                  -0.060
REMARK UNBOUND:                -0.016
REMARK SMILES CCCCC(=O)[O-]
REMARK SMILES IDX 4 1 5 2 6 3 7 4 3 5 2 6 1 7
REMARK H PARENT
REMARK Flexibility Score: inf
ROOT
ATOM      1  C   UNL     1      24.768 118.950 289.297  1.00  0.00     0.053 C 
ENDROOT
BRANCH   1   2
ATOM      2  C   UNL     1      24.952 118.066 290.494  1.00  0.00     0.041 C 
ATOM      3  O   UNL     1      25.165 116.834 290.345  1.00  0.00    -0.550 OA
ATOM      4  O   UNL     1      24.921 118.610 291.772  1.00  0.00    -0.550 OA
ENDBRANCH   1   2
BRANCH   1   5
ATOM      5  C   UNL     1      24.457 118.138 288.032  1.00  0.00     0.006 C 
BRANCH   5   6
ATOM      6  C   UNL     1      23.034 118.395 287.514  1.00  0.00    -0.003 C 
ATOM      7  C   UNL     1      22.676 119.876 287.604  1.00  0.00     0.004 C 
ENDBRANCH   5   6
ENDBRANCH   1   5
TORSDOF 3
ENDMDL
MODEL 6
REMARK VINA RESULT:    -3.367      8.013      8.582
REMARK INTER + INTRA:          -3.974
REMARK INTER:                  -3.957
REMARK INTRA:                  -0.018
REMARK UNBOUND:                -0.016
REMARK SMILES CCCCC(=O)[O-]
REMARK SMILES IDX 4 1 5 2 6 3 7 4 3 5 2 6 1 7
REMARK H PARENT
REMARK Flexibility Score: inf
ROOT
ATOM      1  C   UNL     1      24.524 118.880 288.686  1.00  0.00     0.053 C 
ENDROOT
BRANCH   1   2
ATOM      2  C   UNL     1      23.243 118.917 287.910  1.00  0.00     0.041 C 
ATOM      3  O   UNL     1      22.652 117.846 287.610  1.00  0.00    -0.550 OA
ATOM      4  O   UNL     1      22.683 120.136 287.548  1.00  0.00    -0.550 OA
ENDBRANCH   1   2
BRANCH   1   5
ATOM      5  C   UNL     1      24.401 118.016 289.948  1.00  0.00     0.006 C 
BRANCH   5   6
ATOM      6  C   UNL     1      25.162 118.617 291.139  1.00  0.00    -0.003 C 
ATOM      7  C   UNL     1      25.952 117.544 291.884  1.00  0.00     0.004 C 
ENDBRANCH   5   6
ENDBRANCH   1   5
TORSDOF 3
ENDMDL
MODEL 7
REMARK VINA RESULT:    -3.350      1.422      2.138
REMARK INTER + INTRA:          -3.954
REMARK INTER:                  -3.935
REMARK INTRA:                  -0.018
REMARK UNBOUND:                -0.016
REMARK SMILES CCCCC(=O)[O-]
REMARK SMILES IDX 4 1 5 2 6 3 7 4 3 5 2 6 1 7
REMARK H PARENT
REMARK Flexibility Score: inf
ROOT
ATOM      1  C   UNL     1      17.188 116.783 294.718  1.00  0.00     0.053 C 
ENDROOT
BRANCH   1   2
ATOM      2  C   UNL     1      16.227 117.480 295.633  1.00  0.00     0.041 C 
ATOM      3  O   UNL     1      16.383 117.417 296.881  1.00  0.00    -0.550 OA
ATOM      4  O   UNL     1      15.180 118.227 295.107  1.00  0.00    -0.550 OA
ENDBRANCH   1   2
BRANCH   1   5
ATOM      5  C   UNL     1      17.110 117.332 293.286  1.00  0.00     0.006 C 
BRANCH   5   6
ATOM      6  C   UNL     1      18.123 116.657 292.350  1.00  0.00    -0.003 C 
ATOM      7  C   UNL     1      17.437 115.640 291.441  1.00  0.00     0.004 C 
ENDBRANCH   5   6
ENDBRANCH   1   5
TORSDOF 3
ENDMDL
MODEL 8
REMARK VINA RESULT:    -3.117      2.245      3.015
REMARK INTER + INTRA:          -3.680
REMARK INTER:                  -3.633
REMARK INTRA:                  -0.046
REMARK UNBOUND:                -0.016
REMARK SMILES CCCCC(=O)[O-]
REMARK SMILES IDX 4 1 5 2 6 3 7 4 3 5 2 6 1 7
REMARK H PARENT
REMARK Flexibility Score: inf
ROOT
ATOM      1  C   UNL     1      18.486 118.307 294.875  1.00  0.00     0.053 C 
ENDROOT
BRANCH   1   2
ATOM      2  C   UNL     1      18.807 117.367 295.997  1.00  0.00     0.041 C 
ATOM      3  O   UNL     1      17.895 116.678 296.527  1.00  0.00    -0.550 OA
ATOM      4  O   UNL     1      20.118 117.226 296.434  1.00  0.00    -0.550 OA
ENDBRANCH   1   2
BRANCH   1   5
ATOM      5  C   UNL     1      18.641 117.633 293.505  1.00  0.00     0.006 C 
BRANCH   5   6
ATOM      6  C   UNL     1      17.351 116.931 293.054  1.00  0.00    -0.003 C 
ATOM      7  C   UNL     1      17.597 116.074 291.815  1.00  0.00     0.004 C 
ENDBRANCH   5   6
ENDBRANCH   1   5
TORSDOF 3
ENDMDL
MODEL 9
REMARK VINA RESULT:    -2.938      7.766      8.201
REMARK INTER + INTRA:          -3.469
REMARK INTER:                  -3.454
REMARK INTRA:                  -0.016
REMARK UNBOUND:                -0.016
REMARK SMILES CCCCC(=O)[O-]
REMARK SMILES IDX 4 1 5 2 6 3 7 4 3 5 2 6 1 7
REMARK H PARENT
REMARK Flexibility Score: inf
ROOT
ATOM      1  C   UNL     1      25.459 118.092 290.848  1.00  0.00     0.053 C 
ENDROOT
BRANCH   1   2
ATOM      2  C   UNL     1      25.511 117.275 292.103  1.00  0.00     0.041 C 
ATOM      3  O   UNL     1      25.040 117.732 293.177  1.00  0.00    -0.550 OA
ATOM      4  O   UNL     1      26.050 115.994 292.078  1.00  0.00    -0.550 OA
ENDBRANCH   1   2
BRANCH   1   5
ATOM      5  C   UNL     1      24.272 117.697 289.959  1.00  0.00     0.006 C 
BRANCH   5   6
ATOM      6  C   UNL     1      24.230 118.504 288.653  1.00  0.00    -0.003 C 
ATOM      7  C   UNL     1      22.976 118.179 287.847  1.00  0.00     0.004 C 
ENDBRANCH   5   6
ENDBRANCH   1   5
TORSDOF 3
ENDMDL
