MODEL 1
REMARK VINA RESULT:    -4.245      0.000      0.000
REMARK INTER + INTRA:          -6.497
REMARK INTER:                  -5.734
REMARK INTRA:                  -0.764
REMARK UNBOUND:                -0.764
REMARK SMILES C=C[C@@](C)(CCC=C(C)C)OC(C)=O
REMARK SMILES IDX 3 1 4 2 5 3 6 4 7 5 9 6 8 7 10 8 2 9 1 10 11 11 12 12 14 13
REMARK SMILES IDX 13 14
REMARK H PARENT
REMARK Flexibility Score: inf
ROOT
ATOM      1  C   UNL     1       0.552 -22.705  -9.874  1.00  0.00     0.127 C 
ATOM      2  C   UNL     1       1.704 -21.933  -9.203  1.00  0.00     0.061 C 
ENDROOT
BRANCH   1   3
ATOM      3  C   UNL     1       0.807 -24.238  -9.787  1.00  0.00     0.057 C 
BRANCH   3   4
ATOM      4  C   UNL     1      -0.446 -25.110  -9.994  1.00  0.00     0.032 C 
BRANCH   4   5
ATOM      5  C   UNL     1      -0.386 -26.348  -9.134  1.00  0.00    -0.028 C 
ATOM      6  C   UNL     1      -1.987 -25.436  -7.436  1.00  0.00     0.039 C 
ATOM      7  C   UNL     1      -1.091 -26.518  -7.993  1.00  0.00    -0.080 C 
ATOM      8  C   UNL     1      -0.955 -27.824  -7.254  1.00  0.00     0.039 C 
ENDBRANCH   4   5
ENDBRANCH   3   4
ENDBRANCH   1   3
BRANCH   1   9
ATOM      9  C   UNL     1      -0.765 -22.333  -9.206  1.00  0.00     0.013 C 
ATOM     10  C   UNL     1      -0.825 -21.484  -8.173  1.00  0.00     0.008 C 
ENDBRANCH   1   9
BRANCH   1  11
ATOM     11  O   UNL     1       0.531 -22.312 -11.255  1.00  0.00    -0.455 OA
BRANCH  11  12
ATOM     12  C   UNL     1      -0.559 -21.729 -11.920  1.00  0.00     0.303 C 
ATOM     13  O   UNL     1      -0.792 -20.494 -11.834  1.00  0.00    -0.253 OA
ATOM     14  C   UNL     1      -1.473 -22.593 -12.719  1.00  0.00     0.139 C 
ENDBRANCH  11  12
ENDBRANCH   1  11
TORSDOF 6
ENDMDL
MODEL 2
REMARK VINA RESULT:    -4.230      1.577      2.883
REMARK INTER + INTRA:          -6.477
REMARK INTER:                  -5.770
REMARK INTRA:                  -0.707
REMARK UNBOUND:                -0.764
REMARK SMILES C=C[C@@](C)(CCC=C(C)C)OC(C)=O
REMARK SMILES IDX 3 1 4 2 5 3 6 4 7 5 9 6 8 7 10 8 2 9 1 10 11 11 12 12 14 13
REMARK SMILES IDX 13 14
REMARK H PARENT
REMARK Flexibility Score: inf
ROOT
ATOM      1  C   UNL     1      -0.439 -22.815 -10.647  1.00  0.00     0.127 C 
ATOM      2  C   UNL     1      -1.314 -23.596 -11.647  1.00  0.00     0.061 C 
ENDROOT
BRANCH   1   3
ATOM      3  C   UNL     1       0.381 -23.799  -9.764  1.00  0.00     0.057 C 
BRANCH   3   4
ATOM      4  C   UNL     1      -0.113 -25.258  -9.800  1.00  0.00     0.032 C 
BRANCH   4   5
ATOM      5  C   UNL     1      -1.023 -25.546  -8.631  1.00  0.00    -0.028 C 
ATOM      6  C   UNL     1      -0.058 -27.825  -8.241  1.00  0.00     0.039 C 
ATOM      7  C   UNL     1      -0.995 -26.686  -7.907  1.00  0.00    -0.080 C 
ATOM      8  C   UNL     1      -1.943 -26.821  -6.744  1.00  0.00     0.039 C 
ENDBRANCH   4   5
ENDBRANCH   3   4
ENDBRANCH   1   3
BRANCH   1   9
ATOM      9  C   UNL     1       0.480 -21.869 -11.408  1.00  0.00     0.013 C 
ATOM     10  C   UNL     1       1.802 -21.842 -11.204  1.00  0.00     0.008 C 
ENDBRANCH   1   9
BRANCH   1  11
ATOM     11  O   UNL     1      -1.329 -22.064  -9.807  1.00  0.00    -0.455 OA
BRANCH  11  12
ATOM     12  C   UNL     1      -1.057 -21.649  -8.494  1.00  0.00     0.303 C 
ATOM     13  O   UNL     1      -0.135 -20.826  -8.247  1.00  0.00    -0.253 OA
ATOM     14  C   UNL     1      -1.853 -22.218  -7.370  1.00  0.00     0.139 C 
ENDBRANCH  11  12
ENDBRANCH   1  11
TORSDOF 6
ENDMDL
MODEL 3
REMARK VINA RESULT:    -4.179      2.040      4.481
REMARK INTER + INTRA:          -6.408
REMARK INTER:                  -5.500
REMARK INTRA:                  -0.908
REMARK UNBOUND:                -0.764
REMARK SMILES C=C[C@@](C)(CCC=C(C)C)OC(C)=O
REMARK SMILES IDX 3 1 4 2 5 3 6 4 7 5 9 6 8 7 10 8 2 9 1 10 11 11 12 12 14 13
REMARK SMILES IDX 13 14
REMARK H PARENT
REMARK Flexibility Score: inf
ROOT
ATOM      1  C   UNL     1      -0.885 -23.622 -10.595  1.00  0.00     0.127 C 
ATOM      2  C   UNL     1      -1.433 -24.963 -11.121  1.00  0.00     0.061 C 
ENDROOT
BRANCH   1   3
ATOM      3  C   UNL     1      -1.985 -22.867  -9.794  1.00  0.00     0.057 C 
BRANCH   3   4
ATOM      4  C   UNL     1      -1.524 -22.323  -8.428  1.00  0.00     0.032 C 
BRANCH   4   5
ATOM      5  C   UNL     1      -1.653 -20.821  -8.377  1.00  0.00    -0.028 C 
ATOM      6  C   UNL     1       0.822 -20.456  -8.254  1.00  0.00     0.039 C 
ATOM      7  C   UNL     1      -0.606 -19.968  -8.321  1.00  0.00    -0.080 C 
ATOM      8  C   UNL     1      -0.887 -18.487  -8.309  1.00  0.00     0.039 C 
ENDBRANCH   4   5
ENDBRANCH   3   4
ENDBRANCH   1   3
BRANCH   1   9
ATOM      9  C   UNL     1       0.341 -23.879  -9.730  1.00  0.00     0.013 C 
ATOM     10  C   UNL     1       0.964 -25.063  -9.711  1.00  0.00     0.008 C 
ENDBRANCH   1   9
BRANCH   1  11
ATOM     11  O   UNL     1      -0.522 -22.838 -11.742  1.00  0.00    -0.455 OA
BRANCH  11  12
ATOM     12  C   UNL     1       0.131 -21.595 -11.707  1.00  0.00     0.303 C 
ATOM     13  O   UNL     1      -0.520 -20.516 -11.727  1.00  0.00    -0.253 OA
ATOM     14  C   UNL     1       1.620 -21.554 -11.677  1.00  0.00     0.139 C 
ENDBRANCH  11  12
ENDBRANCH   1  11
TORSDOF 6
ENDMDL
MODEL 4
REMARK VINA RESULT:    -4.160      3.018      5.785
REMARK INTER + INTRA:          -6.383
REMARK INTER:                  -5.683
REMARK INTRA:                  -0.700
REMARK UNBOUND:                -0.764
REMARK SMILES C=C[C@@](C)(CCC=C(C)C)OC(C)=O
REMARK SMILES IDX 3 1 4 2 5 3 6 4 7 5 9 6 8 7 10 8 2 9 1 10 11 11 12 12 14 13
REMARK SMILES IDX 13 14
REMARK H PARENT
REMARK Flexibility Score: inf
ROOT
ATOM      1  C   UNL     1      -0.457 -26.595  -9.078  1.00  0.00     0.127 C 
ATOM      2  C   UNL     1      -0.914 -27.487 -10.248  1.00  0.00     0.061 C 
ENDROOT
BRANCH   1   3
ATOM      3  C   UNL     1       0.577 -25.543  -9.573  1.00  0.00     0.057 C 
BRANCH   3   4
ATOM      4  C   UNL     1      -0.043 -24.278 -10.197  1.00  0.00     0.032 C 
BRANCH   4   5
ATOM      5  C   UNL     1       0.737 -23.048  -9.805  1.00  0.00    -0.028 C 
ATOM      6  C   UNL     1      -1.137 -22.106  -8.434  1.00  0.00     0.039 C 
ATOM      7  C   UNL     1       0.266 -22.074  -8.994  1.00  0.00    -0.080 C 
ATOM      8  C   UNL     1       1.172 -20.917  -8.662  1.00  0.00     0.039 C 
ENDBRANCH   4   5
ENDBRANCH   3   4
ENDBRANCH   1   3
BRANCH   1   9
ATOM      9  C   UNL     1      -1.669 -25.917  -8.453  1.00  0.00     0.013 C 
ATOM     10  C   UNL     1      -1.732 -25.636  -7.146  1.00  0.00     0.008 C 
ENDBRANCH   1   9
BRANCH   1  11
ATOM     11  O   UNL     1       0.175 -27.455  -8.117  1.00  0.00    -0.455 OA
BRANCH  11  12
ATOM     12  C   UNL     1       0.046 -28.852  -8.062  1.00  0.00     0.303 C 
ATOM     13  O   UNL     1       0.861 -29.607  -8.656  1.00  0.00    -0.253 OA
ATOM     14  C   UNL     1      -1.094 -29.449  -7.311  1.00  0.00     0.139 C 
ENDBRANCH  11  12
ENDBRANCH   1  11
TORSDOF 6
ENDMDL
MODEL 5
REMARK VINA RESULT:    -4.081     14.839     16.633
REMARK INTER + INTRA:          -6.276
REMARK INTER:                  -5.658
REMARK INTRA:                  -0.618
REMARK UNBOUND:                -0.764
REMARK SMILES C=C[C@@](C)(CCC=C(C)C)OC(C)=O
REMARK SMILES IDX 3 1 4 2 5 3 6 4 7 5 9 6 8 7 10 8 2 9 1 10 11 11 12 12 14 13
REMARK SMILES IDX 13 14
REMARK H PARENT
REMARK Flexibility Score: inf
ROOT
ATOM      1  C   UNL     1      14.193 -18.135  -8.796  1.00  0.00     0.127 C 
ATOM      2  C   UNL     1      13.669 -17.695  -7.416  1.00  0.00     0.061 C 
ENDROOT
BRANCH   1   3
ATOM      3  C   UNL     1      13.164 -17.772  -9.906  1.00  0.00     0.057 C 
BRANCH   3   4
ATOM      4  C   UNL     1      13.428 -16.427 -10.611  1.00  0.00     0.032 C 
BRANCH   4   5
ATOM      5  C   UNL     1      13.279 -16.566 -12.105  1.00  0.00    -0.028 C 
ATOM      6  C   UNL     1      15.720 -16.201 -12.539  1.00  0.00     0.039 C 
ATOM      7  C   UNL     1      14.304 -16.489 -12.983  1.00  0.00    -0.080 C 
ATOM      8  C   UNL     1      14.010 -16.680 -14.448  1.00  0.00     0.039 C 
ENDBRANCH   4   5
ENDBRANCH   3   4
ENDBRANCH   1   3
BRANCH   1   9
ATOM      9  C   UNL     1      15.539 -17.473  -9.062  1.00  0.00     0.013 C 
ATOM     10  C   UNL     1      16.683 -18.166  -9.073  1.00  0.00     0.008 C 
ENDBRANCH   1   9
BRANCH   1  11
ATOM     11  O   UNL     1      14.349 -19.562  -8.752  1.00  0.00    -0.455 OA
BRANCH  11  12
ATOM     12  C   UNL     1      13.991 -20.388  -7.675  1.00  0.00     0.303 C 
ATOM     13  O   UNL     1      12.790 -20.712  -7.470  1.00  0.00    -0.253 OA
ATOM     14  C   UNL     1      15.048 -20.866  -6.740  1.00  0.00     0.139 C 
ENDBRANCH  11  12
ENDBRANCH   1  11
TORSDOF 6
ENDMDL
MODEL 6
REMARK VINA RESULT:    -4.063      1.517      2.855
REMARK INTER + INTRA:          -6.252
REMARK INTER:                  -5.763
REMARK INTRA:                  -0.488
REMARK UNBOUND:                -0.764
REMARK SMILES C=C[C@@](C)(CCC=C(C)C)OC(C)=O
REMARK SMILES IDX 3 1 4 2 5 3 6 4 7 5 9 6 8 7 10 8 2 9 1 10 11 11 12 12 14 13
REMARK SMILES IDX 13 14
REMARK H PARENT
REMARK Flexibility Score: inf
ROOT
ATOM      1  C   UNL     1      -0.408 -23.457 -10.062  1.00  0.00     0.127 C 
ATOM      2  C   UNL     1      -0.988 -23.023  -8.703  1.00  0.00     0.061 C 
ENDROOT
BRANCH   1   3
ATOM      3  C   UNL     1      -0.709 -24.962 -10.323  1.00  0.00     0.057 C 
BRANCH   3   4
ATOM      4  C   UNL     1       0.323 -25.936  -9.724  1.00  0.00     0.032 C 
BRANCH   4   5
ATOM      5  C   UNL     1      -0.288 -26.747  -8.609  1.00  0.00    -0.028 C 
ATOM      6  C   UNL     1       1.196 -28.723  -9.022  1.00  0.00     0.039 C 
ATOM      7  C   UNL     1       0.109 -27.993  -8.267  1.00  0.00    -0.080 C 
ATOM      8  C   UNL     1      -0.574 -28.671  -7.107  1.00  0.00     0.039 C 
ENDBRANCH   4   5
ENDBRANCH   3   4
ENDBRANCH   1   3
BRANCH   1   9
ATOM      9  C   UNL     1      -0.993 -22.585 -11.165  1.00  0.00     0.013 C 
ATOM     10  C   UNL     1      -1.386 -23.089 -12.340  1.00  0.00     0.008 C 
ENDBRANCH   1   9
BRANCH   1  11
ATOM     11  O   UNL     1       1.014 -23.270  -9.991  1.00  0.00    -0.455 OA
BRANCH  11  12
ATOM     12  C   UNL     1       1.704 -22.104 -10.359  1.00  0.00     0.303 C 
ATOM     13  O   UNL     1       2.163 -21.957 -11.524  1.00  0.00    -0.253 OA
ATOM     14  C   UNL     1       1.922 -21.035  -9.345  1.00  0.00     0.139 C 
ENDBRANCH  11  12
ENDBRANCH   1  11
TORSDOF 6
ENDMDL
MODEL 7
REMARK VINA RESULT:    -4.061      3.104      5.727
REMARK INTER + INTRA:          -6.250
REMARK INTER:                  -5.658
REMARK INTRA:                  -0.592
REMARK UNBOUND:                -0.764
REMARK SMILES C=C[C@@](C)(CCC=C(C)C)OC(C)=O
REMARK SMILES IDX 3 1 4 2 5 3 6 4 7 5 9 6 8 7 10 8 2 9 1 10 11 11 12 12 14 13
REMARK SMILES IDX 13 14
REMARK H PARENT
REMARK Flexibility Score: inf
ROOT
ATOM      1  C   UNL     1      -1.028 -26.355  -9.437  1.00  0.00     0.127 C 
ATOM      2  C   UNL     1      -1.692 -26.370 -10.827  1.00  0.00     0.061 C 
ENDROOT
BRANCH   1   3
ATOM      3  C   UNL     1       0.359 -25.652  -9.509  1.00  0.00     0.057 C 
BRANCH   3   4
ATOM      4  C   UNL     1       0.373 -24.340 -10.316  1.00  0.00     0.032 C 
BRANCH   4   5
ATOM      5  C   UNL     1       0.778 -23.178  -9.444  1.00  0.00    -0.028 C 
ATOM      6  C   UNL     1       1.851 -21.932 -11.335  1.00  0.00     0.039 C 
ATOM      7  C   UNL     1       1.424 -22.078  -9.892  1.00  0.00    -0.080 C 
ATOM      8  C   UNL     1       1.737 -20.979  -8.910  1.00  0.00     0.039 C 
ENDBRANCH   4   5
ENDBRANCH   3   4
ENDBRANCH   1   3
BRANCH   1   9
ATOM      9  C   UNL     1      -1.945 -25.653  -8.445  1.00  0.00     0.013 C 
ATOM     10  C   UNL     1      -1.748 -25.718  -7.123  1.00  0.00     0.008 C 
ENDBRANCH   1   9
BRANCH   1  11
ATOM     11  O   UNL     1      -0.839 -27.724  -9.047  1.00  0.00    -0.455 OA
BRANCH  11  12
ATOM     12  C   UNL     1       0.373 -28.429  -9.106  1.00  0.00     0.303 C 
ATOM     13  O   UNL     1       0.869 -28.785 -10.209  1.00  0.00    -0.253 OA
ATOM     14  C   UNL     1       1.071 -28.789  -7.840  1.00  0.00     0.139 C 
ENDBRANCH  11  12
ENDBRANCH   1  11
TORSDOF 6
ENDMDL
MODEL 8
REMARK VINA RESULT:    -3.990      1.972      2.954
REMARK INTER + INTRA:          -6.153
REMARK INTER:                  -5.319
REMARK INTRA:                  -0.834
REMARK UNBOUND:                -0.764
REMARK SMILES C=C[C@@](C)(CCC=C(C)C)OC(C)=O
REMARK SMILES IDX 3 1 4 2 5 3 6 4 7 5 9 6 8 7 10 8 2 9 1 10 11 11 12 12 14 13
REMARK SMILES IDX 13 14
REMARK H PARENT
REMARK Flexibility Score: inf
ROOT
ATOM      1  C   UNL     1      -0.450 -20.473  -8.667  1.00  0.00     0.127 C 
ATOM      2  C   UNL     1       1.034 -20.659  -8.299  1.00  0.00     0.061 C 
ENDROOT
BRANCH   1   3
ATOM      3  C   UNL     1      -1.330 -21.498  -7.893  1.00  0.00     0.057 C 
BRANCH   3   4
ATOM      4  C   UNL     1      -1.845 -22.674  -8.745  1.00  0.00     0.032 C 
BRANCH   4   5
ATOM      5  C   UNL     1      -0.860 -23.816  -8.735  1.00  0.00    -0.028 C 
ATOM      6  C   UNL     1      -1.191 -24.329 -11.165  1.00  0.00     0.039 C 
ATOM      7  C   UNL     1      -0.539 -24.555  -9.820  1.00  0.00    -0.080 C 
ATOM      8  C   UNL     1       0.489 -25.646  -9.667  1.00  0.00     0.039 C 
ENDBRANCH   4   5
ENDBRANCH   3   4
ENDBRANCH   1   3
BRANCH   1   9
ATOM      9  C   UNL     1      -0.875 -19.044  -8.356  1.00  0.00     0.013 C 
ATOM     10  C   UNL     1      -1.960 -18.487  -8.907  1.00  0.00     0.008 C 
ENDBRANCH   1   9
BRANCH   1  11
ATOM     11  O   UNL     1      -0.569 -20.725 -10.076  1.00  0.00    -0.455 OA
BRANCH  11  12
ATOM     12  C   UNL     1       0.404 -20.427 -11.043  1.00  0.00     0.303 C 
ATOM     13  O   UNL     1       0.587 -19.246 -11.441  1.00  0.00    -0.253 OA
ATOM     14  C   UNL     1       1.212 -21.533 -11.629  1.00  0.00     0.139 C 
ENDBRANCH  11  12
ENDBRANCH   1  11
TORSDOF 6
ENDMDL
MODEL 9
REMARK VINA RESULT:    -3.986      2.298      5.332
REMARK INTER + INTRA:          -6.149
REMARK INTER:                  -5.182
REMARK INTRA:                  -0.966
REMARK UNBOUND:                -0.764
REMARK SMILES C=C[C@@](C)(CCC=C(C)C)OC(C)=O
REMARK SMILES IDX 3 1 4 2 5 3 6 4 7 5 9 6 8 7 10 8 2 9 1 10 11 11 12 12 14 13
REMARK SMILES IDX 13 14
REMARK H PARENT
REMARK Flexibility Score: inf
ROOT
ATOM      1  C   UNL     1      -0.427 -23.612  -9.653  1.00  0.00     0.127 C 
ATOM      2  C   UNL     1      -0.947 -23.899 -11.074  1.00  0.00     0.061 C 
ENDROOT
BRANCH   1   3
ATOM      3  C   UNL     1       0.982 -22.955  -9.716  1.00  0.00     0.057 C 
BRANCH   3   4
ATOM      4  C   UNL     1       1.315 -22.278 -11.059  1.00  0.00     0.032 C 
BRANCH   4   5
ATOM      5  C   UNL     1       1.451 -20.785 -10.889  1.00  0.00    -0.028 C 
ATOM      6  C   UNL     1      -0.880 -20.325 -11.685  1.00  0.00     0.039 C 
ATOM      7  C   UNL     1       0.466 -19.896 -11.145  1.00  0.00    -0.080 C 
ATOM      8  C   UNL     1       0.735 -18.435 -10.898  1.00  0.00     0.039 C 
ENDBRANCH   4   5
ENDBRANCH   3   4
ENDBRANCH   1   3
BRANCH   1   9
ATOM      9  C   UNL     1      -1.416 -22.714  -8.922  1.00  0.00     0.013 C 
ATOM     10  C   UNL     1      -1.019 -21.703  -8.142  1.00  0.00     0.008 C 
ENDBRANCH   1   9
BRANCH   1  11
ATOM     11  O   UNL     1      -0.323 -24.877  -8.981  1.00  0.00    -0.455 OA
BRANCH  11  12
ATOM     12  C   UNL     1      -1.401 -25.636  -8.498  1.00  0.00     0.303 C 
ATOM     13  O   UNL     1      -2.072 -26.377  -9.264  1.00  0.00    -0.253 OA
ATOM     14  C   UNL     1      -1.775 -25.537  -7.059  1.00  0.00     0.139 C 
ENDBRANCH  11  12
ENDBRANCH   1  11
TORSDOF 6
ENDMDL
