MODEL 1
REMARK VINA RESULT:    -4.202      0.000      0.000
REMARK INTER + INTRA:          -5.301
REMARK INTER:                  -5.184
REMARK INTRA:                  -0.117
REMARK UNBOUND:                -0.117
REMARK SMILES CCCCCC(=O)[O-]
REMARK SMILES IDX 4 1 5 2 6 3 7 4 8 5 3 6 2 7 1 8
REMARK H PARENT
REMARK Flexibility Score: inf
ROOT
ATOM      1  C   UNL     1      47.888  -7.343  25.041  1.00  0.00     0.006 C 
ENDROOT
BRANCH   1   2
ATOM      2  C   UNL     1      46.461  -7.317  24.483  1.00  0.00     0.053 C 
BRANCH   2   3
ATOM      3  C   UNL     1      45.464  -7.286  25.595  1.00  0.00     0.041 C 
ATOM      4  O   UNL     1      45.469  -8.185  26.478  1.00  0.00    -0.550 OA
ATOM      5  O   UNL     1      44.494  -6.292  25.633  1.00  0.00    -0.550 OA
ENDBRANCH   2   3
ENDBRANCH   1   2
BRANCH   1   6
ATOM      6  C   UNL     1      48.922  -7.293  23.910  1.00  0.00     0.000 C 
BRANCH   6   7
ATOM      7  C   UNL     1      48.239  -7.147  22.545  1.00  0.00    -0.003 C 
ATOM      8  C   UNL     1      48.968  -7.953  21.475  1.00  0.00     0.004 C 
ENDBRANCH   6   7
ENDBRANCH   1   6
TORSDOF 4
ENDMDL
MODEL 2
REMARK VINA RESULT:    -4.157      1.460      2.087
REMARK INTER + INTRA:          -5.246
REMARK INTER:                  -5.162
REMARK INTRA:                  -0.085
REMARK UNBOUND:                -0.117
REMARK SMILES CCCCCC(=O)[O-]
REMARK SMILES IDX 4 1 5 2 6 3 7 4 8 5 3 6 2 7 1 8
REMARK H PARENT
REMARK Flexibility Score: inf
ROOT
ATOM      1  C   UNL     1      45.398  -7.687  24.631  1.00  0.00     0.006 C 
ENDROOT
BRANCH   1   2
ATOM      2  C   UNL     1      45.422  -7.661  26.162  1.00  0.00     0.053 C 
BRANCH   2   3
ATOM      3  C   UNL     1      45.017  -6.316  26.671  1.00  0.00     0.041 C 
ATOM      4  O   UNL     1      43.984  -5.752  26.221  1.00  0.00    -0.550 OA
ATOM      5  O   UNL     1      45.806  -5.659  27.607  1.00  0.00    -0.550 OA
ENDBRANCH   2   3
ENDBRANCH   1   2
BRANCH   1   6
ATOM      6  C   UNL     1      46.757  -7.277  24.051  1.00  0.00     0.000 C 
BRANCH   6   7
ATOM      7  C   UNL     1      46.819  -7.557  22.545  1.00  0.00    -0.003 C 
ATOM      8  C   UNL     1      48.263  -7.612  22.054  1.00  0.00     0.004 C 
ENDBRANCH   6   7
ENDBRANCH   1   6
TORSDOF 4
ENDMDL
MODEL 3
REMARK VINA RESULT:    -4.149      3.179      3.685
REMARK INTER + INTRA:          -5.236
REMARK INTER:                  -5.092
REMARK INTRA:                  -0.144
REMARK UNBOUND:                -0.117
REMARK SMILES CCCCCC(=O)[O-]
REMARK SMILES IDX 4 1 5 2 6 3 7 4 8 5 3 6 2 7 1 8
REMARK H PARENT
REMARK Flexibility Score: inf
ROOT
ATOM      1  C   UNL     1      48.209  -7.416  24.559  1.00  0.00     0.006 C 
ENDROOT
BRANCH   1   2
ATOM      2  C   UNL     1      48.566  -6.089  25.235  1.00  0.00     0.053 C 
BRANCH   2   3
ATOM      3  C   UNL     1      50.048  -5.951  25.368  1.00  0.00     0.041 C 
ATOM      4  O   UNL     1      50.815  -6.788  24.824  1.00  0.00    -0.550 OA
ATOM      5  O   UNL     1      50.585  -4.925  26.136  1.00  0.00    -0.550 OA
ENDBRANCH   2   3
ENDBRANCH   1   2
BRANCH   1   6
ATOM      6  C   UNL     1      46.874  -7.312  23.812  1.00  0.00     0.000 C 
BRANCH   6   7
ATOM      7  C   UNL     1      47.040  -7.686  22.334  1.00  0.00    -0.003 C 
ATOM      8  C   UNL     1      48.514  -7.790  21.954  1.00  0.00     0.004 C 
ENDBRANCH   6   7
ENDBRANCH   1   6
TORSDOF 4
ENDMDL
MODEL 4
REMARK VINA RESULT:    -4.136      1.733      2.134
REMARK INTER + INTRA:          -5.220
REMARK INTER:                  -5.094
REMARK INTRA:                  -0.127
REMARK UNBOUND:                -0.117
REMARK SMILES CCCCCC(=O)[O-]
REMARK SMILES IDX 4 1 5 2 6 3 7 4 8 5 3 6 2 7 1 8
REMARK H PARENT
REMARK Flexibility Score: inf
ROOT
ATOM      1  C   UNL     1      46.197  -7.386  24.061  1.00  0.00     0.006 C 
ENDROOT
BRANCH   1   2
ATOM      2  C   UNL     1      47.363  -7.022  24.986  1.00  0.00     0.053 C 
BRANCH   2   3
ATOM      3  C   UNL     1      47.085  -5.738  25.699  1.00  0.00     0.041 C 
ATOM      4  O   UNL     1      48.034  -4.986  26.046  1.00  0.00    -0.550 OA
ATOM      5  O   UNL     1      45.779  -5.391  26.025  1.00  0.00    -0.550 OA
ENDBRANCH   2   3
ENDBRANCH   1   2
BRANCH   1   6
ATOM      6  C   UNL     1      46.687  -7.628  22.628  1.00  0.00     0.000 C 
BRANCH   6   7
ATOM      7  C   UNL     1      48.071  -7.006  22.407  1.00  0.00    -0.003 C 
ATOM      8  C   UNL     1      48.957  -7.917  21.564  1.00  0.00     0.004 C 
ENDBRANCH   6   7
ENDBRANCH   1   6
TORSDOF 4
ENDMDL
MODEL 5
REMARK VINA RESULT:    -4.084      1.624      2.545
REMARK INTER + INTRA:          -5.156
REMARK INTER:                  -5.034
REMARK INTRA:                  -0.122
REMARK UNBOUND:                -0.117
REMARK SMILES CCCCCC(=O)[O-]
REMARK SMILES IDX 4 1 5 2 6 3 7 4 8 5 3 6 2 7 1 8
REMARK H PARENT
REMARK Flexibility Score: inf
ROOT
ATOM      1  C   UNL     1      47.939  -7.162  24.389  1.00  0.00     0.006 C 
ENDROOT
BRANCH   1   2
ATOM      2  C   UNL     1      46.800  -6.601  25.246  1.00  0.00     0.053 C 
BRANCH   2   3
ATOM      3  C   UNL     1      45.713  -7.615  25.402  1.00  0.00     0.041 C 
ATOM      4  O   UNL     1      44.976  -7.910  24.425  1.00  0.00    -0.550 OA
ATOM      5  O   UNL     1      45.480  -8.201  26.640  1.00  0.00    -0.550 OA
ENDBRANCH   2   3
ENDBRANCH   1   2
BRANCH   1   6
ATOM      6  C   UNL     1      49.144  -7.544  25.257  1.00  0.00     0.000 C 
BRANCH   6   7
ATOM      7  C   UNL     1      50.354  -6.656  24.940  1.00  0.00    -0.003 C 
ATOM      8  C   UNL     1      50.377  -5.418  25.831  1.00  0.00     0.004 C 
ENDBRANCH   6   7
ENDBRANCH   1   6
TORSDOF 4
ENDMDL
MODEL 6
REMARK VINA RESULT:    -4.070      1.539      2.376
REMARK INTER + INTRA:          -5.139
REMARK INTER:                  -4.945
REMARK INTRA:                  -0.194
REMARK UNBOUND:                -0.117
REMARK SMILES CCCCCC(=O)[O-]
REMARK SMILES IDX 4 1 5 2 6 3 7 4 8 5 3 6 2 7 1 8
REMARK H PARENT
REMARK Flexibility Score: inf
ROOT
ATOM      1  C   UNL     1      46.980  -7.353  24.128  1.00  0.00     0.006 C 
ENDROOT
BRANCH   1   2
ATOM      2  C   UNL     1      46.657  -7.283  25.624  1.00  0.00     0.053 C 
BRANCH   2   3
ATOM      3  C   UNL     1      46.038  -5.965  25.965  1.00  0.00     0.041 C 
ATOM      4  O   UNL     1      46.762  -4.998  26.321  1.00  0.00    -0.550 OA
ATOM      5  O   UNL     1      44.657  -5.817  25.937  1.00  0.00    -0.550 OA
ENDBRANCH   2   3
ENDBRANCH   1   2
BRANCH   1   6
ATOM      6  C   UNL     1      48.493  -7.295  23.888  1.00  0.00     0.000 C 
BRANCH   6   7
ATOM      7  C   UNL     1      49.265  -7.490  25.198  1.00  0.00    -0.003 C 
ATOM      8  C   UNL     1      50.343  -6.423  25.366  1.00  0.00     0.004 C 
ENDBRANCH   6   7
ENDBRANCH   1   6
TORSDOF 4
ENDMDL
MODEL 7
REMARK VINA RESULT:    -3.996      2.693      4.085
REMARK INTER + INTRA:          -5.047
REMARK INTER:                  -4.882
REMARK INTRA:                  -0.165
REMARK UNBOUND:                -0.117
REMARK SMILES CCCCCC(=O)[O-]
REMARK SMILES IDX 4 1 5 2 6 3 7 4 8 5 3 6 2 7 1 8
REMARK H PARENT
REMARK Flexibility Score: inf
ROOT
ATOM      1  C   UNL     1      47.808  -7.396  24.588  1.00  0.00     0.006 C 
ENDROOT
BRANCH   1   2
ATOM      2  C   UNL     1      48.603  -6.121  24.290  1.00  0.00     0.053 C 
BRANCH   2   3
ATOM      3  C   UNL     1      49.143  -5.532  25.553  1.00  0.00     0.041 C 
ATOM      4  O   UNL     1      48.422  -4.781  26.262  1.00  0.00    -0.550 OA
ATOM      5  O   UNL     1      50.459  -5.773  25.925  1.00  0.00    -0.550 OA
ENDBRANCH   2   3
ENDBRANCH   1   2
BRANCH   1   6
ATOM      6  C   UNL     1      46.415  -7.339  23.950  1.00  0.00     0.000 C 
BRANCH   6   7
ATOM      7  C   UNL     1      45.327  -7.686  24.973  1.00  0.00    -0.003 C 
ATOM      8  C   UNL     1      45.912  -7.819  26.376  1.00  0.00     0.004 C 
ENDBRANCH   6   7
ENDBRANCH   1   6
TORSDOF 4
ENDMDL
MODEL 8
REMARK VINA RESULT:    -3.991      2.480      4.157
REMARK INTER + INTRA:          -5.042
REMARK INTER:                  -4.847
REMARK INTRA:                  -0.195
REMARK UNBOUND:                -0.117
REMARK SMILES CCCCCC(=O)[O-]
REMARK SMILES IDX 4 1 5 2 6 3 7 4 8 5 3 6 2 7 1 8
REMARK H PARENT
REMARK Flexibility Score: inf
ROOT
ATOM      1  C   UNL     1      46.933  -7.356  24.106  1.00  0.00     0.006 C 
ENDROOT
BRANCH   1   2
ATOM      2  C   UNL     1      48.005  -7.222  25.192  1.00  0.00     0.053 C 
BRANCH   2   3
ATOM      3  C   UNL     1      48.536  -5.825  25.235  1.00  0.00     0.041 C 
ATOM      4  O   UNL     1      49.731  -5.590  24.915  1.00  0.00    -0.550 OA
ATOM      5  O   UNL     1      47.725  -4.786  25.676  1.00  0.00    -0.550 OA
ENDBRANCH   2   3
ENDBRANCH   1   2
BRANCH   1   6
ATOM      6  C   UNL     1      45.540  -7.518  24.725  1.00  0.00     0.000 C 
BRANCH   6   7
ATOM      7  C   UNL     1      45.636  -7.792  26.231  1.00  0.00    -0.003 C 
ATOM      8  C   UNL     1      44.910  -6.717  27.034  1.00  0.00     0.004 C 
ENDBRANCH   6   7
ENDBRANCH   1   6
TORSDOF 4
ENDMDL
MODEL 9
REMARK VINA RESULT:    -3.933      2.741      4.209
REMARK INTER + INTRA:          -4.970
REMARK INTER:                  -4.832
REMARK INTRA:                  -0.138
REMARK UNBOUND:                -0.117
REMARK SMILES CCCCCC(=O)[O-]
REMARK SMILES IDX 4 1 5 2 6 3 7 4 8 5 3 6 2 7 1 8
REMARK H PARENT
REMARK Flexibility Score: inf
ROOT
ATOM      1  C   UNL     1      47.668  -6.658  24.694  1.00  0.00     0.006 C 
ENDROOT
BRANCH   1   2
ATOM      2  C   UNL     1      48.656  -7.523  23.906  1.00  0.00     0.053 C 
BRANCH   2   3
ATOM      3  C   UNL     1      48.198  -7.688  22.492  1.00  0.00     0.041 C 
ATOM      4  O   UNL     1      49.032  -7.909  21.576  1.00  0.00    -0.550 OA
ATOM      5  O   UNL     1      46.852  -7.548  22.177  1.00  0.00    -0.550 OA
ENDBRANCH   2   3
ENDBRANCH   1   2
BRANCH   1   6
ATOM      6  C   UNL     1      46.905  -7.496  25.726  1.00  0.00     0.000 C 
BRANCH   6   7
ATOM      7  C   UNL     1      45.423  -7.615  25.352  1.00  0.00    -0.003 C 
ATOM      8  C   UNL     1      44.655  -6.353  25.736  1.00  0.00     0.004 C 
ENDBRANCH   6   7
ENDBRANCH   1   6
TORSDOF 4
ENDMDL
