MODEL 1
REMARK VINA RESULT:    -2.820      0.000      0.000
REMARK INTER + INTRA:          -2.902
REMARK INTER:                  -2.902
REMARK INTRA:                   0.000
REMARK UNBOUND:                 0.000
REMARK SMILES O=c1ccc2ccc(O)cc2o1
REMARK SMILES IDX 6 1 7 2 8 3 10 4 11 5 5 6 4 7 3 8 2 9 1 10 12 11 9 12
REMARK H PARENT 9 13
REMARK Flexibility Score: inf
ROOT
ATOM      1  C   UNL     1      22.146  13.876   3.590  1.00  0.00     0.016 A 
ATOM      2  C   UNL     1      23.511  13.928   3.292  1.00  0.00     0.047 A 
ATOM      3  C   UNL     1      23.949  14.446   2.067  1.00  0.00     0.119 A 
ATOM      4  C   UNL     1      23.014  14.914   1.131  1.00  0.00     0.094 A 
ATOM      5  C   UNL     1      21.646  14.865   1.421  1.00  0.00     0.142 A 
ATOM      6  C   UNL     1      21.209  14.342   2.658  1.00  0.00     0.018 A 
ATOM      7  C   UNL     1      19.836  14.306   2.918  1.00  0.00     0.019 A 
ATOM      8  C   UNL     1      18.944  14.784   1.958  1.00  0.00     0.094 A 
ATOM      9  C   UNL     1      19.449  15.287   0.755  1.00  0.00     0.336 A 
ATOM     10  O   UNL     1      18.661  15.723  -0.125  1.00  0.00    -0.246 OA
ATOM     11  O   UNL     1      20.761  15.310   0.532  1.00  0.00    -0.423 OA
ENDROOT
BRANCH   3  12
ATOM     12  O   UNL     1      25.313  14.491   1.788  1.00  0.00    -0.508 OA
ATOM     13  H   UNL     1      25.664  14.882   0.922  1.00  0.00     0.293 HD
ENDBRANCH   3  12
TORSDOF 1
ENDMDL
MODEL 2
REMARK VINA RESULT:    -2.110      1.560      4.750
REMARK INTER + INTRA:          -2.172
REMARK INTER:                  -2.172
REMARK INTRA:                   0.000
REMARK UNBOUND:                 0.000
REMARK SMILES O=c1ccc2ccc(O)cc2o1
REMARK SMILES IDX 6 1 7 2 8 3 10 4 11 5 5 6 4 7 3 8 2 9 1 10 12 11 9 12
REMARK H PARENT 9 13
REMARK Flexibility Score: inf
ROOT
ATOM      1  C   UNL     1      20.997  15.966  -0.098  1.00  0.00     0.016 A 
ATOM      2  C   UNL     1      19.714  15.439   0.073  1.00  0.00     0.047 A 
ATOM      3  C   UNL     1      19.488  14.404   0.989  1.00  0.00     0.119 A 
ATOM      4  C   UNL     1      20.556  13.890   1.740  1.00  0.00     0.094 A 
ATOM      5  C   UNL     1      21.845  14.410   1.576  1.00  0.00     0.142 A 
ATOM      6  C   UNL     1      22.067  15.455   0.651  1.00  0.00     0.018 A 
ATOM      7  C   UNL     1      23.366  15.953   0.509  1.00  0.00     0.019 A 
ATOM      8  C   UNL     1      24.395  15.411   1.278  1.00  0.00     0.094 A 
ATOM      9  C   UNL     1      24.101  14.378   2.174  1.00  0.00     0.336 A 
ATOM     10  O   UNL     1      25.016  13.875   2.877  1.00  0.00    -0.246 OA
ATOM     11  O   UNL     1      22.856  13.921   2.290  1.00  0.00    -0.423 OA
ENDROOT
BRANCH   3  12
ATOM     12  O   UNL     1      18.202  13.893   1.145  1.00  0.00    -0.508 OA
ATOM     13  H   UNL     1      17.384  14.429   0.881  1.00  0.00     0.293 HD
ENDBRANCH   3  12
TORSDOF 1
ENDMDL
MODEL 3
REMARK VINA RESULT:    -1.464     13.777     14.582
REMARK INTER + INTRA:          -1.507
REMARK INTER:                  -1.507
REMARK INTRA:                   0.000
REMARK UNBOUND:                 0.000
REMARK SMILES O=c1ccc2ccc(O)cc2o1
REMARK SMILES IDX 6 1 7 2 8 3 10 4 11 5 5 6 4 7 3 8 2 9 1 10 12 11 9 12
REMARK H PARENT 9 13
REMARK Flexibility Score: inf
ROOT
ATOM      1  C   UNL     1      27.032  29.360   2.994  1.00  0.00     0.016 A 
ATOM      2  C   UNL     1      27.400  30.379   2.111  1.00  0.00     0.047 A 
ATOM      3  C   UNL     1      27.513  30.122   0.739  1.00  0.00     0.119 A 
ATOM      4  C   UNL     1      27.258  28.833   0.245  1.00  0.00     0.094 A 
ATOM      5  C   UNL     1      26.890  27.806   1.122  1.00  0.00     0.142 A 
ATOM      6  C   UNL     1      26.777  28.071   2.505  1.00  0.00     0.018 A 
ATOM      7  C   UNL     1      26.407  27.024   3.355  1.00  0.00     0.019 A 
ATOM      8  C   UNL     1      26.163  25.760   2.819  1.00  0.00     0.094 A 
ATOM      9  C   UNL     1      26.295  25.572   1.439  1.00  0.00     0.336 A 
ATOM     10  O   UNL     1      26.079  24.439   0.935  1.00  0.00    -0.246 OA
ATOM     11  O   UNL     1      26.648  26.585   0.651  1.00  0.00    -0.423 OA
ENDROOT
BRANCH   3  12
ATOM     12  O   UNL     1      27.880  31.151  -0.125  1.00  0.00    -0.508 OA
ATOM     13  H   UNL     1      27.202  31.606  -0.725  1.00  0.00     0.293 HD
ENDBRANCH   3  12
TORSDOF 1
ENDMDL
