MODEL 1
REMARK VINA RESULT:    -5.149      0.000      0.000
REMARK INTER + INTRA:          -8.936
REMARK INTER:                  -7.858
REMARK INTRA:                  -1.078
REMARK UNBOUND:                -1.078
REMARK SMILES O=C([O-])CCCCCCCCC(=O)[O-]
REMARK SMILES IDX 7 1 6 2 5 3 4 4 2 5 1 6 3 7 8 8 9 9 10 10 11 11 12 12 13 13
REMARK SMILES IDX 14 14
REMARK H PARENT
REMARK Flexibility Score: inf
ROOT
ATOM      1  C   UNL     1     219.749  -6.444  24.916  1.00  0.00     0.000 C 
ENDROOT
BRANCH   1   2
ATOM      2  C   UNL     1     218.299  -6.858  24.614  1.00  0.00     0.000 C 
BRANCH   2   3
ATOM      3  C   UNL     1     217.718  -7.808  25.678  1.00  0.00     0.006 C 
BRANCH   3   4
ATOM      4  C   UNL     1     218.176  -7.509  27.113  1.00  0.00     0.053 C 
BRANCH   4   5
ATOM      5  C   UNL     1     218.752  -8.719  27.782  1.00  0.00     0.041 C 
ATOM      6  O   UNL     1     219.908  -9.119  27.482  1.00  0.00    -0.550 OA
ATOM      7  O   UNL     1     218.000  -9.424  28.713  1.00  0.00    -0.550 OA
ENDBRANCH   4   5
ENDBRANCH   3   4
ENDBRANCH   2   3
ENDBRANCH   1   2
BRANCH   1   8
ATOM      8  C   UNL     1     220.751  -7.015  23.898  1.00  0.00     0.000 C 
BRANCH   8   9
ATOM      9  C   UNL     1     221.512  -8.237  24.436  1.00  0.00     0.000 C 
BRANCH   9  10
ATOM     10  C   UNL     1     221.226  -9.480  23.585  1.00  0.00     0.006 C 
BRANCH  10  11
ATOM     11  C   UNL     1     220.075 -10.299  24.177  1.00  0.00     0.053 C 
BRANCH  11  12
ATOM     12  C   UNL     1     218.915 -10.330  23.233  1.00  0.00     0.041 C 
ATOM     13  O   UNL     1     217.910 -11.046  23.488  1.00  0.00    -0.550 OA
ATOM     14  O   UNL     1     218.921  -9.531  22.097  1.00  0.00    -0.550 OA
ENDBRANCH  11  12
ENDBRANCH  10  11
ENDBRANCH   9  10
ENDBRANCH   8   9
ENDBRANCH   1   8
TORSDOF 9
ENDMDL
MODEL 2
REMARK VINA RESULT:    -5.138      1.307      1.946
REMARK INTER + INTRA:          -8.920
REMARK INTER:                  -8.051
REMARK INTRA:                  -0.869
REMARK UNBOUND:                -1.078
REMARK SMILES O=C([O-])CCCCCCCCC(=O)[O-]
REMARK SMILES IDX 7 1 6 2 5 3 4 4 2 5 1 6 3 7 8 8 9 9 10 10 11 11 12 12 13 13
REMARK SMILES IDX 14 14
REMARK H PARENT
REMARK Flexibility Score: inf
ROOT
ATOM      1  C   UNL     1     218.271  -6.877  24.330  1.00  0.00     0.000 C 
ENDROOT
BRANCH   1   2
ATOM      2  C   UNL     1     217.484  -7.846  25.229  1.00  0.00     0.000 C 
BRANCH   2   3
ATOM      3  C   UNL     1     218.297  -8.320  26.448  1.00  0.00     0.006 C 
BRANCH   3   4
ATOM      4  C   UNL     1     217.445  -8.834  27.618  1.00  0.00     0.053 C 
BRANCH   4   5
ATOM      5  C   UNL     1     218.157  -8.705  28.930  1.00  0.00     0.041 C 
ATOM      6  O   UNL     1     218.540  -9.734  29.547  1.00  0.00    -0.550 OA
ATOM      7  O   UNL     1     218.369  -7.451  29.486  1.00  0.00    -0.550 OA
ENDBRANCH   4   5
ENDBRANCH   3   4
ENDBRANCH   2   3
ENDBRANCH   1   2
BRANCH   1   8
ATOM      8  C   UNL     1     219.615  -6.458  24.948  1.00  0.00     0.000 C 
BRANCH   8   9
ATOM      9  C   UNL     1     220.817  -6.842  24.071  1.00  0.00     0.000 C 
BRANCH   9  10
ATOM     10  C   UNL     1     220.383  -7.742  22.908  1.00  0.00     0.006 C 
BRANCH  10  11
ATOM     11  C   UNL     1     221.121  -9.084  22.946  1.00  0.00     0.053 C 
BRANCH  11  12
ATOM     12  C   UNL     1     220.438 -10.030  23.883  1.00  0.00     0.041 C 
ATOM     13  O   UNL     1     220.974 -10.331  24.982  1.00  0.00    -0.550 OA
ATOM     14  O   UNL     1     219.187 -10.543  23.564  1.00  0.00    -0.550 OA
ENDBRANCH  11  12
ENDBRANCH  10  11
ENDBRANCH   9  10
ENDBRANCH   8   9
ENDBRANCH   1   8
TORSDOF 9
ENDMDL
MODEL 3
REMARK VINA RESULT:    -5.131      1.535      2.319
REMARK INTER + INTRA:          -8.908
REMARK INTER:                  -8.038
REMARK INTRA:                  -0.870
REMARK UNBOUND:                -1.078
REMARK SMILES O=C([O-])CCCCCCCCC(=O)[O-]
REMARK SMILES IDX 7 1 6 2 5 3 4 4 2 5 1 6 3 7 8 8 9 9 10 10 11 11 12 12 13 13
REMARK SMILES IDX 14 14
REMARK H PARENT
REMARK Flexibility Score: inf
ROOT
ATOM      1  C   UNL     1     221.208  -8.138  24.208  1.00  0.00     0.000 C 
ENDROOT
BRANCH   1   2
ATOM      2  C   UNL     1     220.568  -6.740  24.160  1.00  0.00     0.000 C 
BRANCH   2   3
ATOM      3  C   UNL     1     219.684  -6.449  25.387  1.00  0.00     0.006 C 
BRANCH   3   4
ATOM      4  C   UNL     1     218.318  -7.152  25.366  1.00  0.00     0.053 C 
BRANCH   4   5
ATOM      5  C   UNL     1     217.921  -7.648  26.722  1.00  0.00     0.041 C 
ATOM      6  O   UNL     1     217.128  -8.621  26.834  1.00  0.00    -0.550 OA
ATOM      7  O   UNL     1     218.400  -7.017  27.862  1.00  0.00    -0.550 OA
ENDBRANCH   4   5
ENDBRANCH   3   4
ENDBRANCH   2   3
ENDBRANCH   1   2
BRANCH   1   8
ATOM      8  C   UNL     1     221.417  -8.740  22.809  1.00  0.00     0.000 C 
BRANCH   8   9
ATOM      9  C   UNL     1     220.510  -8.101  21.746  1.00  0.00     0.000 C 
BRANCH   9  10
ATOM     10  C   UNL     1     219.429  -9.085  21.284  1.00  0.00     0.006 C 
BRANCH  10  11
ATOM     11  C   UNL     1     218.203  -9.026  22.199  1.00  0.00     0.053 C 
BRANCH  11  12
ATOM     12  C   UNL     1     217.966 -10.356  22.843  1.00  0.00     0.041 C 
ATOM     13  O   UNL     1     217.804 -10.437  24.089  1.00  0.00    -0.550 OA
ATOM     14  O   UNL     1     217.875 -11.501  22.062  1.00  0.00    -0.550 OA
ENDBRANCH  11  12
ENDBRANCH  10  11
ENDBRANCH   9  10
ENDBRANCH   8   9
ENDBRANCH   1   8
TORSDOF 9
ENDMDL
MODEL 4
REMARK VINA RESULT:    -5.105      0.787      4.685
REMARK INTER + INTRA:          -8.869
REMARK INTER:                  -7.824
REMARK INTRA:                  -1.045
REMARK UNBOUND:                -1.078
REMARK SMILES O=C([O-])CCCCCCCCC(=O)[O-]
REMARK SMILES IDX 7 1 6 2 5 3 4 4 2 5 1 6 3 7 8 8 9 9 10 10 11 11 12 12 13 13
REMARK SMILES IDX 14 14
REMARK H PARENT
REMARK Flexibility Score: inf
ROOT
ATOM      1  C   UNL     1     220.574  -6.860  23.867  1.00  0.00     0.000 C 
ENDROOT
BRANCH   1   2
ATOM      2  C   UNL     1     221.508  -7.993  24.324  1.00  0.00     0.000 C 
BRANCH   2   3
ATOM      3  C   UNL     1     221.347  -9.273  23.484  1.00  0.00     0.006 C 
BRANCH   3   4
ATOM      4  C   UNL     1     220.287 -10.251  24.015  1.00  0.00     0.053 C 
BRANCH   4   5
ATOM      5  C   UNL     1     219.059 -10.268  23.158  1.00  0.00     0.041 C 
ATOM      6  O   UNL     1     219.009  -9.575  22.107  1.00  0.00    -0.550 OA
ATOM      7  O   UNL     1     217.957 -11.024  23.537  1.00  0.00    -0.550 OA
ENDBRANCH   4   5
ENDBRANCH   3   4
ENDBRANCH   2   3
ENDBRANCH   1   2
BRANCH   1   8
ATOM      8  C   UNL     1     219.515  -6.505  24.924  1.00  0.00     0.000 C 
BRANCH   8   9
ATOM      9  C   UNL     1     218.134  -7.099  24.605  1.00  0.00     0.000 C 
BRANCH   9  10
ATOM     10  C   UNL     1     217.521  -7.760  25.845  1.00  0.00     0.006 C 
BRANCH  10  11
ATOM     11  C   UNL     1     218.592  -8.476  26.673  1.00  0.00     0.053 C 
BRANCH  11  12
ATOM     12  C   UNL     1     218.413  -8.180  28.129  1.00  0.00     0.041 C 
ATOM     13  O   UNL     1     218.441  -6.990  28.541  1.00  0.00    -0.550 OA
ATOM     14  O   UNL     1     218.166  -9.212  29.024  1.00  0.00    -0.550 OA
ENDBRANCH  11  12
ENDBRANCH  10  11
ENDBRANCH   9  10
ENDBRANCH   8   9
ENDBRANCH   1   8
TORSDOF 9
ENDMDL
MODEL 5
REMARK VINA RESULT:    -5.020      1.392      4.310
REMARK INTER + INTRA:          -8.739
REMARK INTER:                  -7.734
REMARK INTRA:                  -1.004
REMARK UNBOUND:                -1.078
REMARK SMILES O=C([O-])CCCCCCCCC(=O)[O-]
REMARK SMILES IDX 7 1 6 2 5 3 4 4 2 5 1 6 3 7 8 8 9 9 10 10 11 11 12 12 13 13
REMARK SMILES IDX 14 14
REMARK H PARENT
REMARK Flexibility Score: inf
ROOT
ATOM      1  C   UNL     1     221.855  -8.612  23.104  1.00  0.00     0.000 C 
ENDROOT
BRANCH   1   2
ATOM      2  C   UNL     1     221.063  -8.096  21.891  1.00  0.00     0.000 C 
BRANCH   2   3
ATOM      3  C   UNL     1     220.030  -9.117  21.376  1.00  0.00     0.006 C 
BRANCH   3   4
ATOM      4  C   UNL     1     218.637  -8.986  22.012  1.00  0.00     0.053 C 
BRANCH   4   5
ATOM      5  C   UNL     1     218.320 -10.139  22.912  1.00  0.00     0.041 C 
ATOM      6  O   UNL     1     219.103 -10.446  23.850  1.00  0.00    -0.550 OA
ATOM      7  O   UNL     1     217.176 -10.897  22.696  1.00  0.00    -0.550 OA
ENDBRANCH   4   5
ENDBRANCH   3   4
ENDBRANCH   2   3
ENDBRANCH   1   2
BRANCH   1   8
ATOM      8  C   UNL     1     221.547  -7.825  24.388  1.00  0.00     0.000 C 
BRANCH   8   9
ATOM      9  C   UNL     1     220.586  -6.650  24.149  1.00  0.00     0.000 C 
BRANCH   9  10
ATOM     10  C   UNL     1     219.707  -6.401  25.381  1.00  0.00     0.006 C 
BRANCH  10  11
ATOM     11  C   UNL     1     218.400  -7.195  25.293  1.00  0.00     0.053 C 
BRANCH  11  12
ATOM     12  C   UNL     1     218.304  -8.171  26.423  1.00  0.00     0.041 C 
ATOM     13  O   UNL     1     219.349  -8.652  26.935  1.00  0.00    -0.550 OA
ATOM     14  O   UNL     1     217.063  -8.514  26.942  1.00  0.00    -0.550 OA
ENDBRANCH  11  12
ENDBRANCH  10  11
ENDBRANCH   9  10
ENDBRANCH   8   9
ENDBRANCH   1   8
TORSDOF 9
ENDMDL
MODEL 6
REMARK VINA RESULT:    -4.984      1.590      5.094
REMARK INTER + INTRA:          -8.684
REMARK INTER:                  -7.907
REMARK INTRA:                  -0.777
REMARK UNBOUND:                -1.078
REMARK SMILES O=C([O-])CCCCCCCCC(=O)[O-]
REMARK SMILES IDX 7 1 6 2 5 3 4 4 2 5 1 6 3 7 8 8 9 9 10 10 11 11 12 12 13 13
REMARK SMILES IDX 14 14
REMARK H PARENT
REMARK Flexibility Score: inf
ROOT
ATOM      1  C   UNL     1     218.959  -6.477  25.010  1.00  0.00     0.000 C 
ENDROOT
BRANCH   1   2
ATOM      2  C   UNL     1     220.402  -7.009  24.957  1.00  0.00     0.000 C 
BRANCH   2   3
ATOM      3  C   UNL     1     220.930  -7.153  23.517  1.00  0.00     0.006 C 
BRANCH   3   4
ATOM      4  C   UNL     1     221.494  -8.543  23.185  1.00  0.00     0.053 C 
BRANCH   4   5
ATOM      5  C   UNL     1     220.455  -9.615  23.306  1.00  0.00     0.041 C 
ATOM      6  O   UNL     1     220.627 -10.579  24.098  1.00  0.00    -0.550 OA
ATOM      7  O   UNL     1     219.311  -9.566  22.520  1.00  0.00    -0.550 OA
ENDBRANCH   4   5
ENDBRANCH   3   4
ENDBRANCH   2   3
ENDBRANCH   1   2
BRANCH   1   8
ATOM      8  C   UNL     1     217.930  -7.588  25.275  1.00  0.00     0.000 C 
BRANCH   8   9
ATOM      9  C   UNL     1     218.437  -8.641  26.274  1.00  0.00     0.000 C 
BRANCH   9  10
ATOM     10  C   UNL     1     217.494  -8.753  27.478  1.00  0.00     0.006 C 
BRANCH  10  11
ATOM     11  C   UNL     1     218.268  -9.105  28.752  1.00  0.00     0.053 C 
BRANCH  11  12
ATOM     12  C   UNL     1     218.842  -7.870  29.373  1.00  0.00     0.041 C 
ATOM     13  O   UNL     1     219.860  -7.946  30.110  1.00  0.00    -0.550 OA
ATOM     14  O   UNL     1     218.282  -6.629  29.099  1.00  0.00    -0.550 OA
ENDBRANCH  11  12
ENDBRANCH  10  11
ENDBRANCH   9  10
ENDBRANCH   8   9
ENDBRANCH   1   8
TORSDOF 9
ENDMDL
MODEL 7
REMARK VINA RESULT:    -4.945      1.642      2.412
REMARK INTER + INTRA:          -8.625
REMARK INTER:                  -7.939
REMARK INTRA:                  -0.686
REMARK UNBOUND:                -1.078
REMARK SMILES O=C([O-])CCCCCCCCC(=O)[O-]
REMARK SMILES IDX 7 1 6 2 5 3 4 4 2 5 1 6 3 7 8 8 9 9 10 10 11 11 12 12 13 13
REMARK SMILES IDX 14 14
REMARK H PARENT
REMARK Flexibility Score: inf
ROOT
ATOM      1  C   UNL     1     218.323  -7.267  26.368  1.00  0.00     0.000 C 
ENDROOT
BRANCH   1   2
ATOM      2  C   UNL     1     217.641  -8.646  26.373  1.00  0.00     0.000 C 
BRANCH   2   3
ATOM      3  C   UNL     1     217.301  -9.136  27.793  1.00  0.00     0.006 C 
BRANCH   3   4
ATOM      4  C   UNL     1     218.213  -8.573  28.894  1.00  0.00     0.053 C 
BRANCH   4   5
ATOM      5  C   UNL     1     219.321  -9.519  29.243  1.00  0.00     0.041 C 
ATOM      6  O   UNL     1     220.350  -9.584  28.521  1.00  0.00    -0.550 OA
ATOM      7  O   UNL     1     219.202 -10.352  30.348  1.00  0.00    -0.550 OA
ENDBRANCH   4   5
ENDBRANCH   3   4
ENDBRANCH   2   3
ENDBRANCH   1   2
BRANCH   1   8
ATOM      8  C   UNL     1     218.607  -6.755  24.947  1.00  0.00     0.000 C 
BRANCH   8   9
ATOM      9  C   UNL     1     217.653  -7.349  23.899  1.00  0.00     0.000 C 
BRANCH   9  10
ATOM     10  C   UNL     1     218.434  -7.963  22.731  1.00  0.00     0.006 C 
BRANCH  10  11
ATOM     11  C   UNL     1     218.602  -9.474  22.916  1.00  0.00     0.053 C 
BRANCH  11  12
ATOM     12  C   UNL     1     219.997  -9.796  23.350  1.00  0.00     0.041 C 
ATOM     13  O   UNL     1     220.203 -10.702  24.201  1.00  0.00    -0.550 OA
ATOM     14  O   UNL     1     221.075  -9.130  22.779  1.00  0.00    -0.550 OA
ENDBRANCH  11  12
ENDBRANCH  10  11
ENDBRANCH   9  10
ENDBRANCH   8   9
ENDBRANCH   1   8
TORSDOF 9
ENDMDL
MODEL 8
REMARK VINA RESULT:    -4.928      1.725      4.926
REMARK INTER + INTRA:          -8.599
REMARK INTER:                  -7.898
REMARK INTRA:                  -0.701
REMARK UNBOUND:                -1.078
REMARK SMILES O=C([O-])CCCCCCCCC(=O)[O-]
REMARK SMILES IDX 7 1 6 2 5 3 4 4 2 5 1 6 3 7 8 8 9 9 10 10 11 11 12 12 13 13
REMARK SMILES IDX 14 14
REMARK H PARENT
REMARK Flexibility Score: inf
ROOT
ATOM      1  C   UNL     1     218.713  -6.888  24.762  1.00  0.00     0.000 C 
ENDROOT
BRANCH   1   2
ATOM      2  C   UNL     1     217.910  -7.520  23.612  1.00  0.00     0.000 C 
BRANCH   2   3
ATOM      3  C   UNL     1     218.812  -8.136  22.525  1.00  0.00     0.006 C 
BRANCH   3   4
ATOM      4  C   UNL     1     218.373  -9.530  22.053  1.00  0.00     0.053 C 
BRANCH   4   5
ATOM      5  C   UNL     1     218.560 -10.568  23.116  1.00  0.00     0.041 C 
ATOM      6  O   UNL     1     217.623 -11.361  23.400  1.00  0.00    -0.550 OA
ATOM      7  O   UNL     1     219.757 -10.638  23.817  1.00  0.00    -0.550 OA
ENDBRANCH   4   5
ENDBRANCH   3   4
ENDBRANCH   2   3
ENDBRANCH   1   2
BRANCH   1   8
ATOM      8  C   UNL     1     218.157  -7.262  26.145  1.00  0.00     0.000 C 
BRANCH   8   9
ATOM      9  C   UNL     1     217.842  -8.761  26.273  1.00  0.00     0.000 C 
BRANCH   9  10
ATOM     10  C   UNL     1     217.264  -9.083  27.656  1.00  0.00     0.006 C 
BRANCH  10  11
ATOM     11  C   UNL     1     218.076  -8.406  28.764  1.00  0.00     0.053 C 
BRANCH  11  12
ATOM     12  C   UNL     1     219.243  -9.259  29.153  1.00  0.00     0.041 C 
ATOM     13  O   UNL     1     219.075 -10.260  29.898  1.00  0.00    -0.550 OA
ATOM     14  O   UNL     1     220.508  -8.977  28.654  1.00  0.00    -0.550 OA
ENDBRANCH  11  12
ENDBRANCH  10  11
ENDBRANCH   9  10
ENDBRANCH   8   9
ENDBRANCH   1   8
TORSDOF 9
ENDMDL
MODEL 9
REMARK VINA RESULT:    -4.921      1.891      2.978
REMARK INTER + INTRA:          -8.588
REMARK INTER:                  -7.776
REMARK INTRA:                  -0.812
REMARK UNBOUND:                -1.078
REMARK SMILES O=C([O-])CCCCCCCCC(=O)[O-]
REMARK SMILES IDX 7 1 6 2 5 3 4 4 2 5 1 6 3 7 8 8 9 9 10 10 11 11 12 12 13 13
REMARK SMILES IDX 14 14
REMARK H PARENT
REMARK Flexibility Score: inf
ROOT
ATOM      1  C   UNL     1     218.104  -8.767  26.043  1.00  0.00     0.000 C 
ENDROOT
BRANCH   1   2
ATOM      2  C   UNL     1     217.174  -8.986  27.248  1.00  0.00     0.000 C 
BRANCH   2   3
ATOM      3  C   UNL     1     217.883  -8.757  28.596  1.00  0.00     0.006 C 
BRANCH   3   4
ATOM      4  C   UNL     1     218.621  -7.414  28.704  1.00  0.00     0.053 C 
BRANCH   4   5
ATOM      5  C   UNL     1     219.981  -7.567  29.312  1.00  0.00     0.041 C 
ATOM      6  O   UNL     1     220.110  -7.662  30.562  1.00  0.00    -0.550 OA
ATOM      7  O   UNL     1     221.108  -7.573  28.501  1.00  0.00    -0.550 OA
ENDBRANCH   4   5
ENDBRANCH   3   4
ENDBRANCH   2   3
ENDBRANCH   1   2
BRANCH   1   8
ATOM      8  C   UNL     1     217.602  -7.656  25.105  1.00  0.00     0.000 C 
BRANCH   8   9
ATOM      9  C   UNL     1     218.697  -6.637  24.753  1.00  0.00     0.000 C 
BRANCH   9  10
ATOM     10  C   UNL     1     220.093  -7.245  24.940  1.00  0.00     0.006 C 
BRANCH  10  11
ATOM     11  C   UNL     1     220.886  -7.215  23.631  1.00  0.00     0.053 C 
BRANCH  11  12
ATOM     12  C   UNL     1     220.434  -8.312  22.720  1.00  0.00     0.041 C 
ATOM     13  O   UNL     1     220.240  -9.471  23.173  1.00  0.00    -0.550 OA
ATOM     14  O   UNL     1     220.181  -8.046  21.381  1.00  0.00    -0.550 OA
ENDBRANCH  11  12
ENDBRANCH  10  11
ENDBRANCH   9  10
ENDBRANCH   8   9
ENDBRANCH   1   8
TORSDOF 9
ENDMDL
