MODEL 1
REMARK VINA RESULT:    -5.851      0.000      0.000
REMARK INTER + INTRA:         -15.909
REMARK INTER:                 -12.692
REMARK INTRA:                  -3.217
REMARK UNBOUND:                -3.217
REMARK SMILES CCCCCCCCCCCCCCCCCCCCCC(=O)[O-]
REMARK SMILES IDX 12 1 11 2 10 3 9 4 8 5 7 6 6 7 5 8 4 9 3 10 2 11 1 12 13 13
REMARK SMILES IDX 14 14 15 15 16 16 17 17 18 18 19 19 20 20 21 21 22 22 23 23
REMARK SMILES IDX 24 24
REMARK H PARENT
REMARK Flexibility Score: inf
ROOT
ATOM      1  C   UNL     1       9.973 -31.088  21.037  1.00  0.00     0.000 C 
ENDROOT
BRANCH   1   2
ATOM      2  C   UNL     1      11.446 -31.505  20.962  1.00  0.00     0.000 C 
BRANCH   2   3
ATOM      3  C   UNL     1      11.693 -32.783  21.778  1.00  0.00     0.000 C 
BRANCH   3   4
ATOM      4  C   UNL     1      13.112 -32.848  22.365  1.00  0.00    -0.000 C 
BRANCH   4   5
ATOM      5  C   UNL     1      13.211 -33.800  23.571  1.00  0.00    -0.000 C 
BRANCH   5   6
ATOM      6  C   UNL     1      11.852 -34.410  23.952  1.00  0.00    -0.000 C 
BRANCH   6   7
ATOM      7  C   UNL     1      11.476 -34.151  25.418  1.00  0.00    -0.000 C 
BRANCH   7   8
ATOM      8  C   UNL     1      11.697 -32.677  25.785  1.00  0.00    -0.000 C 
BRANCH   8   9
ATOM      9  C   UNL     1      10.611 -31.747  25.217  1.00  0.00    -0.000 C 
BRANCH   9  10
ATOM     10  C   UNL     1      11.140 -30.476  24.530  1.00  0.00    -0.000 C 
BRANCH  10  11
ATOM     11  C   UNL     1      12.622 -30.206  24.829  1.00  0.00    -0.003 C 
ATOM     12  C   UNL     1      13.262 -29.368  23.725  1.00  0.00     0.004 C 
ENDBRANCH  10  11
ENDBRANCH   9  10
ENDBRANCH   8   9
ENDBRANCH   7   8
ENDBRANCH   6   7
ENDBRANCH   5   6
ENDBRANCH   4   5
ENDBRANCH   3   4
ENDBRANCH   2   3
ENDBRANCH   1   2
BRANCH   1  13
ATOM     13  C   UNL     1       9.117 -32.185  21.687  1.00  0.00     0.000 C 
BRANCH  13  14
ATOM     14  C   UNL     1       7.841 -31.631  22.343  1.00  0.00     0.000 C 
BRANCH  14  15
ATOM     15  C   UNL     1       7.817 -30.093  22.385  1.00  0.00     0.000 C 
BRANCH  15  16
ATOM     16  C   UNL     1       7.596 -29.546  23.806  1.00  0.00     0.000 C 
BRANCH  16  17
ATOM     17  C   UNL     1       6.523 -30.323  24.583  1.00  0.00     0.000 C 
BRANCH  17  18
ATOM     18  C   UNL     1       5.116 -29.847  24.193  1.00  0.00     0.000 C 
BRANCH  18  19
ATOM     19  C   UNL     1       4.334 -29.241  25.371  1.00  0.00     0.000 C 
BRANCH  19  20
ATOM     20  C   UNL     1       2.921 -28.738  25.026  1.00  0.00     0.006 C 
BRANCH  20  21
ATOM     21  C   UNL     1       2.386 -29.309  23.705  1.00  0.00     0.053 C 
BRANCH  21  22
ATOM     22  C   UNL     1       1.127 -30.084  23.935  1.00  0.00     0.041 C 
ATOM     23  O   UNL     1       0.677 -30.845  23.036  1.00  0.00    -0.550 OA
ATOM     24  O   UNL     1       0.451 -29.972  25.144  1.00  0.00    -0.550 OA
ENDBRANCH  21  22
ENDBRANCH  20  21
ENDBRANCH  19  20
ENDBRANCH  18  19
ENDBRANCH  17  18
ENDBRANCH  16  17
ENDBRANCH  15  16
ENDBRANCH  14  15
ENDBRANCH  13  14
ENDBRANCH   1  13
TORSDOF 20
ENDMDL
MODEL 2
REMARK VINA RESULT:    -5.818      4.170      8.503
REMARK INTER + INTRA:         -15.839
REMARK INTER:                 -13.032
REMARK INTRA:                  -2.807
REMARK UNBOUND:                -3.217
REMARK SMILES CCCCCCCCCCCCCCCCCCCCCC(=O)[O-]
REMARK SMILES IDX 12 1 11 2 10 3 9 4 8 5 7 6 6 7 5 8 4 9 3 10 2 11 1 12 13 13
REMARK SMILES IDX 14 14 15 15 16 16 17 17 18 18 19 19 20 20 21 21 22 22 23 23
REMARK SMILES IDX 24 24
REMARK H PARENT
REMARK Flexibility Score: inf
ROOT
ATOM      1  C   UNL     1       8.751 -32.265  21.264  1.00  0.00     0.000 C 
ENDROOT
BRANCH   1   2
ATOM      2  C   UNL     1       8.779 -30.763  21.569  1.00  0.00     0.000 C 
BRANCH   2   3
ATOM      3  C   UNL     1       7.413 -30.285  22.085  1.00  0.00     0.000 C 
BRANCH   3   4
ATOM      4  C   UNL     1       6.715 -31.328  22.973  1.00  0.00    -0.000 C 
BRANCH   4   5
ATOM      5  C   UNL     1       6.706 -30.928  24.460  1.00  0.00    -0.000 C 
BRANCH   5   6
ATOM      6  C   UNL     1       6.049 -29.559  24.697  1.00  0.00    -0.000 C 
BRANCH   6   7
ATOM      7  C   UNL     1       5.101 -29.557  25.905  1.00  0.00    -0.000 C 
BRANCH   7   8
ATOM      8  C   UNL     1       3.693 -29.105  25.492  1.00  0.00    -0.000 C 
BRANCH   8   9
ATOM      9  C   UNL     1       3.336 -29.493  24.047  1.00  0.00    -0.000 C 
BRANCH   9  10
ATOM     10  C   UNL     1       2.208 -28.661  23.412  1.00  0.00    -0.000 C 
BRANCH  10  11
ATOM     11  C   UNL     1       0.813 -29.244  23.676  1.00  0.00    -0.003 C 
ATOM     12  C   UNL     1       0.700 -30.667  23.136  1.00  0.00     0.004 C 
ENDBRANCH  10  11
ENDBRANCH   9  10
ENDBRANCH   8   9
ENDBRANCH   7   8
ENDBRANCH   6   7
ENDBRANCH   5   6
ENDBRANCH   4   5
ENDBRANCH   3   4
ENDBRANCH   2   3
ENDBRANCH   1   2
BRANCH   1  13
ATOM     13  C   UNL     1      10.163 -32.869  21.316  1.00  0.00     0.000 C 
BRANCH  13  14
ATOM     14  C   UNL     1      11.259 -31.839  20.996  1.00  0.00     0.000 C 
BRANCH  14  15
ATOM     15  C   UNL     1      12.338 -31.763  22.091  1.00  0.00     0.000 C 
BRANCH  15  16
ATOM     16  C   UNL     1      12.178 -30.527  22.991  1.00  0.00     0.000 C 
BRANCH  16  17
ATOM     17  C   UNL     1      12.051 -30.886  24.480  1.00  0.00     0.000 C 
BRANCH  17  18
ATOM     18  C   UNL     1      10.585 -31.151  24.853  1.00  0.00     0.000 C 
BRANCH  18  19
ATOM     19  C   UNL     1      10.252 -32.649  24.970  1.00  0.00     0.000 C 
BRANCH  19  20
ATOM     20  C   UNL     1      11.416 -33.540  25.440  1.00  0.00     0.006 C 
BRANCH  20  21
ATOM     21  C   UNL     1      11.850 -34.567  24.386  1.00  0.00     0.053 C 
BRANCH  21  22
ATOM     22  C   UNL     1      13.330 -34.786  24.437  1.00  0.00     0.041 C 
ATOM     23  O   UNL     1      14.120 -33.822  24.247  1.00  0.00    -0.550 OA
ATOM     24  O   UNL     1      13.837 -36.053  24.699  1.00  0.00    -0.550 OA
ENDBRANCH  21  22
ENDBRANCH  20  21
ENDBRANCH  19  20
ENDBRANCH  18  19
ENDBRANCH  17  18
ENDBRANCH  16  17
ENDBRANCH  15  16
ENDBRANCH  14  15
ENDBRANCH  13  14
ENDBRANCH   1  13
TORSDOF 20
ENDMDL
MODEL 3
REMARK VINA RESULT:    -5.812      3.884      8.266
REMARK INTER + INTRA:         -15.825
REMARK INTER:                 -13.507
REMARK INTRA:                  -2.318
REMARK UNBOUND:                -3.217
REMARK SMILES CCCCCCCCCCCCCCCCCCCCCC(=O)[O-]
REMARK SMILES IDX 12 1 11 2 10 3 9 4 8 5 7 6 6 7 5 8 4 9 3 10 2 11 1 12 13 13
REMARK SMILES IDX 14 14 15 15 16 16 17 17 18 18 19 19 20 20 21 21 22 22 23 23
REMARK SMILES IDX 24 24
REMARK H PARENT
REMARK Flexibility Score: inf
ROOT
ATOM      1  C   UNL     1       8.973 -32.008  20.563  1.00  0.00     0.000 C 
ENDROOT
BRANCH   1   2
ATOM      2  C   UNL     1       7.703 -32.142  21.412  1.00  0.00     0.000 C 
BRANCH   2   3
ATOM      3  C   UNL     1       7.581 -30.971  22.398  1.00  0.00     0.000 C 
BRANCH   3   4
ATOM      4  C   UNL     1       6.627 -31.274  23.565  1.00  0.00    -0.000 C 
BRANCH   4   5
ATOM      5  C   UNL     1       7.271 -31.013  24.939  1.00  0.00    -0.000 C 
BRANCH   5   6
ATOM      6  C   UNL     1       6.371 -30.176  25.862  1.00  0.00    -0.000 C 
BRANCH   6   7
ATOM      7  C   UNL     1       5.300 -29.390  25.092  1.00  0.00    -0.000 C 
BRANCH   7   8
ATOM      8  C   UNL     1       4.086 -29.102  25.987  1.00  0.00    -0.000 C 
BRANCH   8   9
ATOM      9  C   UNL     1       2.827 -28.720  25.189  1.00  0.00    -0.000 C 
BRANCH   9  10
ATOM     10  C   UNL     1       2.636 -29.492  23.872  1.00  0.00    -0.000 C 
BRANCH  10  11
ATOM     11  C   UNL     1       1.218 -29.356  23.299  1.00  0.00    -0.003 C 
ATOM     12  C   UNL     1       0.564 -30.723  23.119  1.00  0.00     0.004 C 
ENDBRANCH  10  11
ENDBRANCH   9  10
ENDBRANCH   8   9
ENDBRANCH   7   8
ENDBRANCH   6   7
ENDBRANCH   5   6
ENDBRANCH   4   5
ENDBRANCH   3   4
ENDBRANCH   2   3
ENDBRANCH   1   2
BRANCH   1  13
ATOM     13  C   UNL     1      10.148 -32.767  21.198  1.00  0.00     0.000 C 
BRANCH  13  14
ATOM     14  C   UNL     1      11.454 -31.955  21.184  1.00  0.00     0.000 C 
BRANCH  14  15
ATOM     15  C   UNL     1      11.211 -30.439  21.281  1.00  0.00     0.000 C 
BRANCH  15  16
ATOM     16  C   UNL     1      11.106 -29.952  22.736  1.00  0.00     0.000 C 
BRANCH  16  17
ATOM     17  C   UNL     1      12.375 -30.240  23.554  1.00  0.00     0.000 C 
BRANCH  17  18
ATOM     18  C   UNL     1      12.022 -30.922  24.884  1.00  0.00     0.000 C 
BRANCH  18  19
ATOM     19  C   UNL     1      10.866 -31.929  24.760  1.00  0.00     0.000 C 
BRANCH  19  20
ATOM     20  C   UNL     1      11.204 -33.366  25.196  1.00  0.00     0.006 C 
BRANCH  20  21
ATOM     21  C   UNL     1      11.977 -34.152  24.128  1.00  0.00     0.053 C 
BRANCH  21  22
ATOM     22  C   UNL     1      12.198 -35.565  24.567  1.00  0.00     0.041 C 
ATOM     23  O   UNL     1      11.225 -36.273  24.943  1.00  0.00    -0.550 OA
ATOM     24  O   UNL     1      13.479 -36.105  24.558  1.00  0.00    -0.550 OA
ENDBRANCH  21  22
ENDBRANCH  20  21
ENDBRANCH  19  20
ENDBRANCH  18  19
ENDBRANCH  17  18
ENDBRANCH  16  17
ENDBRANCH  15  16
ENDBRANCH  14  15
ENDBRANCH  13  14
ENDBRANCH   1  13
TORSDOF 20
ENDMDL
MODEL 4
REMARK VINA RESULT:    -5.739      3.702      8.269
REMARK INTER + INTRA:         -15.666
REMARK INTER:                 -13.182
REMARK INTRA:                  -2.484
REMARK UNBOUND:                -3.217
REMARK SMILES CCCCCCCCCCCCCCCCCCCCCC(=O)[O-]
REMARK SMILES IDX 12 1 11 2 10 3 9 4 8 5 7 6 6 7 5 8 4 9 3 10 2 11 1 12 13 13
REMARK SMILES IDX 14 14 15 15 16 16 17 17 18 18 19 19 20 20 21 21 22 22 23 23
REMARK SMILES IDX 24 24
REMARK H PARENT
REMARK Flexibility Score: inf
ROOT
ATOM      1  C   UNL     1       8.251 -32.289  21.256  1.00  0.00     0.000 C 
ENDROOT
BRANCH   1   2
ATOM      2  C   UNL     1       7.422 -31.552  22.315  1.00  0.00     0.000 C 
BRANCH   2   3
ATOM      3  C   UNL     1       7.734 -30.049  22.303  1.00  0.00     0.000 C 
BRANCH   3   4
ATOM      4  C   UNL     1       7.562 -29.394  23.683  1.00  0.00    -0.000 C 
BRANCH   4   5
ATOM      5  C   UNL     1       7.282 -30.422  24.794  1.00  0.00    -0.000 C 
BRANCH   5   6
ATOM      6  C   UNL     1       6.066 -30.042  25.655  1.00  0.00    -0.000 C 
BRANCH   6   7
ATOM      7  C   UNL     1       4.932 -29.412  24.833  1.00  0.00    -0.000 C 
BRANCH   7   8
ATOM      8  C   UNL     1       3.746 -29.041  25.736  1.00  0.00    -0.000 C 
BRANCH   8   9
ATOM      9  C   UNL     1       2.539 -28.500  24.951  1.00  0.00    -0.000 C 
BRANCH   9  10
ATOM     10  C   UNL     1       2.406 -29.037  23.515  1.00  0.00    -0.000 C 
BRANCH  10  11
ATOM     11  C   UNL     1       0.947 -29.246  23.087  1.00  0.00    -0.003 C 
ATOM     12  C   UNL     1       0.561 -30.722  23.152  1.00  0.00     0.004 C 
ENDBRANCH  10  11
ENDBRANCH   9  10
ENDBRANCH   8   9
ENDBRANCH   7   8
ENDBRANCH   6   7
ENDBRANCH   5   6
ENDBRANCH   4   5
ENDBRANCH   3   4
ENDBRANCH   2   3
ENDBRANCH   1   2
BRANCH   1  13
ATOM     13  C   UNL     1       9.253 -31.343  20.578  1.00  0.00     0.000 C 
BRANCH  13  14
ATOM     14  C   UNL     1      10.702 -31.853  20.666  1.00  0.00     0.000 C 
BRANCH  14  15
ATOM     15  C   UNL     1      10.821 -33.166  21.460  1.00  0.00     0.000 C 
BRANCH  15  16
ATOM     16  C   UNL     1      12.066 -33.198  22.361  1.00  0.00     0.000 C 
BRANCH  16  17
ATOM     17  C   UNL     1      11.834 -33.968  23.671  1.00  0.00     0.000 C 
BRANCH  17  18
ATOM     18  C   UNL     1      11.853 -33.014  24.874  1.00  0.00     0.000 C 
BRANCH  18  19
ATOM     19  C   UNL     1      10.626 -32.087  24.931  1.00  0.00     0.000 C 
BRANCH  19  20
ATOM     20  C   UNL     1      10.878 -30.643  24.461  1.00  0.00     0.006 C 
BRANCH  20  21
ATOM     21  C   UNL     1      12.301 -30.153  24.761  1.00  0.00     0.053 C 
BRANCH  21  22
ATOM     22  C   UNL     1      12.875 -29.437  23.579  1.00  0.00     0.041 C 
ATOM     23  O   UNL     1      14.058 -29.003  23.613  1.00  0.00    -0.550 OA
ATOM     24  O   UNL     1      12.106 -29.253  22.436  1.00  0.00    -0.550 OA
ENDBRANCH  21  22
ENDBRANCH  20  21
ENDBRANCH  19  20
ENDBRANCH  18  19
ENDBRANCH  17  18
ENDBRANCH  16  17
ENDBRANCH  15  16
ENDBRANCH  14  15
ENDBRANCH  13  14
ENDBRANCH   1  13
TORSDOF 20
ENDMDL
MODEL 5
REMARK VINA RESULT:    -5.737      4.290      7.439
REMARK INTER + INTRA:         -15.661
REMARK INTER:                 -12.161
REMARK INTRA:                  -3.500
REMARK UNBOUND:                -3.217
REMARK SMILES CCCCCCCCCCCCCCCCCCCCCC(=O)[O-]
REMARK SMILES IDX 12 1 11 2 10 3 9 4 8 5 7 6 6 7 5 8 4 9 3 10 2 11 1 12 13 13
REMARK SMILES IDX 14 14 15 15 16 16 17 17 18 18 19 19 20 20 21 21 22 22 23 23
REMARK SMILES IDX 24 24
REMARK H PARENT
REMARK Flexibility Score: inf
ROOT
ATOM      1  C   UNL     1       7.426 -29.119  22.715  1.00  0.00     0.000 C 
ENDROOT
BRANCH   1   2
ATOM      2  C   UNL     1       6.653 -29.899  23.785  1.00  0.00     0.000 C 
BRANCH   2   3
ATOM      3  C   UNL     1       6.967 -29.358  25.188  1.00  0.00     0.000 C 
BRANCH   3   4
ATOM      4  C   UNL     1       8.214 -30.006  25.810  1.00  0.00    -0.000 C 
BRANCH   4   5
ATOM      5  C   UNL     1       8.362 -31.491  25.429  1.00  0.00    -0.000 C 
BRANCH   5   6
ATOM      6  C   UNL     1       9.703 -31.792  24.742  1.00  0.00    -0.000 C 
BRANCH   6   7
ATOM      7  C   UNL     1      10.617 -30.561  24.661  1.00  0.00    -0.000 C 
BRANCH   7   8
ATOM      8  C   UNL     1      10.675 -30.019  23.225  1.00  0.00    -0.000 C 
BRANCH   8   9
ATOM      9  C   UNL     1      12.105 -29.691  22.763  1.00  0.00    -0.000 C 
BRANCH   9  10
ATOM     10  C   UNL     1      13.202 -29.962  23.808  1.00  0.00    -0.000 C 
BRANCH  10  11
ATOM     11  C   UNL     1      14.022 -28.711  24.153  1.00  0.00    -0.003 C 
ATOM     12  C   UNL     1      14.003 -28.439  25.655  1.00  0.00     0.004 C 
ENDBRANCH  10  11
ENDBRANCH   9  10
ENDBRANCH   8   9
ENDBRANCH   7   8
ENDBRANCH   6   7
ENDBRANCH   5   6
ENDBRANCH   4   5
ENDBRANCH   3   4
ENDBRANCH   2   3
ENDBRANCH   1   2
BRANCH   1  13
ATOM     13  C   UNL     1       7.760 -30.011  21.510  1.00  0.00     0.000 C 
BRANCH  13  14
ATOM     14  C   UNL     1       7.441 -31.494  21.764  1.00  0.00     0.000 C 
BRANCH  14  15
ATOM     15  C   UNL     1       8.570 -32.431  21.297  1.00  0.00     0.000 C 
BRANCH  15  16
ATOM     16  C   UNL     1       9.715 -31.674  20.604  1.00  0.00     0.000 C 
BRANCH  16  17
ATOM     17  C   UNL     1      11.007 -32.499  20.514  1.00  0.00     0.000 C 
BRANCH  17  18
ATOM     18  C   UNL     1      11.156 -33.412  21.740  1.00  0.00     0.000 C 
BRANCH  18  19
ATOM     19  C   UNL     1      12.570 -33.382  22.348  1.00  0.00     0.000 C 
BRANCH  19  20
ATOM     20  C   UNL     1      12.619 -33.433  23.885  1.00  0.00     0.006 C 
BRANCH  20  21
ATOM     21  C   UNL     1      13.875 -34.130  24.424  1.00  0.00     0.053 C 
BRANCH  21  22
ATOM     22  C   UNL     1      13.633 -35.597  24.598  1.00  0.00     0.041 C 
ATOM     23  O   UNL     1      14.606 -36.391  24.714  1.00  0.00    -0.550 OA
ATOM     24  O   UNL     1      12.334 -36.088  24.636  1.00  0.00    -0.550 OA
ENDBRANCH  21  22
ENDBRANCH  20  21
ENDBRANCH  19  20
ENDBRANCH  18  19
ENDBRANCH  17  18
ENDBRANCH  16  17
ENDBRANCH  15  16
ENDBRANCH  14  15
ENDBRANCH  13  14
ENDBRANCH   1  13
TORSDOF 20
ENDMDL
MODEL 6
REMARK VINA RESULT:    -5.673      1.293      2.906
REMARK INTER + INTRA:         -15.522
REMARK INTER:                 -12.779
REMARK INTRA:                  -2.743
REMARK UNBOUND:                -3.217
REMARK SMILES CCCCCCCCCCCCCCCCCCCCCC(=O)[O-]
REMARK SMILES IDX 12 1 11 2 10 3 9 4 8 5 7 6 6 7 5 8 4 9 3 10 2 11 1 12 13 13
REMARK SMILES IDX 14 14 15 15 16 16 17 17 18 18 19 19 20 20 21 21 22 22 23 23
REMARK SMILES IDX 24 24
REMARK H PARENT
REMARK Flexibility Score: inf
ROOT
ATOM      1  C   UNL     1       9.140 -32.060  20.725  1.00  0.00     0.000 C 
ENDROOT
BRANCH   1   2
ATOM      2  C   UNL     1      10.223 -32.526  21.704  1.00  0.00     0.000 C 
BRANCH   2   3
ATOM      3  C   UNL     1      11.515 -31.717  21.513  1.00  0.00     0.000 C 
BRANCH   3   4
ATOM      4  C   UNL     1      11.326 -30.219  21.801  1.00  0.00    -0.000 C 
BRANCH   4   5
ATOM      5  C   UNL     1      12.253 -29.710  22.921  1.00  0.00    -0.000 C 
BRANCH   5   6
ATOM      6  C   UNL     1      11.798 -30.170  24.315  1.00  0.00    -0.000 C 
BRANCH   6   7
ATOM      7  C   UNL     1      12.836 -31.061  25.013  1.00  0.00    -0.000 C 
BRANCH   7   8
ATOM      8  C   UNL     1      12.148 -32.081  25.932  1.00  0.00    -0.000 C 
BRANCH   8   9
ATOM      9  C   UNL     1      12.702 -33.507  25.767  1.00  0.00    -0.000 C 
BRANCH   9  10
ATOM     10  C   UNL     1      12.084 -34.313  24.611  1.00  0.00    -0.000 C 
BRANCH  10  11
ATOM     11  C   UNL     1      12.583 -35.764  24.559  1.00  0.00    -0.003 C 
ATOM     12  C   UNL     1      14.108 -35.822  24.584  1.00  0.00     0.004 C 
ENDBRANCH  10  11
ENDBRANCH   9  10
ENDBRANCH   8   9
ENDBRANCH   7   8
ENDBRANCH   6   7
ENDBRANCH   5   6
ENDBRANCH   4   5
ENDBRANCH   3   4
ENDBRANCH   2   3
ENDBRANCH   1   2
BRANCH   1  13
ATOM     13  C   UNL     1       7.735 -32.388  21.254  1.00  0.00     0.000 C 
BRANCH  13  14
ATOM     14  C   UNL     1       7.159 -31.269  22.137  1.00  0.00     0.000 C 
BRANCH  14  15
ATOM     15  C   UNL     1       7.612 -29.868  21.690  1.00  0.00     0.000 C 
BRANCH  15  16
ATOM     16  C   UNL     1       8.055 -28.988  22.871  1.00  0.00     0.000 C 
BRANCH  16  17
ATOM     17  C   UNL     1       8.297 -29.793  24.156  1.00  0.00     0.000 C 
BRANCH  17  18
ATOM     18  C   UNL     1       7.438 -29.253  25.309  1.00  0.00     0.000 C 
BRANCH  18  19
ATOM     19  C   UNL     1       6.153 -30.067  25.539  1.00  0.00     0.000 C 
BRANCH  19  20
ATOM     20  C   UNL     1       4.844 -29.269  25.404  1.00  0.00     0.006 C 
BRANCH  20  21
ATOM     21  C   UNL     1       4.097 -29.555  24.094  1.00  0.00     0.053 C 
BRANCH  21  22
ATOM     22  C   UNL     1       2.687 -29.059  24.168  1.00  0.00     0.041 C 
ATOM     23  O   UNL     1       2.102 -28.653  23.128  1.00  0.00    -0.550 OA
ATOM     24  O   UNL     1       2.016 -29.049  25.385  1.00  0.00    -0.550 OA
ENDBRANCH  21  22
ENDBRANCH  20  21
ENDBRANCH  19  20
ENDBRANCH  18  19
ENDBRANCH  17  18
ENDBRANCH  16  17
ENDBRANCH  15  16
ENDBRANCH  14  15
ENDBRANCH  13  14
ENDBRANCH   1  13
TORSDOF 20
ENDMDL
MODEL 7
REMARK VINA RESULT:    -5.637      3.786      8.471
REMARK INTER + INTRA:         -15.445
REMARK INTER:                 -13.024
REMARK INTRA:                  -2.421
REMARK UNBOUND:                -3.217
REMARK SMILES CCCCCCCCCCCCCCCCCCCCCC(=O)[O-]
REMARK SMILES IDX 12 1 11 2 10 3 9 4 8 5 7 6 6 7 5 8 4 9 3 10 2 11 1 12 13 13
REMARK SMILES IDX 14 14 15 15 16 16 17 17 18 18 19 19 20 20 21 21 22 22 23 23
REMARK SMILES IDX 24 24
REMARK H PARENT
REMARK Flexibility Score: inf
ROOT
ATOM      1  C   UNL     1       7.772 -29.942  21.538  1.00  0.00     0.000 C 
ENDROOT
BRANCH   1   2
ATOM      2  C   UNL     1       8.006 -29.299  22.910  1.00  0.00     0.000 C 
BRANCH   2   3
ATOM      3  C   UNL     1       8.435 -30.354  23.941  1.00  0.00     0.000 C 
BRANCH   3   4
ATOM      4  C   UNL     1       8.346 -29.841  25.387  1.00  0.00    -0.000 C 
BRANCH   4   5
ATOM      5  C   UNL     1       7.127 -28.931  25.619  1.00  0.00    -0.000 C 
BRANCH   5   6
ATOM      6  C   UNL     1       5.852 -29.726  25.944  1.00  0.00    -0.000 C 
BRANCH   6   7
ATOM      7  C   UNL     1       4.791 -29.622  24.840  1.00  0.00    -0.000 C 
BRANCH   7   8
ATOM      8  C   UNL     1       3.566 -28.837  25.333  1.00  0.00    -0.000 C 
BRANCH   8   9
ATOM      9  C   UNL     1       2.245 -29.339  24.724  1.00  0.00    -0.000 C 
BRANCH   9  10
ATOM     10  C   UNL     1       1.931 -28.797  23.319  1.00  0.00    -0.000 C 
BRANCH  10  11
ATOM     11  C   UNL     1       0.572 -29.269  22.785  1.00  0.00    -0.003 C 
ATOM     12  C   UNL     1       0.330 -30.738  23.122  1.00  0.00     0.004 C 
ENDBRANCH  10  11
ENDBRANCH   9  10
ENDBRANCH   8   9
ENDBRANCH   7   8
ENDBRANCH   6   7
ENDBRANCH   5   6
ENDBRANCH   4   5
ENDBRANCH   3   4
ENDBRANCH   2   3
ENDBRANCH   1   2
BRANCH   1  13
ATOM     13  C   UNL     1       7.971 -31.464  21.597  1.00  0.00     0.000 C 
BRANCH  13  14
ATOM     14  C   UNL     1       9.180 -31.936  20.772  1.00  0.00     0.000 C 
BRANCH  14  15
ATOM     15  C   UNL     1      10.266 -32.597  21.639  1.00  0.00     0.000 C 
BRANCH  15  16
ATOM     16  C   UNL     1      11.598 -31.828  21.602  1.00  0.00     0.000 C 
BRANCH  16  17
ATOM     17  C   UNL     1      11.406 -30.304  21.606  1.00  0.00     0.000 C 
BRANCH  17  18
ATOM     18  C   UNL     1      12.218 -29.656  22.737  1.00  0.00     0.000 C 
BRANCH  18  19
ATOM     19  C   UNL     1      11.817 -30.158  24.135  1.00  0.00     0.000 C 
BRANCH  19  20
ATOM     20  C   UNL     1      12.969 -30.743  24.972  1.00  0.00     0.006 C 
BRANCH  20  21
ATOM     21  C   UNL     1      12.563 -31.991  25.766  1.00  0.00     0.053 C 
BRANCH  21  22
ATOM     22  C   UNL     1      12.688 -33.220  24.922  1.00  0.00     0.041 C 
ATOM     23  O   UNL     1      13.779 -33.488  24.349  1.00  0.00    -0.550 OA
ATOM     24  O   UNL     1      11.603 -34.075  24.770  1.00  0.00    -0.550 OA
ENDBRANCH  21  22
ENDBRANCH  20  21
ENDBRANCH  19  20
ENDBRANCH  18  19
ENDBRANCH  17  18
ENDBRANCH  16  17
ENDBRANCH  15  16
ENDBRANCH  14  15
ENDBRANCH  13  14
ENDBRANCH   1  13
TORSDOF 20
ENDMDL
MODEL 8
REMARK VINA RESULT:    -5.587      1.193      3.441
REMARK INTER + INTRA:         -15.336
REMARK INTER:                 -12.315
REMARK INTRA:                  -3.020
REMARK UNBOUND:                -3.217
REMARK SMILES CCCCCCCCCCCCCCCCCCCCCC(=O)[O-]
REMARK SMILES IDX 12 1 11 2 10 3 9 4 8 5 7 6 6 7 5 8 4 9 3 10 2 11 1 12 13 13
REMARK SMILES IDX 14 14 15 15 16 16 17 17 18 18 19 19 20 20 21 21 22 22 23 23
REMARK SMILES IDX 24 24
REMARK H PARENT
REMARK Flexibility Score: inf
ROOT
ATOM      1  C   UNL     1      10.449 -34.102  25.947  1.00  0.00     0.000 C 
ENDROOT
BRANCH   1   2
ATOM      2  C   UNL     1      11.722 -34.735  25.373  1.00  0.00     0.000 C 
BRANCH   2   3
ATOM      3  C   UNL     1      12.943 -33.840  25.637  1.00  0.00     0.000 C 
BRANCH   3   4
ATOM      4  C   UNL     1      13.969 -33.883  24.494  1.00  0.00    -0.000 C 
BRANCH   4   5
ATOM      5  C   UNL     1      13.377 -33.423  23.149  1.00  0.00    -0.000 C 
BRANCH   5   6
ATOM      6  C   UNL     1      13.243 -31.894  23.057  1.00  0.00    -0.000 C 
BRANCH   6   7
ATOM      7  C   UNL     1      11.846 -31.448  22.602  1.00  0.00    -0.000 C 
BRANCH   7   8
ATOM      8  C   UNL     1      10.991 -32.659  22.201  1.00  0.00    -0.000 C 
BRANCH   8   9
ATOM      9  C   UNL     1       9.764 -32.275  21.356  1.00  0.00    -0.000 C 
BRANCH   9  10
ATOM     10  C   UNL     1       9.342 -30.799  21.459  1.00  0.00    -0.000 C 
BRANCH  10  11
ATOM     11  C   UNL     1       7.822 -30.618  21.573  1.00  0.00    -0.003 C 
ATOM     12  C   UNL     1       7.125 -31.956  21.809  1.00  0.00     0.004 C 
ENDBRANCH  10  11
ENDBRANCH   9  10
ENDBRANCH   8   9
ENDBRANCH   7   8
ENDBRANCH   6   7
ENDBRANCH   5   6
ENDBRANCH   4   5
ENDBRANCH   3   4
ENDBRANCH   2   3
ENDBRANCH   1   2
BRANCH   1  13
ATOM     13  C   UNL     1      10.550 -32.569  25.964  1.00  0.00     0.000 C 
BRANCH  13  14
ATOM     14  C   UNL     1       9.181 -31.884  25.820  1.00  0.00     0.000 C 
BRANCH  14  15
ATOM     15  C   UNL     1       9.271 -30.525  25.104  1.00  0.00     0.000 C 
BRANCH  15  16
ATOM     16  C   UNL     1       7.979 -29.702  25.237  1.00  0.00     0.000 C 
BRANCH  16  17
ATOM     17  C   UNL     1       6.712 -30.569  25.178  1.00  0.00     0.000 C 
BRANCH  17  18
ATOM     18  C   UNL     1       5.520 -29.757  24.651  1.00  0.00     0.000 C 
BRANCH  18  19
ATOM     19  C   UNL     1       4.563 -29.295  25.764  1.00  0.00     0.000 C 
BRANCH  19  20
ATOM     20  C   UNL     1       3.234 -28.694  25.272  1.00  0.00     0.006 C 
BRANCH  20  21
ATOM     21  C   UNL     1       2.771 -29.276  23.929  1.00  0.00     0.053 C 
BRANCH  21  22
ATOM     22  C   UNL     1       1.444 -29.952  24.074  1.00  0.00     0.041 C 
ATOM     23  O   UNL     1       1.060 -30.786  23.211  1.00  0.00    -0.550 OA
ATOM     24  O   UNL     1       0.632 -29.666  25.165  1.00  0.00    -0.550 OA
ENDBRANCH  21  22
ENDBRANCH  20  21
ENDBRANCH  19  20
ENDBRANCH  18  19
ENDBRANCH  17  18
ENDBRANCH  16  17
ENDBRANCH  15  16
ENDBRANCH  14  15
ENDBRANCH  13  14
ENDBRANCH   1  13
TORSDOF 20
ENDMDL
MODEL 9
REMARK VINA RESULT:    -5.479      0.946      2.325
REMARK INTER + INTRA:         -15.102
REMARK INTER:                 -12.221
REMARK INTRA:                  -2.880
REMARK UNBOUND:                -3.217
REMARK SMILES CCCCCCCCCCCCCCCCCCCCCC(=O)[O-]
REMARK SMILES IDX 12 1 11 2 10 3 9 4 8 5 7 6 6 7 5 8 4 9 3 10 2 11 1 12 13 13
REMARK SMILES IDX 14 14 15 15 16 16 17 17 18 18 19 19 20 20 21 21 22 22 23 23
REMARK SMILES IDX 24 24
REMARK H PARENT
REMARK Flexibility Score: inf
ROOT
ATOM      1  C   UNL     1       9.199 -32.460  20.804  1.00  0.00     0.000 C 
ENDROOT
BRANCH   1   2
ATOM      2  C   UNL     1      10.457 -32.667  21.655  1.00  0.00     0.000 C 
BRANCH   2   3
ATOM      3  C   UNL     1      11.521 -31.609  21.323  1.00  0.00     0.000 C 
BRANCH   3   4
ATOM      4  C   UNL     1      11.377 -30.335  22.170  1.00  0.00    -0.000 C 
BRANCH   4   5
ATOM      5  C   UNL     1      11.735 -30.565  23.650  1.00  0.00    -0.000 C 
BRANCH   5   6
ATOM      6  C   UNL     1      10.522 -30.410  24.581  1.00  0.00    -0.000 C 
BRANCH   6   7
ATOM      7  C   UNL     1      10.071 -31.743  25.194  1.00  0.00    -0.000 C 
BRANCH   7   8
ATOM      8  C   UNL     1      11.210 -32.385  25.999  1.00  0.00    -0.000 C 
BRANCH   8   9
ATOM      9  C   UNL     1      11.410 -33.875  25.674  1.00  0.00    -0.000 C 
BRANCH   9  10
ATOM     10  C   UNL     1      12.836 -34.260  25.242  1.00  0.00    -0.000 C 
BRANCH  10  11
ATOM     11  C   UNL     1      13.044 -34.176  23.724  1.00  0.00    -0.003 C 
ATOM     12  C   UNL     1      14.151 -33.185  23.374  1.00  0.00     0.004 C 
ENDBRANCH  10  11
ENDBRANCH   9  10
ENDBRANCH   8   9
ENDBRANCH   7   8
ENDBRANCH   6   7
ENDBRANCH   5   6
ENDBRANCH   4   5
ENDBRANCH   3   4
ENDBRANCH   2   3
ENDBRANCH   1   2
BRANCH   1  13
ATOM     13  C   UNL     1       8.019 -31.984  21.665  1.00  0.00     0.000 C 
BRANCH  13  14
ATOM     14  C   UNL     1       7.656 -30.511  21.410  1.00  0.00     0.000 C 
BRANCH  14  15
ATOM     15  C   UNL     1       7.478 -29.711  22.713  1.00  0.00     0.000 C 
BRANCH  15  16
ATOM     16  C   UNL     1       6.916 -30.569  23.859  1.00  0.00     0.000 C 
BRANCH  16  17
ATOM     17  C   UNL     1       6.120 -29.746  24.884  1.00  0.00     0.000 C 
BRANCH  17  18
ATOM     18  C   UNL     1       4.623 -29.750  24.542  1.00  0.00     0.000 C 
BRANCH  18  19
ATOM     19  C   UNL     1       3.780 -28.897  25.506  1.00  0.00     0.000 C 
BRANCH  19  20
ATOM     20  C   UNL     1       2.276 -28.843  25.184  1.00  0.00     0.006 C 
BRANCH  20  21
ATOM     21  C   UNL     1       1.933 -29.444  23.814  1.00  0.00     0.053 C 
BRANCH  21  22
ATOM     22  C   UNL     1       0.649 -30.209  23.877  1.00  0.00     0.041 C 
ATOM     23  O   UNL     1      -0.114 -30.087  24.874  1.00  0.00    -0.550 OA
ATOM     24  O   UNL     1       0.290 -31.054  22.834  1.00  0.00    -0.550 OA
ENDBRANCH  21  22
ENDBRANCH  20  21
ENDBRANCH  19  20
ENDBRANCH  18  19
ENDBRANCH  17  18
ENDBRANCH  16  17
ENDBRANCH  15  16
ENDBRANCH  14  15
ENDBRANCH  13  14
ENDBRANCH   1  13
TORSDOF 20
ENDMDL
