MODEL 1
REMARK VINA RESULT:    -3.912      0.000      0.000
REMARK INTER + INTRA:          -5.985
REMARK INTER:                  -5.284
REMARK INTRA:                  -0.702
REMARK UNBOUND:                -0.702
REMARK SMILES O=C[C@H](O)[C@@H](O)[C@@H](O)CO
REMARK SMILES IDX 7 1 9 2 10 3 5 5 3 6 2 7 1 8 4 9 6 11 8 13
REMARK H PARENT 10 4 4 10 6 12 8 14
REMARK Flexibility Score: inf
ROOT
ATOM      1  C   UNL     1      -4.038  -0.409   2.701  1.00  0.00     0.171 C 
ENDROOT
BRANCH   1   2
ATOM      2  C   UNL     1      -2.702  -0.132   3.411  1.00  0.00     0.190 C 
BRANCH   2   3
ATOM      3  O   UNL     1      -1.769   0.357   2.489  1.00  0.00    -0.394 OA
ATOM      4  H   UNL     1      -1.193   0.992   2.989  1.00  0.00     0.210 HD
ENDBRANCH   2   3
ENDBRANCH   1   2
BRANCH   1   5
ATOM      5  C   UNL     1      -3.873  -1.455   1.560  1.00  0.00     0.181 C 
BRANCH   5   6
ATOM      6  C   UNL     1      -5.182  -2.205   1.198  1.00  0.00     0.209 C 
BRANCH   6   7
ATOM      7  C   UNL     1      -5.018  -3.125   0.014  1.00  0.00     0.258 C 
ATOM      8  O   UNL     1      -4.960  -2.675  -1.119  1.00  0.00    -0.300 OA
ENDBRANCH   6   7
BRANCH   6   9
ATOM      9  O   UNL     1      -6.199  -1.273   0.934  1.00  0.00    -0.383 OA
ATOM     10  H   UNL     1      -7.003  -1.791   0.665  1.00  0.00     0.211 HD
ENDBRANCH   6   9
ENDBRANCH   5   6
BRANCH   5  11
ATOM     11  O   UNL     1      -3.311  -0.874   0.408  1.00  0.00    -0.387 OA
ATOM     12  H   UNL     1      -3.579  -1.422  -0.373  1.00  0.00     0.211 HD
ENDBRANCH   5  11
ENDBRANCH   1   5
BRANCH   1  13
ATOM     13  O   UNL     1      -5.003  -0.827   3.635  1.00  0.00    -0.388 OA
ATOM     14  H   UNL     1      -5.054  -1.817   3.590  1.00  0.00     0.211 HD
ENDBRANCH   1  13
TORSDOF 8
ENDMDL
MODEL 2
REMARK VINA RESULT:    -3.654      1.043      4.236
REMARK INTER + INTRA:          -5.637
REMARK INTER:                  -5.560
REMARK INTRA:                  -0.078
REMARK UNBOUND:                -0.702
REMARK SMILES O=C[C@H](O)[C@@H](O)[C@@H](O)CO
REMARK SMILES IDX 7 1 9 2 10 3 5 5 3 6 2 7 1 8 4 9 6 11 8 13
REMARK H PARENT 10 4 4 10 6 12 8 14
REMARK Flexibility Score: inf
ROOT
ATOM      1  C   UNL     1      -4.797  -1.600   0.771  1.00  0.00     0.171 C 
ENDROOT
BRANCH   1   2
ATOM      2  C   UNL     1      -5.334  -2.991   0.392  1.00  0.00     0.190 C 
BRANCH   2   3
ATOM      3  O   UNL     1      -5.356  -3.125  -1.002  1.00  0.00    -0.394 OA
ATOM      4  H   UNL     1      -4.407  -3.182  -1.288  1.00  0.00     0.210 HD
ENDBRANCH   2   3
ENDBRANCH   1   2
BRANCH   1   5
ATOM      5  C   UNL     1      -4.172  -1.598   2.198  1.00  0.00     0.181 C 
BRANCH   5   6
ATOM      6  C   UNL     1      -3.791  -0.187   2.717  1.00  0.00     0.209 C 
BRANCH   6   7
ATOM      7  C   UNL     1      -2.359  -0.104   3.181  1.00  0.00     0.258 C 
ATOM      8  O   UNL     1      -1.569   0.644   2.627  1.00  0.00    -0.300 OA
ENDBRANCH   6   7
BRANCH   6   9
ATOM      9  O   UNL     1      -4.650   0.174   3.769  1.00  0.00    -0.383 OA
ATOM     10  H   UNL     1      -4.191   0.889   4.284  1.00  0.00     0.211 HD
ENDBRANCH   6   9
ENDBRANCH   5   6
BRANCH   5  11
ATOM     11  O   UNL     1      -5.007  -2.249   3.125  1.00  0.00    -0.387 OA
ATOM     12  H   UNL     1      -4.518  -2.313   3.985  1.00  0.00     0.211 HD
ENDBRANCH   5  11
ENDBRANCH   1   5
BRANCH   1  13
ATOM     13  O   UNL     1      -3.867  -1.164  -0.189  1.00  0.00    -0.388 OA
ATOM     14  H   UNL     1      -3.090  -0.783   0.297  1.00  0.00     0.211 HD
ENDBRANCH   1  13
TORSDOF 8
ENDMDL
MODEL 3
REMARK VINA RESULT:    -3.617      0.573      3.808
REMARK INTER + INTRA:          -5.587
REMARK INTER:                  -4.974
REMARK INTRA:                  -0.612
REMARK UNBOUND:                -0.702
REMARK SMILES O=C[C@H](O)[C@@H](O)[C@@H](O)CO
REMARK SMILES IDX 7 1 9 2 10 3 5 5 3 6 2 7 1 8 4 9 6 11 8 13
REMARK H PARENT 10 4 4 10 6 12 8 14
REMARK Flexibility Score: inf
ROOT
ATOM      1  C   UNL     1      -5.110  -2.045   1.265  1.00  0.00     0.171 C 
ENDROOT
BRANCH   1   2
ATOM      2  C   UNL     1      -4.685  -2.755  -0.032  1.00  0.00     0.190 C 
BRANCH   2   3
ATOM      3  O   UNL     1      -4.723  -1.851  -1.100  1.00  0.00    -0.394 OA
ATOM      4  H   UNL     1      -5.589  -1.372  -1.025  1.00  0.00     0.210 HD
ENDBRANCH   2   3
ENDBRANCH   1   2
BRANCH   1   5
ATOM      5  C   UNL     1      -4.261  -0.765   1.520  1.00  0.00     0.181 C 
BRANCH   5   6
ATOM      6  C   UNL     1      -4.093  -0.408   3.021  1.00  0.00     0.209 C 
BRANCH   6   7
ATOM      7  C   UNL     1      -2.652  -0.205   3.414  1.00  0.00     0.258 C 
ATOM      8  O   UNL     1      -1.981   0.668   2.886  1.00  0.00    -0.300 OA
ENDBRANCH   6   7
BRANCH   6   9
ATOM      9  O   UNL     1      -4.660  -1.422   3.810  1.00  0.00    -0.383 OA
ATOM     10  H   UNL     1      -5.617  -1.187   3.939  1.00  0.00     0.211 HD
ENDBRANCH   6   9
ENDBRANCH   5   6
BRANCH   5  11
ATOM     11  O   UNL     1      -3.002  -0.851   0.897  1.00  0.00    -0.387 OA
ATOM     12  H   UNL     1      -2.785  -1.811   0.778  1.00  0.00     0.211 HD
ENDBRANCH   5  11
ENDBRANCH   1   5
BRANCH   1  13
ATOM     13  O   UNL     1      -6.482  -1.741   1.220  1.00  0.00    -0.388 OA
ATOM     14  H   UNL     1      -6.594  -0.810   1.545  1.00  0.00     0.211 HD
ENDBRANCH   1  13
TORSDOF 8
ENDMDL
MODEL 4
REMARK VINA RESULT:    -3.445      0.864      1.759
REMARK INTER + INTRA:          -5.355
REMARK INTER:                  -5.332
REMARK INTRA:                  -0.023
REMARK UNBOUND:                -0.702
REMARK SMILES O=C[C@H](O)[C@@H](O)[C@@H](O)CO
REMARK SMILES IDX 7 1 9 2 10 3 5 5 3 6 2 7 1 8 4 9 6 11 8 13
REMARK H PARENT 10 4 4 10 6 12 8 14
REMARK Flexibility Score: inf
ROOT
ATOM      1  C   UNL     1      -3.514  -1.164   1.961  1.00  0.00     0.171 C 
ENDROOT
BRANCH   1   2
ATOM      2  C   UNL     1      -3.157   0.039   2.849  1.00  0.00     0.190 C 
BRANCH   2   3
ATOM      3  O   UNL     1      -1.814   0.385   2.660  1.00  0.00    -0.394 OA
ATOM      4  H   UNL     1      -1.281  -0.348   3.065  1.00  0.00     0.210 HD
ENDBRANCH   2   3
ENDBRANCH   1   2
BRANCH   1   5
ATOM      5  C   UNL     1      -4.978  -1.640   2.203  1.00  0.00     0.181 C 
BRANCH   5   6
ATOM      6  C   UNL     1      -5.722  -2.071   0.912  1.00  0.00     0.209 C 
BRANCH   6   7
ATOM      7  C   UNL     1      -4.976  -3.125   0.133  1.00  0.00     0.258 C 
ATOM      8  O   UNL     1      -4.603  -2.906  -1.008  1.00  0.00    -0.300 OA
ENDBRANCH   6   7
BRANCH   6   9
ATOM      9  O   UNL     1      -5.939  -0.947   0.098  1.00  0.00    -0.383 OA
ATOM     10  H   UNL     1      -5.433  -1.097  -0.744  1.00  0.00     0.211 HD
ENDBRANCH   6   9
ENDBRANCH   5   6
BRANCH   5  11
ATOM     11  O   UNL     1      -5.031  -2.668   3.161  1.00  0.00    -0.387 OA
ATOM     12  H   UNL     1      -4.210  -2.613   3.715  1.00  0.00     0.211 HD
ENDBRANCH   5  11
ENDBRANCH   1   5
BRANCH   1  13
ATOM     13  O   UNL     1      -3.304  -0.843   0.608  1.00  0.00    -0.388 OA
ATOM     14  H   UNL     1      -3.284  -1.695   0.097  1.00  0.00     0.211 HD
ENDBRANCH   1  13
TORSDOF 8
ENDMDL
MODEL 5
REMARK VINA RESULT:    -2.223      1.260      1.461
REMARK INTER + INTRA:          -3.704
REMARK INTER:                  -3.331
REMARK INTRA:                  -0.373
REMARK UNBOUND:                -0.702
REMARK SMILES O=C[C@H](O)[C@@H](O)[C@@H](O)CO
REMARK SMILES IDX 7 1 9 2 10 3 5 5 3 6 2 7 1 8 4 9 6 11 8 13
REMARK H PARENT 10 4 4 10 6 12 8 14
REMARK Flexibility Score: inf
ROOT
ATOM      1  C   UNL     1      -3.089  -0.182   3.442  1.00  0.00     0.171 C 
ENDROOT
BRANCH   1   2
ATOM      2  C   UNL     1      -1.599   0.196   3.490  1.00  0.00     0.190 C 
BRANCH   2   3
ATOM      3  O   UNL     1      -1.236   0.839   2.300  1.00  0.00    -0.394 OA
ATOM      4  H   UNL     1      -2.078   0.970   1.790  1.00  0.00     0.210 HD
ENDBRANCH   2   3
ENDBRANCH   1   2
BRANCH   1   5
ATOM      5  C   UNL     1      -3.594  -0.336   1.976  1.00  0.00     0.181 C 
BRANCH   5   6
ATOM      6  C   UNL     1      -4.464  -1.598   1.739  1.00  0.00     0.209 C 
BRANCH   6   7
ATOM      7  C   UNL     1      -5.066  -1.639   0.357  1.00  0.00     0.258 C 
ATOM      8  O   UNL     1      -4.549  -2.302  -0.527  1.00  0.00    -0.300 OA
ENDBRANCH   6   7
BRANCH   6   9
ATOM      9  O   UNL     1      -5.485  -1.653   2.702  1.00  0.00    -0.383 OA
ATOM     10  H   UNL     1      -5.058  -1.494   3.585  1.00  0.00     0.211 HD
ENDBRANCH   6   9
ENDBRANCH   5   6
BRANCH   5  11
ATOM     11  O   UNL     1      -4.278   0.815   1.545  1.00  0.00    -0.387 OA
ATOM     12  H   UNL     1      -3.716   1.268   0.865  1.00  0.00     0.211 HD
ENDBRANCH   5  11
ENDBRANCH   1   5
BRANCH   1  13
ATOM     13  O   UNL     1      -3.313  -1.358   4.180  1.00  0.00    -0.388 OA
ATOM     14  H   UNL     1      -2.741  -2.070   3.790  1.00  0.00     0.211 HD
ENDBRANCH   1  13
TORSDOF 8
ENDMDL
MODEL 6
REMARK VINA RESULT:    -1.929      1.234      1.916
REMARK INTER + INTRA:          -3.307
REMARK INTER:                  -3.067
REMARK INTRA:                  -0.240
REMARK UNBOUND:                -0.702
REMARK SMILES O=C[C@H](O)[C@@H](O)[C@@H](O)CO
REMARK SMILES IDX 7 1 9 2 10 3 5 5 3 6 2 7 1 8 4 9 6 11 8 13
REMARK H PARENT 10 4 4 10 6 12 8 14
REMARK Flexibility Score: inf
ROOT
ATOM      1  C   UNL     1      -3.520   0.118   2.475  1.00  0.00     0.171 C 
ENDROOT
BRANCH   1   2
ATOM      2  C   UNL     1      -2.035   0.277   2.842  1.00  0.00     0.190 C 
BRANCH   2   3
ATOM      3  O   UNL     1      -1.916   0.611   4.196  1.00  0.00    -0.394 OA
ATOM      4  H   UNL     1      -2.486   1.412   4.334  1.00  0.00     0.210 HD
ENDBRANCH   2   3
ENDBRANCH   1   2
BRANCH   1   5
ATOM      5  C   UNL     1      -3.751  -1.111   1.546  1.00  0.00     0.181 C 
BRANCH   5   6
ATOM      6  C   UNL     1      -5.188  -1.691   1.614  1.00  0.00     0.209 C 
BRANCH   6   7
ATOM      7  C   UNL     1      -5.282  -2.912   2.494  1.00  0.00     0.258 C 
ATOM      8  O   UNL     1      -4.904  -2.873   3.654  1.00  0.00    -0.300 OA
ENDBRANCH   6   7
BRANCH   6   9
ATOM      9  O   UNL     1      -5.628  -2.007   0.318  1.00  0.00    -0.383 OA
ATOM     10  H   UNL     1      -5.883  -1.150  -0.117  1.00  0.00     0.211 HD
ENDBRANCH   6   9
ENDBRANCH   5   6
BRANCH   5  11
ATOM     11  O   UNL     1      -3.406  -0.819   0.214  1.00  0.00    -0.387 OA
ATOM     12  H   UNL     1      -2.914  -1.598  -0.153  1.00  0.00     0.211 HD
ENDBRANCH   5  11
ENDBRANCH   1   5
BRANCH   1  13
ATOM     13  O   UNL     1      -4.298   0.023   3.643  1.00  0.00    -0.388 OA
ATOM     14  H   UNL     1      -4.544  -0.931   3.762  1.00  0.00     0.211 HD
ENDBRANCH   1  13
TORSDOF 8
ENDMDL
MODEL 7
REMARK VINA RESULT:    -1.327      1.338      4.239
REMARK INTER + INTRA:          -2.494
REMARK INTER:                  -2.187
REMARK INTRA:                  -0.308
REMARK UNBOUND:                -0.702
REMARK SMILES O=C[C@H](O)[C@@H](O)[C@@H](O)CO
REMARK SMILES IDX 7 1 9 2 10 3 5 5 3 6 2 7 1 8 4 9 6 11 8 13
REMARK H PARENT 10 4 4 10 6 12 8 14
REMARK Flexibility Score: inf
ROOT
ATOM      1  C   UNL     1      -4.210  -1.602   2.568  1.00  0.00     0.171 C 
ENDROOT
BRANCH   1   2
ATOM      2  C   UNL     1      -5.041  -1.748   1.282  1.00  0.00     0.190 C 
BRANCH   2   3
ATOM      3  O   UNL     1      -4.222  -1.542   0.165  1.00  0.00    -0.394 OA
ATOM      4  H   UNL     1      -3.796  -2.417  -0.030  1.00  0.00     0.210 HD
ENDBRANCH   2   3
ENDBRANCH   1   2
BRANCH   1   5
ATOM      5  C   UNL     1      -3.641  -0.161   2.722  1.00  0.00     0.181 C 
BRANCH   5   6
ATOM      6  C   UNL     1      -2.093  -0.083   2.662  1.00  0.00     0.209 C 
BRANCH   6   7
ATOM      7  C   UNL     1      -1.480   0.343   3.971  1.00  0.00     0.258 C 
ATOM      8  O   UNL     1      -0.335   0.765   4.013  1.00  0.00    -0.300 OA
ENDBRANCH   6   7
BRANCH   6   9
ATOM      9  O   UNL     1      -1.707   0.807   1.646  1.00  0.00    -0.383 OA
ATOM     10  H   UNL     1      -2.334   1.577   1.682  1.00  0.00     0.211 HD
ENDBRANCH   6   9
ENDBRANCH   5   6
BRANCH   5  11
ATOM     11  O   UNL     1      -4.209   0.718   1.780  1.00  0.00    -0.387 OA
ATOM     12  H   UNL     1      -5.191   0.579   1.786  1.00  0.00     0.211 HD
ENDBRANCH   5  11
ENDBRANCH   1   5
BRANCH   1  13
ATOM     13  O   UNL     1      -4.984  -1.963   3.686  1.00  0.00    -0.388 OA
ATOM     14  H   UNL     1      -4.533  -2.728   4.129  1.00  0.00     0.211 HD
ENDBRANCH   1  13
TORSDOF 8
ENDMDL
