MODEL 1
REMARK VINA RESULT:    -3.037      0.000      0.000
REMARK INTER + INTRA:          -4.019
REMARK INTER:                  -3.924
REMARK INTRA:                  -0.095
REMARK UNBOUND:                -0.095
REMARK SMILES CCCCCCC(=O)[O-]
REMARK SMILES IDX 5 1 6 2 7 3 8 4 9 5 4 6 3 7 2 8 1 9
REMARK H PARENT
REMARK Flexibility Score: inf
ROOT
ATOM      1  C   UNL     1      66.816  55.458  10.380  1.00  0.00     0.006 C 
ENDROOT
BRANCH   1   2
ATOM      2  C   UNL     1      65.861  56.395  11.125  1.00  0.00     0.053 C 
BRANCH   2   3
ATOM      3  C   UNL     1      65.469  57.545  10.252  1.00  0.00     0.041 C 
ATOM      4  O   UNL     1      65.043  58.614  10.764  1.00  0.00    -0.550 OA
ATOM      5  O   UNL     1      65.524  57.419   8.869  1.00  0.00    -0.550 OA
ENDBRANCH   2   3
ENDBRANCH   1   2
BRANCH   1   6
ATOM      6  C   UNL     1      68.156  55.340  11.115  1.00  0.00     0.000 C 
BRANCH   6   7
ATOM      7  C   UNL     1      69.291  55.004  10.140  1.00  0.00    -0.000 C 
BRANCH   7   8
ATOM      8  C   UNL     1      70.474  54.363  10.874  1.00  0.00    -0.003 C 
ATOM      9  C   UNL     1      71.592  55.375  11.108  1.00  0.00     0.004 C 
ENDBRANCH   7   8
ENDBRANCH   6   7
ENDBRANCH   1   6
TORSDOF 5
ENDMDL
MODEL 2
REMARK VINA RESULT:    -2.692      1.876      2.625
REMARK INTER + INTRA:          -3.573
REMARK INTER:                  -3.408
REMARK INTRA:                  -0.165
REMARK UNBOUND:                -0.095
REMARK SMILES CCCCCCC(=O)[O-]
REMARK SMILES IDX 5 1 6 2 7 3 8 4 9 5 4 6 3 7 2 8 1 9
REMARK H PARENT
REMARK Flexibility Score: inf
ROOT
ATOM      1  C   UNL     1      65.628  57.076   9.866  1.00  0.00     0.006 C 
ENDROOT
BRANCH   1   2
ATOM      2  C   UNL     1      64.663  58.207  10.233  1.00  0.00     0.053 C 
BRANCH   2   3
ATOM      3  C   UNL     1      63.247  57.728  10.172  1.00  0.00     0.041 C 
ATOM      4  O   UNL     1      62.386  58.374   9.516  1.00  0.00    -0.550 OA
ATOM      5  O   UNL     1      62.865  56.596  10.880  1.00  0.00    -0.550 OA
ENDBRANCH   2   3
ENDBRANCH   1   2
BRANCH   1   6
ATOM      6  C   UNL     1      66.353  56.548  11.110  1.00  0.00     0.000 C 
BRANCH   6   7
ATOM      7  C   UNL     1      66.893  55.133  10.872  1.00  0.00    -0.000 C 
BRANCH   7   8
ATOM      8  C   UNL     1      67.811  55.093   9.645  1.00  0.00    -0.003 C 
ATOM      9  C   UNL     1      69.278  55.006  10.056  1.00  0.00     0.004 C 
ENDBRANCH   7   8
ENDBRANCH   6   7
ENDBRANCH   1   6
TORSDOF 5
ENDMDL
MODEL 3
REMARK VINA RESULT:    -2.616      3.020      5.290
REMARK INTER + INTRA:          -3.476
REMARK INTER:                  -3.351
REMARK INTRA:                  -0.125
REMARK UNBOUND:                -0.095
REMARK SMILES CCCCCCC(=O)[O-]
REMARK SMILES IDX 5 1 6 2 7 3 8 4 9 5 4 6 3 7 2 8 1 9
REMARK H PARENT
REMARK Flexibility Score: inf
ROOT
ATOM      1  C   UNL     1      67.571  54.925  10.795  1.00  0.00     0.006 C 
ENDROOT
BRANCH   1   2
ATOM      2  C   UNL     1      68.750  55.000   9.821  1.00  0.00     0.053 C 
BRANCH   2   3
ATOM      3  C   UNL     1      70.047  54.960  10.565  1.00  0.00     0.041 C 
ATOM      4  O   UNL     1      70.455  53.882  11.072  1.00  0.00    -0.550 OA
ATOM      5  O   UNL     1      70.783  56.125  10.743  1.00  0.00    -0.550 OA
ENDBRANCH   2   3
ENDBRANCH   1   2
BRANCH   1   6
ATOM      6  C   UNL     1      67.040  56.325  11.125  1.00  0.00     0.000 C 
BRANCH   6   7
ATOM      7  C   UNL     1      65.888  56.712  10.191  1.00  0.00    -0.000 C 
BRANCH   7   8
ATOM      8  C   UNL     1      65.255  58.041  10.618  1.00  0.00    -0.003 C 
ATOM      9  C   UNL     1      63.734  57.986  10.520  1.00  0.00     0.004 C 
ENDBRANCH   7   8
ENDBRANCH   6   7
ENDBRANCH   1   6
TORSDOF 5
ENDMDL
MODEL 4
REMARK VINA RESULT:    -2.580      2.948      5.682
REMARK INTER + INTRA:          -3.428
REMARK INTER:                  -3.201
REMARK INTRA:                  -0.228
REMARK UNBOUND:                -0.095
REMARK SMILES CCCCCCC(=O)[O-]
REMARK SMILES IDX 5 1 6 2 7 3 8 4 9 5 4 6 3 7 2 8 1 9
REMARK H PARENT
REMARK Flexibility Score: inf
ROOT
ATOM      1  C   UNL     1      65.863  56.982   9.385  1.00  0.00     0.006 C 
ENDROOT
BRANCH   1   2
ATOM      2  C   UNL     1      66.022  56.431  10.805  1.00  0.00     0.053 C 
BRANCH   2   3
ATOM      3  C   UNL     1      66.953  55.260  10.811  1.00  0.00     0.041 C 
ATOM      4  O   UNL     1      68.190  55.432  10.644  1.00  0.00    -0.550 OA
ATOM      5  O   UNL     1      66.450  53.972  10.949  1.00  0.00    -0.550 OA
ENDBRANCH   2   3
ENDBRANCH   1   2
BRANCH   1   6
ATOM      6  C   UNL     1      64.739  58.023   9.323  1.00  0.00     0.000 C 
BRANCH   6   7
ATOM      7  C   UNL     1      63.861  57.961  10.579  1.00  0.00    -0.000 C 
BRANCH   7   8
ATOM      8  C   UNL     1      62.383  58.167  10.228  1.00  0.00    -0.003 C 
ATOM      9  C   UNL     1      61.875  57.063   9.306  1.00  0.00     0.004 C 
ENDBRANCH   7   8
ENDBRANCH   6   7
ENDBRANCH   1   6
TORSDOF 5
ENDMDL
MODEL 5
REMARK VINA RESULT:    -0.443      2.494      3.234
REMARK INTER + INTRA:          -0.667
REMARK INTER:                  -0.550
REMARK INTRA:                  -0.117
REMARK UNBOUND:                -0.095
REMARK SMILES CCCCCCC(=O)[O-]
REMARK SMILES IDX 5 1 6 2 7 3 8 4 9 5 4 6 3 7 2 8 1 9
REMARK H PARENT
REMARK Flexibility Score: inf
ROOT
ATOM      1  C   UNL     1      65.352  56.068   9.908  1.00  0.00     0.006 C 
ENDROOT
BRANCH   1   2
ATOM      2  C   UNL     1      64.682  56.711  11.125  1.00  0.00     0.053 C 
BRANCH   2   3
ATOM      3  C   UNL     1      64.217  58.095  10.797  1.00  0.00     0.041 C 
ATOM      4  O   UNL     1      62.993  58.325  10.610  1.00  0.00    -0.550 OA
ATOM      5  O   UNL     1      65.141  59.121  10.648  1.00  0.00    -0.550 OA
ENDBRANCH   2   3
ENDBRANCH   1   2
BRANCH   1   6
ATOM      6  C   UNL     1      66.793  55.655  10.228  1.00  0.00     0.000 C 
BRANCH   6   7
ATOM      7  C   UNL     1      66.947  54.129  10.204  1.00  0.00    -0.000 C 
BRANCH   7   8
ATOM      8  C   UNL     1      65.921  53.458  11.125  1.00  0.00    -0.003 C 
ATOM      9  C   UNL     1      65.662  52.015  10.704  1.00  0.00     0.004 C 
ENDBRANCH   7   8
ENDBRANCH   6   7
ENDBRANCH   1   6
TORSDOF 5
ENDMDL
