MODEL 1
REMARK VINA RESULT:    -8.276      0.000      0.000
REMARK INTER + INTRA:         -11.897
REMARK INTER:                 -10.937
REMARK INTRA:                  -0.961
REMARK UNBOUND:                -0.961
REMARK SMILES C=C(CC[C@@H](C)[C@H]1CC[C@@]2(C)[C@@H]3CC[C@@H]4C(C)(C)[C@@H](O)CC[C@@]45C[C@@]35CC[C@]12C)C(C)C
REMARK SMILES IDX 4 1 3 2 2 3 1 4 30 5 31 6 32 7 5 8 6 9 7 10 8 11 28 12 9 13
REMARK SMILES IDX 10 14 27 15 29 16 11 17 12 18 26 19 25 20 13 21 23 22 24 23
REMARK SMILES IDX 14 24 15 25 22 26 16 27 21 28 19 29 17 30 18 31 20 32
REMARK H PARENT 20 33
REMARK Flexibility Score: inf
ROOT
ATOM      1  C   UNL     1      -6.647  28.270  47.777  1.00  0.00     0.008 C 
ENDROOT
BRANCH   1   2
ATOM      2  C   UNL     1      -7.471  27.988  46.511  1.00  0.00     0.031 C 
BRANCH   2   3
ATOM      3  C   UNL     1      -8.575  29.014  46.340  1.00  0.00    -0.075 C 
ATOM      4  C   UNL     1      -8.259  30.321  46.334  1.00  0.00     0.008 C 
BRANCH   3   5
ATOM      5  C   UNL     1     -10.033  28.588  46.247  1.00  0.00     0.008 C 
ATOM      6  C   UNL     1     -10.917  29.754  45.792  1.00  0.00     0.012 C 
ATOM      7  C   UNL     1     -10.531  28.005  47.576  1.00  0.00     0.012 C 
ENDBRANCH   3   5
ENDBRANCH   2   3
ENDBRANCH   1   2
BRANCH   1   8
ATOM      8  C   UNL     1      -5.210  27.680  47.688  1.00  0.00    -0.010 C 
ATOM      9  C   UNL     1      -4.195  28.738  48.168  1.00  0.00     0.008 C 
BRANCH   8  10
ATOM     10  C   UNL     1      -4.988  26.330  48.464  1.00  0.00    -0.002 C 
ATOM     11  C   UNL     1      -6.241  25.691  49.114  1.00  0.00     0.005 C 
ATOM     12  C   UNL     1      -4.279  25.155  47.716  1.00  0.00    -0.024 C 
ATOM     13  C   UNL     1      -6.064  24.165  49.017  1.00  0.00     0.008 C 
ATOM     14  C   UNL     1      -4.582  23.935  48.656  1.00  0.00    -0.024 C 
ATOM     15  C   UNL     1      -2.745  25.313  47.559  1.00  0.00     0.008 C 
ATOM     16  C   UNL     1      -4.886  25.000  46.280  1.00  0.00     0.012 C 
ATOM     17  C   UNL     1      -3.747  23.961  49.997  1.00  0.00     0.012 C 
ATOM     18  C   UNL     1      -4.295  22.598  47.893  1.00  0.00     0.002 C 
ATOM     19  C   UNL     1      -1.988  23.962  47.388  1.00  0.00     0.008 C 
ATOM     20  C   UNL     1      -2.874  22.669  47.199  1.00  0.00    -0.020 C 
ATOM     21  C   UNL     1      -4.552  21.335  48.787  1.00  0.00     0.005 C 
ATOM     22  C   UNL     1      -2.182  21.310  46.890  1.00  0.00    -0.020 C 
ATOM     23  C   UNL     1      -2.789  22.124  45.757  1.00  0.00     0.015 C 
ATOM     24  C   UNL     1      -3.435  20.284  48.769  1.00  0.00     0.005 C 
ATOM     25  C   UNL     1      -2.982  20.048  47.319  1.00  0.00     0.004 C 
ATOM     26  C   UNL     1      -0.652  21.335  47.127  1.00  0.00     0.010 C 
ATOM     27  C   UNL     1      -2.193  18.716  47.036  1.00  0.00    -0.006 C 
ATOM     28  C   UNL     1       0.019  19.996  46.839  1.00  0.00     0.033 C 
ATOM     29  C   UNL     1      -0.716  18.834  47.522  1.00  0.00     0.120 C 
ATOM     30  C   UNL     1      -2.856  17.505  47.742  1.00  0.00     0.014 C 
ATOM     31  C   UNL     1      -2.249  18.428  45.510  1.00  0.00     0.014 C 
BRANCH  29  32
ATOM     32  O   UNL     1      -0.025  17.636  47.273  1.00  0.00    -0.393 OA
ATOM     33  H   UNL     1      -0.462  16.930  47.819  1.00  0.00     0.210 HD
ENDBRANCH  29  32
ENDBRANCH   8  10
ENDBRANCH   1   8
TORSDOF 6
ENDMDL
MODEL 2
REMARK VINA RESULT:    -7.575      3.330      9.420
REMARK INTER + INTRA:         -10.971
REMARK INTER:                  -9.775
REMARK INTRA:                  -1.196
REMARK UNBOUND:                -0.961
REMARK SMILES C=C(CC[C@@H](C)[C@H]1CC[C@@]2(C)[C@@H]3CC[C@@H]4C(C)(C)[C@@H](O)CC[C@@]45C[C@@]35CC[C@]12C)C(C)C
REMARK SMILES IDX 4 1 3 2 2 3 1 4 30 5 31 6 32 7 5 8 6 9 7 10 8 11 28 12 9 13
REMARK SMILES IDX 10 14 27 15 29 16 11 17 12 18 26 19 25 20 13 21 23 22 24 23
REMARK SMILES IDX 14 24 15 25 22 26 16 27 21 28 19 29 17 30 18 31 20 32
REMARK H PARENT 20 33
REMARK Flexibility Score: inf
ROOT
ATOM      1  C   UNL     1      -1.980  20.537  47.837  1.00  0.00     0.008 C 
ENDROOT
BRANCH   1   2
ATOM      2  C   UNL     1      -1.597  20.011  46.445  1.00  0.00     0.031 C 
BRANCH   2   3
ATOM      3  C   UNL     1      -1.000  18.620  46.533  1.00  0.00    -0.075 C 
ATOM      4  C   UNL     1       0.327  18.486  46.694  1.00  0.00     0.008 C 
BRANCH   3   5
ATOM      5  C   UNL     1      -1.872  17.382  46.369  1.00  0.00     0.008 C 
ATOM      6  C   UNL     1      -3.029  17.652  45.403  1.00  0.00     0.012 C 
ATOM      7  C   UNL     1      -2.389  16.879  47.723  1.00  0.00     0.012 C 
ENDBRANCH   3   5
ENDBRANCH   2   3
ENDBRANCH   1   2
BRANCH   1   8
ATOM      8  C   UNL     1      -3.411  21.145  47.863  1.00  0.00    -0.010 C 
ATOM      9  C   UNL     1      -4.436  20.023  48.132  1.00  0.00     0.008 C 
BRANCH   8  10
ATOM     10  C   UNL     1      -3.623  22.323  48.884  1.00  0.00    -0.002 C 
ATOM     11  C   UNL     1      -2.523  22.514  49.958  1.00  0.00     0.005 C 
ATOM     12  C   UNL     1      -3.886  23.756  48.317  1.00  0.00    -0.024 C 
ATOM     13  C   UNL     1      -2.413  24.027  50.219  1.00  0.00     0.008 C 
ATOM     14  C   UNL     1      -3.670  24.656  49.584  1.00  0.00    -0.024 C 
ATOM     15  C   UNL     1      -5.314  23.985  47.761  1.00  0.00     0.008 C 
ATOM     16  C   UNL     1      -2.874  24.058  47.159  1.00  0.00     0.012 C 
ATOM     17  C   UNL     1      -4.848  24.547  50.632  1.00  0.00     0.012 C 
ATOM     18  C   UNL     1      -3.503  26.150  49.146  1.00  0.00     0.002 C 
ATOM     19  C   UNL     1      -5.758  25.478  47.767  1.00  0.00     0.008 C 
ATOM     20  C   UNL     1      -4.656  26.547  48.137  1.00  0.00    -0.020 C 
ATOM     21  C   UNL     1      -3.311  27.112  50.370  1.00  0.00     0.005 C 
ATOM     22  C   UNL     1      -4.999  28.061  48.032  1.00  0.00    -0.020 C 
ATOM     23  C   UNL     1      -4.233  27.380  46.907  1.00  0.00     0.015 C 
ATOM     24  C   UNL     1      -4.188  28.371  50.355  1.00  0.00     0.005 C 
ATOM     25  C   UNL     1      -4.161  28.994  48.950  1.00  0.00     0.004 C 
ATOM     26  C   UNL     1      -6.515  28.337  47.879  1.00  0.00     0.010 C 
ATOM     27  C   UNL     1      -4.606  30.500  48.840  1.00  0.00    -0.006 C 
ATOM     28  C   UNL     1      -6.846  29.823  47.794  1.00  0.00     0.033 C 
ATOM     29  C   UNL     1      -6.159  30.623  48.910  1.00  0.00     0.120 C 
ATOM     30  C   UNL     1      -3.985  31.358  49.971  1.00  0.00     0.014 C 
ATOM     31  C   UNL     1      -4.067  31.072  47.499  1.00  0.00     0.014 C 
BRANCH  29  32
ATOM     32  O   UNL     1      -6.543  31.972  48.819  1.00  0.00    -0.393 OA
ATOM     33  H   UNL     1      -5.868  32.428  48.250  1.00  0.00     0.210 HD
ENDBRANCH  29  32
ENDBRANCH   8  10
ENDBRANCH   1   8
TORSDOF 6
ENDMDL
MODEL 3
REMARK VINA RESULT:    -7.510      3.265      9.328
REMARK INTER + INTRA:         -10.885
REMARK INTER:                 -10.017
REMARK INTRA:                  -0.868
REMARK UNBOUND:                -0.961
REMARK SMILES C=C(CC[C@@H](C)[C@H]1CC[C@@]2(C)[C@@H]3CC[C@@H]4C(C)(C)[C@@H](O)CC[C@@]45C[C@@]35CC[C@]12C)C(C)C
REMARK SMILES IDX 4 1 3 2 2 3 1 4 30 5 31 6 32 7 5 8 6 9 7 10 8 11 28 12 9 13
REMARK SMILES IDX 10 14 27 15 29 16 11 17 12 18 26 19 25 20 13 21 23 22 24 23
REMARK SMILES IDX 14 24 15 25 22 26 16 27 21 28 19 29 17 30 18 31 20 32
REMARK H PARENT 20 33
REMARK Flexibility Score: inf
ROOT
ATOM      1  C   UNL     1      -2.910  19.606  46.781  1.00  0.00     0.008 C 
ENDROOT
BRANCH   1   2
ATOM      2  C   UNL     1      -2.165  18.399  47.375  1.00  0.00     0.031 C 
BRANCH   2   3
ATOM      3  C   UNL     1      -0.792  18.245  46.750  1.00  0.00    -0.075 C 
ATOM      4  C   UNL     1      -0.622  17.358  45.754  1.00  0.00     0.008 C 
BRANCH   3   5
ATOM      5  C   UNL     1       0.403  19.024  47.282  1.00  0.00     0.008 C 
ATOM      6  C   UNL     1       0.398  20.461  46.752  1.00  0.00     0.012 C 
ATOM      7  C   UNL     1       1.724  18.318  46.951  1.00  0.00     0.012 C 
ENDBRANCH   3   5
ENDBRANCH   2   3
ENDBRANCH   1   2
BRANCH   1   8
ATOM      8  C   UNL     1      -4.086  20.075  47.685  1.00  0.00    -0.010 C 
ATOM      9  C   UNL     1      -4.604  18.877  48.508  1.00  0.00     0.008 C 
BRANCH   8  10
ATOM     10  C   UNL     1      -3.761  21.282  48.639  1.00  0.00    -0.002 C 
ATOM     11  C   UNL     1      -2.297  21.400  49.133  1.00  0.00     0.005 C 
ATOM     12  C   UNL     1      -4.143  22.722  48.166  1.00  0.00    -0.024 C 
ATOM     13  C   UNL     1      -1.984  22.903  49.245  1.00  0.00     0.008 C 
ATOM     14  C   UNL     1      -3.347  23.623  49.174  1.00  0.00    -0.024 C 
ATOM     15  C   UNL     1      -5.653  23.059  48.259  1.00  0.00     0.008 C 
ATOM     16  C   UNL     1      -3.706  22.921  46.674  1.00  0.00     0.012 C 
ATOM     17  C   UNL     1      -3.967  23.629  50.627  1.00  0.00     0.012 C 
ATOM     18  C   UNL     1      -3.283  25.090  48.633  1.00  0.00     0.002 C 
ATOM     19  C   UNL     1      -5.950  24.584  48.378  1.00  0.00     0.008 C 
ATOM     20  C   UNL     1      -4.727  25.564  48.191  1.00  0.00    -0.020 C 
ATOM     21  C   UNL     1      -2.522  26.054  49.609  1.00  0.00     0.005 C 
ATOM     22  C   UNL     1      -4.978  27.100  48.165  1.00  0.00    -0.020 C 
ATOM     23  C   UNL     1      -4.815  26.339  46.858  1.00  0.00     0.015 C 
ATOM     24  C   UNL     1      -3.233  27.379  49.905  1.00  0.00     0.005 C 
ATOM     25  C   UNL     1      -3.767  27.975  48.592  1.00  0.00     0.004 C 
ATOM     26  C   UNL     1      -6.391  27.496  48.658  1.00  0.00     0.010 C 
ATOM     27  C   UNL     1      -4.115  29.510  48.607  1.00  0.00    -0.006 C 
ATOM     28  C   UNL     1      -6.627  29.003  48.647  1.00  0.00     0.033 C 
ATOM     29  C   UNL     1      -5.476  29.762  49.323  1.00  0.00     0.120 C 
ATOM     30  C   UNL     1      -3.013  30.333  49.322  1.00  0.00     0.014 C 
ATOM     31  C   UNL     1      -4.163  30.014  47.137  1.00  0.00     0.014 C 
BRANCH  29  32
ATOM     32  O   UNL     1      -5.771  31.137  49.337  1.00  0.00    -0.393 OA
ATOM     33  H   UNL     1      -6.737  31.224  49.549  1.00  0.00     0.210 HD
ENDBRANCH  29  32
ENDBRANCH   8  10
ENDBRANCH   1   8
TORSDOF 6
ENDMDL
MODEL 4
REMARK VINA RESULT:    -7.450      1.438      2.318
REMARK INTER + INTRA:         -10.806
REMARK INTER:                  -9.170
REMARK INTRA:                  -1.636
REMARK UNBOUND:                -0.961
REMARK SMILES C=C(CC[C@@H](C)[C@H]1CC[C@@]2(C)[C@@H]3CC[C@@H]4C(C)(C)[C@@H](O)CC[C@@]45C[C@@]35CC[C@]12C)C(C)C
REMARK SMILES IDX 4 1 3 2 2 3 1 4 30 5 31 6 32 7 5 8 6 9 7 10 8 11 28 12 9 13
REMARK SMILES IDX 10 14 27 15 29 16 11 17 12 18 26 19 25 20 13 21 23 22 24 23
REMARK SMILES IDX 14 24 15 25 22 26 16 27 21 28 19 29 17 30 18 31 20 32
REMARK H PARENT 20 33
REMARK Flexibility Score: inf
ROOT
ATOM      1  C   UNL     1      -7.166  30.590  47.785  1.00  0.00     0.008 C 
ENDROOT
BRANCH   1   2
ATOM      2  C   UNL     1      -7.513  30.716  46.293  1.00  0.00     0.031 C 
BRANCH   2   3
ATOM      3  C   UNL     1      -8.940  30.280  46.026  1.00  0.00    -0.075 C 
ATOM      4  C   UNL     1      -9.775  31.122  45.393  1.00  0.00     0.008 C 
BRANCH   3   5
ATOM      5  C   UNL     1      -9.457  28.938  46.528  1.00  0.00     0.008 C 
ATOM      6  C   UNL     1      -8.855  27.783  45.721  1.00  0.00     0.012 C 
ATOM      7  C   UNL     1     -10.989  28.885  46.509  1.00  0.00     0.012 C 
ENDBRANCH   3   5
ENDBRANCH   2   3
ENDBRANCH   1   2
BRANCH   1   8
ATOM      8  C   UNL     1      -5.758  29.969  48.012  1.00  0.00    -0.010 C 
ATOM      9  C   UNL     1      -4.886  30.963  48.808  1.00  0.00     0.008 C 
BRANCH   8  10
ATOM     10  C   UNL     1      -5.749  28.563  48.717  1.00  0.00    -0.002 C 
ATOM     11  C   UNL     1      -7.129  27.969  49.095  1.00  0.00     0.005 C 
ATOM     12  C   UNL     1      -4.984  27.391  48.020  1.00  0.00    -0.024 C 
ATOM     13  C   UNL     1      -7.021  26.443  48.921  1.00  0.00     0.008 C 
ATOM     14  C   UNL     1      -5.512  26.139  48.804  1.00  0.00    -0.024 C 
ATOM     15  C   UNL     1      -3.440  27.458  48.140  1.00  0.00     0.008 C 
ATOM     16  C   UNL     1      -5.338  27.364  46.493  1.00  0.00     0.012 C 
ATOM     17  C   UNL     1      -4.926  26.029  50.267  1.00  0.00     0.012 C 
ATOM     18  C   UNL     1      -5.169  24.835  48.008  1.00  0.00     0.002 C 
ATOM     19  C   UNL     1      -2.739  26.073  48.004  1.00  0.00     0.008 C 
ATOM     20  C   UNL     1      -3.647  24.855  47.575  1.00  0.00    -0.020 C 
ATOM     21  C   UNL     1      -5.646  23.540  48.752  1.00  0.00     0.005 C 
ATOM     22  C   UNL     1      -2.985  23.475  47.293  1.00  0.00    -0.020 C 
ATOM     23  C   UNL     1      -3.339  24.394  46.134  1.00  0.00     0.015 C 
ATOM     24  C   UNL     1      -4.602  22.421  48.851  1.00  0.00     0.005 C 
ATOM     25  C   UNL     1      -3.914  22.244  47.487  1.00  0.00     0.004 C 
ATOM     26  C   UNL     1      -1.522  23.385  47.790  1.00  0.00     0.010 C 
ATOM     27  C   UNL     1      -3.161  20.883  47.249  1.00  0.00    -0.006 C 
ATOM     28  C   UNL     1      -0.883  22.025  47.526  1.00  0.00     0.033 C 
ATOM     29  C   UNL     1      -1.789  20.874  47.989  1.00  0.00     0.120 C 
ATOM     30  C   UNL     1      -4.002  19.677  47.742  1.00  0.00     0.014 C 
ATOM     31  C   UNL     1      -2.965  20.693  45.719  1.00  0.00     0.014 C 
BRANCH  29  32
ATOM     32  O   UNL     1      -1.130  19.651  47.776  1.00  0.00    -0.393 OA
ATOM     33  H   UNL     1      -0.604  19.747  46.939  1.00  0.00     0.210 HD
ENDBRANCH  29  32
ENDBRANCH   8  10
ENDBRANCH   1   8
TORSDOF 6
ENDMDL
MODEL 5
REMARK VINA RESULT:    -7.428      3.467      9.525
REMARK INTER + INTRA:         -10.777
REMARK INTER:                 -10.012
REMARK INTRA:                  -0.764
REMARK UNBOUND:                -0.961
REMARK SMILES C=C(CC[C@@H](C)[C@H]1CC[C@@]2(C)[C@@H]3CC[C@@H]4C(C)(C)[C@@H](O)CC[C@@]45C[C@@]35CC[C@]12C)C(C)C
REMARK SMILES IDX 4 1 3 2 2 3 1 4 30 5 31 6 32 7 5 8 6 9 7 10 8 11 28 12 9 13
REMARK SMILES IDX 10 14 27 15 29 16 11 17 12 18 26 19 25 20 13 21 23 22 24 23
REMARK SMILES IDX 14 24 15 25 22 26 16 27 21 28 19 29 17 30 18 31 20 32
REMARK H PARENT 20 33
REMARK Flexibility Score: inf
ROOT
ATOM      1  C   UNL     1      -3.031  20.330  48.789  1.00  0.00     0.008 C 
ENDROOT
BRANCH   1   2
ATOM      2  C   UNL     1      -3.854  19.045  48.606  1.00  0.00     0.031 C 
BRANCH   2   3
ATOM      3  C   UNL     1      -3.066  17.996  47.847  1.00  0.00    -0.075 C 
ATOM      4  C   UNL     1      -2.678  16.878  48.486  1.00  0.00     0.008 C 
BRANCH   3   5
ATOM      5  C   UNL     1      -2.649  18.223  46.401  1.00  0.00     0.008 C 
ATOM      6  C   UNL     1      -3.376  17.254  45.463  1.00  0.00     0.012 C 
ATOM      7  C   UNL     1      -1.128  18.118  46.233  1.00  0.00     0.012 C 
ENDBRANCH   3   5
ENDBRANCH   2   3
ENDBRANCH   1   2
BRANCH   1   8
ATOM      8  C   UNL     1      -3.746  21.577  48.194  1.00  0.00    -0.010 C 
ATOM      9  C   UNL     1      -5.159  21.176  47.722  1.00  0.00     0.008 C 
BRANCH   8  10
ATOM     10  C   UNL     1      -3.830  22.823  49.149  1.00  0.00    -0.002 C 
ATOM     11  C   UNL     1      -2.625  23.053  50.095  1.00  0.00     0.005 C 
ATOM     12  C   UNL     1      -4.118  24.223  48.515  1.00  0.00    -0.024 C 
ATOM     13  C   UNL     1      -2.459  24.576  50.242  1.00  0.00     0.008 C 
ATOM     14  C   UNL     1      -3.760  25.197  49.692  1.00  0.00    -0.024 C 
ATOM     15  C   UNL     1      -5.590  24.455  48.087  1.00  0.00     0.008 C 
ATOM     16  C   UNL     1      -3.220  24.422  47.246  1.00  0.00     0.012 C 
ATOM     17  C   UNL     1      -4.830  25.188  50.855  1.00  0.00     0.012 C 
ATOM     18  C   UNL     1      -3.606  26.655  49.141  1.00  0.00     0.002 C 
ATOM     19  C   UNL     1      -6.000  25.957  48.036  1.00  0.00     0.008 C 
ATOM     20  C   UNL     1      -4.845  27.017  48.225  1.00  0.00    -0.020 C 
ATOM     21  C   UNL     1      -3.274  27.688  50.273  1.00  0.00     0.005 C 
ATOM     22  C   UNL     1      -5.165  28.530  48.052  1.00  0.00    -0.020 C 
ATOM     23  C   UNL     1      -4.529  27.756  46.907  1.00  0.00     0.015 C 
ATOM     24  C   UNL     1      -4.121  28.966  50.260  1.00  0.00     0.005 C 
ATOM     25  C   UNL     1      -4.221  29.497  48.820  1.00  0.00     0.004 C 
ATOM     26  C   UNL     1      -6.682  28.836  48.030  1.00  0.00     0.010 C 
ATOM     27  C   UNL     1      -4.644  31.004  48.653  1.00  0.00    -0.006 C 
ATOM     28  C   UNL     1      -6.990  30.322  47.878  1.00  0.00     0.033 C 
ATOM     29  C   UNL     1      -6.178  31.173  48.865  1.00  0.00     0.120 C 
ATOM     30  C   UNL     1      -3.896  31.916  49.658  1.00  0.00     0.014 C 
ATOM     31  C   UNL     1      -4.228  31.473  47.231  1.00  0.00     0.014 C 
BRANCH  29  32
ATOM     32  O   UNL     1      -6.542  32.524  48.722  1.00  0.00    -0.393 OA
ATOM     33  H   UNL     1      -6.265  32.803  47.810  1.00  0.00     0.210 HD
ENDBRANCH  29  32
ENDBRANCH   8  10
ENDBRANCH   1   8
TORSDOF 6
ENDMDL
MODEL 6
REMARK VINA RESULT:    -7.262      4.694      9.968
REMARK INTER + INTRA:         -10.558
REMARK INTER:                  -8.827
REMARK INTRA:                  -1.731
REMARK UNBOUND:                -0.961
REMARK SMILES C=C(CC[C@@H](C)[C@H]1CC[C@@]2(C)[C@@H]3CC[C@@H]4C(C)(C)[C@@H](O)CC[C@@]45C[C@@]35CC[C@]12C)C(C)C
REMARK SMILES IDX 4 1 3 2 2 3 1 4 30 5 31 6 32 7 5 8 6 9 7 10 8 11 28 12 9 13
REMARK SMILES IDX 10 14 27 15 29 16 11 17 12 18 26 19 25 20 13 21 23 22 24 23
REMARK SMILES IDX 14 24 15 25 22 26 16 27 21 28 19 29 17 30 18 31 20 32
REMARK H PARENT 20 33
REMARK Flexibility Score: inf
ROOT
ATOM      1  C   UNL     1      -4.249  24.002  50.805  1.00  0.00     0.008 C 
ENDROOT
BRANCH   1   2
ATOM      2  C   UNL     1      -4.287  24.539  52.244  1.00  0.00     0.031 C 
BRANCH   2   3
ATOM      3  C   UNL     1      -2.894  24.882  52.735  1.00  0.00    -0.075 C 
ATOM      4  C   UNL     1      -1.947  23.928  52.736  1.00  0.00     0.008 C 
BRANCH   3   5
ATOM      5  C   UNL     1      -2.576  26.264  53.289  1.00  0.00     0.008 C 
ATOM      6  C   UNL     1      -3.854  26.980  53.737  1.00  0.00     0.012 C 
ATOM      7  C   UNL     1      -1.797  27.109  52.273  1.00  0.00     0.012 C 
ENDBRANCH   3   5
ENDBRANCH   2   3
ENDBRANCH   1   2
BRANCH   1   8
ATOM      8  C   UNL     1      -3.640  25.030  49.809  1.00  0.00    -0.010 C 
ATOM      9  C   UNL     1      -2.465  24.373  49.055  1.00  0.00     0.008 C 
BRANCH   8  10
ATOM     10  C   UNL     1      -4.656  25.654  48.782  1.00  0.00    -0.002 C 
ATOM     11  C   UNL     1      -6.121  25.159  48.869  1.00  0.00     0.005 C 
ATOM     12  C   UNL     1      -4.761  27.212  48.700  1.00  0.00    -0.024 C 
ATOM     13  C   UNL     1      -7.018  26.358  48.514  1.00  0.00     0.008 C 
ATOM     14  C   UNL     1      -6.084  27.410  47.881  1.00  0.00    -0.024 C 
ATOM     15  C   UNL     1      -3.590  27.907  47.960  1.00  0.00     0.008 C 
ATOM     16  C   UNL     1      -4.828  27.813  50.146  1.00  0.00     0.012 C 
ATOM     17  C   UNL     1      -5.926  27.057  46.349  1.00  0.00     0.012 C 
ATOM     18  C   UNL     1      -6.576  28.890  48.023  1.00  0.00     0.002 C 
ATOM     19  C   UNL     1      -3.961  29.297  47.362  1.00  0.00     0.008 C 
ATOM     20  C   UNL     1      -5.374  29.884  47.750  1.00  0.00    -0.020 C 
ATOM     21  C   UNL     1      -7.884  29.165  47.203  1.00  0.00     0.005 C 
ATOM     22  C   UNL     1      -5.752  31.324  47.296  1.00  0.00    -0.020 C 
ATOM     23  C   UNL     1      -5.249  31.085  48.712  1.00  0.00     0.015 C 
ATOM     24  C   UNL     1      -7.859  30.432  46.339  1.00  0.00     0.005 C 
ATOM     25  C   UNL     1      -7.276  31.595  47.158  1.00  0.00     0.004 C 
ATOM     26  C   UNL     1      -4.795  31.896  46.222  1.00  0.00     0.010 C 
ATOM     27  C   UNL     1      -7.579  33.048  46.632  1.00  0.00    -0.006 C 
ATOM     28  C   UNL     1      -5.179  33.301  45.767  1.00  0.00     0.033 C 
ATOM     29  C   UNL     1      -6.670  33.395  45.414  1.00  0.00     0.120 C 
ATOM     30  C   UNL     1      -9.062  33.198  46.208  1.00  0.00     0.014 C 
ATOM     31  C   UNL     1      -7.345  34.049  47.797  1.00  0.00     0.014 C 
BRANCH  29  32
ATOM     32  O   UNL     1      -6.957  34.690  44.948  1.00  0.00    -0.393 OA
ATOM     33  H   UNL     1      -6.717  34.711  43.984  1.00  0.00     0.210 HD
ENDBRANCH  29  32
ENDBRANCH   8  10
ENDBRANCH   1   8
TORSDOF 6
ENDMDL
MODEL 7
REMARK VINA RESULT:    -6.922      5.657     10.635
REMARK INTER + INTRA:         -10.108
REMARK INTER:                  -9.164
REMARK INTRA:                  -0.944
REMARK UNBOUND:                -0.961
REMARK SMILES C=C(CC[C@@H](C)[C@H]1CC[C@@]2(C)[C@@H]3CC[C@@H]4C(C)(C)[C@@H](O)CC[C@@]45C[C@@]35CC[C@]12C)C(C)C
REMARK SMILES IDX 4 1 3 2 2 3 1 4 30 5 31 6 32 7 5 8 6 9 7 10 8 11 28 12 9 13
REMARK SMILES IDX 10 14 27 15 29 16 11 17 12 18 26 19 25 20 13 21 23 22 24 23
REMARK SMILES IDX 14 24 15 25 22 26 16 27 21 28 19 29 17 30 18 31 20 32
REMARK H PARENT 20 33
REMARK Flexibility Score: inf
ROOT
ATOM      1  C   UNL     1       3.408  23.914  52.141  1.00  0.00     0.008 C 
ENDROOT
BRANCH   1   2
ATOM      2  C   UNL     1       4.519  24.036  53.196  1.00  0.00     0.031 C 
BRANCH   2   3
ATOM      3  C   UNL     1       5.838  23.513  52.662  1.00  0.00    -0.075 C 
ATOM      4  C   UNL     1       6.470  24.199  51.694  1.00  0.00     0.008 C 
BRANCH   3   5
ATOM      5  C   UNL     1       6.415  22.194  53.155  1.00  0.00     0.008 C 
ATOM      6  C   UNL     1       7.861  22.018  52.681  1.00  0.00     0.012 C 
ATOM      7  C   UNL     1       5.545  21.006  52.724  1.00  0.00     0.012 C 
ENDBRANCH   3   5
ENDBRANCH   2   3
ENDBRANCH   1   2
BRANCH   1   8
ATOM      8  C   UNL     1       2.054  23.461  52.760  1.00  0.00    -0.010 C 
ATOM      9  C   UNL     1       2.318  22.789  54.123  1.00  0.00     0.008 C 
BRANCH   8  10
ATOM     10  C   UNL     1       0.976  24.595  52.919  1.00  0.00    -0.002 C 
ATOM     11  C   UNL     1       1.501  26.052  52.938  1.00  0.00     0.005 C 
ATOM     12  C   UNL     1      -0.230  24.614  51.924  1.00  0.00    -0.024 C 
ATOM     13  C   UNL     1       0.433  26.919  52.247  1.00  0.00     0.008 C 
ATOM     14  C   UNL     1      -0.833  26.042  52.164  1.00  0.00    -0.024 C 
ATOM     15  C   UNL     1      -1.318  23.544  52.197  1.00  0.00     0.008 C 
ATOM     16  C   UNL     1       0.290  24.396  50.461  1.00  0.00     0.012 C 
ATOM     17  C   UNL     1      -1.601  26.169  53.540  1.00  0.00     0.012 C 
ATOM     18  C   UNL     1      -1.806  26.407  50.993  1.00  0.00     0.002 C 
ATOM     19  C   UNL     1      -2.724  23.923  51.644  1.00  0.00     0.008 C 
ATOM     20  C   UNL     1      -2.807  25.209  50.732  1.00  0.00    -0.020 C 
ATOM     21  C   UNL     1      -2.468  27.816  51.185  1.00  0.00     0.005 C 
ATOM     22  C   UNL     1      -4.155  25.566  50.041  1.00  0.00    -0.020 C 
ATOM     23  C   UNL     1      -3.070  24.846  49.255  1.00  0.00     0.015 C 
ATOM     24  C   UNL     1      -3.987  27.858  50.974  1.00  0.00     0.005 C 
ATOM     25  C   UNL     1      -4.346  27.071  49.703  1.00  0.00     0.004 C 
ATOM     26  C   UNL     1      -5.359  24.773  50.602  1.00  0.00     0.010 C 
ATOM     27  C   UNL     1      -5.756  27.367  49.068  1.00  0.00    -0.006 C 
ATOM     28  C   UNL     1      -6.680  25.138  49.932  1.00  0.00     0.033 C 
ATOM     29  C   UNL     1      -6.885  26.659  49.875  1.00  0.00     0.120 C 
ATOM     30  C   UNL     1      -6.049  28.889  49.025  1.00  0.00     0.014 C 
ATOM     31  C   UNL     1      -5.740  26.875  47.593  1.00  0.00     0.014 C 
BRANCH  29  32
ATOM     32  O   UNL     1      -8.139  26.938  49.303  1.00  0.00    -0.393 OA
ATOM     33  H   UNL     1      -8.283  27.917  49.384  1.00  0.00     0.210 HD
ENDBRANCH  29  32
ENDBRANCH   8  10
ENDBRANCH   1   8
TORSDOF 6
ENDMDL
MODEL 8
REMARK VINA RESULT:    -6.900      3.600      9.729
REMARK INTER + INTRA:         -10.079
REMARK INTER:                  -9.109
REMARK INTRA:                  -0.970
REMARK UNBOUND:                -0.961
REMARK SMILES C=C(CC[C@@H](C)[C@H]1CC[C@@]2(C)[C@@H]3CC[C@@H]4C(C)(C)[C@@H](O)CC[C@@]45C[C@@]35CC[C@]12C)C(C)C
REMARK SMILES IDX 4 1 3 2 2 3 1 4 30 5 31 6 32 7 5 8 6 9 7 10 8 11 28 12 9 13
REMARK SMILES IDX 10 14 27 15 29 16 11 17 12 18 26 19 25 20 13 21 23 22 24 23
REMARK SMILES IDX 14 24 15 25 22 26 16 27 21 28 19 29 17 30 18 31 20 32
REMARK H PARENT 20 33
REMARK Flexibility Score: inf
ROOT
ATOM      1  C   UNL     1      -3.457  22.336  49.254  1.00  0.00     0.008 C 
ENDROOT
BRANCH   1   2
ATOM      2  C   UNL     1      -4.498  21.461  48.539  1.00  0.00     0.031 C 
BRANCH   2   3
ATOM      3  C   UNL     1      -3.827  20.449  47.630  1.00  0.00    -0.075 C 
ATOM      4  C   UNL     1      -3.230  20.876  46.504  1.00  0.00     0.008 C 
BRANCH   3   5
ATOM      5  C   UNL     1      -3.885  18.960  47.938  1.00  0.00     0.008 C 
ATOM      6  C   UNL     1      -3.197  18.650  49.271  1.00  0.00     0.012 C 
ATOM      7  C   UNL     1      -3.281  18.128  46.799  1.00  0.00     0.012 C 
ENDBRANCH   3   5
ENDBRANCH   2   3
ENDBRANCH   1   2
BRANCH   1   8
ATOM      8  C   UNL     1      -4.039  23.716  49.677  1.00  0.00    -0.010 C 
ATOM      9  C   UNL     1      -3.607  24.028  51.125  1.00  0.00     0.008 C 
BRANCH   8  10
ATOM     10  C   UNL     1      -3.668  24.919  48.734  1.00  0.00    -0.002 C 
ATOM     11  C   UNL     1      -3.188  24.557  47.306  1.00  0.00     0.005 C 
ATOM     12  C   UNL     1      -4.726  26.051  48.529  1.00  0.00    -0.024 C 
ATOM     13  C   UNL     1      -3.703  25.664  46.369  1.00  0.00     0.008 C 
ATOM     14  C   UNL     1      -4.149  26.820  47.289  1.00  0.00    -0.024 C 
ATOM     15  C   UNL     1      -4.870  27.033  49.720  1.00  0.00     0.008 C 
ATOM     16  C   UNL     1      -6.135  25.416  48.267  1.00  0.00     0.012 C 
ATOM     17  C   UNL     1      -2.872  27.686  47.632  1.00  0.00     0.012 C 
ATOM     18  C   UNL     1      -5.255  27.747  46.682  1.00  0.00     0.002 C 
ATOM     19  C   UNL     1      -5.423  28.432  49.317  1.00  0.00     0.008 C 
ATOM     20  C   UNL     1      -5.937  28.594  47.833  1.00  0.00    -0.020 C 
ATOM     21  C   UNL     1      -4.736  28.569  45.452  1.00  0.00     0.005 C 
ATOM     22  C   UNL     1      -6.623  29.924  47.405  1.00  0.00    -0.020 C 
ATOM     23  C   UNL     1      -7.475  28.718  47.772  1.00  0.00     0.015 C 
ATOM     24  C   UNL     1      -5.069  30.066  45.478  1.00  0.00     0.005 C 
ATOM     25  C   UNL     1      -6.538  30.254  45.889  1.00  0.00     0.004 C 
ATOM     26  C   UNL     1      -6.426  31.070  48.427  1.00  0.00     0.010 C 
ATOM     27  C   UNL     1      -7.194  31.643  45.542  1.00  0.00    -0.006 C 
ATOM     28  C   UNL     1      -7.086  32.376  47.995  1.00  0.00     0.033 C 
ATOM     29  C   UNL     1      -6.729  32.740  46.547  1.00  0.00     0.120 C 
ATOM     30  C   UNL     1      -6.831  32.096  44.104  1.00  0.00     0.014 C 
ATOM     31  C   UNL     1      -8.739  31.477  45.581  1.00  0.00     0.014 C 
BRANCH  29  32
ATOM     32  O   UNL     1      -7.315  33.976  46.221  1.00  0.00    -0.393 OA
ATOM     33  H   UNL     1      -7.126  34.593  46.976  1.00  0.00     0.210 HD
ENDBRANCH  29  32
ENDBRANCH   8  10
ENDBRANCH   1   8
TORSDOF 6
ENDMDL
MODEL 9
REMARK VINA RESULT:    -6.878      4.797      9.673
REMARK INTER + INTRA:         -10.051
REMARK INTER:                  -8.662
REMARK INTRA:                  -1.389
REMARK UNBOUND:                -0.961
REMARK SMILES C=C(CC[C@@H](C)[C@H]1CC[C@@]2(C)[C@@H]3CC[C@@H]4C(C)(C)[C@@H](O)CC[C@@]45C[C@@]35CC[C@]12C)C(C)C
REMARK SMILES IDX 4 1 3 2 2 3 1 4 30 5 31 6 32 7 5 8 6 9 7 10 8 11 28 12 9 13
REMARK SMILES IDX 10 14 27 15 29 16 11 17 12 18 26 19 25 20 13 21 23 22 24 23
REMARK SMILES IDX 14 24 15 25 22 26 16 27 21 28 19 29 17 30 18 31 20 32
REMARK H PARENT 20 33
REMARK Flexibility Score: inf
ROOT
ATOM      1  C   UNL     1       1.757  23.898  53.999  1.00  0.00     0.008 C 
ENDROOT
BRANCH   1   2
ATOM      2  C   UNL     1       2.873  23.054  53.365  1.00  0.00     0.031 C 
BRANCH   2   3
ATOM      3  C   UNL     1       3.610  23.838  52.297  1.00  0.00    -0.075 C 
ATOM      4  C   UNL     1       4.950  23.929  52.358  1.00  0.00     0.008 C 
BRANCH   3   5
ATOM      5  C   UNL     1       2.851  24.578  51.205  1.00  0.00     0.008 C 
ATOM      6  C   UNL     1       2.583  23.662  50.007  1.00  0.00     0.012 C 
ATOM      7  C   UNL     1       3.590  25.850  50.772  1.00  0.00     0.012 C 
ENDBRANCH   3   5
ENDBRANCH   2   3
ENDBRANCH   1   2
BRANCH   1   8
ATOM      8  C   UNL     1       0.372  23.631  53.343  1.00  0.00    -0.010 C 
ATOM      9  C   UNL     1      -0.353  22.513  54.122  1.00  0.00     0.008 C 
BRANCH   8  10
ATOM     10  C   UNL     1      -0.564  24.889  53.212  1.00  0.00    -0.002 C 
ATOM     11  C   UNL     1       0.137  26.269  53.146  1.00  0.00     0.005 C 
ATOM     12  C   UNL     1      -1.612  24.913  52.053  1.00  0.00    -0.024 C 
ATOM     13  C   UNL     1      -0.707  27.153  52.211  1.00  0.00     0.008 C 
ATOM     14  C   UNL     1      -2.053  26.418  52.039  1.00  0.00    -0.024 C 
ATOM     15  C   UNL     1      -2.855  24.016  52.278  1.00  0.00     0.008 C 
ATOM     16  C   UNL     1      -0.933  24.452  50.717  1.00  0.00     0.012 C 
ATOM     17  C   UNL     1      -2.976  26.807  53.262  1.00  0.00     0.012 C 
ATOM     18  C   UNL     1      -2.804  26.736  50.702  1.00  0.00     0.002 C 
ATOM     19  C   UNL     1      -4.113  24.474  51.482  1.00  0.00     0.008 C 
ATOM     20  C   UNL     1      -3.907  25.633  50.431  1.00  0.00    -0.020 C 
ATOM     21  C   UNL     1      -3.300  28.222  50.635  1.00  0.00     0.005 C 
ATOM     22  C   UNL     1      -5.092  26.046  49.510  1.00  0.00    -0.020 C 
ATOM     23  C   UNL     1      -4.013  25.113  48.981  1.00  0.00     0.015 C 
ATOM     24  C   UNL     1      -4.758  28.406  50.196  1.00  0.00     0.005 C 
ATOM     25  C   UNL     1      -5.041  27.506  48.982  1.00  0.00     0.004 C 
ATOM     26  C   UNL     1      -6.454  25.470  49.971  1.00  0.00     0.010 C 
ATOM     27  C   UNL     1      -6.303  27.873  48.114  1.00  0.00    -0.006 C 
ATOM     28  C   UNL     1      -7.614  25.891  49.075  1.00  0.00     0.033 C 
ATOM     29  C   UNL     1      -7.612  27.405  48.818  1.00  0.00     0.120 C 
ATOM     30  C   UNL     1      -6.390  29.399  47.858  1.00  0.00     0.014 C 
ATOM     31  C   UNL     1      -6.152  27.196  46.723  1.00  0.00     0.014 C 
BRANCH  29  32
ATOM     32  O   UNL     1      -8.731  27.745  48.038  1.00  0.00    -0.393 OA
ATOM     33  H   UNL     1      -8.688  28.725  47.881  1.00  0.00     0.210 HD
ENDBRANCH  29  32
ENDBRANCH   8  10
ENDBRANCH   1   8
TORSDOF 6
ENDMDL
