MODEL 1
REMARK VINA RESULT:    37.249      0.000      0.000
REMARK INTER + INTRA:          56.448
REMARK INTER:                  54.670
REMARK INTRA:                   1.779
REMARK UNBOUND:                 1.779
REMARK SMILES O=c1c(O[C@@H]2O[C@@H](CO)[C@@H](O)[C@@H](O)[C@H]2O)c(-c2ccc(O)c(O)c2)oc2cc(O)cc(O)c12
REMARK SMILES IDX 4 1 3 2 16 3 25 4 2 5 26 6 1 7 33 8 27 9 31 10 28 11 30 12
REMARK SMILES IDX 17 13 18 14 19 15 20 16 24 17 22 18 21 19 23 21 32 23 29 25
REMARK SMILES IDX 5 27 14 28 6 29 12 30 7 31 10 32 15 33 13 35 8 37 9 38 11 40
REMARK H PARENT 21 20 23 22 32 24 29 26 15 34 13 36 9 39 11 41
REMARK Flexibility Score: inf
ROOT
ATOM      1  O   UNL     1       8.275  23.877  36.336  1.00  0.00    -0.454 OA
ENDROOT
BRANCH   1   2
ATOM      2  C   UNL     1       8.766  25.023  36.999  1.00  0.00     0.214 A 
ATOM      3  C   UNL     1       9.925  24.877  37.790  1.00  0.00     0.180 A 
ATOM      4  O   UNL     1      10.402  25.904  38.483  1.00  0.00    -0.452 OA
ATOM      5  C   UNL     1       8.149  26.296  36.955  1.00  0.00     0.239 A 
ATOM      6  C   UNL     1       9.856  27.111  38.466  1.00  0.00     0.146 A 
ATOM      7  O   UNL     1       7.104  26.479  36.277  1.00  0.00    -0.285 OA
ATOM      8  C   UNL     1       8.702  27.367  37.691  1.00  0.00     0.111 A 
ATOM      9  C   UNL     1      10.438  28.131  39.225  1.00  0.00     0.094 A 
ATOM     10  C   UNL     1       8.148  28.672  37.694  1.00  0.00     0.134 A 
ATOM     11  C   UNL     1       9.888  29.415  39.224  1.00  0.00     0.123 A 
ATOM     12  C   UNL     1       8.750  29.682  38.461  1.00  0.00     0.093 A 
BRANCH   3  13
ATOM     13  C   UNL     1      10.633  23.583  37.898  1.00  0.00     0.025 A 
ATOM     14  C   UNL     1      11.538  23.337  38.943  1.00  0.00     0.016 A 
ATOM     15  C   UNL     1      12.194  22.107  39.034  1.00  0.00     0.051 A 
ATOM     16  C   UNL     1      11.940  21.100  38.094  1.00  0.00     0.157 A 
ATOM     17  C   UNL     1      10.363  22.564  36.971  1.00  0.00     0.062 A 
ATOM     18  C   UNL     1      11.016  21.329  37.060  1.00  0.00     0.158 A 
BRANCH  16  19
ATOM     19  O   UNL     1      12.597  19.874  38.185  1.00  0.00    -0.504 OA
ATOM     20  H   UNL     1      12.090  18.996  38.153  1.00  0.00     0.293 HD
ENDBRANCH  16  19
BRANCH  18  21
ATOM     21  O   UNL     1      10.734  20.344  36.114  1.00  0.00    -0.504 OA
ATOM     22  H   UNL     1      11.279  20.239  35.267  1.00  0.00     0.293 HD
ENDBRANCH  18  21
ENDBRANCH   3  13
BRANCH  10  23
ATOM     23  O   UNL     1       7.012  28.974  36.944  1.00  0.00    -0.507 OA
ATOM     24  H   UNL     1       6.122  28.520  37.116  1.00  0.00     0.293 HD
ENDBRANCH  10  23
BRANCH  11  25
ATOM     25  O   UNL     1      10.465  30.435  39.978  1.00  0.00    -0.508 OA
ATOM     26  H   UNL     1      11.411  30.362  40.332  1.00  0.00     0.293 HD
ENDBRANCH  11  25
ENDBRANCH   1   2
BRANCH   1  27
ATOM     27  C   UNL     1       7.823  23.752  34.982  1.00  0.00     0.339 C 
ATOM     28  C   UNL     1       8.927  24.150  33.968  1.00  0.00     0.214 C 
ATOM     29  O   UNL     1       7.358  22.431  34.740  1.00  0.00    -0.332 OA
ATOM     30  C   UNL     1      10.054  23.105  33.954  1.00  0.00     0.180 C 
ATOM     31  C   UNL     1       8.395  21.474  34.892  1.00  0.00     0.179 C 
ATOM     32  C   UNL     1       9.484  21.680  33.821  1.00  0.00     0.177 C 
BRANCH  28  33
ATOM     33  O   UNL     1       8.370  24.267  32.684  1.00  0.00    -0.384 OA
ATOM     34  H   UNL     1       7.598  24.887  32.761  1.00  0.00     0.211 HD
ENDBRANCH  28  33
BRANCH  30  35
ATOM     35  O   UNL     1      10.947  23.385  32.906  1.00  0.00    -0.387 OA
ATOM     36  H   UNL     1      11.857  23.396  33.301  1.00  0.00     0.211 HD
ENDBRANCH  30  35
BRANCH  31  37
ATOM     37  C   UNL     1       7.793  20.064  34.801  1.00  0.00     0.191 C 
BRANCH  37  38
ATOM     38  O   UNL     1       6.420  20.101  35.084  1.00  0.00    -0.394 OA
ATOM     39  H   UNL     1       6.292  19.623  35.945  1.00  0.00     0.210 HD
ENDBRANCH  37  38
ENDBRANCH  31  37
BRANCH  32  40
ATOM     40  O   UNL     1       8.937  21.486  32.539  1.00  0.00    -0.387 OA
ATOM     41  H   UNL     1       9.419  20.719  32.133  1.00  0.00     0.211 HD
ENDBRANCH  32  40
ENDBRANCH   1  27
TORSDOF 12
ENDMDL
MODEL 2
REMARK VINA RESULT:    38.441      2.239      3.792
REMARK INTER + INTRA:          58.198
REMARK INTER:                  57.217
REMARK INTRA:                   0.981
REMARK UNBOUND:                 1.779
REMARK SMILES O=c1c(O[C@@H]2O[C@@H](CO)[C@@H](O)[C@@H](O)[C@H]2O)c(-c2ccc(O)c(O)c2)oc2cc(O)cc(O)c12
REMARK SMILES IDX 4 1 3 2 16 3 25 4 2 5 26 6 1 7 33 8 27 9 31 10 28 11 30 12
REMARK SMILES IDX 17 13 18 14 19 15 20 16 24 17 22 18 21 19 23 21 32 23 29 25
REMARK SMILES IDX 5 27 14 28 6 29 12 30 7 31 10 32 15 33 13 35 8 37 9 38 11 40
REMARK H PARENT 21 20 23 22 32 24 29 26 15 34 13 36 9 39 11 41
REMARK Flexibility Score: inf
ROOT
ATOM      1  O   UNL     1       6.968  22.921  36.898  1.00  0.00    -0.454 OA
ENDROOT
BRANCH   1   2
ATOM      2  C   UNL     1       7.603  24.119  37.290  1.00  0.00     0.214 A 
ATOM      3  C   UNL     1       8.664  24.591  36.489  1.00  0.00     0.180 A 
ATOM      4  O   UNL     1       9.339  25.681  36.837  1.00  0.00    -0.452 OA
ATOM      5  C   UNL     1       7.274  24.853  38.455  1.00  0.00     0.239 A 
ATOM      6  C   UNL     1       9.060  26.397  37.917  1.00  0.00     0.146 A 
ATOM      7  O   UNL     1       6.346  24.469  39.214  1.00  0.00    -0.285 OA
ATOM      8  C   UNL     1       8.004  26.019  38.777  1.00  0.00     0.111 A 
ATOM      9  C   UNL     1       9.824  27.534  38.193  1.00  0.00     0.094 A 
ATOM     10  C   UNL     1       7.732  26.813  39.920  1.00  0.00     0.134 A 
ATOM     11  C   UNL     1       9.551  28.313  39.321  1.00  0.00     0.123 A 
ATOM     12  C   UNL     1       8.509  27.952  40.178  1.00  0.00     0.093 A 
BRANCH   3  13
ATOM     13  C   UNL     1       9.079  23.887  35.257  1.00  0.00     0.025 A 
ATOM     14  C   UNL     1       8.899  24.470  33.993  1.00  0.00     0.016 A 
ATOM     15  C   UNL     1       9.303  23.794  32.839  1.00  0.00     0.051 A 
ATOM     16  C   UNL     1       9.911  22.535  32.934  1.00  0.00     0.157 A 
ATOM     17  C   UNL     1       9.711  22.637  35.351  1.00  0.00     0.062 A 
ATOM     18  C   UNL     1      10.120  21.957  34.198  1.00  0.00     0.158 A 
BRANCH  16  19
ATOM     19  O   UNL     1      10.312  21.862  31.782  1.00  0.00    -0.504 OA
ATOM     20  H   UNL     1      11.180  21.338  31.748  1.00  0.00     0.293 HD
ENDBRANCH  16  19
BRANCH  18  21
ATOM     21  O   UNL     1      10.731  20.710  34.327  1.00  0.00    -0.504 OA
ATOM     22  H   UNL     1      10.859  20.089  33.538  1.00  0.00     0.293 HD
ENDBRANCH  18  21
ENDBRANCH   3  13
BRANCH  10  23
ATOM     23  O   UNL     1       6.699  26.481  40.797  1.00  0.00    -0.507 OA
ATOM     24  H   UNL     1       5.752  26.813  40.655  1.00  0.00     0.293 HD
ENDBRANCH  10  23
BRANCH  11  25
ATOM     25  O   UNL     1      10.309  29.448  39.601  1.00  0.00    -0.508 OA
ATOM     26  H   UNL     1      10.989  29.459  40.352  1.00  0.00     0.293 HD
ENDBRANCH  11  25
ENDBRANCH   1   2
BRANCH   1  27
ATOM     27  C   UNL     1       6.503  22.539  35.597  1.00  0.00     0.339 C 
ATOM     28  C   UNL     1       7.231  21.273  35.075  1.00  0.00     0.214 C 
ATOM     29  O   UNL     1       5.095  22.349  35.616  1.00  0.00    -0.332 OA
ATOM     30  C   UNL     1       6.798  20.030  35.871  1.00  0.00     0.180 C 
ATOM     31  C   UNL     1       4.719  21.294  36.487  1.00  0.00     0.179 C 
ATOM     32  C   UNL     1       5.263  19.946  35.971  1.00  0.00     0.177 C 
BRANCH  28  33
ATOM     33  O   UNL     1       6.943  21.090  33.713  1.00  0.00    -0.384 OA
ATOM     34  H   UNL     1       6.671  21.975  33.355  1.00  0.00     0.211 HD
ENDBRANCH  28  33
BRANCH  30  35
ATOM     35  O   UNL     1       7.323  18.875  35.268  1.00  0.00    -0.387 OA
ATOM     36  H   UNL     1       6.819  18.104  35.640  1.00  0.00     0.211 HD
ENDBRANCH  30  35
BRANCH  31  37
ATOM     37  C   UNL     1       3.189  21.261  36.604  1.00  0.00     0.191 C 
BRANCH  37  38
ATOM     38  O   UNL     1       2.598  21.603  35.379  1.00  0.00    -0.394 OA
ATOM     39  H   UNL     1       1.690  21.202  35.376  1.00  0.00     0.210 HD
ENDBRANCH  37  38
ENDBRANCH  31  37
BRANCH  32  40
ATOM     40  O   UNL     1       4.703  19.654  34.714  1.00  0.00    -0.387 OA
ATOM     41  H   UNL     1       5.452  19.623  34.063  1.00  0.00     0.211 HD
ENDBRANCH  32  40
ENDBRANCH   1  27
TORSDOF 12
ENDMDL
