MODEL 1
REMARK VINA RESULT:    -3.235      0.000      0.000
REMARK INTER + INTRA:          -4.908
REMARK INTER:                  -4.369
REMARK INTRA:                  -0.539
REMARK UNBOUND:                -0.539
REMARK SMILES [NH3+]CCCC[C@H]([NH3+])C(=O)[O-]
REMARK SMILES IDX 4 1 3 2 2 3 1 4 5 8 6 9 7 10 8 14 9 15 10 16
REMARK H PARENT 1 5 1 6 1 7 7 11 7 12 7 13
REMARK Flexibility Score: inf
ROOT
ATOM      1  C   UNL     1      88.325 132.616  59.595  1.00  0.00     0.012 C 
ENDROOT
BRANCH   1   2
ATOM      2  C   UNL     1      88.619 133.244  58.224  1.00  0.00     0.061 C 
BRANCH   2   3
ATOM      3  C   UNL     1      88.820 132.164  57.154  1.00  0.00     0.258 C 
BRANCH   3   4
ATOM      4  N   UNL     1      87.566 131.877  56.457  1.00  0.00    -0.358 N 
ATOM      5  H   UNL     1      86.826 131.607  57.146  1.00  0.00     0.344 HD
ATOM      6  H   UNL     1      87.716 131.084  55.793  1.00  0.00     0.344 HD
ATOM      7  H   UNL     1      87.255 132.717  55.916  1.00  0.00     0.344 HD
ENDBRANCH   3   4
ENDBRANCH   2   3
ENDBRANCH   1   2
BRANCH   1   8
ATOM      8  C   UNL     1      86.872 132.868  60.058  1.00  0.00     0.072 C 
BRANCH   8   9
ATOM      9  C   UNL     1      86.116 133.970  59.276  1.00  0.00     0.227 C 
BRANCH   9  10
ATOM     10  N   UNL     1      85.777 135.121  60.123  1.00  0.00    -0.350 N 
ATOM     11  H   UNL     1      85.772 134.825  61.127  1.00  0.00     0.345 HD
ATOM     12  H   UNL     1      84.820 135.467  59.883  1.00  0.00     0.345 HD
ATOM     13  H   UNL     1      86.467 135.896  60.006  1.00  0.00     0.345 HD
ENDBRANCH   9  10
BRANCH   9  14
ATOM     14  C   UNL     1      84.900 133.414  58.576  1.00  0.00     0.099 C 
ATOM     15  O   UNL     1      85.008 132.510  57.705  1.00  0.00    -0.544 OA
ATOM     16  O   UNL     1      83.645 133.937  58.863  1.00  0.00    -0.544 OA
ENDBRANCH   9  14
ENDBRANCH   8   9
ENDBRANCH   1   8
TORSDOF 7
ENDMDL
MODEL 2
REMARK VINA RESULT:    -3.103      2.300      4.004
REMARK INTER + INTRA:          -4.731
REMARK INTER:                  -4.178
REMARK INTRA:                  -0.553
REMARK UNBOUND:                -0.539
REMARK SMILES [NH3+]CCCC[C@H]([NH3+])C(=O)[O-]
REMARK SMILES IDX 4 1 3 2 2 3 1 4 5 8 6 9 7 10 8 14 9 15 10 16
REMARK H PARENT 1 5 1 6 1 7 7 11 7 12 7 13
REMARK Flexibility Score: inf
ROOT
ATOM      1  C   UNL     1      87.248 134.894  56.745  1.00  0.00     0.012 C 
ENDROOT
BRANCH   1   2
ATOM      2  C   UNL     1      86.616 136.000  57.604  1.00  0.00     0.061 C 
BRANCH   2   3
ATOM      3  C   UNL     1      85.450 135.453  58.437  1.00  0.00     0.258 C 
BRANCH   3   4
ATOM      4  N   UNL     1      85.800 135.399  59.856  1.00  0.00    -0.358 N 
ATOM      5  H   UNL     1      85.940 134.406  60.153  1.00  0.00     0.344 HD
ATOM      6  H   UNL     1      85.022 135.813  60.417  1.00  0.00     0.344 HD
ATOM      7  H   UNL     1      86.674 135.947  60.032  1.00  0.00     0.344 HD
ENDBRANCH   3   4
ENDBRANCH   2   3
ENDBRANCH   1   2
BRANCH   1   8
ATOM      8  C   UNL     1      88.407 134.175  57.472  1.00  0.00     0.072 C 
BRANCH   8   9
ATOM      9  C   UNL     1      88.091 132.736  57.946  1.00  0.00     0.227 C 
BRANCH   9  10
ATOM     10  N   UNL     1      86.861 132.208  57.343  1.00  0.00    -0.350 N 
ATOM     11  H   UNL     1      86.569 132.825  56.549  1.00  0.00     0.345 HD
ATOM     12  H   UNL     1      86.091 132.206  58.051  1.00  0.00     0.345 HD
ATOM     13  H   UNL     1      87.001 131.239  56.979  1.00  0.00     0.345 HD
ENDBRANCH   9  10
BRANCH   9  14
ATOM     14  C   UNL     1      88.056 132.646  59.453  1.00  0.00     0.099 C 
ATOM     15  O   UNL     1      89.120 132.584  60.124  1.00  0.00    -0.544 OA
ATOM     16  O   UNL     1      86.833 132.586  60.108  1.00  0.00    -0.544 OA
ENDBRANCH   9  14
ENDBRANCH   8   9
ENDBRANCH   1   8
TORSDOF 7
ENDMDL
MODEL 3
REMARK VINA RESULT:    -3.076      1.900      2.179
REMARK INTER + INTRA:          -4.694
REMARK INTER:                  -4.164
REMARK INTRA:                  -0.530
REMARK UNBOUND:                -0.539
REMARK SMILES [NH3+]CCCC[C@H]([NH3+])C(=O)[O-]
REMARK SMILES IDX 4 1 3 2 2 3 1 4 5 8 6 9 7 10 8 14 9 15 10 16
REMARK H PARENT 1 5 1 6 1 7 7 11 7 12 7 13
REMARK Flexibility Score: inf
ROOT
ATOM      1  C   UNL     1      87.514 133.501  59.988  1.00  0.00     0.012 C 
ENDROOT
BRANCH   1   2
ATOM      2  C   UNL     1      88.729 132.688  59.517  1.00  0.00     0.061 C 
BRANCH   2   3
ATOM      3  C   UNL     1      89.105 133.044  58.073  1.00  0.00     0.258 C 
BRANCH   3   4
ATOM      4  N   UNL     1      89.101 134.492  57.872  1.00  0.00    -0.358 N 
ATOM      5  H   UNL     1      89.757 134.950  58.546  1.00  0.00     0.344 HD
ATOM      6  H   UNL     1      88.136 134.859  58.037  1.00  0.00     0.344 HD
ATOM      7  H   UNL     1      89.386 134.720  56.891  1.00  0.00     0.344 HD
ENDBRANCH   3   4
ENDBRANCH   2   3
ENDBRANCH   1   2
BRANCH   1   8
ATOM      8  C   UNL     1      86.188 132.724  59.824  1.00  0.00     0.072 C 
BRANCH   8   9
ATOM      9  C   UNL     1      85.374 133.076  58.555  1.00  0.00     0.227 C 
BRANCH   9  10
ATOM     10  N   UNL     1      85.756 132.250  57.402  1.00  0.00    -0.350 N 
ATOM     11  H   UNL     1      85.462 132.728  56.519  1.00  0.00     0.345 HD
ATOM     12  H   UNL     1      85.267 131.327  57.450  1.00  0.00     0.345 HD
ATOM     13  H   UNL     1      86.789 132.096  57.371  1.00  0.00     0.345 HD
ENDBRANCH   9  10
BRANCH   9  14
ATOM     14  C   UNL     1      85.456 134.550  58.238  1.00  0.00     0.099 C 
ATOM     15  O   UNL     1      86.130 134.966  57.258  1.00  0.00    -0.544 OA
ATOM     16  O   UNL     1      84.815 135.466  59.062  1.00  0.00    -0.544 OA
ENDBRANCH   9  14
ENDBRANCH   8   9
ENDBRANCH   1   8
TORSDOF 7
ENDMDL
MODEL 4
REMARK VINA RESULT:    -2.995      2.181      3.405
REMARK INTER + INTRA:          -4.585
REMARK INTER:                  -4.096
REMARK INTRA:                  -0.489
REMARK UNBOUND:                -0.539
REMARK SMILES [NH3+]CCCC[C@H]([NH3+])C(=O)[O-]
REMARK SMILES IDX 4 1 3 2 2 3 1 4 5 8 6 9 7 10 8 14 9 15 10 16
REMARK H PARENT 1 5 1 6 1 7 7 11 7 12 7 13
REMARK Flexibility Score: inf
ROOT
ATOM      1  C   UNL     1      88.803 132.626  58.452  1.00  0.00     0.012 C 
ENDROOT
BRANCH   1   2
ATOM      2  C   UNL     1      88.222 132.876  59.852  1.00  0.00     0.061 C 
BRANCH   2   3
ATOM      3  C   UNL     1      86.719 133.171  59.782  1.00  0.00     0.258 C 
BRANCH   3   4
ATOM      4  N   UNL     1      86.453 134.593  59.998  1.00  0.00    -0.358 N 
ATOM      5  H   UNL     1      85.836 134.721  60.833  1.00  0.00     0.344 HD
ATOM      6  H   UNL     1      85.969 134.983  59.158  1.00  0.00     0.344 HD
ATOM      7  H   UNL     1      87.352 135.109  60.140  1.00  0.00     0.344 HD
ENDBRANCH   3   4
ENDBRANCH   2   3
ENDBRANCH   1   2
BRANCH   1   8
ATOM      8  C   UNL     1      87.722 132.676  57.349  1.00  0.00     0.072 C 
BRANCH   8   9
ATOM      9  C   UNL     1      87.827 133.880  56.382  1.00  0.00     0.227 C 
BRANCH   9  10
ATOM     10  N   UNL     1      88.886 134.819  56.775  1.00  0.00    -0.350 N 
ATOM     11  H   UNL     1      88.454 135.679  57.188  1.00  0.00     0.345 HD
ATOM     12  H   UNL     1      89.436 135.106  55.933  1.00  0.00     0.345 HD
ATOM     13  H   UNL     1      89.528 134.394  57.481  1.00  0.00     0.345 HD
ENDBRANCH   9  10
BRANCH   9  14
ATOM     14  C   UNL     1      86.497 134.576  56.219  1.00  0.00     0.099 C 
ATOM     15  O   UNL     1      86.092 135.409  57.073  1.00  0.00    -0.544 OA
ATOM     16  O   UNL     1      85.687 134.262  55.135  1.00  0.00    -0.544 OA
ENDBRANCH   9  14
ENDBRANCH   8   9
ENDBRANCH   1   8
TORSDOF 7
ENDMDL
MODEL 5
REMARK VINA RESULT:    -2.993      2.069      3.810
REMARK INTER + INTRA:          -4.583
REMARK INTER:                  -4.068
REMARK INTRA:                  -0.515
REMARK UNBOUND:                -0.539
REMARK SMILES [NH3+]CCCC[C@H]([NH3+])C(=O)[O-]
REMARK SMILES IDX 4 1 3 2 2 3 1 4 5 8 6 9 7 10 8 14 9 15 10 16
REMARK H PARENT 1 5 1 6 1 7 7 11 7 12 7 13
REMARK Flexibility Score: inf
ROOT
ATOM      1  C   UNL     1      87.864 133.118  59.630  1.00  0.00     0.012 C 
ENDROOT
BRANCH   1   2
ATOM      2  C   UNL     1      86.753 134.173  59.742  1.00  0.00     0.061 C 
BRANCH   2   3
ATOM      3  C   UNL     1      85.369 133.515  59.793  1.00  0.00     0.258 C 
BRANCH   3   4
ATOM      4  N   UNL     1      85.363 132.251  59.058  1.00  0.00    -0.358 N 
ATOM      5  H   UNL     1      85.581 131.458  59.704  1.00  0.00     0.344 HD
ATOM      6  H   UNL     1      86.090 132.287  58.308  1.00  0.00     0.344 HD
ATOM      7  H   UNL     1      84.427 132.098  58.614  1.00  0.00     0.344 HD
ENDBRANCH   3   4
ENDBRANCH   2   3
ENDBRANCH   1   2
BRANCH   1   8
ATOM      8  C   UNL     1      88.789 133.365  58.417  1.00  0.00     0.072 C 
BRANCH   8   9
ATOM      9  C   UNL     1      88.599 132.381  57.237  1.00  0.00     0.227 C 
BRANCH   9  10
ATOM     10  N   UNL     1      89.879 131.876  56.722  1.00  0.00    -0.350 N 
ATOM     11  H   UNL     1      89.757 131.568  55.729  1.00  0.00     0.345 HD
ATOM     12  H   UNL     1      90.184 131.047  57.282  1.00  0.00     0.345 HD
ATOM     13  H   UNL     1      90.619 132.612  56.756  1.00  0.00     0.345 HD
ENDBRANCH   9  10
BRANCH   9  14
ATOM     14  C   UNL     1      87.758 132.990  56.141  1.00  0.00     0.099 C 
ATOM     15  O   UNL     1      88.278 133.362  55.055  1.00  0.00    -0.544 OA
ATOM     16  O   UNL     1      86.399 133.185  56.347  1.00  0.00    -0.544 OA
ENDBRANCH   9  14
ENDBRANCH   8   9
ENDBRANCH   1   8
TORSDOF 7
ENDMDL
MODEL 6
REMARK VINA RESULT:    -2.963      2.143      3.488
REMARK INTER + INTRA:          -4.541
REMARK INTER:                  -4.103
REMARK INTRA:                  -0.437
REMARK UNBOUND:                -0.539
REMARK SMILES [NH3+]CCCC[C@H]([NH3+])C(=O)[O-]
REMARK SMILES IDX 4 1 3 2 2 3 1 4 5 8 6 9 7 10 8 14 9 15 10 16
REMARK H PARENT 1 5 1 6 1 7 7 11 7 12 7 13
REMARK Flexibility Score: inf
ROOT
ATOM      1  C   UNL     1      85.518 133.347  60.084  1.00  0.00     0.012 C 
ENDROOT
BRANCH   1   2
ATOM      2  C   UNL     1      84.435 132.638  59.256  1.00  0.00     0.061 C 
BRANCH   2   3
ATOM      3  C   UNL     1      84.140 133.405  57.961  1.00  0.00     0.258 C 
BRANCH   3   4
ATOM      4  N   UNL     1      84.419 132.577  56.788  1.00  0.00    -0.358 N 
ATOM      5  H   UNL     1      83.582 131.995  56.551  1.00  0.00     0.344 HD
ATOM      6  H   UNL     1      85.223 131.943  56.998  1.00  0.00     0.344 HD
ATOM      7  H   UNL     1      84.670 133.183  55.972  1.00  0.00     0.344 HD
ENDBRANCH   3   4
ENDBRANCH   2   3
ENDBRANCH   1   2
BRANCH   1   8
ATOM      8  C   UNL     1      86.842 132.552  60.122  1.00  0.00     0.072 C 
BRANCH   8   9
ATOM      9  C   UNL     1      88.054 133.267  59.476  1.00  0.00     0.227 C 
BRANCH   9  10
ATOM     10  N   UNL     1      87.912 134.728  59.491  1.00  0.00    -0.350 N 
ATOM     11  H   UNL     1      87.269 135.024  58.720  1.00  0.00     0.345 HD
ATOM     12  H   UNL     1      88.842 135.177  59.326  1.00  0.00     0.345 HD
ATOM     13  H   UNL     1      87.521 135.063  60.400  1.00  0.00     0.345 HD
ENDBRANCH   9  10
BRANCH   9  14
ATOM     14  C   UNL     1      88.324 132.747  58.085  1.00  0.00     0.099 C 
ATOM     15  O   UNL     1      89.410 132.174  57.805  1.00  0.00    -0.544 OA
ATOM     16  O   UNL     1      87.379 132.940  57.085  1.00  0.00    -0.544 OA
ENDBRANCH   9  14
ENDBRANCH   8   9
ENDBRANCH   1   8
TORSDOF 7
ENDMDL
MODEL 7
REMARK VINA RESULT:    -2.953      2.588      4.248
REMARK INTER + INTRA:          -4.529
REMARK INTER:                  -4.138
REMARK INTRA:                  -0.391
REMARK UNBOUND:                -0.539
REMARK SMILES [NH3+]CCCC[C@H]([NH3+])C(=O)[O-]
REMARK SMILES IDX 4 1 3 2 2 3 1 4 5 8 6 9 7 10 8 14 9 15 10 16
REMARK H PARENT 1 5 1 6 1 7 7 11 7 12 7 13
REMARK Flexibility Score: inf
ROOT
ATOM      1  C   UNL     1      89.054 132.302  57.991  1.00  0.00     0.012 C 
ENDROOT
BRANCH   1   2
ATOM      2  C   UNL     1      88.715 132.620  59.456  1.00  0.00     0.061 C 
BRANCH   2   3
ATOM      3  C   UNL     1      87.464 133.502  59.554  1.00  0.00     0.258 C 
BRANCH   3   4
ATOM      4  N   UNL     1      87.815 134.919  59.473  1.00  0.00    -0.358 N 
ATOM      5  H   UNL     1      87.762 135.246  58.480  1.00  0.00     0.344 HD
ATOM      6  H   UNL     1      88.791 135.051  59.820  1.00  0.00     0.344 HD
ATOM      7  H   UNL     1      87.165 135.485  60.067  1.00  0.00     0.344 HD
ENDBRANCH   3   4
ENDBRANCH   2   3
ENDBRANCH   1   2
BRANCH   1   8
ATOM      8  C   UNL     1      87.812 132.361  57.074  1.00  0.00     0.072 C 
BRANCH   8   9
ATOM      9  C   UNL     1      88.106 132.718  55.596  1.00  0.00     0.227 C 
BRANCH   9  10
ATOM     10  N   UNL     1      89.382 132.159  55.131  1.00  0.00    -0.350 N 
ATOM     11  H   UNL     1      90.124 132.895  55.182  1.00  0.00     0.345 HD
ATOM     12  H   UNL     1      89.294 131.856  54.134  1.00  0.00     0.345 HD
ATOM     13  H   UNL     1      89.676 131.346  55.716  1.00  0.00     0.345 HD
ENDBRANCH   9  10
BRANCH   9  14
ATOM     14  C   UNL     1      88.031 134.208  55.362  1.00  0.00     0.099 C 
ATOM     15  O   UNL     1      88.434 134.716  54.282  1.00  0.00    -0.544 OA
ATOM     16  O   UNL     1      87.553 135.037  56.369  1.00  0.00    -0.544 OA
ENDBRANCH   9  14
ENDBRANCH   8   9
ENDBRANCH   1   8
TORSDOF 7
ENDMDL
MODEL 8
REMARK VINA RESULT:    -2.795      2.516      4.332
REMARK INTER + INTRA:          -4.315
REMARK INTER:                  -3.804
REMARK INTRA:                  -0.510
REMARK UNBOUND:                -0.539
REMARK SMILES [NH3+]CCCC[C@H]([NH3+])C(=O)[O-]
REMARK SMILES IDX 4 1 3 2 2 3 1 4 5 8 6 9 7 10 8 14 9 15 10 16
REMARK H PARENT 1 5 1 6 1 7 7 11 7 12 7 13
REMARK Flexibility Score: inf
ROOT
ATOM      1  C   UNL     1      84.762 132.621  57.678  1.00  0.00     0.012 C 
ENDROOT
BRANCH   1   2
ATOM      2  C   UNL     1      84.609 133.072  59.138  1.00  0.00     0.061 C 
BRANCH   2   3
ATOM      3  C   UNL     1      84.879 134.574  59.284  1.00  0.00     0.258 C 
BRANCH   3   4
ATOM      4  N   UNL     1      86.054 134.818  60.119  1.00  0.00    -0.358 N 
ATOM      5  H   UNL     1      85.873 135.616  60.770  1.00  0.00     0.344 HD
ATOM      6  H   UNL     1      86.866 135.058  59.507  1.00  0.00     0.344 HD
ATOM      7  H   UNL     1      86.288 133.959  60.670  1.00  0.00     0.344 HD
ENDBRANCH   3   4
ENDBRANCH   2   3
ENDBRANCH   1   2
BRANCH   1   8
ATOM      8  C   UNL     1      85.520 133.657  56.818  1.00  0.00     0.072 C 
BRANCH   8   9
ATOM      9  C   UNL     1      86.969 133.263  56.441  1.00  0.00     0.227 C 
BRANCH   9  10
ATOM     10  N   UNL     1      87.282 131.876  56.809  1.00  0.00    -0.350 N 
ATOM     11  H   UNL     1      88.019 131.870  57.552  1.00  0.00     0.345 HD
ATOM     12  H   UNL     1      87.657 131.365  55.977  1.00  0.00     0.345 HD
ATOM     13  H   UNL     1      86.438 131.379  57.171  1.00  0.00     0.345 HD
ENDBRANCH   9  10
BRANCH   9  14
ATOM     14  C   UNL     1      87.972 134.233  57.018  1.00  0.00     0.099 C 
ATOM     15  O   UNL     1      88.392 134.107  58.199  1.00  0.00    -0.544 OA
ATOM     16  O   UNL     1      88.407 135.307  56.251  1.00  0.00    -0.544 OA
ENDBRANCH   9  14
ENDBRANCH   8   9
ENDBRANCH   1   8
TORSDOF 7
ENDMDL
