MODEL 1
REMARK VINA RESULT:    -5.878      0.000      0.000
REMARK INTER + INTRA:          -5.878
REMARK INTER:                  -5.878
REMARK INTRA:                   0.000
REMARK UNBOUND:                 0.000
REMARK SMILES C[C@@H]1C(=O)CC[C@H]2[C@]3(C)CC[C@]4(C)[C@H]5CC(C)(C)CC[C@@]5(C)CC[C@]4(C)[C@@H]3CC[C@]21C
REMARK SMILES IDX 1 1 2 2 3 3 4 4 5 5 6 6 7 7 30 8 29 9 28 10 27 11 8 12 10 13
REMARK SMILES IDX 11 14 12 15 25 16 24 17 23 18 21 19 14 20 15 21 16 22 19 23
REMARK SMILES IDX 20 24 17 25 18 26 22 27 26 28 13 29 9 30 31 31
REMARK H PARENT
REMARK Flexibility Score: inf
ROOT
ATOM      1  C   UNL     1     143.122 146.267 140.304  1.00  0.00     0.016 C 
ATOM      2  C   UNL     1     141.722 145.802 140.774  1.00  0.00     0.059 C 
ATOM      3  C   UNL     1     141.388 146.531 142.035  1.00  0.00     0.136 C 
ATOM      4  O   UNL     1     140.546 147.416 142.049  1.00  0.00    -0.299 OA
ATOM      5  C   UNL     1     142.145 146.175 143.259  1.00  0.00     0.076 C 
ATOM      6  C   UNL     1     142.009 144.681 143.514  1.00  0.00     0.012 C 
ATOM      7  C   UNL     1     142.328 143.733 142.285  1.00  0.00     0.002 C 
ATOM      8  C   UNL     1     141.584 144.236 140.969  1.00  0.00    -0.020 C 
ATOM      9  C   UNL     1     140.085 143.885 141.127  1.00  0.00     0.008 C 
ATOM     10  C   UNL     1     139.830 142.400 141.427  1.00  0.00     0.005 C 
ATOM     11  C   UNL     1     140.529 141.847 142.704  1.00  0.00     0.002 C 
ATOM     12  C   UNL     1     142.061 142.192 142.695  1.00  0.00    -0.026 C 
ATOM     13  C   UNL     1     142.744 141.215 141.721  1.00  0.00     0.008 C 
ATOM     14  C   UNL     1     142.586 139.716 142.046  1.00  0.00     0.008 C 
ATOM     15  C   UNL     1     141.237 139.145 142.694  1.00  0.00    -0.024 C 
ATOM     16  C   UNL     1     140.148 140.310 143.096  1.00  0.00    -0.024 C 
ATOM     17  C   UNL     1     138.732 139.903 142.555  1.00  0.00     0.008 C 
ATOM     18  C   UNL     1     138.611 139.515 141.073  1.00  0.00     0.007 C 
ATOM     19  C   UNL     1     139.656 138.478 140.559  1.00  0.00    -0.029 C 
ATOM     20  C   UNL     1     140.632 137.990 141.710  1.00  0.00     0.002 C 
ATOM     21  C   UNL     1     140.013 136.703 142.382  1.00  0.00     0.011 C 
ATOM     22  C   UNL     1     139.907 135.492 141.393  1.00  0.00    -0.035 C 
ATOM     23  C   UNL     1     139.658 135.972 139.937  1.00  0.00     0.007 C 
ATOM     24  C   UNL     1     138.861 137.275 139.923  1.00  0.00     0.007 C 
ATOM     25  C   UNL     1     141.213 134.662 141.424  1.00  0.00     0.011 C 
ATOM     26  C   UNL     1     138.751 134.573 141.848  1.00  0.00     0.011 C 
ATOM     27  C   UNL     1     140.482 139.102 139.407  1.00  0.00     0.011 C 
ATOM     28  C   UNL     1     139.888 140.355 144.650  1.00  0.00     0.012 C 
ATOM     29  C   UNL     1     141.752 138.374 143.969  1.00  0.00     0.012 C 
ATOM     30  C   UNL     1     142.725 141.977 144.089  1.00  0.00     0.012 C 
ATOM     31  C   UNL     1     142.128 143.600 139.645  1.00  0.00     0.012 C 
ENDROOT
TORSDOF 0
ENDMDL
MODEL 2
REMARK VINA RESULT:    -5.837      2.587      7.685
REMARK INTER + INTRA:          -5.837
REMARK INTER:                  -5.837
REMARK INTRA:                   0.000
REMARK UNBOUND:                 0.000
REMARK SMILES C[C@@H]1C(=O)CC[C@H]2[C@]3(C)CC[C@]4(C)[C@H]5CC(C)(C)CC[C@@]5(C)CC[C@]4(C)[C@@H]3CC[C@]21C
REMARK SMILES IDX 1 1 2 2 3 3 4 4 5 5 6 6 7 7 30 8 29 9 28 10 27 11 8 12 10 13
REMARK SMILES IDX 11 14 12 15 25 16 24 17 23 18 21 19 14 20 15 21 16 22 19 23
REMARK SMILES IDX 20 24 17 25 18 26 22 27 26 28 13 29 9 30 31 31
REMARK H PARENT
REMARK Flexibility Score: inf
ROOT
ATOM      1  C   UNL     1     138.387 135.750 140.335  1.00  0.00     0.016 C 
ATOM      2  C   UNL     1     139.814 136.184 140.751  1.00  0.00     0.059 C 
ATOM      3  C   UNL     1     140.198 135.411 141.971  1.00  0.00     0.136 C 
ATOM      4  O   UNL     1     141.029 134.517 141.917  1.00  0.00    -0.299 OA
ATOM      5  C   UNL     1     139.506 135.737 143.240  1.00  0.00     0.076 C 
ATOM      6  C   UNL     1     139.673 137.220 143.535  1.00  0.00     0.012 C 
ATOM      7  C   UNL     1     139.308 138.210 142.354  1.00  0.00     0.002 C 
ATOM      8  C   UNL     1     139.982 137.741 140.988  1.00  0.00    -0.020 C 
ATOM      9  C   UNL     1     141.490 138.070 141.083  1.00  0.00     0.008 C 
ATOM     10  C   UNL     1     141.779 139.542 141.417  1.00  0.00     0.005 C 
ATOM     11  C   UNL     1     141.149 140.061 142.744  1.00  0.00     0.002 C 
ATOM     12  C   UNL     1     139.614 139.735 142.798  1.00  0.00    -0.026 C 
ATOM     13  C   UNL     1     138.898 140.750 141.889  1.00  0.00     0.008 C 
ATOM     14  C   UNL     1     139.091 142.235 142.253  1.00  0.00     0.008 C 
ATOM     15  C   UNL     1     140.477 142.770 142.852  1.00  0.00    -0.024 C 
ATOM     16  C   UNL     1     141.569 141.580 143.164  1.00  0.00    -0.024 C 
ATOM     17  C   UNL     1     142.961 141.989 142.568  1.00  0.00     0.008 C 
ATOM     18  C   UNL     1     143.016 142.422 141.094  1.00  0.00     0.007 C 
ATOM     19  C   UNL     1     141.961 143.487 140.665  1.00  0.00    -0.029 C 
ATOM     20  C   UNL     1     141.048 143.949 141.876  1.00  0.00     0.002 C 
ATOM     21  C   UNL     1     141.715 145.207 142.558  1.00  0.00     0.011 C 
ATOM     22  C   UNL     1     141.789 146.447 141.603  1.00  0.00    -0.035 C 
ATOM     23  C   UNL     1     141.962 146.011 140.122  1.00  0.00     0.007 C 
ATOM     24  C   UNL     1     142.740 144.701 140.029  1.00  0.00     0.007 C 
ATOM     25  C   UNL     1     140.497 147.291 141.723  1.00  0.00     0.011 C 
ATOM     26  C   UNL     1     142.978 147.338 142.029  1.00  0.00     0.011 C 
ATOM     27  C   UNL     1     141.073 142.909 139.535  1.00  0.00     0.011 C 
ATOM     28  C   UNL     1     141.902 141.484 144.702  1.00  0.00     0.012 C 
ATOM     29  C   UNL     1     140.033 143.506 144.174  1.00  0.00     0.012 C 
ATOM     30  C   UNL     1     139.021 139.912 144.229  1.00  0.00     0.012 C 
ATOM     31  C   UNL     1     139.383 138.425 139.712  1.00  0.00     0.012 C 
ENDROOT
TORSDOF 0
ENDMDL
MODEL 3
REMARK VINA RESULT:    -5.813      3.023      5.461
REMARK INTER + INTRA:          -5.813
REMARK INTER:                  -5.813
REMARK INTRA:                   0.000
REMARK UNBOUND:                 0.000
REMARK SMILES C[C@@H]1C(=O)CC[C@H]2[C@]3(C)CC[C@]4(C)[C@H]5CC(C)(C)CC[C@@]5(C)CC[C@]4(C)[C@@H]3CC[C@]21C
REMARK SMILES IDX 1 1 2 2 3 3 4 4 5 5 6 6 7 7 30 8 29 9 28 10 27 11 8 12 10 13
REMARK SMILES IDX 11 14 12 15 25 16 24 17 23 18 21 19 14 20 15 21 16 22 19 23
REMARK SMILES IDX 20 24 17 25 18 26 22 27 26 28 13 29 9 30 31 31
REMARK H PARENT
REMARK Flexibility Score: inf
ROOT
ATOM      1  C   UNL     1     146.266 138.495 140.303  1.00  0.00     0.016 C 
ATOM      2  C   UNL     1     145.812 139.907 140.749  1.00  0.00     0.059 C 
ATOM      3  C   UNL     1     146.537 140.252 142.009  1.00  0.00     0.136 C 
ATOM      4  O   UNL     1     147.430 141.086 142.016  1.00  0.00    -0.299 OA
ATOM      5  C   UNL     1     146.166 139.518 143.242  1.00  0.00     0.076 C 
ATOM      6  C   UNL     1     144.672 139.673 143.486  1.00  0.00     0.012 C 
ATOM      7  C   UNL     1     143.728 139.345 142.257  1.00  0.00     0.002 C 
ATOM      8  C   UNL     1     144.246 140.064 140.933  1.00  0.00    -0.020 C 
ATOM      9  C   UNL     1     143.910 141.568 141.065  1.00  0.00     0.008 C 
ATOM     10  C   UNL     1     142.425 141.843 141.352  1.00  0.00     0.005 C 
ATOM     11  C   UNL     1     141.858 141.169 142.637  1.00  0.00     0.002 C 
ATOM     12  C   UNL     1     142.187 139.633 142.652  1.00  0.00    -0.026 C 
ATOM     13  C   UNL     1     141.209 138.946 141.683  1.00  0.00     0.008 C 
ATOM     14  C   UNL     1     139.710 139.124 141.997  1.00  0.00     0.008 C 
ATOM     15  C   UNL     1     139.149 140.488 142.621  1.00  0.00    -0.024 C 
ATOM     16  C   UNL     1     140.323 141.571 143.014  1.00  0.00    -0.024 C 
ATOM     17  C   UNL     1     139.933 142.982 142.449  1.00  0.00     0.008 C 
ATOM     18  C   UNL     1     139.556 143.085 140.962  1.00  0.00     0.007 C 
ATOM     19  C   UNL     1     138.511 142.043 140.458  1.00  0.00    -0.029 C 
ATOM     20  C   UNL     1     138.006 141.089 141.620  1.00  0.00     0.002 C 
ATOM     21  C   UNL     1     136.722 141.731 142.276  1.00  0.00     0.011 C 
ATOM     22  C   UNL     1     135.518 141.834 141.278  1.00  0.00    -0.035 C 
ATOM     23  C   UNL     1     136.009 142.057 139.821  1.00  0.00     0.007 C 
ATOM     24  C   UNL     1     137.319 142.840 139.803  1.00  0.00     0.007 C 
ATOM     25  C   UNL     1     134.674 140.537 141.323  1.00  0.00     0.011 C 
ATOM     26  C   UNL     1     134.608 143.007 141.709  1.00  0.00     0.011 C 
ATOM     27  C   UNL     1     139.133 141.193 139.322  1.00  0.00     0.011 C 
ATOM     28  C   UNL     1     140.361 141.854 144.564  1.00  0.00     0.012 C 
ATOM     29  C   UNL     1     138.365 140.000 143.899  1.00  0.00     0.012 C 
ATOM     30  C   UNL     1     141.958 138.993 144.055  1.00  0.00     0.012 C 
ATOM     31  C   UNL     1     143.613 139.506 139.613  1.00  0.00     0.012 C 
ENDROOT
TORSDOF 0
ENDMDL
MODEL 4
REMARK VINA RESULT:    -5.806      3.031      5.424
REMARK INTER + INTRA:          -5.806
REMARK INTER:                  -5.806
REMARK INTRA:                   0.000
REMARK UNBOUND:                 0.000
REMARK SMILES C[C@@H]1C(=O)CC[C@H]2[C@]3(C)CC[C@]4(C)[C@H]5CC(C)(C)CC[C@@]5(C)CC[C@]4(C)[C@@H]3CC[C@]21C
REMARK SMILES IDX 1 1 2 2 3 3 4 4 5 5 6 6 7 7 30 8 29 9 28 10 27 11 8 12 10 13
REMARK SMILES IDX 11 14 12 15 25 16 24 17 23 18 21 19 14 20 15 21 16 22 19 23
REMARK SMILES IDX 20 24 17 25 18 26 22 27 26 28 13 29 9 30 31 31
REMARK H PARENT
REMARK Flexibility Score: inf
ROOT
ATOM      1  C   UNL     1     135.354 143.135 140.261  1.00  0.00     0.016 C 
ATOM      2  C   UNL     1     135.811 141.725 140.709  1.00  0.00     0.059 C 
ATOM      3  C   UNL     1     135.077 141.376 141.963  1.00  0.00     0.136 C 
ATOM      4  O   UNL     1     134.187 140.539 141.962  1.00  0.00    -0.299 OA
ATOM      5  C   UNL     1     135.435 142.110 143.199  1.00  0.00     0.076 C 
ATOM      6  C   UNL     1     136.928 141.961 143.454  1.00  0.00     0.012 C 
ATOM      7  C   UNL     1     137.880 142.294 142.233  1.00  0.00     0.002 C 
ATOM      8  C   UNL     1     137.375 141.574 140.904  1.00  0.00    -0.020 C 
ATOM      9  C   UNL     1     137.717 140.071 141.038  1.00  0.00     0.008 C 
ATOM     10  C   UNL     1     139.200 139.802 141.336  1.00  0.00     0.005 C 
ATOM     11  C   UNL     1     139.754 140.477 142.626  1.00  0.00     0.002 C 
ATOM     12  C   UNL     1     139.419 142.012 142.640  1.00  0.00    -0.026 C 
ATOM     13  C   UNL     1     140.402 142.704 141.679  1.00  0.00     0.008 C 
ATOM     14  C   UNL     1     141.899 142.532 142.005  1.00  0.00     0.008 C 
ATOM     15  C   UNL     1     142.461 141.169 142.631  1.00  0.00    -0.024 C 
ATOM     16  C   UNL     1     141.288 140.080 143.014  1.00  0.00    -0.024 C 
ATOM     17  C   UNL     1     141.688 138.672 142.451  1.00  0.00     0.008 C 
ATOM     18  C   UNL     1     142.077 138.572 140.967  1.00  0.00     0.007 C 
ATOM     19  C   UNL     1     143.122 139.619 140.472  1.00  0.00    -0.029 C 
ATOM     20  C   UNL     1     143.614 140.573 141.639  1.00  0.00     0.002 C 
ATOM     21  C   UNL     1     144.896 139.936 142.304  1.00  0.00     0.011 C 
ATOM     22  C   UNL     1     146.108 139.839 141.315  1.00  0.00    -0.035 C 
ATOM     23  C   UNL     1     145.629 139.615 139.854  1.00  0.00     0.007 C 
ATOM     24  C   UNL     1     144.322 138.827 139.826  1.00  0.00     0.007 C 
ATOM     25  C   UNL     1     146.946 141.139 141.368  1.00  0.00     0.011 C 
ATOM     26  C   UNL     1     147.019 138.669 141.752  1.00  0.00     0.011 C 
ATOM     27  C   UNL     1     142.505 140.467 139.332  1.00  0.00     0.011 C 
ATOM     28  C   UNL     1     141.240 139.796 144.564  1.00  0.00     0.012 C 
ATOM     29  C   UNL     1     143.233 141.659 143.916  1.00  0.00     0.012 C 
ATOM     30  C   UNL     1     139.635 142.651 144.046  1.00  0.00     0.012 C 
ATOM     31  C   UNL     1     138.016 142.136 139.590  1.00  0.00     0.012 C 
ENDROOT
TORSDOF 0
ENDMDL
MODEL 5
REMARK VINA RESULT:    -5.368      3.317      5.698
REMARK INTER + INTRA:          -5.368
REMARK INTER:                  -5.368
REMARK INTRA:                   0.000
REMARK UNBOUND:                 0.000
REMARK SMILES C[C@@H]1C(=O)CC[C@H]2[C@]3(C)CC[C@]4(C)[C@H]5CC(C)(C)CC[C@@]5(C)CC[C@]4(C)[C@@H]3CC[C@]21C
REMARK SMILES IDX 1 1 2 2 3 3 4 4 5 5 6 6 7 7 30 8 29 9 28 10 27 11 8 12 10 13
REMARK SMILES IDX 11 14 12 15 25 16 24 17 23 18 21 19 14 20 15 21 16 22 19 23
REMARK SMILES IDX 20 24 17 25 18 26 22 27 26 28 13 29 9 30 31 31
REMARK H PARENT
REMARK Flexibility Score: inf
ROOT
ATOM      1  C   UNL     1     146.389 138.704 137.893  1.00  0.00     0.016 C 
ATOM      2  C   UNL     1     146.093 140.148 138.367  1.00  0.00     0.059 C 
ATOM      3  C   UNL     1     147.346 140.709 138.958  1.00  0.00     0.136 C 
ATOM      4  O   UNL     1     147.990 141.568 138.375  1.00  0.00    -0.299 OA
ATOM      5  C   UNL     1     147.804 140.157 140.255  1.00  0.00     0.076 C 
ATOM      6  C   UNL     1     146.686 140.288 141.278  1.00  0.00     0.012 C 
ATOM      7  C   UNL     1     145.267 139.741 140.833  1.00  0.00     0.002 C 
ATOM      8  C   UNL     1     144.882 140.270 139.380  1.00  0.00    -0.020 C 
ATOM      9  C   UNL     1     144.500 141.762 139.521  1.00  0.00     0.008 C 
ATOM     10  C   UNL     1     143.399 142.019 140.563  1.00  0.00     0.005 C 
ATOM     11  C   UNL     1     143.717 141.526 142.005  1.00  0.00     0.002 C 
ATOM     12  C   UNL     1     144.178 140.025 141.993  1.00  0.00    -0.026 C 
ATOM     13  C   UNL     1     142.917 139.161 141.819  1.00  0.00     0.008 C 
ATOM     14  C   UNL     1     141.830 139.325 142.899  1.00  0.00     0.008 C 
ATOM     15  C   UNL     1     141.549 140.746 143.585  1.00  0.00    -0.024 C 
ATOM     16  C   UNL     1     142.609 141.921 143.135  1.00  0.00    -0.024 C 
ATOM     17  C   UNL     1     141.809 143.214 142.744  1.00  0.00     0.008 C 
ATOM     18  C   UNL     1     140.667 143.075 141.725  1.00  0.00     0.007 C 
ATOM     19  C   UNL     1     139.648 141.927 142.006  1.00  0.00    -0.029 C 
ATOM     20  C   UNL     1     139.983 141.143 143.343  1.00  0.00     0.002 C 
ATOM     21  C   UNL     1     139.207 141.826 144.535  1.00  0.00     0.011 C 
ATOM     22  C   UNL     1     137.650 141.729 144.382  1.00  0.00    -0.035 C 
ATOM     23  C   UNL     1     137.228 141.747 142.887  1.00  0.00     0.007 C 
ATOM     24  C   UNL     1     138.210 142.569 142.055  1.00  0.00     0.007 C 
ATOM     25  C   UNL     1     137.131 140.422 145.028  1.00  0.00     0.011 C 
ATOM     26  C   UNL     1     136.998 142.917 145.125  1.00  0.00     0.011 C 
ATOM     27  C   UNL     1     139.637 140.941 140.813  1.00  0.00     0.011 C 
ATOM     28  C   UNL     1     143.460 142.437 144.357  1.00  0.00     0.012 C 
ATOM     29  C   UNL     1     141.663 140.427 145.125  1.00  0.00     0.012 C 
ATOM     30  C   UNL     1     144.836 139.597 143.340  1.00  0.00     0.012 C 
ATOM     31  C   UNL     1     143.698 139.494 138.711  1.00  0.00     0.012 C 
ENDROOT
TORSDOF 0
ENDMDL
MODEL 6
REMARK VINA RESULT:    -5.222      1.908      3.894
REMARK INTER + INTRA:          -5.222
REMARK INTER:                  -5.222
REMARK INTRA:                   0.000
REMARK UNBOUND:                 0.000
REMARK SMILES C[C@@H]1C(=O)CC[C@H]2[C@]3(C)CC[C@]4(C)[C@H]5CC(C)(C)CC[C@@]5(C)CC[C@]4(C)[C@@H]3CC[C@]21C
REMARK SMILES IDX 1 1 2 2 3 3 4 4 5 5 6 6 7 7 30 8 29 9 28 10 27 11 8 12 10 13
REMARK SMILES IDX 11 14 12 15 25 16 24 17 23 18 21 19 14 20 15 21 16 22 19 23
REMARK SMILES IDX 20 24 17 25 18 26 22 27 26 28 13 29 9 30 31 31
REMARK H PARENT
REMARK Flexibility Score: inf
ROOT
ATOM      1  C   UNL     1     140.960 148.121 138.850  1.00  0.00     0.016 C 
ATOM      2  C   UNL     1     141.804 147.653 140.060  1.00  0.00     0.059 C 
ATOM      3  C   UNL     1     143.244 147.898 139.746  1.00  0.00     0.136 C 
ATOM      4  O   UNL     1     143.868 148.793 140.295  1.00  0.00    -0.299 OA
ATOM      5  C   UNL     1     143.879 147.047 138.712  1.00  0.00     0.076 C 
ATOM      6  C   UNL     1     143.709 145.584 139.095  1.00  0.00     0.012 C 
ATOM      7  C   UNL     1     142.238 145.126 139.463  1.00  0.00     0.002 C 
ATOM      8  C   UNL     1     141.563 146.146 140.484  1.00  0.00    -0.020 C 
ATOM      9  C   UNL     1     142.213 145.909 141.868  1.00  0.00     0.008 C 
ATOM     10  C   UNL     1     142.134 144.449 142.342  1.00  0.00     0.005 C 
ATOM     11  C   UNL     1     142.780 143.402 141.386  1.00  0.00     0.002 C 
ATOM     12  C   UNL     1     142.241 143.576 139.921  1.00  0.00    -0.026 C 
ATOM     13  C   UNL     1     140.830 142.963 139.877  1.00  0.00     0.008 C 
ATOM     14  C   UNL     1     140.729 141.472 140.257  1.00  0.00     0.008 C 
ATOM     15  C   UNL     1     141.673 140.837 141.384  1.00  0.00    -0.024 C 
ATOM     16  C   UNL     1     142.817 141.873 141.954  1.00  0.00    -0.024 C 
ATOM     17  C   UNL     1     142.815 141.831 143.522  1.00  0.00     0.008 C 
ATOM     18  C   UNL     1     141.474 142.028 144.247  1.00  0.00     0.007 C 
ATOM     19  C   UNL     1     140.291 141.155 143.726  1.00  0.00    -0.029 C 
ATOM     20  C   UNL     1     140.732 140.187 142.550  1.00  0.00     0.002 C 
ATOM     21  C   UNL     1     141.183 138.810 143.174  1.00  0.00     0.011 C 
ATOM     22  C   UNL     1     140.015 138.062 143.904  1.00  0.00    -0.035 C 
ATOM     23  C   UNL     1     139.008 139.065 144.532  1.00  0.00     0.007 C 
ATOM     24  C   UNL     1     139.714 140.352 144.953  1.00  0.00     0.007 C 
ATOM     25  C   UNL     1     139.255 137.157 142.906  1.00  0.00     0.011 C 
ATOM     26  C   UNL     1     140.610 137.157 145.007  1.00  0.00     0.011 C 
ATOM     27  C   UNL     1     139.144 142.076 143.239  1.00  0.00     0.011 C 
ATOM     28  C   UNL     1     144.275 141.369 141.629  1.00  0.00     0.012 C 
ATOM     29  C   UNL     1     142.328 139.606 140.647  1.00  0.00     0.012 C 
ATOM     30  C   UNL     1     143.103 142.802 138.878  1.00  0.00     0.012 C 
ATOM     31  C   UNL     1     140.009 145.991 140.609  1.00  0.00     0.012 C 
ENDROOT
TORSDOF 0
ENDMDL
MODEL 7
REMARK VINA RESULT:    -5.175      3.142      5.926
REMARK INTER + INTRA:          -5.175
REMARK INTER:                  -5.175
REMARK INTRA:                   0.000
REMARK UNBOUND:                 0.000
REMARK SMILES C[C@@H]1C(=O)CC[C@H]2[C@]3(C)CC[C@]4(C)[C@H]5CC(C)(C)CC[C@@]5(C)CC[C@]4(C)[C@@H]3CC[C@]21C
REMARK SMILES IDX 1 1 2 2 3 3 4 4 5 5 6 6 7 7 30 8 29 9 28 10 27 11 8 12 10 13
REMARK SMILES IDX 11 14 12 15 25 16 24 17 23 18 21 19 14 20 15 21 16 22 19 23
REMARK SMILES IDX 20 24 17 25 18 26 22 27 26 28 13 29 9 30 31 31
REMARK H PARENT
REMARK Flexibility Score: inf
ROOT
ATOM      1  C   UNL     1     134.181 141.030 138.580  1.00  0.00     0.016 C 
ATOM      2  C   UNL     1     134.557 141.766 139.889  1.00  0.00     0.059 C 
ATOM      3  C   UNL     1     134.244 143.216 139.713  1.00  0.00     0.136 C 
ATOM      4  O   UNL     1     133.297 143.733 140.286  1.00  0.00    -0.299 OA
ATOM      5  C   UNL     1     135.096 143.999 138.786  1.00  0.00     0.076 C 
ATOM      6  C   UNL     1     136.552 143.865 139.212  1.00  0.00     0.012 C 
ATOM      7  C   UNL     1     137.076 142.388 139.446  1.00  0.00     0.002 C 
ATOM      8  C   UNL     1     136.058 141.559 140.349  1.00  0.00    -0.020 C 
ATOM      9  C   UNL     1     136.208 142.072 141.801  1.00  0.00     0.008 C 
ATOM     10  C   UNL     1     137.652 142.019 142.325  1.00  0.00     0.005 C 
ATOM     11  C   UNL     1     138.696 142.814 141.486  1.00  0.00     0.002 C 
ATOM     12  C   UNL     1     138.606 142.423 139.967  1.00  0.00    -0.026 C 
ATOM     13  C   UNL     1     139.297 141.058 139.805  1.00  0.00     0.008 C 
ATOM     14  C   UNL     1     140.776 140.994 140.234  1.00  0.00     0.008 C 
ATOM     15  C   UNL     1     141.317 141.847 141.478  1.00  0.00    -0.024 C 
ATOM     16  C   UNL     1     140.199 142.870 142.118  1.00  0.00    -0.024 C 
ATOM     17  C   UNL     1     140.184 142.706 143.678  1.00  0.00     0.008 C 
ATOM     18  C   UNL     1     140.035 141.288 144.253  1.00  0.00     0.007 C 
ATOM     19  C   UNL     1     140.990 140.212 143.651  1.00  0.00    -0.029 C 
ATOM     20  C   UNL     1     141.974 140.823 142.568  1.00  0.00     0.002 C 
ATOM     21  C   UNL     1     143.301 141.277 143.293  1.00  0.00     0.011 C 
ATOM     22  C   UNL     1     144.085 140.078 143.930  1.00  0.00    -0.035 C 
ATOM     23  C   UNL     1     143.117 138.961 144.409  1.00  0.00     0.007 C 
ATOM     24  C   UNL     1     141.778 139.552 144.845  1.00  0.00     0.007 C 
ATOM     25  C   UNL     1     145.067 139.474 142.898  1.00  0.00     0.011 C 
ATOM     26  C   UNL     1     144.915 140.601 145.125  1.00  0.00     0.011 C 
ATOM     27  C   UNL     1     140.153 139.077 143.011  1.00  0.00     0.011 C 
ATOM     28  C   UNL     1     140.633 144.377 141.965  1.00  0.00     0.012 C 
ATOM     29  C   UNL     1     142.536 142.637 140.864  1.00  0.00     0.012 C 
ATOM     30  C   UNL     1     139.369 143.428 139.051  1.00  0.00     0.012 C 
ATOM     31  C   UNL     1     136.294 140.011 140.320  1.00  0.00     0.012 C 
ENDROOT
TORSDOF 0
ENDMDL
MODEL 8
REMARK VINA RESULT:    -5.063      4.416      8.368
REMARK INTER + INTRA:          -5.063
REMARK INTER:                  -5.063
REMARK INTRA:                   0.000
REMARK UNBOUND:                 0.000
REMARK SMILES C[C@@H]1C(=O)CC[C@H]2[C@]3(C)CC[C@]4(C)[C@H]5CC(C)(C)CC[C@@]5(C)CC[C@]4(C)[C@@H]3CC[C@]21C
REMARK SMILES IDX 1 1 2 2 3 3 4 4 5 5 6 6 7 7 30 8 29 9 28 10 27 11 8 12 10 13
REMARK SMILES IDX 11 14 12 15 25 16 24 17 23 18 21 19 14 20 15 21 16 22 19 23
REMARK SMILES IDX 20 24 17 25 18 26 22 27 26 28 13 29 9 30 31 31
REMARK H PARENT
REMARK Flexibility Score: inf
ROOT
ATOM      1  C   UNL     1     139.983 143.081 144.739  1.00  0.00     0.016 C 
ATOM      2  C   UNL     1     141.258 143.011 143.863  1.00  0.00     0.059 C 
ATOM      3  C   UNL     1     142.419 143.450 144.695  1.00  0.00     0.136 C 
ATOM      4  O   UNL     1     143.253 142.650 145.089  1.00  0.00    -0.299 OA
ATOM      5  C   UNL     1     142.501 144.884 145.062  1.00  0.00     0.076 C 
ATOM      6  C   UNL     1     142.466 145.727 143.796  1.00  0.00     0.012 C 
ATOM      7  C   UNL     1     141.293 145.410 142.779  1.00  0.00     0.002 C 
ATOM      8  C   UNL     1     141.175 143.842 142.517  1.00  0.00    -0.020 C 
ATOM      9  C   UNL     1     142.360 143.438 141.609  1.00  0.00     0.008 C 
ATOM     10  C   UNL     1     142.447 144.256 140.311  1.00  0.00     0.005 C 
ATOM     11  C   UNL     1     142.567 145.797 140.500  1.00  0.00     0.002 C 
ATOM     12  C   UNL     1     141.443 146.331 141.459  1.00  0.00    -0.026 C 
ATOM     13  C   UNL     1     140.137 146.385 140.647  1.00  0.00     0.008 C 
ATOM     14  C   UNL     1     140.160 147.273 139.387  1.00  0.00     0.008 C 
ATOM     15  C   UNL     1     141.482 147.409 138.493  1.00  0.00    -0.024 C 
ATOM     16  C   UNL     1     142.796 146.651 139.129  1.00  0.00    -0.024 C 
ATOM     17  C   UNL     1     143.485 145.790 138.013  1.00  0.00     0.008 C 
ATOM     18  C   UNL     1     142.610 144.811 137.213  1.00  0.00     0.007 C 
ATOM     19  C   UNL     1     141.288 145.405 136.637  1.00  0.00    -0.029 C 
ATOM     20  C   UNL     1     141.130 146.948 136.966  1.00  0.00     0.002 C 
ATOM     21  C   UNL     1     141.761 147.782 135.784  1.00  0.00     0.011 C 
ATOM     22  C   UNL     1     141.009 147.573 134.425  1.00  0.00    -0.035 C 
ATOM     23  C   UNL     1     140.420 146.140 134.319  1.00  0.00     0.007 C 
ATOM     24  C   UNL     1     141.284 145.140 135.083  1.00  0.00     0.007 C 
ATOM     25  C   UNL     1     139.855 148.595 134.291  1.00  0.00     0.011 C 
ATOM     26  C   UNL     1     141.998 147.821 133.262  1.00  0.00     0.011 C 
ATOM     27  C   UNL     1     140.078 144.625 137.207  1.00  0.00     0.011 C 
ATOM     28  C   UNL     1     143.941 147.672 139.489  1.00  0.00     0.012 C 
ATOM     29  C   UNL     1     141.700 148.969 138.415  1.00  0.00     0.012 C 
ATOM     30  C   UNL     1     141.727 147.781 141.955  1.00  0.00     0.012 C 
ATOM     31  C   UNL     1     139.832 143.407 141.839  1.00  0.00     0.012 C 
ENDROOT
TORSDOF 0
ENDMDL
MODEL 9
REMARK VINA RESULT:    -5.055      3.628      6.390
REMARK INTER + INTRA:          -5.055
REMARK INTER:                  -5.055
REMARK INTRA:                   0.000
REMARK UNBOUND:                 0.000
REMARK SMILES C[C@@H]1C(=O)CC[C@H]2[C@]3(C)CC[C@]4(C)[C@H]5CC(C)(C)CC[C@@]5(C)CC[C@]4(C)[C@@H]3CC[C@]21C
REMARK SMILES IDX 1 1 2 2 3 3 4 4 5 5 6 6 7 7 30 8 29 9 28 10 27 11 8 12 10 13
REMARK SMILES IDX 11 14 12 15 25 16 24 17 23 18 21 19 14 20 15 21 16 22 19 23
REMARK SMILES IDX 20 24 17 25 18 26 22 27 26 28 13 29 9 30 31 31
REMARK H PARENT
REMARK Flexibility Score: inf
ROOT
ATOM      1  C   UNL     1     147.953 140.757 139.197  1.00  0.00     0.016 C 
ATOM      2  C   UNL     1     147.497 139.984 140.458  1.00  0.00     0.059 C 
ATOM      3  C   UNL     1     147.815 138.538 140.258  1.00  0.00     0.136 C 
ATOM      4  O   UNL     1     148.724 138.000 140.870  1.00  0.00    -0.299 OA
ATOM      5  C   UNL     1     147.017 137.789 139.258  1.00  0.00     0.076 C 
ATOM      6  C   UNL     1     145.539 137.917 139.600  1.00  0.00     0.012 C 
ATOM      7  C   UNL     1     145.007 139.388 139.847  1.00  0.00     0.002 C 
ATOM      8  C   UNL     1     145.971 140.185 140.834  1.00  0.00    -0.020 C 
ATOM      9  C   UNL     1     145.732 139.629 142.258  1.00  0.00     0.008 C 
ATOM     10  C   UNL     1     144.260 139.674 142.696  1.00  0.00     0.005 C 
ATOM     11  C   UNL     1     143.265 138.910 141.772  1.00  0.00     0.002 C 
ATOM     12  C   UNL     1     143.448 139.346 140.274  1.00  0.00    -0.026 C 
ATOM     13  C   UNL     1     142.772 140.719 140.112  1.00  0.00     0.008 C 
ATOM     14  C   UNL     1     141.270 140.777 140.454  1.00  0.00     0.008 C 
ATOM     15  C   UNL     1     140.653 139.890 141.636  1.00  0.00    -0.024 C 
ATOM     16  C   UNL     1     141.727 138.843 142.311  1.00  0.00    -0.024 C 
ATOM     17  C   UNL     1     141.649 138.960 143.874  1.00  0.00     0.008 C 
ATOM     18  C   UNL     1     141.768 140.358 144.499  1.00  0.00     0.007 C 
ATOM     19  C   UNL     1     140.855 141.457 143.873  1.00  0.00    -0.029 C 
ATOM     20  C   UNL     1     139.935 140.884 142.716  1.00  0.00     0.002 C 
ATOM     21  C   UNL     1     138.566 140.416 143.346  1.00  0.00     0.011 C 
ATOM     22  C   UNL     1     137.749 141.598 143.971  1.00  0.00    -0.035 C 
ATOM     23  C   UNL     1     138.690 142.696 144.540  1.00  0.00     0.007 C 
ATOM     24  C   UNL     1     139.998 142.085 145.038  1.00  0.00     0.007 C 
ATOM     25  C   UNL     1     136.833 142.238 142.900  1.00  0.00     0.011 C 
ATOM     26  C   UNL     1     136.847 141.044 145.097  1.00  0.00     0.011 C 
ATOM     27  C   UNL     1     141.732 142.607 143.320  1.00  0.00     0.011 C 
ATOM     28  C   UNL     1     141.298 137.343 142.087  1.00  0.00     0.012 C 
ATOM     29  C   UNL     1     139.471 139.125 140.927  1.00  0.00     0.012 C 
ATOM     30  C   UNL     1     142.738 138.373 139.284  1.00  0.00     0.012 C 
ATOM     31  C   UNL     1     145.742 141.734 140.838  1.00  0.00     0.012 C 
ENDROOT
TORSDOF 0
ENDMDL
