MODEL 1
REMARK VINA RESULT:    -3.519      0.000      0.000
REMARK INTER + INTRA:          -7.265
REMARK INTER:                  -5.577
REMARK INTRA:                  -1.689
REMARK UNBOUND:                -1.689
REMARK SMILES C=CCCCCCCCCCCC
REMARK SMILES IDX 7 1 8 2 9 3 10 4 11 5 12 6 13 7 6 8 5 9 4 10 3 11 2 12 1 13
REMARK H PARENT
REMARK Flexibility Score: inf
ROOT
ATOM      1  C   UNL     1      30.343   6.436  34.207  1.00  0.00     0.000 C 
ENDROOT
BRANCH   1   2
ATOM      2  C   UNL     1      31.660   6.975  33.634  1.00  0.00     0.000 C 
BRANCH   2   3
ATOM      3  C   UNL     1      31.424   7.702  32.304  1.00  0.00    -0.000 C 
BRANCH   3   4
ATOM      4  C   UNL     1      31.342   9.219  32.514  1.00  0.00    -0.000 C 
BRANCH   4   5
ATOM      5  C   UNL     1      32.666   9.773  33.054  1.00  0.00    -0.000 C 
BRANCH   5   6
ATOM      6  C   UNL     1      32.671  11.306  33.032  1.00  0.00    -0.003 C 
ATOM      7  C   UNL     1      31.795  11.844  31.905  1.00  0.00     0.004 C 
ENDBRANCH   5   6
ENDBRANCH   4   5
ENDBRANCH   3   4
ENDBRANCH   2   3
ENDBRANCH   1   2
BRANCH   1   8
ATOM      8  C   UNL     1      30.501   6.049  35.682  1.00  0.00     0.000 C 
BRANCH   8   9
ATOM      9  C   UNL     1      31.676   6.800  36.325  1.00  0.00     0.000 C 
BRANCH   9  10
ATOM     10  C   UNL     1      31.223   7.991  37.187  1.00  0.00     0.004 C 
BRANCH  10  11
ATOM     11  C   UNL     1      31.769   9.353  36.722  1.00  0.00     0.027 C 
BRANCH  11  12
ATOM     12  C   UNL     1      30.711  10.215  36.086  1.00  0.00    -0.035 C 
ATOM     13  C   UNL     1      29.502   9.737  35.783  1.00  0.00     0.004 C 
ENDBRANCH  11  12
ENDBRANCH  10  11
ENDBRANCH   9  10
ENDBRANCH   8   9
ENDBRANCH   1   8
TORSDOF 10
ENDMDL
MODEL 2
REMARK VINA RESULT:    -3.423      0.840      3.862
REMARK INTER + INTRA:          -7.112
REMARK INTER:                  -5.145
REMARK INTRA:                  -1.967
REMARK UNBOUND:                -1.689
REMARK SMILES C=CCCCCCCCCCCC
REMARK SMILES IDX 7 1 8 2 9 3 10 4 11 5 12 6 13 7 6 8 5 9 4 10 3 11 2 12 1 13
REMARK H PARENT
REMARK Flexibility Score: inf
ROOT
ATOM      1  C   UNL     1      31.502   6.857  35.848  1.00  0.00     0.000 C 
ENDROOT
BRANCH   1   2
ATOM      2  C   UNL     1      30.895   7.564  37.066  1.00  0.00     0.000 C 
BRANCH   2   3
ATOM      3  C   UNL     1      31.685   8.832  37.416  1.00  0.00    -0.000 C 
BRANCH   3   4
ATOM      4  C   UNL     1      31.379   9.961  36.424  1.00  0.00    -0.000 C 
BRANCH   4   5
ATOM      5  C   UNL     1      29.875  10.251  36.366  1.00  0.00    -0.000 C 
BRANCH   5   6
ATOM      6  C   UNL     1      29.416  10.491  34.924  1.00  0.00    -0.003 C 
ATOM      7  C   UNL     1      28.305   9.522  34.530  1.00  0.00     0.004 C 
ENDBRANCH   5   6
ENDBRANCH   4   5
ENDBRANCH   3   4
ENDBRANCH   2   3
ENDBRANCH   1   2
BRANCH   1   8
ATOM      8  C   UNL     1      30.406   6.315  34.922  1.00  0.00     0.000 C 
BRANCH   8   9
ATOM      9  C   UNL     1      30.616   6.800  33.480  1.00  0.00     0.000 C 
BRANCH   9  10
ATOM     10  C   UNL     1      31.911   7.613  33.307  1.00  0.00     0.004 C 
BRANCH  10  11
ATOM     11  C   UNL     1      31.713   8.979  32.626  1.00  0.00     0.027 C 
BRANCH  11  12
ATOM     12  C   UNL     1      32.755   9.986  33.036  1.00  0.00    -0.035 C 
ATOM     13  C   UNL     1      32.519  11.300  32.995  1.00  0.00     0.004 C 
ENDBRANCH  11  12
ENDBRANCH  10  11
ENDBRANCH   9  10
ENDBRANCH   8   9
ENDBRANCH   1   8
TORSDOF 10
ENDMDL
MODEL 3
REMARK VINA RESULT:    -3.358      0.344      3.944
REMARK INTER + INTRA:          -7.010
REMARK INTER:                  -5.476
REMARK INTRA:                  -1.534
REMARK UNBOUND:                -1.689
REMARK SMILES C=CCCCCCCCCCCC
REMARK SMILES IDX 7 1 8 2 9 3 10 4 11 5 12 6 13 7 6 8 5 9 4 10 3 11 2 12 1 13
REMARK H PARENT
REMARK Flexibility Score: inf
ROOT
ATOM      1  C   UNL     1      30.142   6.401  33.886  1.00  0.00     0.000 C 
ENDROOT
BRANCH   1   2
ATOM      2  C   UNL     1      30.274   6.124  35.388  1.00  0.00     0.000 C 
BRANCH   2   3
ATOM      3  C   UNL     1      31.523   6.802  35.966  1.00  0.00    -0.000 C 
BRANCH   3   4
ATOM      4  C   UNL     1      31.145   7.813  37.055  1.00  0.00    -0.000 C 
BRANCH   4   5
ATOM      5  C   UNL     1      31.725   9.198  36.746  1.00  0.00    -0.000 C 
BRANCH   5   6
ATOM      6  C   UNL     1      30.616  10.253  36.667  1.00  0.00    -0.003 C 
ATOM      7  C   UNL     1      29.616   9.922  35.564  1.00  0.00     0.004 C 
ENDBRANCH   5   6
ENDBRANCH   4   5
ENDBRANCH   3   4
ENDBRANCH   2   3
ENDBRANCH   1   2
BRANCH   1   8
ATOM      8  C   UNL     1      31.495   6.785  33.276  1.00  0.00     0.000 C 
BRANCH   8   9
ATOM      9  C   UNL     1      31.307   7.652  32.022  1.00  0.00     0.000 C 
BRANCH   9  10
ATOM     10  C   UNL     1      31.288   9.158  32.336  1.00  0.00     0.004 C 
BRANCH  10  11
ATOM     11  C   UNL     1      32.483   9.644  33.175  1.00  0.00     0.027 C 
BRANCH  11  12
ATOM     12  C   UNL     1      32.779  11.106  32.970  1.00  0.00    -0.035 C 
ATOM     13  C   UNL     1      32.089  11.849  32.100  1.00  0.00     0.004 C 
ENDBRANCH  11  12
ENDBRANCH  10  11
ENDBRANCH   9  10
ENDBRANCH   8   9
ENDBRANCH   1   8
TORSDOF 10
ENDMDL
MODEL 4
REMARK VINA RESULT:    -3.345      1.016      2.653
REMARK INTER + INTRA:          -6.989
REMARK INTER:                  -4.947
REMARK INTRA:                  -2.042
REMARK UNBOUND:                -1.689
REMARK SMILES C=CCCCCCCCCCCC
REMARK SMILES IDX 7 1 8 2 9 3 10 4 11 5 12 6 13 7 6 8 5 9 4 10 3 11 2 12 1 13
REMARK H PARENT
REMARK Flexibility Score: inf
ROOT
ATOM      1  C   UNL     1      31.689   7.128  33.236  1.00  0.00     0.000 C 
ENDROOT
BRANCH   1   2
ATOM      2  C   UNL     1      31.557   8.454  32.477  1.00  0.00     0.000 C 
BRANCH   2   3
ATOM      3  C   UNL     1      32.361   9.564  33.165  1.00  0.00    -0.000 C 
BRANCH   3   4
ATOM      4  C   UNL     1      31.454  10.734  33.565  1.00  0.00    -0.000 C 
BRANCH   4   5
ATOM      5  C   UNL     1      29.976  10.378  33.366  1.00  0.00    -0.000 C 
BRANCH   5   6
ATOM      6  C   UNL     1      29.166  10.663  34.636  1.00  0.00    -0.003 C 
ATOM      7  C   UNL     1      28.446   9.410  35.124  1.00  0.00     0.004 C 
ENDBRANCH   5   6
ENDBRANCH   4   5
ENDBRANCH   3   4
ENDBRANCH   2   3
ENDBRANCH   1   2
BRANCH   1   8
ATOM      8  C   UNL     1      30.312   6.576  33.626  1.00  0.00     0.000 C 
BRANCH   8   9
ATOM      9  C   UNL     1      30.306   6.094  35.084  1.00  0.00     0.000 C 
BRANCH   9  10
ATOM     10  C   UNL     1      31.526   6.589  35.881  1.00  0.00     0.004 C 
BRANCH  10  11
ATOM     11  C   UNL     1      31.187   7.597  36.994  1.00  0.00     0.027 C 
BRANCH  11  12
ATOM     12  C   UNL     1      31.807   8.949  36.760  1.00  0.00    -0.035 C 
ATOM     13  C   UNL     1      31.465  10.016  37.487  1.00  0.00     0.004 C 
ENDBRANCH  11  12
ENDBRANCH  10  11
ENDBRANCH   9  10
ENDBRANCH   8   9
ENDBRANCH   1   8
TORSDOF 10
ENDMDL
MODEL 5
REMARK VINA RESULT:    -3.305      1.228      1.986
REMARK INTER + INTRA:          -6.926
REMARK INTER:                  -5.304
REMARK INTRA:                  -1.622
REMARK UNBOUND:                -1.689
REMARK SMILES C=CCCCCCCCCCCC
REMARK SMILES IDX 7 1 8 2 9 3 10 4 11 5 12 6 13 7 6 8 5 9 4 10 3 11 2 12 1 13
REMARK H PARENT
REMARK Flexibility Score: inf
ROOT
ATOM      1  C   UNL     1      30.217   6.080  35.924  1.00  0.00     0.000 C 
ENDROOT
BRANCH   1   2
ATOM      2  C   UNL     1      30.287   6.148  34.393  1.00  0.00     0.000 C 
BRANCH   2   3
ATOM      3  C   UNL     1      31.619   6.750  33.929  1.00  0.00    -0.000 C 
BRANCH   3   4
ATOM      4  C   UNL     1      31.514   7.274  32.492  1.00  0.00    -0.000 C 
BRANCH   4   5
ATOM      5  C   UNL     1      31.696   8.796  32.446  1.00  0.00    -0.000 C 
BRANCH   5   6
ATOM      6  C   UNL     1      30.777   9.428  31.395  1.00  0.00    -0.003 C 
ATOM      7  C   UNL     1      30.500   8.459  30.249  1.00  0.00     0.004 C 
ENDBRANCH   5   6
ENDBRANCH   4   5
ENDBRANCH   3   4
ENDBRANCH   2   3
ENDBRANCH   1   2
BRANCH   1   8
ATOM      8  C   UNL     1      31.435   6.760  36.561  1.00  0.00     0.000 C 
BRANCH   8   9
ATOM      9  C   UNL     1      31.005   7.928  37.460  1.00  0.00     0.000 C 
BRANCH   9  10
ATOM     10  C   UNL     1      31.791   9.220  37.176  1.00  0.00     0.004 C 
BRANCH  10  11
ATOM     11  C   UNL     1      31.450   9.884  35.829  1.00  0.00     0.027 C 
BRANCH  11  12
ATOM     12  C   UNL     1      30.007  10.302  35.738  1.00  0.00    -0.035 C 
ATOM     13  C   UNL     1      29.157   9.722  34.887  1.00  0.00     0.004 C 
ENDBRANCH  11  12
ENDBRANCH  10  11
ENDBRANCH   9  10
ENDBRANCH   8   9
ENDBRANCH   1   8
TORSDOF 10
ENDMDL
MODEL 6
REMARK VINA RESULT:    -3.296      1.122      3.988
REMARK INTER + INTRA:          -6.912
REMARK INTER:                  -5.066
REMARK INTRA:                  -1.846
REMARK UNBOUND:                -1.689
REMARK SMILES C=CCCCCCCCCCCC
REMARK SMILES IDX 7 1 8 2 9 3 10 4 11 5 12 6 13 7 6 8 5 9 4 10 3 11 2 12 1 13
REMARK H PARENT
REMARK Flexibility Score: inf
ROOT
ATOM      1  C   UNL     1      31.092   7.107  32.499  1.00  0.00     0.000 C 
ENDROOT
BRANCH   1   2
ATOM      2  C   UNL     1      31.839   6.878  33.818  1.00  0.00     0.000 C 
BRANCH   2   3
ATOM      3  C   UNL     1      30.867   6.498  34.942  1.00  0.00    -0.000 C 
BRANCH   3   4
ATOM      4  C   UNL     1      31.458   6.834  36.317  1.00  0.00    -0.000 C 
BRANCH   4   5
ATOM      5  C   UNL     1      30.439   7.581  37.187  1.00  0.00    -0.000 C 
BRANCH   5   6
ATOM      6  C   UNL     1      31.104   8.737  37.942  1.00  0.00    -0.003 C 
ATOM      7  C   UNL     1      31.943   9.598  37.005  1.00  0.00     0.004 C 
ENDBRANCH   5   6
ENDBRANCH   4   5
ENDBRANCH   3   4
ENDBRANCH   2   3
ENDBRANCH   1   2
BRANCH   1   8
ATOM      8  C   UNL     1      31.273   8.547  32.005  1.00  0.00     0.000 C 
BRANCH   8   9
ATOM      9  C   UNL     1      32.171   9.347  32.960  1.00  0.00     0.000 C 
BRANCH   9  10
ATOM     10  C   UNL     1      31.486  10.617  33.498  1.00  0.00     0.004 C 
BRANCH  10  11
ATOM     11  C   UNL     1      29.952  10.606  33.379  1.00  0.00     0.027 C 
BRANCH  11  12
ATOM     12  C   UNL     1      29.279  10.052  34.607  1.00  0.00    -0.035 C 
ATOM     13  C   UNL     1      28.251   9.204  34.525  1.00  0.00     0.004 C 
ENDBRANCH  11  12
ENDBRANCH  10  11
ENDBRANCH   9  10
ENDBRANCH   8   9
ENDBRANCH   1   8
TORSDOF 10
ENDMDL
MODEL 7
REMARK VINA RESULT:    -3.280      0.939      2.242
REMARK INTER + INTRA:          -6.886
REMARK INTER:                  -5.658
REMARK INTRA:                  -1.229
REMARK UNBOUND:                -1.689
REMARK SMILES C=CCCCCCCCCCCC
REMARK SMILES IDX 7 1 8 2 9 3 10 4 11 5 12 6 13 7 6 8 5 9 4 10 3 11 2 12 1 13
REMARK H PARENT
REMARK Flexibility Score: inf
ROOT
ATOM      1  C   UNL     1      31.882   7.580  33.336  1.00  0.00     0.000 C 
ENDROOT
BRANCH   1   2
ATOM      2  C   UNL     1      31.663   8.942  32.668  1.00  0.00     0.000 C 
BRANCH   2   3
ATOM      3  C   UNL     1      32.738   9.947  33.101  1.00  0.00    -0.000 C 
BRANCH   3   4
ATOM      4  C   UNL     1      32.177  11.375  33.128  1.00  0.00    -0.000 C 
BRANCH   4   5
ATOM      5  C   UNL     1      32.040  11.940  31.710  1.00  0.00    -0.000 C 
BRANCH   5   6
ATOM      6  C   UNL     1      30.568  12.164  31.347  1.00  0.00    -0.003 C 
ATOM      7  C   UNL     1      30.298  11.800  29.890  1.00  0.00     0.004 C 
ENDBRANCH   5   6
ENDBRANCH   4   5
ENDBRANCH   3   4
ENDBRANCH   2   3
ENDBRANCH   1   2
BRANCH   1   8
ATOM      8  C   UNL     1      30.557   6.826  33.498  1.00  0.00     0.000 C 
BRANCH   8   9
ATOM      9  C   UNL     1      30.448   6.197  34.894  1.00  0.00     0.000 C 
BRANCH   9  10
ATOM     10  C   UNL     1      31.599   6.614  35.827  1.00  0.00     0.004 C 
BRANCH  10  11
ATOM     11  C   UNL     1      31.171   7.534  36.985  1.00  0.00     0.027 C 
BRANCH  11  12
ATOM     12  C   UNL     1      31.616   8.959  36.788  1.00  0.00    -0.035 C 
ATOM     13  C   UNL     1      30.797   9.890  36.292  1.00  0.00     0.004 C 
ENDBRANCH  11  12
ENDBRANCH  10  11
ENDBRANCH   9  10
ENDBRANCH   8   9
ENDBRANCH   1   8
TORSDOF 10
ENDMDL
MODEL 8
REMARK VINA RESULT:    -3.276      1.254      4.776
REMARK INTER + INTRA:          -6.881
REMARK INTER:                  -5.673
REMARK INTRA:                  -1.208
REMARK UNBOUND:                -1.689
REMARK SMILES C=CCCCCCCCCCCC
REMARK SMILES IDX 7 1 8 2 9 3 10 4 11 5 12 6 13 7 6 8 5 9 4 10 3 11 2 12 1 13
REMARK H PARENT
REMARK Flexibility Score: inf
ROOT
ATOM      1  C   UNL     1      31.571   8.270  32.683  1.00  0.00     0.000 C 
ENDROOT
BRANCH   1   2
ATOM      2  C   UNL     1      31.961   6.981  33.416  1.00  0.00     0.000 C 
BRANCH   2   3
ATOM      3  C   UNL     1      30.952   6.650  34.523  1.00  0.00    -0.000 C 
BRANCH   3   4
ATOM      4  C   UNL     1      31.634   6.611  35.896  1.00  0.00    -0.000 C 
BRANCH   4   5
ATOM      5  C   UNL     1      30.968   7.589  36.870  1.00  0.00    -0.000 C 
BRANCH   5   6
ATOM      6  C   UNL     1      31.764   8.896  36.968  1.00  0.00    -0.003 C 
ATOM      7  C   UNL     1      30.889  10.100  36.637  1.00  0.00     0.004 C 
ENDBRANCH   5   6
ENDBRANCH   4   5
ENDBRANCH   3   4
ENDBRANCH   2   3
ENDBRANCH   1   2
BRANCH   1   8
ATOM      8  C   UNL     1      32.415   9.456  33.165  1.00  0.00     0.000 C 
BRANCH   8   9
ATOM      9  C   UNL     1      31.608  10.761  33.118  1.00  0.00     0.000 C 
BRANCH   9  10
ATOM     10  C   UNL     1      32.160  11.767  32.093  1.00  0.00     0.004 C 
BRANCH  10  11
ATOM     11  C   UNL     1      31.187  12.101  30.948  1.00  0.00     0.027 C 
BRANCH  11  12
ATOM     12  C   UNL     1      30.024  11.147  30.880  1.00  0.00    -0.035 C 
ATOM     13  C   UNL     1      29.859  10.310  29.853  1.00  0.00     0.004 C 
ENDBRANCH  11  12
ENDBRANCH  10  11
ENDBRANCH   9  10
ENDBRANCH   8   9
ENDBRANCH   1   8
TORSDOF 10
ENDMDL
MODEL 9
REMARK VINA RESULT:    -3.273      0.833      2.060
REMARK INTER + INTRA:          -6.875
REMARK INTER:                  -4.800
REMARK INTRA:                  -2.076
REMARK UNBOUND:                -1.689
REMARK SMILES C=CCCCCCCCCCCC
REMARK SMILES IDX 7 1 8 2 9 3 10 4 11 5 12 6 13 7 6 8 5 9 4 10 3 11 2 12 1 13
REMARK H PARENT
REMARK Flexibility Score: inf
ROOT
ATOM      1  C   UNL     1      31.416   6.842  35.867  1.00  0.00     0.000 C 
ENDROOT
BRANCH   1   2
ATOM      2  C   UNL     1      30.176   6.510  35.028  1.00  0.00     0.000 C 
BRANCH   2   3
ATOM      3  C   UNL     1      30.299   7.089  33.613  1.00  0.00    -0.000 C 
BRANCH   3   4
ATOM      4  C   UNL     1      31.729   7.570  33.337  1.00  0.00    -0.000 C 
BRANCH   4   5
ATOM      5  C   UNL     1      31.725   8.892  32.560  1.00  0.00    -0.000 C 
BRANCH   5   6
ATOM      6  C   UNL     1      32.683   9.906  33.195  1.00  0.00    -0.003 C 
ATOM      7  C   UNL     1      32.312  11.333  32.807  1.00  0.00     0.004 C 
ENDBRANCH   5   6
ENDBRANCH   4   5
ENDBRANCH   3   4
ENDBRANCH   2   3
ENDBRANCH   1   2
BRANCH   1   8
ATOM      8  C   UNL     1      31.070   7.817  36.999  1.00  0.00     0.000 C 
BRANCH   8   9
ATOM      9  C   UNL     1      31.680   9.202  36.738  1.00  0.00     0.000 C 
BRANCH   9  10
ATOM     10  C   UNL     1      30.638  10.234  36.272  1.00  0.00     0.004 C 
BRANCH  10  11
ATOM     11  C   UNL     1      29.178   9.771  36.423  1.00  0.00     0.027 C 
BRANCH  11  12
ATOM     12  C   UNL     1      28.370   9.985  35.171  1.00  0.00    -0.035 C 
ATOM     13  C   UNL     1      28.887  10.578  34.092  1.00  0.00     0.004 C 
ENDBRANCH  11  12
ENDBRANCH  10  11
ENDBRANCH   9  10
ENDBRANCH   8   9
ENDBRANCH   1   8
TORSDOF 10
ENDMDL
