MODEL 1
REMARK VINA RESULT:    -1.497      0.000      0.000
REMARK INTER + INTRA:         -10.021
REMARK INTER:                  -3.947
REMARK INTRA:                  -6.074
REMARK UNBOUND:                -6.074
REMARK SMILES CCCCCCCCCCCCCCCCCCCCCCCCCCCCCC(=O)[O-]
REMARK SMILES IDX 16 1 17 2 18 3 19 4 20 5 21 6 22 7 23 8 24 9 25 10 26 11
REMARK SMILES IDX 27 12 28 13 29 14 30 15 31 16 32 17 15 18 14 19 13 20 12 21
REMARK SMILES IDX 11 22 10 23 9 24 8 25 7 26 6 27 5 28 4 29 3 30 2 31 1 32
REMARK H PARENT
REMARK Flexibility Score: inf
ROOT
ATOM      1  C   UNL     1      18.336 -30.286   2.618  1.00  0.00     0.000 C 
ENDROOT
BRANCH   1   2
ATOM      2  C   UNL     1      17.837 -31.740   2.672  1.00  0.00     0.000 C 
BRANCH   2   3
ATOM      3  C   UNL     1      18.060 -32.398   4.045  1.00  0.00     0.000 C 
BRANCH   3   4
ATOM      4  C   UNL     1      16.800 -33.003   4.696  1.00  0.00     0.000 C 
BRANCH   4   5
ATOM      5  C   UNL     1      16.169 -32.158   5.822  1.00  0.00     0.000 C 
BRANCH   5   6
ATOM      6  C   UNL     1      17.017 -30.966   6.300  1.00  0.00     0.000 C 
BRANCH   6   7
ATOM      7  C   UNL     1      16.408 -29.606   5.917  1.00  0.00     0.000 C 
BRANCH   7   8
ATOM      8  C   UNL     1      15.087 -29.737   5.137  1.00  0.00     0.000 C 
BRANCH   8   9
ATOM      9  C   UNL     1      14.959 -28.835   3.894  1.00  0.00     0.000 C 
BRANCH   9  10
ATOM     10  C   UNL     1      14.695 -29.626   2.601  1.00  0.00     0.000 C 
BRANCH  10  11
ATOM     11  C   UNL     1      14.138 -31.037   2.865  1.00  0.00     0.000 C 
BRANCH  11  12
ATOM     12  C   UNL     1      13.031 -31.497   1.898  1.00  0.00     0.000 C 
BRANCH  12  13
ATOM     13  C   UNL     1      13.346 -32.839   1.220  1.00  0.00     0.006 C 
BRANCH  13  14
ATOM     14  C   UNL     1      14.606 -33.475   1.819  1.00  0.00     0.053 C 
BRANCH  14  15
ATOM     15  C   UNL     1      15.435 -34.110   0.746  1.00  0.00     0.041 C 
ATOM     16  O   UNL     1      14.990 -34.202  -0.428  1.00  0.00    -0.550 OA
ATOM     17  O   UNL     1      16.680 -34.645   1.057  1.00  0.00    -0.550 OA
ENDBRANCH  14  15
ENDBRANCH  13  14
ENDBRANCH  12  13
ENDBRANCH  11  12
ENDBRANCH  10  11
ENDBRANCH   9  10
ENDBRANCH   8   9
ENDBRANCH   7   8
ENDBRANCH   6   7
ENDBRANCH   5   6
ENDBRANCH   4   5
ENDBRANCH   3   4
ENDBRANCH   2   3
ENDBRANCH   1   2
BRANCH   1  18
ATOM     18  C   UNL     1      19.310 -29.948   3.757  1.00  0.00     0.000 C 
BRANCH  18  19
ATOM     19  C   UNL     1      19.940 -28.550   3.616  1.00  0.00     0.000 C 
BRANCH  19  20
ATOM     20  C   UNL     1      21.431 -28.624   3.250  1.00  0.00     0.000 C 
BRANCH  20  21
ATOM     21  C   UNL     1      21.862 -27.467   2.335  1.00  0.00     0.000 C 
BRANCH  21  22
ATOM     22  C   UNL     1      20.658 -26.616   1.916  1.00  0.00     0.000 C 
BRANCH  22  23
ATOM     23  C   UNL     1      20.890 -25.971   0.540  1.00  0.00     0.000 C 
BRANCH  23  24
ATOM     24  C   UNL     1      21.605 -26.922  -0.444  1.00  0.00    -0.000 C 
BRANCH  24  25
ATOM     25  C   UNL     1      20.694 -27.466  -1.563  1.00  0.00    -0.000 C 
BRANCH  25  26
ATOM     26  C   UNL     1      20.618 -29.000  -1.641  1.00  0.00    -0.000 C 
BRANCH  26  27
ATOM     27  C   UNL     1      20.378 -29.656  -0.269  1.00  0.00    -0.000 C 
BRANCH  27  28
ATOM     28  C   UNL     1      21.534 -30.574   0.158  1.00  0.00    -0.000 C 
BRANCH  28  29
ATOM     29  C   UNL     1      21.041 -31.903   0.757  1.00  0.00    -0.000 C 
BRANCH  29  30
ATOM     30  C   UNL     1      21.661 -32.188   2.135  1.00  0.00    -0.000 C 
BRANCH  30  31
ATOM     31  C   UNL     1      21.562 -33.668   2.529  1.00  0.00    -0.003 C 
ATOM     32  C   UNL     1      20.419 -34.358   1.792  1.00  0.00     0.004 C 
ENDBRANCH  30  31
ENDBRANCH  29  30
ENDBRANCH  28  29
ENDBRANCH  27  28
ENDBRANCH  26  27
ENDBRANCH  25  26
ENDBRANCH  24  25
ENDBRANCH  23  24
ENDBRANCH  22  23
ENDBRANCH  21  22
ENDBRANCH  20  21
ENDBRANCH  19  20
ENDBRANCH  18  19
ENDBRANCH   1  18
TORSDOF 28
ENDMDL
MODEL 2
REMARK VINA RESULT:    -1.480      3.313      7.872
REMARK INTER + INTRA:          -9.978
REMARK INTER:                  -3.101
REMARK INTRA:                  -6.876
REMARK UNBOUND:                -6.074
REMARK SMILES CCCCCCCCCCCCCCCCCCCCCCCCCCCCCC(=O)[O-]
REMARK SMILES IDX 16 1 17 2 18 3 19 4 20 5 21 6 22 7 23 8 24 9 25 10 26 11
REMARK SMILES IDX 27 12 28 13 29 14 30 15 31 16 32 17 15 18 14 19 13 20 12 21
REMARK SMILES IDX 11 22 10 23 9 24 8 25 7 26 6 27 5 28 4 29 3 30 2 31 1 32
REMARK H PARENT
REMARK Flexibility Score: inf
ROOT
ATOM      1  C   UNL     1      20.163 -29.294   3.643  1.00  0.00     0.000 C 
ENDROOT
BRANCH   1   2
ATOM      2  C   UNL     1      20.355 -27.893   3.037  1.00  0.00     0.000 C 
BRANCH   2   3
ATOM      3  C   UNL     1      21.250 -27.900   1.785  1.00  0.00     0.000 C 
BRANCH   3   4
ATOM      4  C   UNL     1      20.499 -27.808   0.441  1.00  0.00     0.000 C 
BRANCH   4   5
ATOM      5  C   UNL     1      20.132 -29.162  -0.202  1.00  0.00     0.000 C 
BRANCH   5   6
ATOM      6  C   UNL     1      21.219 -29.778  -1.100  1.00  0.00     0.000 C 
BRANCH   6   7
ATOM      7  C   UNL     1      21.841 -31.051  -0.499  1.00  0.00     0.000 C 
BRANCH   7   8
ATOM      8  C   UNL     1      21.063 -31.583   0.718  1.00  0.00     0.000 C 
BRANCH   8   9
ATOM      9  C   UNL     1      21.927 -32.001   1.924  1.00  0.00     0.000 C 
BRANCH   9  10
ATOM     10  C   UNL     1      23.152 -31.092   2.130  1.00  0.00     0.000 C 
BRANCH  10  11
ATOM     11  C   UNL     1      23.459 -30.830   3.616  1.00  0.00     0.000 C 
BRANCH  11  12
ATOM     12  C   UNL     1      23.874 -29.385   3.955  1.00  0.00     0.000 C 
BRANCH  12  13
ATOM     13  C   UNL     1      23.595 -29.009   5.418  1.00  0.00     0.006 C 
BRANCH  13  14
ATOM     14  C   UNL     1      23.060 -27.576   5.524  1.00  0.00     0.053 C 
BRANCH  14  15
ATOM     15  C   UNL     1      22.141 -27.443   6.698  1.00  0.00     0.041 C 
ATOM     16  O   UNL     1      22.388 -26.607   7.606  1.00  0.00    -0.550 OA
ATOM     17  O   UNL     1      21.037 -28.281   6.812  1.00  0.00    -0.550 OA
ENDBRANCH  14  15
ENDBRANCH  13  14
ENDBRANCH  12  13
ENDBRANCH  11  12
ENDBRANCH  10  11
ENDBRANCH   9  10
ENDBRANCH   8   9
ENDBRANCH   7   8
ENDBRANCH   6   7
ENDBRANCH   5   6
ENDBRANCH   4   5
ENDBRANCH   3   4
ENDBRANCH   2   3
ENDBRANCH   1   2
BRANCH   1  18
ATOM     18  C   UNL     1      18.684 -29.681   3.792  1.00  0.00     0.000 C 
BRANCH  18  19
ATOM     19  C   UNL     1      18.171 -30.556   2.634  1.00  0.00     0.000 C 
BRANCH  19  20
ATOM     20  C   UNL     1      16.648 -30.763   2.698  1.00  0.00     0.000 C 
BRANCH  20  21
ATOM     21  C   UNL     1      16.198 -31.333   4.053  1.00  0.00     0.000 C 
BRANCH  21  22
ATOM     22  C   UNL     1      15.294 -32.557   3.862  1.00  0.00     0.000 C 
BRANCH  22  23
ATOM     23  C   UNL     1      15.161 -32.918   2.373  1.00  0.00     0.000 C 
BRANCH  23  24
ATOM     24  C   UNL     1      15.779 -34.295   2.043  1.00  0.00    -0.000 C 
BRANCH  24  25
ATOM     25  C   UNL     1      16.764 -34.270   0.857  1.00  0.00    -0.000 C 
BRANCH  25  26
ATOM     26  C   UNL     1      18.239 -34.083   1.248  1.00  0.00    -0.000 C 
BRANCH  26  27
ATOM     27  C   UNL     1      18.613 -34.833   2.540  1.00  0.00    -0.000 C 
BRANCH  27  28
ATOM     28  C   UNL     1      19.364 -33.944   3.543  1.00  0.00    -0.000 C 
BRANCH  28  29
ATOM     29  C   UNL     1      18.663 -33.877   4.912  1.00  0.00    -0.000 C 
BRANCH  29  30
ATOM     30  C   UNL     1      19.244 -32.775   5.813  1.00  0.00    -0.000 C 
BRANCH  30  31
ATOM     31  C   UNL     1      20.688 -32.412   5.441  1.00  0.00    -0.003 C 
ATOM     32  C   UNL     1      21.427 -31.809   6.631  1.00  0.00     0.004 C 
ENDBRANCH  30  31
ENDBRANCH  29  30
ENDBRANCH  28  29
ENDBRANCH  27  28
ENDBRANCH  26  27
ENDBRANCH  25  26
ENDBRANCH  24  25
ENDBRANCH  23  24
ENDBRANCH  22  23
ENDBRANCH  21  22
ENDBRANCH  20  21
ENDBRANCH  19  20
ENDBRANCH  18  19
ENDBRANCH   1  18
TORSDOF 28
ENDMDL
MODEL 3
REMARK VINA RESULT:    -1.476      2.886      7.067
REMARK INTER + INTRA:          -9.967
REMARK INTER:                  -2.740
REMARK INTRA:                  -7.227
REMARK UNBOUND:                -6.074
REMARK SMILES CCCCCCCCCCCCCCCCCCCCCCCCCCCCCC(=O)[O-]
REMARK SMILES IDX 16 1 17 2 18 3 19 4 20 5 21 6 22 7 23 8 24 9 25 10 26 11
REMARK SMILES IDX 27 12 28 13 29 14 30 15 31 16 32 17 15 18 14 19 13 20 12 21
REMARK SMILES IDX 11 22 10 23 9 24 8 25 7 26 6 27 5 28 4 29 3 30 2 31 1 32
REMARK H PARENT
REMARK Flexibility Score: inf
ROOT
ATOM      1  C   UNL     1      21.998 -33.083   4.277  1.00  0.00     0.000 C 
ENDROOT
BRANCH   1   2
ATOM      2  C   UNL     1      21.710 -33.252   2.776  1.00  0.00     0.000 C 
BRANCH   2   3
ATOM      3  C   UNL     1      20.212 -33.430   2.470  1.00  0.00     0.000 C 
BRANCH   3   4
ATOM      4  C   UNL     1      19.643 -32.476   1.400  1.00  0.00     0.000 C 
BRANCH   4   5
ATOM      5  C   UNL     1      20.495 -31.222   1.115  1.00  0.00     0.000 C 
BRANCH   5   6
ATOM      6  C   UNL     1      19.729 -29.887   1.148  1.00  0.00     0.000 C 
BRANCH   6   7
ATOM      7  C   UNL     1      20.242 -28.877   0.108  1.00  0.00     0.000 C 
BRANCH   7   8
ATOM      8  C   UNL     1      20.684 -27.541   0.734  1.00  0.00     0.000 C 
BRANCH   8   9
ATOM      9  C   UNL     1      20.413 -27.396   2.243  1.00  0.00     0.000 C 
BRANCH   9  10
ATOM     10  C   UNL     1      21.697 -27.203   3.070  1.00  0.00     0.000 C 
BRANCH  10  11
ATOM     11  C   UNL     1      21.855 -28.255   4.184  1.00  0.00     0.000 C 
BRANCH  11  12
ATOM     12  C   UNL     1      22.464 -29.597   3.736  1.00  0.00     0.000 C 
BRANCH  12  13
ATOM     13  C   UNL     1      23.830 -29.437   3.051  1.00  0.00     0.006 C 
BRANCH  13  14
ATOM     14  C   UNL     1      23.898 -30.262   1.761  1.00  0.00     0.053 C 
BRANCH  14  15
ATOM     15  C   UNL     1      23.900 -29.366   0.563  1.00  0.00     0.041 C 
ATOM     16  O   UNL     1      23.660 -29.835  -0.581  1.00  0.00    -0.550 OA
ATOM     17  O   UNL     1      24.217 -28.019   0.704  1.00  0.00    -0.550 OA
ENDBRANCH  14  15
ENDBRANCH  13  14
ENDBRANCH  12  13
ENDBRANCH  11  12
ENDBRANCH  10  11
ENDBRANCH   9  10
ENDBRANCH   8   9
ENDBRANCH   7   8
ENDBRANCH   6   7
ENDBRANCH   5   6
ENDBRANCH   4   5
ENDBRANCH   3   4
ENDBRANCH   2   3
ENDBRANCH   1   2
BRANCH   1  18
ATOM     18  C   UNL     1      20.719 -33.042   5.128  1.00  0.00     0.000 C 
BRANCH  18  19
ATOM     19  C   UNL     1      20.682 -31.851   6.103  1.00  0.00     0.000 C 
BRANCH  19  20
ATOM     20  C   UNL     1      19.347 -31.090   6.032  1.00  0.00     0.000 C 
BRANCH  20  21
ATOM     21  C   UNL     1      18.993 -30.672   4.596  1.00  0.00     0.000 C 
BRANCH  21  22
ATOM     22  C   UNL     1      18.251 -29.331   4.578  1.00  0.00     0.000 C 
BRANCH  22  23
ATOM     23  C   UNL     1      16.765 -29.527   4.236  1.00  0.00     0.000 C 
BRANCH  23  24
ATOM     24  C   UNL     1      16.557 -30.472   3.033  1.00  0.00    -0.000 C 
BRANCH  24  25
ATOM     25  C   UNL     1      15.096 -30.926   2.838  1.00  0.00    -0.000 C 
BRANCH  25  26
ATOM     26  C   UNL     1      14.929 -32.398   2.424  1.00  0.00    -0.000 C 
BRANCH  26  27
ATOM     27  C   UNL     1      16.275 -33.119   2.230  1.00  0.00    -0.000 C 
BRANCH  27  28
ATOM     28  C   UNL     1      16.470 -34.283   3.215  1.00  0.00    -0.000 C 
BRANCH  28  29
ATOM     29  C   UNL     1      17.083 -33.828   4.551  1.00  0.00    -0.000 C 
BRANCH  29  30
ATOM     30  C   UNL     1      16.044 -33.783   5.684  1.00  0.00    -0.000 C 
BRANCH  30  31
ATOM     31  C   UNL     1      16.036 -32.436   6.420  1.00  0.00    -0.003 C 
ATOM     32  C   UNL     1      14.638 -31.825   6.431  1.00  0.00     0.004 C 
ENDBRANCH  30  31
ENDBRANCH  29  30
ENDBRANCH  28  29
ENDBRANCH  27  28
ENDBRANCH  26  27
ENDBRANCH  25  26
ENDBRANCH  24  25
ENDBRANCH  23  24
ENDBRANCH  22  23
ENDBRANCH  21  22
ENDBRANCH  20  21
ENDBRANCH  19  20
ENDBRANCH  18  19
ENDBRANCH   1  18
TORSDOF 28
ENDMDL
MODEL 4
REMARK VINA RESULT:    -1.464      2.668      6.806
REMARK INTER + INTRA:          -9.935
REMARK INTER:                  -3.232
REMARK INTRA:                  -6.703
REMARK UNBOUND:                -6.074
REMARK SMILES CCCCCCCCCCCCCCCCCCCCCCCCCCCCCC(=O)[O-]
REMARK SMILES IDX 16 1 17 2 18 3 19 4 20 5 21 6 22 7 23 8 24 9 25 10 26 11
REMARK SMILES IDX 27 12 28 13 29 14 30 15 31 16 32 17 15 18 14 19 13 20 12 21
REMARK SMILES IDX 11 22 10 23 9 24 8 25 7 26 6 27 5 28 4 29 3 30 2 31 1 32
REMARK H PARENT
REMARK Flexibility Score: inf
ROOT
ATOM      1  C   UNL     1      18.899 -33.279   4.973  1.00  0.00     0.000 C 
ENDROOT
BRANCH   1   2
ATOM      2  C   UNL     1      19.094 -32.718   6.392  1.00  0.00     0.000 C 
BRANCH   2   3
ATOM      3  C   UNL     1      19.161 -31.181   6.423  1.00  0.00     0.000 C 
BRANCH   3   4
ATOM      4  C   UNL     1      17.829 -30.472   6.740  1.00  0.00     0.000 C 
BRANCH   4   5
ATOM      5  C   UNL     1      16.797 -31.322   7.510  1.00  0.00     0.000 C 
BRANCH   5   6
ATOM      6  C   UNL     1      15.536 -31.703   6.713  1.00  0.00     0.000 C 
BRANCH   6   7
ATOM      7  C   UNL     1      15.346 -30.846   5.450  1.00  0.00     0.000 C 
BRANCH   7   8
ATOM      8  C   UNL     1      15.054 -31.686   4.192  1.00  0.00     0.000 C 
BRANCH   8   9
ATOM      9  C   UNL     1      15.825 -31.269   2.925  1.00  0.00     0.000 C 
BRANCH   9  10
ATOM     10  C   UNL     1      17.098 -30.462   3.233  1.00  0.00     0.000 C 
BRANCH  10  11
ATOM     11  C   UNL     1      18.275 -30.826   2.309  1.00  0.00     0.000 C 
BRANCH  11  12
ATOM     12  C   UNL     1      19.662 -30.371   2.803  1.00  0.00     0.000 C 
BRANCH  12  13
ATOM     13  C   UNL     1      20.787 -31.337   2.405  1.00  0.00     0.006 C 
BRANCH  13  14
ATOM     14  C   UNL     1      20.840 -31.524   0.884  1.00  0.00     0.053 C 
BRANCH  14  15
ATOM     15  C   UNL     1      21.269 -30.257   0.213  1.00  0.00     0.041 C 
ATOM     16  O   UNL     1      22.421 -29.791   0.415  1.00  0.00    -0.550 OA
ATOM     17  O   UNL     1      20.375 -29.564  -0.596  1.00  0.00    -0.550 OA
ENDBRANCH  14  15
ENDBRANCH  13  14
ENDBRANCH  12  13
ENDBRANCH  11  12
ENDBRANCH  10  11
ENDBRANCH   9  10
ENDBRANCH   8   9
ENDBRANCH   7   8
ENDBRANCH   6   7
ENDBRANCH   5   6
ENDBRANCH   4   5
ENDBRANCH   3   4
ENDBRANCH   2   3
ENDBRANCH   1   2
BRANCH   1  18
ATOM     18  C   UNL     1      17.652 -34.168   4.850  1.00  0.00     0.000 C 
BRANCH  18  19
ATOM     19  C   UNL     1      17.435 -34.707   3.424  1.00  0.00     0.000 C 
BRANCH  19  20
ATOM     20  C   UNL     1      18.680 -34.518   2.541  1.00  0.00     0.000 C 
BRANCH  20  21
ATOM     21  C   UNL     1      18.317 -34.322   1.061  1.00  0.00     0.000 C 
BRANCH  21  22
ATOM     22  C   UNL     1      16.798 -34.370   0.854  1.00  0.00     0.000 C 
BRANCH  22  23
ATOM     23  C   UNL     1      16.385 -35.641   0.094  1.00  0.00     0.000 C 
BRANCH  23  24
ATOM     24  C   UNL     1      16.351 -35.429  -1.436  1.00  0.00    -0.000 C 
BRANCH  24  25
ATOM     25  C   UNL     1      14.944 -35.141  -1.997  1.00  0.00    -0.000 C 
BRANCH  25  26
ATOM     26  C   UNL     1      13.803 -35.892  -1.290  1.00  0.00    -0.000 C 
BRANCH  26  27
ATOM     27  C   UNL     1      12.684 -34.953  -0.802  1.00  0.00    -0.000 C 
BRANCH  27  28
ATOM     28  C   UNL     1      13.170 -33.510  -0.598  1.00  0.00    -0.000 C 
BRANCH  28  29
ATOM     29  C   UNL     1      13.438 -33.182   0.883  1.00  0.00    -0.000 C 
BRANCH  29  30
ATOM     30  C   UNL     1      12.718 -34.152   1.835  1.00  0.00    -0.000 C 
BRANCH  30  31
ATOM     31  C   UNL     1      13.677 -34.821   2.828  1.00  0.00    -0.003 C 
ATOM     32  C   UNL     1      13.789 -36.318   2.561  1.00  0.00     0.004 C 
ENDBRANCH  30  31
ENDBRANCH  29  30
ENDBRANCH  28  29
ENDBRANCH  27  28
ENDBRANCH  26  27
ENDBRANCH  25  26
ENDBRANCH  24  25
ENDBRANCH  23  24
ENDBRANCH  22  23
ENDBRANCH  21  22
ENDBRANCH  20  21
ENDBRANCH  19  20
ENDBRANCH  18  19
ENDBRANCH   1  18
TORSDOF 28
ENDMDL
MODEL 5
REMARK VINA RESULT:    -1.429      3.415      7.896
REMARK INTER + INTRA:          -9.843
REMARK INTER:                  -2.710
REMARK INTRA:                  -7.132
REMARK UNBOUND:                -6.074
REMARK SMILES CCCCCCCCCCCCCCCCCCCCCCCCCCCCCC(=O)[O-]
REMARK SMILES IDX 16 1 17 2 18 3 19 4 20 5 21 6 22 7 23 8 24 9 25 10 26 11
REMARK SMILES IDX 27 12 28 13 29 14 30 15 31 16 32 17 15 18 14 19 13 20 12 21
REMARK SMILES IDX 11 22 10 23 9 24 8 25 7 26 6 27 5 28 4 29 3 30 2 31 1 32
REMARK H PARENT
REMARK Flexibility Score: inf
ROOT
ATOM      1  C   UNL     1      20.678 -31.434   1.644  1.00  0.00     0.000 C 
ENDROOT
BRANCH   1   2
ATOM      2  C   UNL     1      21.524 -31.612   0.372  1.00  0.00     0.000 C 
BRANCH   2   3
ATOM      3  C   UNL     1      21.603 -30.332  -0.478  1.00  0.00     0.000 C 
BRANCH   3   4
ATOM      4  C   UNL     1      20.358 -29.423  -0.413  1.00  0.00     0.000 C 
BRANCH   4   5
ATOM      5  C   UNL     1      20.491 -28.071  -1.143  1.00  0.00     0.000 C 
BRANCH   5   6
ATOM      6  C   UNL     1      21.918 -27.497  -1.207  1.00  0.00     0.000 C 
BRANCH   6   7
ATOM      7  C   UNL     1      22.084 -26.210  -0.381  1.00  0.00     0.000 C 
BRANCH   7   8
ATOM      8  C   UNL     1      20.784 -25.776   0.323  1.00  0.00     0.000 C 
BRANCH   8   9
ATOM      9  C   UNL     1      20.840 -25.759   1.863  1.00  0.00     0.000 C 
BRANCH   9  10
ATOM     10  C   UNL     1      20.466 -27.112   2.494  1.00  0.00     0.000 C 
BRANCH  10  11
ATOM     11  C   UNL     1      21.678 -28.044   2.676  1.00  0.00     0.000 C 
BRANCH  11  12
ATOM     12  C   UNL     1      22.975 -27.350   3.136  1.00  0.00     0.000 C 
BRANCH  12  13
ATOM     13  C   UNL     1      24.218 -27.841   2.380  1.00  0.00     0.006 C 
BRANCH  13  14
ATOM     14  C   UNL     1      24.323 -29.370   2.428  1.00  0.00     0.053 C 
BRANCH  14  15
ATOM     15  C   UNL     1      24.803 -29.905   1.115  1.00  0.00     0.041 C 
ATOM     16  O   UNL     1      25.033 -29.121   0.157  1.00  0.00    -0.550 OA
ATOM     17  O   UNL     1      24.949 -31.277   0.936  1.00  0.00    -0.550 OA
ENDBRANCH  14  15
ENDBRANCH  13  14
ENDBRANCH  12  13
ENDBRANCH  11  12
ENDBRANCH  10  11
ENDBRANCH   9  10
ENDBRANCH   8   9
ENDBRANCH   7   8
ENDBRANCH   6   7
ENDBRANCH   5   6
ENDBRANCH   4   5
ENDBRANCH   3   4
ENDBRANCH   2   3
ENDBRANCH   1   2
BRANCH   1  18
ATOM     18  C   UNL     1      19.542 -32.463   1.753  1.00  0.00     0.000 C 
BRANCH  18  19
ATOM     19  C   UNL     1      18.267 -31.886   2.394  1.00  0.00     0.000 C 
BRANCH  19  20
ATOM     20  C   UNL     1      18.369 -30.368   2.615  1.00  0.00     0.000 C 
BRANCH  20  21
ATOM     21  C   UNL     1      18.228 -29.986   4.097  1.00  0.00     0.000 C 
BRANCH  21  22
ATOM     22  C   UNL     1      17.948 -31.222   4.961  1.00  0.00     0.000 C 
BRANCH  22  23
ATOM     23  C   UNL     1      19.064 -31.433   5.998  1.00  0.00     0.000 C 
BRANCH  23  24
ATOM     24  C   UNL     1      20.024 -32.578   5.607  1.00  0.00    -0.000 C 
BRANCH  24  25
ATOM     25  C   UNL     1      21.462 -32.113   5.306  1.00  0.00    -0.000 C 
BRANCH  25  26
ATOM     26  C   UNL     1      21.620 -30.597   5.103  1.00  0.00    -0.000 C 
BRANCH  26  27
ATOM     27  C   UNL     1      22.837 -30.019   5.850  1.00  0.00    -0.000 C 
BRANCH  27  28
ATOM     28  C   UNL     1      22.496 -28.747   6.641  1.00  0.00    -0.000 C 
BRANCH  28  29
ATOM     29  C   UNL     1      20.982 -28.472   6.692  1.00  0.00    -0.000 C 
BRANCH  29  30
ATOM     30  C   UNL     1      20.633 -27.038   6.261  1.00  0.00    -0.000 C 
BRANCH  30  31
ATOM     31  C   UNL     1      21.854 -26.107   6.275  1.00  0.00    -0.003 C 
ATOM     32  C   UNL     1      21.614 -24.875   5.409  1.00  0.00     0.004 C 
ENDBRANCH  30  31
ENDBRANCH  29  30
ENDBRANCH  28  29
ENDBRANCH  27  28
ENDBRANCH  26  27
ENDBRANCH  25  26
ENDBRANCH  24  25
ENDBRANCH  23  24
ENDBRANCH  22  23
ENDBRANCH  21  22
ENDBRANCH  20  21
ENDBRANCH  19  20
ENDBRANCH  18  19
ENDBRANCH   1  18
TORSDOF 28
ENDMDL
MODEL 6
REMARK VINA RESULT:    -1.416      3.208      7.542
REMARK INTER + INTRA:          -9.808
REMARK INTER:                  -2.850
REMARK INTRA:                  -6.958
REMARK UNBOUND:                -6.074
REMARK SMILES CCCCCCCCCCCCCCCCCCCCCCCCCCCCCC(=O)[O-]
REMARK SMILES IDX 16 1 17 2 18 3 19 4 20 5 21 6 22 7 23 8 24 9 25 10 26 11
REMARK SMILES IDX 27 12 28 13 29 14 30 15 31 16 32 17 15 18 14 19 13 20 12 21
REMARK SMILES IDX 11 22 10 23 9 24 8 25 7 26 6 27 5 28 4 29 3 30 2 31 1 32
REMARK H PARENT
REMARK Flexibility Score: inf
ROOT
ATOM      1  C   UNL     1      22.184 -26.438   1.939  1.00  0.00     0.000 C 
ENDROOT
BRANCH   1   2
ATOM      2  C   UNL     1      22.404 -25.981   0.487  1.00  0.00     0.000 C 
BRANCH   2   3
ATOM      3  C   UNL     1      23.407 -26.867  -0.274  1.00  0.00     0.000 C 
BRANCH   3   4
ATOM      4  C   UNL     1      22.855 -27.539  -1.547  1.00  0.00     0.000 C 
BRANCH   4   5
ATOM      5  C   UNL     1      21.367 -27.264  -1.845  1.00  0.00     0.000 C 
BRANCH   5   6
ATOM      6  C   UNL     1      20.432 -28.478  -1.694  1.00  0.00     0.000 C 
BRANCH   6   7
ATOM      7  C   UNL     1      20.027 -28.744  -0.234  1.00  0.00     0.000 C 
BRANCH   7   8
ATOM      8  C   UNL     1      20.478 -30.126   0.273  1.00  0.00     0.000 C 
BRANCH   8   9
ATOM      9  C   UNL     1      21.690 -30.119   1.224  1.00  0.00     0.000 C 
BRANCH   9  10
ATOM     10  C   UNL     1      22.952 -30.735   0.594  1.00  0.00     0.000 C 
BRANCH  10  11
ATOM     11  C   UNL     1      24.200 -30.585   1.485  1.00  0.00     0.000 C 
BRANCH  11  12
ATOM     12  C   UNL     1      24.252 -29.297   2.327  1.00  0.00     0.000 C 
BRANCH  12  13
ATOM     13  C   UNL     1      24.339 -29.569   3.836  1.00  0.00     0.006 C 
BRANCH  13  14
ATOM     14  C   UNL     1      24.317 -31.075   4.126  1.00  0.00     0.053 C 
BRANCH  14  15
ATOM     15  C   UNL     1      24.241 -31.325   5.599  1.00  0.00     0.041 C 
ATOM     16  O   UNL     1      23.217 -31.861   6.099  1.00  0.00    -0.550 OA
ATOM     17  O   UNL     1      25.283 -30.921   6.427  1.00  0.00    -0.550 OA
ENDBRANCH  14  15
ENDBRANCH  13  14
ENDBRANCH  12  13
ENDBRANCH  11  12
ENDBRANCH  10  11
ENDBRANCH   9  10
ENDBRANCH   8   9
ENDBRANCH   7   8
ENDBRANCH   6   7
ENDBRANCH   5   6
ENDBRANCH   4   5
ENDBRANCH   3   4
ENDBRANCH   2   3
ENDBRANCH   1   2
BRANCH   1  18
ATOM     18  C   UNL     1      20.740 -26.222   2.418  1.00  0.00     0.000 C 
BRANCH  18  19
ATOM     19  C   UNL     1      20.169 -27.434   3.177  1.00  0.00     0.000 C 
BRANCH  19  20
ATOM     20  C   UNL     1      20.414 -27.333   4.692  1.00  0.00     0.000 C 
BRANCH  20  21
ATOM     21  C   UNL     1      21.200 -28.537   5.234  1.00  0.00     0.000 C 
BRANCH  21  22
ATOM     22  C   UNL     1      20.664 -29.852   4.656  1.00  0.00     0.000 C 
BRANCH  22  23
ATOM     23  C   UNL     1      19.837 -30.618   5.702  1.00  0.00     0.000 C 
BRANCH  23  24
ATOM     24  C   UNL     1      18.455 -31.048   5.163  1.00  0.00    -0.000 C 
BRANCH  24  25
ATOM     25  C   UNL     1      17.883 -30.105   4.086  1.00  0.00    -0.000 C 
BRANCH  25  26
ATOM     26  C   UNL     1      17.704 -30.745   2.699  1.00  0.00    -0.000 C 
BRANCH  26  27
ATOM     27  C   UNL     1      16.970 -32.098   2.757  1.00  0.00    -0.000 C 
BRANCH  27  28
ATOM     28  C   UNL     1      17.742 -33.221   2.047  1.00  0.00    -0.000 C 
BRANCH  28  29
ATOM     29  C   UNL     1      19.259 -32.961   2.011  1.00  0.00    -0.000 C 
BRANCH  29  30
ATOM     30  C   UNL     1      20.002 -33.682   3.149  1.00  0.00    -0.000 C 
BRANCH  30  31
ATOM     31  C   UNL     1      21.466 -33.237   3.269  1.00  0.00    -0.003 C 
ATOM     32  C   UNL     1      22.342 -33.947   2.242  1.00  0.00     0.004 C 
ENDBRANCH  30  31
ENDBRANCH  29  30
ENDBRANCH  28  29
ENDBRANCH  27  28
ENDBRANCH  26  27
ENDBRANCH  25  26
ENDBRANCH  24  25
ENDBRANCH  23  24
ENDBRANCH  22  23
ENDBRANCH  21  22
ENDBRANCH  20  21
ENDBRANCH  19  20
ENDBRANCH  18  19
ENDBRANCH   1  18
TORSDOF 28
ENDMDL
MODEL 7
REMARK VINA RESULT:    -1.413      2.144      4.051
REMARK INTER + INTRA:          -9.801
REMARK INTER:                  -3.618
REMARK INTRA:                  -6.183
REMARK UNBOUND:                -6.074
REMARK SMILES CCCCCCCCCCCCCCCCCCCCCCCCCCCCCC(=O)[O-]
REMARK SMILES IDX 16 1 17 2 18 3 19 4 20 5 21 6 22 7 23 8 24 9 25 10 26 11
REMARK SMILES IDX 27 12 28 13 29 14 30 15 31 16 32 17 15 18 14 19 13 20 12 21
REMARK SMILES IDX 11 22 10 23 9 24 8 25 7 26 6 27 5 28 4 29 3 30 2 31 1 32
REMARK H PARENT
REMARK Flexibility Score: inf
ROOT
ATOM      1  C   UNL     1      20.194 -29.950   4.398  1.00  0.00     0.000 C 
ENDROOT
BRANCH   1   2
ATOM      2  C   UNL     1      21.244 -30.866   5.050  1.00  0.00     0.000 C 
BRANCH   2   3
ATOM      3  C   UNL     1      21.169 -32.318   4.543  1.00  0.00     0.000 C 
BRANCH   3   4
ATOM      4  C   UNL     1      19.813 -32.731   3.935  1.00  0.00     0.000 C 
BRANCH   4   5
ATOM      5  C   UNL     1      19.891 -33.406   2.550  1.00  0.00     0.000 C 
BRANCH   5   6
ATOM      6  C   UNL     1      18.684 -33.154   1.629  1.00  0.00     0.000 C 
BRANCH   6   7
ATOM      7  C   UNL     1      17.850 -34.422   1.375  1.00  0.00     0.000 C 
BRANCH   7   8
ATOM      8  C   UNL     1      16.344 -34.133   1.234  1.00  0.00     0.000 C 
BRANCH   8   9
ATOM      9  C   UNL     1      15.493 -34.436   2.482  1.00  0.00     0.000 C 
BRANCH   9  10
ATOM     10  C   UNL     1      16.290 -35.130   3.601  1.00  0.00     0.000 C 
BRANCH  10  11
ATOM     11  C   UNL     1      16.613 -34.190   4.777  1.00  0.00     0.000 C 
BRANCH  11  12
ATOM     12  C   UNL     1      15.697 -32.958   4.902  1.00  0.00     0.000 C 
BRANCH  12  13
ATOM     13  C   UNL     1      16.472 -31.632   4.908  1.00  0.00     0.006 C 
BRANCH  13  14
ATOM     14  C   UNL     1      16.394 -30.943   3.540  1.00  0.00     0.053 C 
BRANCH  14  15
ATOM     15  C   UNL     1      15.244 -29.986   3.498  1.00  0.00     0.041 C 
ATOM     16  O   UNL     1      14.818 -29.555   2.395  1.00  0.00    -0.550 OA
ATOM     17  O   UNL     1      14.677 -29.531   4.684  1.00  0.00    -0.550 OA
ENDBRANCH  14  15
ENDBRANCH  13  14
ENDBRANCH  12  13
ENDBRANCH  11  12
ENDBRANCH  10  11
ENDBRANCH   9  10
ENDBRANCH   8   9
ENDBRANCH   7   8
ENDBRANCH   6   7
ENDBRANCH   5   6
ENDBRANCH   4   5
ENDBRANCH   3   4
ENDBRANCH   2   3
ENDBRANCH   1   2
BRANCH   1  18
ATOM     18  C   UNL     1      20.596 -28.468   4.428  1.00  0.00     0.000 C 
BRANCH  18  19
ATOM     19  C   UNL     1      20.099 -27.684   3.199  1.00  0.00     0.000 C 
BRANCH  19  20
ATOM     20  C   UNL     1      20.936 -26.420   2.944  1.00  0.00     0.000 C 
BRANCH  20  21
ATOM     21  C   UNL     1      20.803 -25.918   1.498  1.00  0.00     0.000 C 
BRANCH  21  22
ATOM     22  C   UNL     1      22.165 -25.503   0.930  1.00  0.00     0.000 C 
BRANCH  22  23
ATOM     23  C   UNL     1      22.265 -25.841  -0.567  1.00  0.00     0.000 C 
BRANCH  23  24
ATOM     24  C   UNL     1      21.004 -26.562  -1.094  1.00  0.00    -0.000 C 
BRANCH  24  25
ATOM     25  C   UNL     1      21.306 -27.730  -2.053  1.00  0.00    -0.000 C 
BRANCH  25  26
ATOM     26  C   UNL     1      20.668 -29.071  -1.656  1.00  0.00    -0.000 C 
BRANCH  26  27
ATOM     27  C   UNL     1      19.868 -28.985  -0.343  1.00  0.00    -0.000 C 
BRANCH  27  28
ATOM     28  C   UNL     1      20.168 -30.151   0.611  1.00  0.00    -0.000 C 
BRANCH  28  29
ATOM     29  C   UNL     1      21.591 -30.709   0.431  1.00  0.00    -0.000 C 
BRANCH  29  30
ATOM     30  C   UNL     1      22.504 -30.378   1.624  1.00  0.00    -0.000 C 
BRANCH  30  31
ATOM     31  C   UNL     1      23.213 -29.026   1.464  1.00  0.00    -0.003 C 
ATOM     32  C   UNL     1      23.993 -28.967   0.155  1.00  0.00     0.004 C 
ENDBRANCH  30  31
ENDBRANCH  29  30
ENDBRANCH  28  29
ENDBRANCH  27  28
ENDBRANCH  26  27
ENDBRANCH  25  26
ENDBRANCH  24  25
ENDBRANCH  23  24
ENDBRANCH  22  23
ENDBRANCH  21  22
ENDBRANCH  20  21
ENDBRANCH  19  20
ENDBRANCH  18  19
ENDBRANCH   1  18
TORSDOF 28
ENDMDL
MODEL 8
REMARK VINA RESULT:    -1.408      2.878      7.793
REMARK INTER + INTRA:          -9.788
REMARK INTER:                  -3.274
REMARK INTRA:                  -6.514
REMARK UNBOUND:                -6.074
REMARK SMILES CCCCCCCCCCCCCCCCCCCCCCCCCCCCCC(=O)[O-]
REMARK SMILES IDX 16 1 17 2 18 3 19 4 20 5 21 6 22 7 23 8 24 9 25 10 26 11
REMARK SMILES IDX 27 12 28 13 29 14 30 15 31 16 32 17 15 18 14 19 13 20 12 21
REMARK SMILES IDX 11 22 10 23 9 24 8 25 7 26 6 27 5 28 4 29 3 30 2 31 1 32
REMARK H PARENT
REMARK Flexibility Score: inf
ROOT
ATOM      1  C   UNL     1      14.116 -33.876  -1.365  1.00  0.00     0.000 C 
ENDROOT
BRANCH   1   2
ATOM      2  C   UNL     1      14.608 -35.254  -1.839  1.00  0.00     0.000 C 
BRANCH   2   3
ATOM      3  C   UNL     1      15.998 -35.616  -1.286  1.00  0.00     0.000 C 
BRANCH   3   4
ATOM      4  C   UNL     1      16.365 -34.948   0.054  1.00  0.00     0.000 C 
BRANCH   4   5
ATOM      5  C   UNL     1      17.875 -34.882   0.366  1.00  0.00     0.000 C 
BRANCH   5   6
ATOM      6  C   UNL     1      18.256 -34.023   1.585  1.00  0.00     0.000 C 
BRANCH   6   7
ATOM      7  C   UNL     1      18.959 -34.831   2.690  1.00  0.00     0.000 C 
BRANCH   7   8
ATOM      8  C   UNL     1      18.388 -34.555   4.093  1.00  0.00     0.000 C 
BRANCH   8   9
ATOM      9  C   UNL     1      18.959 -33.316   4.808  1.00  0.00     0.000 C 
BRANCH   9  10
ATOM     10  C   UNL     1      17.878 -32.471   5.505  1.00  0.00     0.000 C 
BRANCH  10  11
ATOM     11  C   UNL     1      17.998 -30.968   5.190  1.00  0.00     0.000 C 
BRANCH  11  12
ATOM     12  C   UNL     1      17.124 -30.471   4.023  1.00  0.00     0.000 C 
BRANCH  12  13
ATOM     13  C   UNL     1      17.836 -30.547   2.665  1.00  0.00     0.006 C 
BRANCH  13  14
ATOM     14  C   UNL     1      19.290 -30.074   2.779  1.00  0.00     0.053 C 
BRANCH  14  15
ATOM     15  C   UNL     1      20.159 -30.807   1.805  1.00  0.00     0.041 C 
ATOM     16  O   UNL     1      20.147 -30.495   0.585  1.00  0.00    -0.550 OA
ATOM     17  O   UNL     1      20.946 -31.868   2.239  1.00  0.00    -0.550 OA
ENDBRANCH  14  15
ENDBRANCH  13  14
ENDBRANCH  12  13
ENDBRANCH  11  12
ENDBRANCH  10  11
ENDBRANCH   9  10
ENDBRANCH   8   9
ENDBRANCH   7   8
ENDBRANCH   6   7
ENDBRANCH   5   6
ENDBRANCH   4   5
ENDBRANCH   3   4
ENDBRANCH   2   3
ENDBRANCH   1   2
BRANCH   1  18
ATOM     18  C   UNL     1      12.620 -33.867  -1.013  1.00  0.00     0.000 C 
BRANCH  18  19
ATOM     19  C   UNL     1      12.208 -32.647  -0.169  1.00  0.00     0.000 C 
BRANCH  19  20
ATOM     20  C   UNL     1      12.412 -32.892   1.335  1.00  0.00     0.000 C 
BRANCH  20  21
ATOM     21  C   UNL     1      13.458 -31.943   1.942  1.00  0.00     0.000 C 
BRANCH  21  22
ATOM     22  C   UNL     1      14.795 -32.662   2.158  1.00  0.00     0.000 C 
BRANCH  22  23
ATOM     23  C   UNL     1      14.856 -33.303   3.555  1.00  0.00     0.000 C 
BRANCH  23  24
ATOM     24  C   UNL     1      14.767 -34.844   3.501  1.00  0.00    -0.000 C 
BRANCH  24  25
ATOM     25  C   UNL     1      13.384 -35.406   3.886  1.00  0.00    -0.000 C 
BRANCH  25  26
ATOM     26  C   UNL     1      12.913 -36.597   3.034  1.00  0.00    -0.000 C 
BRANCH  26  27
ATOM     27  C   UNL     1      13.340 -36.481   1.560  1.00  0.00    -0.000 C 
BRANCH  27  28
ATOM     28  C   UNL     1      14.105 -37.719   1.066  1.00  0.00    -0.000 C 
BRANCH  28  29
ATOM     29  C   UNL     1      14.907 -38.402   2.188  1.00  0.00    -0.000 C 
BRANCH  29  30
ATOM     30  C   UNL     1      16.371 -37.933   2.228  1.00  0.00    -0.000 C 
BRANCH  30  31
ATOM     31  C   UNL     1      17.208 -38.521   1.084  1.00  0.00    -0.003 C 
ATOM     32  C   UNL     1      18.699 -38.321   1.335  1.00  0.00     0.004 C 
ENDBRANCH  30  31
ENDBRANCH  29  30
ENDBRANCH  28  29
ENDBRANCH  27  28
ENDBRANCH  26  27
ENDBRANCH  25  26
ENDBRANCH  24  25
ENDBRANCH  23  24
ENDBRANCH  22  23
ENDBRANCH  21  22
ENDBRANCH  20  21
ENDBRANCH  19  20
ENDBRANCH  18  19
ENDBRANCH   1  18
TORSDOF 28
ENDMDL
MODEL 9
REMARK VINA RESULT:    -1.376      4.833      7.348
REMARK INTER + INTRA:          -9.704
REMARK INTER:                  -2.511
REMARK INTRA:                  -7.193
REMARK UNBOUND:                -6.074
REMARK SMILES CCCCCCCCCCCCCCCCCCCCCCCCCCCCCC(=O)[O-]
REMARK SMILES IDX 16 1 17 2 18 3 19 4 20 5 21 6 22 7 23 8 24 9 25 10 26 11
REMARK SMILES IDX 27 12 28 13 29 14 30 15 31 16 32 17 15 18 14 19 13 20 12 21
REMARK SMILES IDX 11 22 10 23 9 24 8 25 7 26 6 27 5 28 4 29 3 30 2 31 1 32
REMARK H PARENT
REMARK Flexibility Score: inf
ROOT
ATOM      1  C   UNL     1      22.313 -31.457   2.865  1.00  0.00     0.000 C 
ENDROOT
BRANCH   1   2
ATOM      2  C   UNL     1      22.143 -30.887   4.283  1.00  0.00     0.000 C 
BRANCH   2   3
ATOM      3  C   UNL     1      21.535 -29.472   4.291  1.00  0.00     0.000 C 
BRANCH   3   4
ATOM      4  C   UNL     1      20.121 -29.369   4.896  1.00  0.00     0.000 C 
BRANCH   4   5
ATOM      5  C   UNL     1      19.203 -28.310   4.250  1.00  0.00     0.000 C 
BRANCH   5   6
ATOM      6  C   UNL     1      19.930 -27.207   3.460  1.00  0.00     0.000 C 
BRANCH   6   7
ATOM      7  C   UNL     1      19.508 -25.790   3.886  1.00  0.00     0.000 C 
BRANCH   7   8
ATOM      8  C   UNL     1      20.657 -24.986   4.523  1.00  0.00     0.000 C 
BRANCH   8   9
ATOM      9  C   UNL     1      21.946 -25.782   4.801  1.00  0.00     0.000 C 
BRANCH   9  10
ATOM     10  C   UNL     1      23.172 -24.880   5.034  1.00  0.00     0.000 C 
BRANCH  10  11
ATOM     11  C   UNL     1      24.492 -25.670   5.097  1.00  0.00     0.000 C 
BRANCH  11  12
ATOM     12  C   UNL     1      24.360 -27.188   4.868  1.00  0.00     0.000 C 
BRANCH  12  13
ATOM     13  C   UNL     1      25.549 -27.785   4.102  1.00  0.00     0.006 C 
BRANCH  13  14
ATOM     14  C   UNL     1      25.508 -29.317   4.128  1.00  0.00     0.053 C 
BRANCH  14  15
ATOM     15  C   UNL     1      26.840 -29.886   3.752  1.00  0.00     0.041 C 
ATOM     16  O   UNL     1      27.466 -30.623   4.558  1.00  0.00    -0.550 OA
ATOM     17  O   UNL     1      27.412 -29.560   2.527  1.00  0.00    -0.550 OA
ENDBRANCH  14  15
ENDBRANCH  13  14
ENDBRANCH  12  13
ENDBRANCH  11  12
ENDBRANCH  10  11
ENDBRANCH   9  10
ENDBRANCH   8   9
ENDBRANCH   7   8
ENDBRANCH   6   7
ENDBRANCH   5   6
ENDBRANCH   4   5
ENDBRANCH   3   4
ENDBRANCH   2   3
ENDBRANCH   1   2
BRANCH   1  18
ATOM     18  C   UNL     1      20.972 -31.680   2.148  1.00  0.00     0.000 C 
BRANCH  18  19
ATOM     19  C   UNL     1      20.889 -30.962   0.789  1.00  0.00     0.000 C 
BRANCH  19  20
ATOM     20  C   UNL     1      19.976 -29.725   0.846  1.00  0.00     0.000 C 
BRANCH  20  21
ATOM     21  C   UNL     1      19.937 -28.971  -0.493  1.00  0.00     0.000 C 
BRANCH  21  22
ATOM     22  C   UNL     1      21.075 -29.424  -1.415  1.00  0.00     0.000 C 
BRANCH  22  23
ATOM     23  C   UNL     1      21.749 -28.219  -2.092  1.00  0.00     0.000 C 
BRANCH  23  24
ATOM     24  C   UNL     1      21.069 -26.881  -1.727  1.00  0.00    -0.000 C 
BRANCH  24  25
ATOM     25  C   UNL     1      21.976 -25.910  -0.946  1.00  0.00    -0.000 C 
BRANCH  25  26
ATOM     26  C   UNL     1      21.719 -25.868   0.570  1.00  0.00    -0.000 C 
BRANCH  26  27
ATOM     27  C   UNL     1      22.936 -26.330   1.393  1.00  0.00    -0.000 C 
BRANCH  27  28
ATOM     28  C   UNL     1      23.097 -27.858   1.404  1.00  0.00    -0.000 C 
BRANCH  28  29
ATOM     29  C   UNL     1      24.328 -28.327   0.607  1.00  0.00    -0.000 C 
BRANCH  29  30
ATOM     30  C   UNL     1      24.439 -29.860   0.552  1.00  0.00    -0.000 C 
BRANCH  30  31
ATOM     31  C   UNL     1      24.619 -30.385  -0.878  1.00  0.00    -0.003 C 
ATOM     32  C   UNL     1      24.053 -31.794  -1.021  1.00  0.00     0.004 C 
ENDBRANCH  30  31
ENDBRANCH  29  30
ENDBRANCH  28  29
ENDBRANCH  27  28
ENDBRANCH  26  27
ENDBRANCH  25  26
ENDBRANCH  24  25
ENDBRANCH  23  24
ENDBRANCH  22  23
ENDBRANCH  21  22
ENDBRANCH  20  21
ENDBRANCH  19  20
ENDBRANCH  18  19
ENDBRANCH   1  18
TORSDOF 28
ENDMDL
