MODEL 1
REMARK VINA RESULT:    -3.550      0.000      0.000
REMARK INTER + INTRA:          -4.633
REMARK INTER:                  -4.380
REMARK INTRA:                  -0.253
REMARK UNBOUND:                -0.253
REMARK SMILES CCCCC=CC(C)=O
REMARK SMILES IDX 4 1 3 2 2 3 1 4 5 5 6 6 7 7 9 8 8 9
REMARK H PARENT
REMARK Flexibility Score: inf
ROOT
ATOM      1  C   UNL     1      68.341 -18.283  -9.777  1.00  0.00     0.027 C 
ENDROOT
BRANCH   1   2
ATOM      2  C   UNL     1      68.906 -18.511 -11.188  1.00  0.00     0.004 C 
BRANCH   2   3
ATOM      3  C   UNL     1      68.364 -19.792 -11.840  1.00  0.00    -0.003 C 
ATOM      4  C   UNL     1      67.165 -20.376 -11.092  1.00  0.00     0.004 C 
ENDBRANCH   2   3
ENDBRANCH   1   2
BRANCH   1   5
ATOM      5  C   UNL     1      69.443 -18.194  -8.760  1.00  0.00    -0.023 C 
ATOM      6  C   UNL     1      70.321 -19.189  -8.592  1.00  0.00     0.042 C 
BRANCH   6   7
ATOM      7  C   UNL     1      71.418 -19.116  -7.610  1.00  0.00     0.152 C 
ATOM      8  O   UNL     1      71.745 -18.014  -7.087  1.00  0.00    -0.295 OA
ATOM      9  C   UNL     1      72.151 -20.360  -7.224  1.00  0.00     0.093 C 
ENDBRANCH   6   7
ENDBRANCH   1   5
TORSDOF 4
ENDMDL
MODEL 2
REMARK VINA RESULT:    -3.401     14.083     14.787
REMARK INTER + INTRA:          -4.450
REMARK INTER:                  -4.286
REMARK INTRA:                  -0.164
REMARK UNBOUND:                -0.253
REMARK SMILES CCCCC=CC(C)=O
REMARK SMILES IDX 4 1 3 2 2 3 1 4 5 5 6 6 7 7 9 8 8 9
REMARK H PARENT
REMARK Flexibility Score: inf
ROOT
ATOM      1  C   UNL     1      60.756 -18.883   0.633  1.00  0.00     0.027 C 
ENDROOT
BRANCH   1   2
ATOM      2  C   UNL     1      61.651 -19.253  -0.561  1.00  0.00     0.004 C 
BRANCH   2   3
ATOM      3  C   UNL     1      61.520 -18.259  -1.725  1.00  0.00    -0.003 C 
ATOM      4  C   UNL     1      61.431 -16.806  -1.257  1.00  0.00     0.004 C 
ENDBRANCH   2   3
ENDBRANCH   1   2
BRANCH   1   5
ATOM      5  C   UNL     1      59.433 -19.589   0.558  1.00  0.00    -0.023 C 
ATOM      6  C   UNL     1      58.678 -19.778   1.646  1.00  0.00     0.042 C 
BRANCH   6   7
ATOM      7  C   UNL     1      57.370 -20.455   1.591  1.00  0.00     0.152 C 
ATOM      8  O   UNL     1      56.795 -20.662   0.487  1.00  0.00    -0.295 OA
ATOM      9  C   UNL     1      56.716 -20.906   2.857  1.00  0.00     0.093 C 
ENDBRANCH   6   7
ENDBRANCH   1   5
TORSDOF 4
ENDMDL
MODEL 3
REMARK VINA RESULT:    -3.191     13.093     13.729
REMARK INTER + INTRA:          -4.190
REMARK INTER:                  -3.937
REMARK INTRA:                  -0.253
REMARK UNBOUND:                -0.253
REMARK SMILES CCCCC=CC(C)=O
REMARK SMILES IDX 4 1 3 2 2 3 1 4 5 5 6 6 7 7 9 8 8 9
REMARK H PARENT
REMARK Flexibility Score: inf
ROOT
ATOM      1  C   UNL     1      61.834 -18.993  -0.854  1.00  0.00     0.027 C 
ENDROOT
BRANCH   1   2
ATOM      2  C   UNL     1      61.494 -18.049  -2.017  1.00  0.00     0.004 C 
BRANCH   2   3
ATOM      3  C   UNL     1      59.980 -17.903  -2.234  1.00  0.00    -0.003 C 
ATOM      4  C   UNL     1      59.501 -16.457  -2.110  1.00  0.00     0.004 C 
ENDBRANCH   2   3
ENDBRANCH   1   2
BRANCH   1   5
ATOM      5  C   UNL     1      60.613 -19.314  -0.040  1.00  0.00    -0.023 C 
ATOM      6  C   UNL     1      60.677 -19.466   1.287  1.00  0.00     0.042 C 
BRANCH   6   7
ATOM      7  C   UNL     1      59.487 -19.767   2.106  1.00  0.00     0.152 C 
ATOM      8  O   UNL     1      59.537 -19.698   3.365  1.00  0.00    -0.295 OA
ATOM      9  C   UNL     1      58.207 -20.152   1.439  1.00  0.00     0.093 C 
ENDBRANCH   6   7
ENDBRANCH   1   5
TORSDOF 4
ENDMDL
MODEL 4
REMARK VINA RESULT:    -3.190     13.732     14.209
REMARK INTER + INTRA:          -4.189
REMARK INTER:                  -3.977
REMARK INTRA:                  -0.212
REMARK UNBOUND:                -0.253
REMARK SMILES CCCCC=CC(C)=O
REMARK SMILES IDX 4 1 3 2 2 3 1 4 5 5 6 6 7 7 9 8 8 9
REMARK H PARENT
REMARK Flexibility Score: inf
ROOT
ATOM      1  C   UNL     1      60.194 -19.425   0.651  1.00  0.00     0.027 C 
ENDROOT
BRANCH   1   2
ATOM      2  C   UNL     1      61.529 -19.504  -0.106  1.00  0.00     0.004 C 
BRANCH   2   3
ATOM      3  C   UNL     1      61.586 -18.544  -1.303  1.00  0.00    -0.003 C 
ATOM      4  C   UNL     1      61.283 -17.096  -0.916  1.00  0.00     0.004 C 
ENDBRANCH   2   3
ENDBRANCH   1   2
BRANCH   1   5
ATOM      5  C   UNL     1      60.417 -19.312   2.132  1.00  0.00    -0.023 C 
ATOM      6  C   UNL     1      61.355 -20.033   2.755  1.00  0.00     0.042 C 
BRANCH   6   7
ATOM      7  C   UNL     1      61.599 -19.927   4.205  1.00  0.00     0.152 C 
ATOM      8  O   UNL     1      62.445 -19.108   4.659  1.00  0.00    -0.295 OA
ATOM      9  C   UNL     1      60.835 -20.797   5.150  1.00  0.00     0.093 C 
ENDBRANCH   6   7
ENDBRANCH   1   5
TORSDOF 4
ENDMDL
MODEL 5
REMARK VINA RESULT:    -3.159     14.091     14.789
REMARK INTER + INTRA:          -4.151
REMARK INTER:                  -3.960
REMARK INTRA:                  -0.191
REMARK UNBOUND:                -0.253
REMARK SMILES CCCCC=CC(C)=O
REMARK SMILES IDX 4 1 3 2 2 3 1 4 5 5 6 6 7 7 9 8 8 9
REMARK H PARENT
REMARK Flexibility Score: inf
ROOT
ATOM      1  C   UNL     1      58.337 -20.093   1.032  1.00  0.00     0.027 C 
ENDROOT
BRANCH   1   2
ATOM      2  C   UNL     1      58.790 -19.812   2.474  1.00  0.00     0.004 C 
BRANCH   2   3
ATOM      3  C   UNL     1      57.694 -20.118   3.506  1.00  0.00    -0.003 C 
ATOM      4  C   UNL     1      56.559 -20.965   2.931  1.00  0.00     0.004 C 
ENDBRANCH   2   3
ENDBRANCH   1   2
BRANCH   1   5
ATOM      5  C   UNL     1      59.208 -19.377   0.041  1.00  0.00    -0.023 C 
ATOM      6  C   UNL     1      60.523 -19.231   0.241  1.00  0.00     0.042 C 
BRANCH   6   7
ATOM      7  C   UNL     1      61.398 -18.544  -0.726  1.00  0.00     0.152 C 
ATOM      8  O   UNL     1      62.321 -19.169  -1.319  1.00  0.00    -0.295 OA
ATOM      9  C   UNL     1      61.190 -17.092  -1.012  1.00  0.00     0.093 C 
ENDBRANCH   6   7
ENDBRANCH   1   5
TORSDOF 4
ENDMDL
MODEL 6
REMARK VINA RESULT:    -3.115     15.963     16.836
REMARK INTER + INTRA:          -4.097
REMARK INTER:                  -3.818
REMARK INTRA:                  -0.279
REMARK UNBOUND:                -0.253
REMARK SMILES CCCCC=CC(C)=O
REMARK SMILES IDX 4 1 3 2 2 3 1 4 5 5 6 6 7 7 9 8 8 9
REMARK H PARENT
REMARK Flexibility Score: inf
ROOT
ATOM      1  C   UNL     1      60.630 -19.117   2.665  1.00  0.00     0.027 C 
ENDROOT
BRANCH   1   2
ATOM      2  C   UNL     1      61.615 -20.210   3.108  1.00  0.00     0.004 C 
BRANCH   2   3
ATOM      3  C   UNL     1      61.937 -20.141   4.609  1.00  0.00    -0.003 C 
ATOM      4  C   UNL     1      60.856 -20.784   5.477  1.00  0.00     0.004 C 
ENDBRANCH   2   3
ENDBRANCH   1   2
BRANCH   1   5
ATOM      5  C   UNL     1      59.391 -19.715   2.063  1.00  0.00    -0.023 C 
ATOM      6  C   UNL     1      58.312 -19.984   2.805  1.00  0.00     0.042 C 
BRANCH   6   7
ATOM      7  C   UNL     1      57.081 -20.558   2.230  1.00  0.00     0.152 C 
ATOM      8  O   UNL     1      56.212 -21.095   2.972  1.00  0.00    -0.295 OA
ATOM      9  C   UNL     1      56.856 -20.500   0.754  1.00  0.00     0.093 C 
ENDBRANCH   6   7
ENDBRANCH   1   5
TORSDOF 4
ENDMDL
MODEL 7
REMARK VINA RESULT:    -3.092     13.923     15.121
REMARK INTER + INTRA:          -4.068
REMARK INTER:                  -3.909
REMARK INTRA:                  -0.159
REMARK UNBOUND:                -0.253
REMARK SMILES CCCCC=CC(C)=O
REMARK SMILES IDX 4 1 3 2 2 3 1 4 5 5 6 6 7 7 9 8 8 9
REMARK H PARENT
REMARK Flexibility Score: inf
ROOT
ATOM      1  C   UNL     1      56.261 -15.475  -5.364  1.00  0.00     0.027 C 
ENDROOT
BRANCH   1   2
ATOM      2  C   UNL     1      57.715 -15.635  -5.836  1.00  0.00     0.004 C 
BRANCH   2   3
ATOM      3  C   UNL     1      57.897 -15.271  -7.317  1.00  0.00    -0.003 C 
ATOM      4  C   UNL     1      56.692 -14.530  -7.897  1.00  0.00     0.004 C 
ENDBRANCH   2   3
ENDBRANCH   1   2
BRANCH   1   5
ATOM      5  C   UNL     1      55.961 -16.390  -4.212  1.00  0.00    -0.023 C 
ATOM      6  C   UNL     1      55.039 -17.354  -4.306  1.00  0.00     0.042 C 
BRANCH   6   7
ATOM      7  C   UNL     1      54.740 -18.273  -3.192  1.00  0.00     0.152 C 
ATOM      8  O   UNL     1      55.616 -19.072  -2.761  1.00  0.00    -0.295 OA
ATOM      9  C   UNL     1      53.384 -18.257  -2.563  1.00  0.00     0.093 C 
ENDBRANCH   6   7
ENDBRANCH   1   5
TORSDOF 4
ENDMDL
MODEL 8
REMARK VINA RESULT:    -3.073      2.311      4.735
REMARK INTER + INTRA:          -4.045
REMARK INTER:                  -3.769
REMARK INTRA:                  -0.276
REMARK UNBOUND:                -0.253
REMARK SMILES CCCCC=CC(C)=O
REMARK SMILES IDX 4 1 3 2 2 3 1 4 5 5 6 6 7 7 9 8 8 9
REMARK H PARENT
REMARK Flexibility Score: inf
ROOT
ATOM      1  C   UNL     1      70.523 -17.807  -8.150  1.00  0.00     0.027 C 
ENDROOT
BRANCH   1   2
ATOM      2  C   UNL     1      72.048 -17.905  -8.305  1.00  0.00     0.004 C 
BRANCH   2   3
ATOM      3  C   UNL     1      72.690 -18.820  -7.252  1.00  0.00    -0.003 C 
ATOM      4  C   UNL     1      72.311 -20.290  -7.434  1.00  0.00     0.004 C 
ENDBRANCH   2   3
ENDBRANCH   1   2
BRANCH   1   5
ATOM      5  C   UNL     1      69.822 -18.203  -9.417  1.00  0.00    -0.023 C 
ATOM      6  C   UNL     1      69.179 -19.371  -9.526  1.00  0.00     0.042 C 
BRANCH   6   7
ATOM      7  C   UNL     1      68.473 -19.773 -10.756  1.00  0.00     0.152 C 
ATOM      8  O   UNL     1      67.532 -20.613 -10.715  1.00  0.00    -0.295 OA
ATOM      9  C   UNL     1      68.872 -19.177 -12.067  1.00  0.00     0.093 C 
ENDBRANCH   6   7
ENDBRANCH   1   5
TORSDOF 4
ENDMDL
MODEL 9
REMARK VINA RESULT:    -3.033     13.473     14.639
REMARK INTER + INTRA:          -3.995
REMARK INTER:                  -3.822
REMARK INTRA:                  -0.173
REMARK UNBOUND:                -0.253
REMARK SMILES CCCCC=CC(C)=O
REMARK SMILES IDX 4 1 3 2 2 3 1 4 5 5 6 6 7 7 9 8 8 9
REMARK H PARENT
REMARK Flexibility Score: inf
ROOT
ATOM      1  C   UNL     1      59.036 -17.511  -1.521  1.00  0.00     0.027 C 
ENDROOT
BRANCH   1   2
ATOM      2  C   UNL     1      60.191 -17.940  -2.439  1.00  0.00     0.004 C 
BRANCH   2   3
ATOM      3  C   UNL     1      61.533 -18.028  -1.696  1.00  0.00    -0.003 C 
ATOM      4  C   UNL     1      61.531 -19.090  -0.596  1.00  0.00     0.004 C 
ENDBRANCH   2   3
ENDBRANCH   1   2
BRANCH   1   5
ATOM      5  C   UNL     1      57.705 -17.792  -2.158  1.00  0.00    -0.023 C 
ATOM      6  C   UNL     1      56.841 -18.659  -1.620  1.00  0.00     0.042 C 
BRANCH   6   7
ATOM      7  C   UNL     1      55.524 -18.938  -2.221  1.00  0.00     0.152 C 
ATOM      8  O   UNL     1      54.737 -19.771  -1.693  1.00  0.00    -0.295 OA
ATOM      9  C   UNL     1      55.113 -18.225  -3.468  1.00  0.00     0.093 C 
ENDBRANCH   6   7
ENDBRANCH   1   5
TORSDOF 4
ENDMDL
