MODEL 1
REMARK VINA RESULT:    -4.098      0.000      0.000
REMARK INTER + INTRA:          -4.218
REMARK INTER:                  -4.218
REMARK INTRA:                   0.000
REMARK UNBOUND:                 0.000
REMARK SMILES Oc1ccc2[nH]ccc2c1
REMARK SMILES IDX 3 1 4 2 5 3 9 4 8 5 7 6 6 7 10 8 2 9 1 11
REMARK H PARENT 6 10 1 12
REMARK Flexibility Score: inf
ROOT
ATOM      1  C   UNL     1      22.276  38.264  12.507  1.00  0.00     0.048 A 
ATOM      2  C   UNL     1      22.441  37.482  13.664  1.00  0.00     0.030 A 
ATOM      3  C   UNL     1      23.670  37.537  14.318  1.00  0.00     0.046 A 
ATOM      4  C   UNL     1      24.693  38.323  13.861  1.00  0.00     0.003 A 
ATOM      5  C   UNL     1      25.757  38.155  14.719  1.00  0.00     0.028 A 
ATOM      6  C   UNL     1      25.311  37.251  15.679  1.00  0.00     0.083 A 
ATOM      7  N   UNL     1      24.035  36.877  15.429  1.00  0.00    -0.361 N 
ATOM      8  C   UNL     1      24.564  39.110  12.718  1.00  0.00     0.056 A 
ATOM      9  C   UNL     1      23.332  39.077  12.032  1.00  0.00     0.116 A 
ATOM     10  H   UNL     1      23.457  36.210  15.988  1.00  0.00     0.166 HD
ENDROOT
BRANCH   9  11
ATOM     11  O   UNL     1      23.144  39.842  10.884  1.00  0.00    -0.508 OA
ATOM     12  H   UNL     1      22.363  40.483  10.798  1.00  0.00     0.293 HD
ENDBRANCH   9  11
TORSDOF 1
ENDMDL
MODEL 2
REMARK VINA RESULT:    -3.808      1.018      2.526
REMARK INTER + INTRA:          -3.919
REMARK INTER:                  -3.919
REMARK INTRA:                   0.000
REMARK UNBOUND:                 0.000
REMARK SMILES Oc1ccc2[nH]ccc2c1
REMARK SMILES IDX 3 1 4 2 5 3 9 4 8 5 7 6 6 7 10 8 2 9 1 11
REMARK H PARENT 6 10 1 12
REMARK Flexibility Score: inf
ROOT
ATOM      1  C   UNL     1      24.449  39.071  12.742  1.00  0.00     0.048 A 
ATOM      2  C   UNL     1      24.375  38.412  13.983  1.00  0.00     0.030 A 
ATOM      3  C   UNL     1      23.148  37.870  14.360  1.00  0.00     0.046 A 
ATOM      4  C   UNL     1      22.042  37.968  13.559  1.00  0.00     0.003 A 
ATOM      5  C   UNL     1      21.005  37.338  14.212  1.00  0.00     0.028 A 
ATOM      6  C   UNL     1      21.551  36.879  15.407  1.00  0.00     0.083 A 
ATOM      7  N   UNL     1      22.861  37.207  15.492  1.00  0.00    -0.361 N 
ATOM      8  C   UNL     1      22.080  38.613  12.325  1.00  0.00     0.056 A 
ATOM      9  C   UNL     1      23.308  39.173  11.913  1.00  0.00     0.116 A 
ATOM     10  H   UNL     1      23.512  36.988  16.279  1.00  0.00     0.166 HD
ENDROOT
BRANCH   9  11
ATOM     11  O   UNL     1      23.407  39.830  10.689  1.00  0.00    -0.508 OA
ATOM     12  H   UNL     1      24.265  39.817  10.150  1.00  0.00     0.293 HD
ENDBRANCH   9  11
TORSDOF 1
ENDMDL
MODEL 3
REMARK VINA RESULT:    -3.670      7.290      8.862
REMARK INTER + INTRA:          -3.777
REMARK INTER:                  -3.777
REMARK INTRA:                   0.000
REMARK UNBOUND:                 0.000
REMARK SMILES Oc1ccc2[nH]ccc2c1
REMARK SMILES IDX 3 1 4 2 5 3 9 4 8 5 7 6 6 7 10 8 2 9 1 11
REMARK H PARENT 6 10 1 12
REMARK Flexibility Score: inf
ROOT
ATOM      1  C   UNL     1      33.803  38.443  15.345  1.00  0.00     0.048 A 
ATOM      2  C   UNL     1      32.560  38.575  15.989  1.00  0.00     0.030 A 
ATOM      3  C   UNL     1      31.447  37.996  15.381  1.00  0.00     0.046 A 
ATOM      4  C   UNL     1      31.547  37.318  14.196  1.00  0.00     0.003 A 
ATOM      5  C   UNL     1      30.284  36.875  13.868  1.00  0.00     0.028 A 
ATOM      6  C   UNL     1      29.463  37.320  14.900  1.00  0.00     0.083 A 
ATOM      7  N   UNL     1      30.179  38.005  15.821  1.00  0.00    -0.361 N 
ATOM      8  C   UNL     1      32.762  37.168  13.532  1.00  0.00     0.056 A 
ATOM      9  C   UNL     1      33.909  37.743  14.121  1.00  0.00     0.116 A 
ATOM     10  H   UNL     1      29.815  38.447  16.695  1.00  0.00     0.166 HD
ENDROOT
BRANCH   9  11
ATOM     11  O   UNL     1      35.152  37.625  13.504  1.00  0.00    -0.508 OA
ATOM     12  H   UNL     1      35.884  37.045  13.896  1.00  0.00     0.293 HD
ENDBRANCH   9  11
TORSDOF 1
ENDMDL
MODEL 4
REMARK VINA RESULT:    -3.612      8.085      9.500
REMARK INTER + INTRA:          -3.717
REMARK INTER:                  -3.717
REMARK INTRA:                   0.000
REMARK UNBOUND:                 0.000
REMARK SMILES Oc1ccc2[nH]ccc2c1
REMARK SMILES IDX 3 1 4 2 5 3 9 4 8 5 7 6 6 7 10 8 2 9 1 11
REMARK H PARENT 6 10 1 12
REMARK Flexibility Score: inf
ROOT
ATOM      1  C   UNL     1      31.712  37.404  13.859  1.00  0.00     0.048 A 
ATOM      2  C   UNL     1      33.061  37.623  13.525  1.00  0.00     0.030 A 
ATOM      3  C   UNL     1      33.823  38.418  14.378  1.00  0.00     0.046 A 
ATOM      4  C   UNL     1      33.289  38.975  15.509  1.00  0.00     0.003 A 
ATOM      5  C   UNL     1      34.290  39.695  16.125  1.00  0.00     0.028 A 
ATOM      6  C   UNL     1      35.408  39.532  15.313  1.00  0.00     0.083 A 
ATOM      7  N   UNL     1      35.117  38.751  14.247  1.00  0.00    -0.361 N 
ATOM      8  C   UNL     1      31.958  38.779  15.871  1.00  0.00     0.056 A 
ATOM      9  C   UNL     1      31.158  37.979  15.027  1.00  0.00     0.116 A 
ATOM     10  H   UNL     1      35.769  38.468  13.482  1.00  0.00     0.166 HD
ENDROOT
BRANCH   9  11
ATOM     11  O   UNL     1      29.820  37.747  15.337  1.00  0.00    -0.508 OA
ATOM     12  H   UNL     1      29.255  38.450  15.798  1.00  0.00     0.293 HD
ENDBRANCH   9  11
TORSDOF 1
ENDMDL
MODEL 5
REMARK VINA RESULT:    -3.571      2.543      3.756
REMARK INTER + INTRA:          -3.675
REMARK INTER:                  -3.675
REMARK INTRA:                   0.000
REMARK UNBOUND:                 0.000
REMARK SMILES Oc1ccc2[nH]ccc2c1
REMARK SMILES IDX 3 1 4 2 5 3 9 4 8 5 7 6 6 7 10 8 2 9 1 11
REMARK H PARENT 6 10 1 12
REMARK Flexibility Score: inf
ROOT
ATOM      1  C   UNL     1      26.521  38.045  13.851  1.00  0.00     0.048 A 
ATOM      2  C   UNL     1      25.669  37.645  12.806  1.00  0.00     0.030 A 
ATOM      3  C   UNL     1      24.297  37.637  13.052  1.00  0.00     0.046 A 
ATOM      4  C   UNL     1      23.781  38.005  14.265  1.00  0.00     0.003 A 
ATOM      5  C   UNL     1      22.411  37.889  14.182  1.00  0.00     0.028 A 
ATOM      6  C   UNL     1      22.161  37.446  12.888  1.00  0.00     0.083 A 
ATOM      7  N   UNL     1      23.317  37.293  12.201  1.00  0.00    -0.361 N 
ATOM      8  C   UNL     1      24.596  38.407  15.321  1.00  0.00     0.056 A 
ATOM      9  C   UNL     1      25.991  38.425  15.106  1.00  0.00     0.116 A 
ATOM     10  H   UNL     1      23.420  36.973  11.212  1.00  0.00     0.166 HD
ENDROOT
BRANCH   9  11
ATOM     11  O   UNL     1      26.856  38.818  16.125  1.00  0.00    -0.508 OA
ATOM     12  H   UNL     1      27.840  38.982  15.948  1.00  0.00     0.293 HD
ENDBRANCH   9  11
TORSDOF 1
ENDMDL
MODEL 6
REMARK VINA RESULT:    -3.565      2.115      2.833
REMARK INTER + INTRA:          -3.670
REMARK INTER:                  -3.670
REMARK INTRA:                   0.000
REMARK UNBOUND:                 0.000
REMARK SMILES Oc1ccc2[nH]ccc2c1
REMARK SMILES IDX 3 1 4 2 5 3 9 4 8 5 7 6 6 7 10 8 2 9 1 11
REMARK H PARENT 6 10 1 12
REMARK Flexibility Score: inf
ROOT
ATOM      1  C   UNL     1      23.888  38.474  15.117  1.00  0.00     0.048 A 
ATOM      2  C   UNL     1      25.233  38.511  15.528  1.00  0.00     0.030 A 
ATOM      3  C   UNL     1      26.202  38.080  14.624  1.00  0.00     0.046 A 
ATOM      4  C   UNL     1      25.870  37.634  13.373  1.00  0.00     0.003 A 
ATOM      5  C   UNL     1      27.042  37.287  12.736  1.00  0.00     0.028 A 
ATOM      6  C   UNL     1      28.049  37.549  13.659  1.00  0.00     0.083 A 
ATOM      7  N   UNL     1      27.530  38.033  14.811  1.00  0.00    -0.361 N 
ATOM      8  C   UNL     1      24.549  37.584  12.933  1.00  0.00     0.056 A 
ATOM      9  C   UNL     1      23.543  38.013  13.825  1.00  0.00     0.116 A 
ATOM     10  H   UNL     1      28.059  38.312  15.667  1.00  0.00     0.166 HD
ENDROOT
BRANCH   9  11
ATOM     11  O   UNL     1      22.204  37.987  13.443  1.00  0.00    -0.508 OA
ATOM     12  H   UNL     1      21.907  38.325  12.535  1.00  0.00     0.293 HD
ENDBRANCH   9  11
TORSDOF 1
ENDMDL
MODEL 7
REMARK VINA RESULT:    -3.564      2.500      3.186
REMARK INTER + INTRA:          -3.668
REMARK INTER:                  -3.668
REMARK INTRA:                   0.000
REMARK UNBOUND:                 0.000
REMARK SMILES Oc1ccc2[nH]ccc2c1
REMARK SMILES IDX 3 1 4 2 5 3 9 4 8 5 7 6 6 7 10 8 2 9 1 11
REMARK H PARENT 6 10 1 12
REMARK Flexibility Score: inf
ROOT
ATOM      1  C   UNL     1      23.765  38.716  13.789  1.00  0.00     0.048 A 
ATOM      2  C   UNL     1      24.791  38.376  12.888  1.00  0.00     0.030 A 
ATOM      3  C   UNL     1      26.028  38.013  13.418  1.00  0.00     0.046 A 
ATOM      4  C   UNL     1      26.251  37.983  14.768  1.00  0.00     0.003 A 
ATOM      5  C   UNL     1      27.557  37.589  14.960  1.00  0.00     0.028 A 
ATOM      6  C   UNL     1      28.071  37.395  13.682  1.00  0.00     0.083 A 
ATOM      7  N   UNL     1      27.132  37.655  12.743  1.00  0.00    -0.361 N 
ATOM      8  C   UNL     1      25.258  38.313  15.687  1.00  0.00     0.056 A 
ATOM      9  C   UNL     1      23.993  38.686  15.184  1.00  0.00     0.116 A 
ATOM     10  H   UNL     1      27.248  37.590  11.707  1.00  0.00     0.166 HD
ENDROOT
BRANCH   9  11
ATOM     11  O   UNL     1      22.961  39.027  16.055  1.00  0.00    -0.508 OA
ATOM     12  H   UNL     1      22.283  38.341  16.364  1.00  0.00     0.293 HD
ENDBRANCH   9  11
TORSDOF 1
ENDMDL
MODEL 8
REMARK VINA RESULT:    -3.492      1.948      3.402
REMARK INTER + INTRA:          -3.594
REMARK INTER:                  -3.594
REMARK INTRA:                   0.000
REMARK UNBOUND:                 0.000
REMARK SMILES Oc1ccc2[nH]ccc2c1
REMARK SMILES IDX 3 1 4 2 5 3 9 4 8 5 7 6 6 7 10 8 2 9 1 11
REMARK H PARENT 6 10 1 12
REMARK Flexibility Score: inf
ROOT
ATOM      1  C   UNL     1      24.203  38.380  14.697  1.00  0.00     0.048 A 
ATOM      2  C   UNL     1      22.946  38.098  15.262  1.00  0.00     0.030 A 
ATOM      3  C   UNL     1      21.873  37.901  14.395  1.00  0.00     0.046 A 
ATOM      4  C   UNL     1      22.022  37.975  13.037  1.00  0.00     0.003 A 
ATOM      5  C   UNL     1      20.788  37.734  12.473  1.00  0.00     0.028 A 
ATOM      6  C   UNL     1      19.932  37.521  13.549  1.00  0.00     0.083 A 
ATOM      7  N   UNL     1      20.600  37.624  14.721  1.00  0.00    -0.361 N 
ATOM      8  C   UNL     1      23.253  38.251  12.444  1.00  0.00     0.056 A 
ATOM      9  C   UNL     1      24.361  38.457  13.294  1.00  0.00     0.116 A 
ATOM     10  H   UNL     1      20.202  37.511  15.681  1.00  0.00     0.166 HD
ENDROOT
BRANCH   9  11
ATOM     11  O   UNL     1      25.616  38.737  12.759  1.00  0.00    -0.508 OA
ATOM     12  H   UNL     1      26.292  39.298  13.264  1.00  0.00     0.293 HD
ENDBRANCH   9  11
TORSDOF 1
ENDMDL
MODEL 9
REMARK VINA RESULT:    -3.427     15.579     15.871
REMARK INTER + INTRA:          -3.527
REMARK INTER:                  -3.527
REMARK INTRA:                   0.000
REMARK UNBOUND:                 0.000
REMARK SMILES Oc1ccc2[nH]ccc2c1
REMARK SMILES IDX 3 1 4 2 5 3 9 4 8 5 7 6 6 7 10 8 2 9 1 11
REMARK H PARENT 6 10 1 12
REMARK Flexibility Score: inf
ROOT
ATOM      1  C   UNL     1      39.124  42.167   9.693  1.00  0.00     0.048 A 
ATOM      2  C   UNL     1      39.125  40.973  10.437  1.00  0.00     0.030 A 
ATOM      3  C   UNL     1      39.124  41.071  11.827  1.00  0.00     0.046 A 
ATOM      4  C   UNL     1      39.121  42.284  12.462  1.00  0.00     0.003 A 
ATOM      5  C   UNL     1      39.121  42.038  13.817  1.00  0.00     0.028 A 
ATOM      6  C   UNL     1      39.123  40.652  13.936  1.00  0.00     0.083 A 
ATOM      7  N   UNL     1      39.125  40.066  12.717  1.00  0.00    -0.361 N 
ATOM      8  C   UNL     1      39.120  43.485  11.757  1.00  0.00     0.056 A 
ATOM      9  C   UNL     1      39.121  43.421  10.347  1.00  0.00     0.116 A 
ATOM     10  H   UNL     1      39.127  39.041  12.514  1.00  0.00     0.166 HD
ENDROOT
BRANCH   9  11
ATOM     11  O   UNL     1      39.120  44.589   9.588  1.00  0.00    -0.508 OA
ATOM     12  H   UNL     1      39.662  44.666   8.736  1.00  0.00     0.293 HD
ENDBRANCH   9  11
TORSDOF 1
ENDMDL
