MODEL 1
REMARK VINA RESULT:     5.972      0.000      0.000
REMARK INTER + INTRA:           8.685
REMARK INTER:                   9.812
REMARK INTRA:                  -1.127
REMARK UNBOUND:                -1.127
REMARK SMILES COc1ccc([C@H]2CC(=O)c3c(O)cc(O[C@H]4O[C@H](CO[C@@H]5O[C@H](C)[C@@H](O)[C@@H](O)[C@@H]5O)[C@@H](O)[C@@H](O)[C@H]4O)cc3O2)cc1O
REMARK SMILES IDX 19 1 32 2 34 3 36 4 17 5 18 6 20 7 21 8 22 9 25 10 24 11
REMARK SMILES IDX 26 12 23 13 28 14 30 15 27 16 29 18 31 20 33 22 35 24 16 26
REMARK SMILES IDX 15 27 14 28 38 29 12 30 39 31 11 32 40 33 9 34 7 35 10 36
REMARK SMILES IDX 8 37 13 38 6 40 41 41 5 42 42 43 4 44 3 45 43 46 2 48 1 49
REMARK SMILES IDX 37 50
REMARK H PARENT 27 17 29 19 31 21 33 23 35 25 13 39 43 47 37 51
REMARK Flexibility Score: inf
ROOT
ATOM      1  C   UNL     1      25.155  37.019  14.282  1.00  0.00     0.180 C 
ATOM      2  C   UNL     1      25.317  38.440  13.683  1.00  0.00     0.177 C 
ATOM      3  C   UNL     1      24.161  39.345  14.132  1.00  0.00     0.180 C 
ATOM      4  C   UNL     1      24.002  39.276  15.660  1.00  0.00     0.214 C 
ATOM      5  C   UNL     1      23.913  37.808  16.124  1.00  0.00     0.339 C 
ATOM      6  O   UNL     1      25.052  37.076  15.697  1.00  0.00    -0.332 OA
ENDROOT
BRANCH   1   7
ATOM      7  C   UNL     1      26.372  36.142  13.948  1.00  0.00     0.198 C 
BRANCH   7   8
ATOM      8  O   UNL     1      26.070  35.274  12.867  1.00  0.00    -0.347 OA
BRANCH   8   9
ATOM      9  C   UNL     1      25.089  34.295  13.195  1.00  0.00     0.281 C 
ATOM     10  C   UNL     1      27.862  33.096  12.463  1.00  0.00     0.041 C 
ATOM     11  C   UNL     1      26.513  32.420  12.756  1.00  0.00     0.150 C 
ATOM     12  C   UNL     1      25.730  32.045  11.468  1.00  0.00     0.174 C 
ATOM     13  O   UNL     1      25.730  33.136  13.712  1.00  0.00    -0.344 OA
ATOM     14  C   UNL     1      24.994  33.266  10.896  1.00  0.00     0.179 C 
ATOM     15  C   UNL     1      24.167  33.926  12.007  1.00  0.00     0.202 C 
BRANCH  12  16
ATOM     16  O   UNL     1      24.797  31.033  11.760  1.00  0.00    -0.388 OA
ATOM     17  H   UNL     1      23.894  31.433  11.653  1.00  0.00     0.211 HD
ENDBRANCH  12  16
BRANCH  14  18
ATOM     18  O   UNL     1      24.160  32.856   9.842  1.00  0.00    -0.387 OA
ATOM     19  H   UNL     1      24.326  31.887   9.700  1.00  0.00     0.211 HD
ENDBRANCH  14  18
BRANCH  15  20
ATOM     20  O   UNL     1      23.508  35.068  11.523  1.00  0.00    -0.385 OA
ATOM     21  H   UNL     1      23.151  35.551  12.313  1.00  0.00     0.211 HD
ENDBRANCH  15  20
ENDBRANCH   8   9
ENDBRANCH   7   8
ENDBRANCH   1   7
BRANCH   2  22
ATOM     22  O   UNL     1      25.327  38.379  12.279  1.00  0.00    -0.387 OA
ATOM     23  H   UNL     1      25.447  39.306  11.943  1.00  0.00     0.211 HD
ENDBRANCH   2  22
BRANCH   3  24
ATOM     24  O   UNL     1      22.973  38.948  13.492  1.00  0.00    -0.387 OA
ATOM     25  H   UNL     1      22.490  38.352  14.117  1.00  0.00     0.211 HD
ENDBRANCH   3  24
BRANCH   5  26
ATOM     26  O   UNL     1      22.684  37.224  15.675  1.00  0.00    -0.462 OA
BRANCH  26  27
ATOM     27  C   UNL     1      22.379  35.856  15.724  1.00  0.00     0.130 A 
ATOM     28  C   UNL     1      23.367  34.872  15.864  1.00  0.00     0.093 A 
ATOM     29  C   UNL     1      21.044  35.469  15.596  1.00  0.00     0.094 A 
ATOM     30  C   UNL     1      23.034  33.508  15.841  1.00  0.00     0.133 A 
ATOM     31  C   UNL     1      20.691  34.120  15.632  1.00  0.00     0.138 A 
ATOM     32  C   UNL     1      21.680  33.120  15.690  1.00  0.00     0.102 A 
ATOM     33  O   UNL     1      19.341  33.758  15.610  1.00  0.00    -0.484 OA
ATOM     34  C   UNL     1      21.231  31.723  15.451  1.00  0.00     0.174 C 
ATOM     35  C   UNL     1      18.918  32.499  16.125  1.00  0.00     0.211 C 
ATOM     36  O   UNL     1      22.025  30.875  14.974  1.00  0.00    -0.294 OA
ATOM     37  C   UNL     1      19.772  31.355  15.539  1.00  0.00     0.131 C 
BRANCH  30  38
ATOM     38  O   UNL     1      24.072  32.589  15.987  1.00  0.00    -0.507 OA
ATOM     39  H   UNL     1      24.623  32.231  15.220  1.00  0.00     0.293 HD
ENDBRANCH  30  38
BRANCH  35  40
ATOM     40  C   UNL     1      17.448  32.300  15.837  1.00  0.00    -0.003 A 
ATOM     41  C   UNL     1      16.674  33.350  15.321  1.00  0.00     0.057 A 
ATOM     42  C   UNL     1      16.837  31.060  16.083  1.00  0.00     0.011 A 
ATOM     43  C   UNL     1      15.307  33.164  15.050  1.00  0.00     0.158 A 
ATOM     44  C   UNL     1      15.474  30.876  15.832  1.00  0.00     0.051 A 
ATOM     45  C   UNL     1      14.698  31.928  15.311  1.00  0.00     0.160 A 
BRANCH  43  46
ATOM     46  O   UNL     1      14.550  34.207  14.520  1.00  0.00    -0.504 OA
ATOM     47  H   UNL     1      14.943  34.871  13.861  1.00  0.00     0.293 HD
ENDBRANCH  43  46
BRANCH  45  48
ATOM     48  O   UNL     1      13.327  31.783  15.048  1.00  0.00    -0.493 OA
ATOM     49  C   UNL     1      12.306  31.838  16.041  1.00  0.00     0.278 C 
ENDBRANCH  45  48
ENDBRANCH  35  40
ENDBRANCH  26  27
ENDBRANCH   5  26
BRANCH   4  50
ATOM     50  O   UNL     1      22.863  39.994  16.055  1.00  0.00    -0.384 OA
ATOM     51  H   UNL     1      22.293  39.367  16.577  1.00  0.00     0.211 HD
ENDBRANCH   4  50
TORSDOF 15
ENDMDL
