MODEL 1
REMARK VINA RESULT:    -5.018      0.000      0.000
REMARK INTER + INTRA:          -8.426
REMARK INTER:                  -7.072
REMARK INTRA:                  -1.354
REMARK UNBOUND:                -1.354
REMARK SMILES OC[C@H]1O[C@@H](O[C@H]2OC=C[C@H]3[C@H](O)[C@@H]4O[C@]4(CO)[C@H]23)[C@@H](O)[C@@H](O)[C@@H]1O
REMARK SMILES IDX 6 1 7 2 10 3 9 4 11 5 8 6 19 7 12 8 16 9 14 10 15 11 13 12
REMARK SMILES IDX 17 14 18 15 5 17 20 18 4 19 22 20 3 21 24 22 21 23 23 25
REMARK SMILES IDX 2 27 1 28 25 30
REMARK H PARENT 13 13 18 16 21 24 23 26 1 29 25 31
REMARK Flexibility Score: inf
ROOT
ATOM      1  O   UNL     1      -0.348  26.390  36.674  1.00  0.00    -0.310 OA
ENDROOT
BRANCH   1   2
ATOM      2  C   UNL     1       0.137  25.135  37.118  1.00  0.00     0.315 C 
ATOM      3  C   UNL     1       2.286  23.664  38.412  1.00  0.00     0.018 C 
ATOM      4  C   UNL     1       2.454  24.131  37.167  1.00  0.00     0.186 C 
ATOM      5  C   UNL     1       0.918  23.784  39.012  1.00  0.00     0.059 C 
ATOM      6  O   UNL     1       1.425  24.856  36.515  1.00  0.00    -0.472 OA
ATOM      7  C   UNL     1       0.331  25.139  38.641  1.00  0.00     0.105 C 
ATOM      8  C   UNL     1       0.766  23.735  40.524  1.00  0.00     0.154 C 
ATOM      9  C   UNL     1      -0.868  25.309  39.574  1.00  0.00     0.130 C 
ATOM     10  C   UNL     1      -0.538  24.514  40.789  1.00  0.00     0.183 C 
ATOM     11  O   UNL     1      -1.604  24.155  39.930  1.00  0.00    -0.360 OA
BRANCH   8  12
ATOM     12  O   UNL     1       0.655  22.412  40.972  1.00  0.00    -0.390 OA
ATOM     13  H   UNL     1      -0.167  22.043  40.556  1.00  0.00     0.211 HD
ENDBRANCH   8  12
BRANCH   9  14
ATOM     14  C   UNL     1      -1.510  26.674  39.866  1.00  0.00     0.195 C 
BRANCH  14  15
ATOM     15  O   UNL     1      -1.926  27.301  38.681  1.00  0.00    -0.393 OA
ATOM     16  H   UNL     1      -1.179  27.889  38.388  1.00  0.00     0.210 HD
ENDBRANCH  14  15
ENDBRANCH   9  14
ENDBRANCH   1   2
BRANCH   1  17
ATOM     17  C   UNL     1      -0.802  26.319  35.326  1.00  0.00     0.286 C 
ATOM     18  C   UNL     1      -2.170  27.048  35.184  1.00  0.00     0.202 C 
ATOM     19  O   UNL     1       0.256  26.793  34.492  1.00  0.00    -0.341 OA
ATOM     20  C   UNL     1      -2.037  28.589  35.068  1.00  0.00     0.179 C 
ATOM     21  C   UNL     1      -0.099  27.840  33.607  1.00  0.00     0.178 C 
ATOM     22  C   UNL     1      -0.711  29.019  34.399  1.00  0.00     0.177 C 
BRANCH  18  23
ATOM     23  O   UNL     1      -3.011  26.708  36.261  1.00  0.00    -0.385 OA
ATOM     24  H   UNL     1      -3.602  25.964  35.967  1.00  0.00     0.211 HD
ENDBRANCH  18  23
BRANCH  20  25
ATOM     25  O   UNL     1      -2.202  29.233  36.306  1.00  0.00    -0.387 OA
ATOM     26  H   UNL     1      -1.790  28.660  36.997  1.00  0.00     0.211 HD
ENDBRANCH  20  25
BRANCH  21  27
ATOM     27  C   UNL     1       1.162  28.280  32.851  1.00  0.00     0.191 C 
BRANCH  27  28
ATOM     28  O   UNL     1       0.822  29.121  31.784  1.00  0.00    -0.394 OA
ATOM     29  H   UNL     1       0.320  29.883  32.177  1.00  0.00     0.210 HD
ENDBRANCH  27  28
ENDBRANCH  21  27
BRANCH  22  30
ATOM     30  O   UNL     1      -0.913  30.148  33.584  1.00  0.00    -0.387 OA
ATOM     31  H   UNL     1      -1.413  29.850  32.781  1.00  0.00     0.211 HD
ENDBRANCH  22  30
ENDBRANCH   1  17
TORSDOF 10
ENDMDL
MODEL 2
REMARK VINA RESULT:    -4.979      5.093      9.360
REMARK INTER + INTRA:          -8.370
REMARK INTER:                  -7.127
REMARK INTRA:                  -1.244
REMARK UNBOUND:                -1.354
REMARK SMILES OC[C@H]1O[C@@H](O[C@H]2OC=C[C@H]3[C@H](O)[C@@H]4O[C@]4(CO)[C@H]23)[C@@H](O)[C@@H](O)[C@@H]1O
REMARK SMILES IDX 6 1 7 2 10 3 9 4 11 5 8 6 19 7 12 8 16 9 14 10 15 11 13 12
REMARK SMILES IDX 17 14 18 15 5 17 20 18 4 19 22 20 3 21 24 22 21 23 23 25
REMARK SMILES IDX 2 27 1 28 25 30
REMARK H PARENT 13 13 18 16 21 24 23 26 1 29 25 31
REMARK Flexibility Score: inf
ROOT
ATOM      1  O   UNL     1       1.233  26.530  29.892  1.00  0.00    -0.310 OA
ENDROOT
BRANCH   1   2
ATOM      2  C   UNL     1       0.646  25.328  29.424  1.00  0.00     0.315 C 
ATOM      3  C   UNL     1      -1.132  24.062  27.503  1.00  0.00     0.018 C 
ATOM      4  C   UNL     1      -1.643  24.804  28.495  1.00  0.00     0.186 C 
ATOM      5  C   UNL     1       0.340  23.786  27.540  1.00  0.00     0.059 C 
ATOM      6  O   UNL     1      -0.799  25.437  29.441  1.00  0.00    -0.472 OA
ATOM      7  C   UNL     1       1.071  25.048  27.975  1.00  0.00     0.105 C 
ATOM      8  C   UNL     1       1.051  23.391  26.255  1.00  0.00     0.154 C 
ATOM      9  C   UNL     1       2.538  24.783  27.636  1.00  0.00     0.130 C 
ATOM     10  C   UNL     1       2.511  23.828  26.493  1.00  0.00     0.183 C 
ATOM     11  O   UNL     1       3.020  23.459  27.760  1.00  0.00    -0.360 OA
BRANCH   8  12
ATOM     12  O   UNL     1       0.974  22.007  26.047  1.00  0.00    -0.390 OA
ATOM     13  H   UNL     1       1.908  21.688  25.936  1.00  0.00     0.211 HD
ENDBRANCH   8  12
BRANCH   9  14
ATOM     14  C   UNL     1       3.578  25.904  27.499  1.00  0.00     0.195 C 
BRANCH  14  15
ATOM     15  O   UNL     1       2.994  27.164  27.708  1.00  0.00    -0.393 OA
ATOM     16  H   UNL     1       3.492  27.811  27.140  1.00  0.00     0.210 HD
ENDBRANCH  14  15
ENDBRANCH   9  14
ENDBRANCH   1   2
BRANCH   1  17
ATOM     17  C   UNL     1       1.584  26.430  31.269  1.00  0.00     0.286 C 
ATOM     18  C   UNL     1       2.882  27.240  31.549  1.00  0.00     0.202 C 
ATOM     19  O   UNL     1       0.433  26.795  32.031  1.00  0.00    -0.341 OA
ATOM     20  C   UNL     1       2.634  28.762  31.713  1.00  0.00     0.179 C 
ATOM     21  C   UNL     1       0.645  27.824  32.982  1.00  0.00     0.178 C 
ATOM     22  C   UNL     1       1.233  29.074  32.289  1.00  0.00     0.177 C 
BRANCH  18  23
ATOM     23  O   UNL     1       3.827  27.004  30.532  1.00  0.00    -0.385 OA
ATOM     24  H   UNL     1       4.040  27.874  30.102  1.00  0.00     0.211 HD
ENDBRANCH  18  23
BRANCH  20  25
ATOM     25  O   UNL     1       2.851  29.469  30.519  1.00  0.00    -0.387 OA
ATOM     26  H   UNL     1       2.025  29.407  29.981  1.00  0.00     0.211 HD
ENDBRANCH  20  25
BRANCH  21  27
ATOM     27  C   UNL     1      -0.699  28.147  33.650  1.00  0.00     0.191 C 
BRANCH  27  28
ATOM     28  O   UNL     1      -0.505  28.969  34.766  1.00  0.00    -0.394 OA
ATOM     29  H   UNL     1      -0.899  28.487  35.541  1.00  0.00     0.210 HD
ENDBRANCH  27  28
ENDBRANCH  21  27
BRANCH  22  30
ATOM     30  O   UNL     1       1.293  30.177  33.161  1.00  0.00    -0.387 OA
ATOM     31  H   UNL     1       2.219  30.529  33.133  1.00  0.00     0.211 HD
ENDBRANCH  22  30
ENDBRANCH   1  17
TORSDOF 10
ENDMDL
MODEL 3
REMARK VINA RESULT:    -4.873      1.681      6.427
REMARK INTER + INTRA:          -8.221
REMARK INTER:                  -6.652
REMARK INTRA:                  -1.569
REMARK UNBOUND:                -1.354
REMARK SMILES OC[C@H]1O[C@@H](O[C@H]2OC=C[C@H]3[C@H](O)[C@@H]4O[C@]4(CO)[C@H]23)[C@@H](O)[C@@H](O)[C@@H]1O
REMARK SMILES IDX 6 1 7 2 10 3 9 4 11 5 8 6 19 7 12 8 16 9 14 10 15 11 13 12
REMARK SMILES IDX 17 14 18 15 5 17 20 18 4 19 22 20 3 21 24 22 21 23 23 25
REMARK SMILES IDX 2 27 1 28 25 30
REMARK H PARENT 13 13 18 16 21 24 23 26 1 29 25 31
REMARK Flexibility Score: inf
ROOT
ATOM      1  O   UNL     1      -0.760  25.202  37.792  1.00  0.00    -0.310 OA
ENDROOT
BRANCH   1   2
ATOM      2  C   UNL     1       0.219  25.652  36.872  1.00  0.00     0.315 C 
ATOM      3  C   UNL     1       1.930  25.005  34.612  1.00  0.00     0.018 C 
ATOM      4  C   UNL     1       2.217  24.516  35.826  1.00  0.00     0.186 C 
ATOM      5  C   UNL     1       0.822  26.009  34.520  1.00  0.00     0.059 C 
ATOM      6  O   UNL     1       1.397  24.810  36.943  1.00  0.00    -0.472 OA
ATOM      7  C   UNL     1      -0.315  25.577  35.434  1.00  0.00     0.105 C 
ATOM      8  C   UNL     1       0.135  26.233  33.182  1.00  0.00     0.154 C 
ATOM      9  C   UNL     1      -1.505  26.436  35.005  1.00  0.00     0.130 C 
ATOM     10  C   UNL     1      -1.265  26.752  33.569  1.00  0.00     0.183 C 
ATOM     11  O   UNL     1      -1.248  27.756  34.566  1.00  0.00    -0.360 OA
BRANCH   8  12
ATOM     12  O   UNL     1       0.825  27.185  32.419  1.00  0.00    -0.390 OA
ATOM     13  H   UNL     1       0.204  27.470  31.699  1.00  0.00     0.211 HD
ENDBRANCH   8  12
BRANCH   9  14
ATOM     14  C   UNL     1      -2.959  26.074  35.338  1.00  0.00     0.195 C 
BRANCH  14  15
ATOM     15  O   UNL     1      -3.260  26.368  36.678  1.00  0.00    -0.393 OA
ATOM     16  H   UNL     1      -2.404  26.625  37.116  1.00  0.00     0.210 HD
ENDBRANCH  14  15
ENDBRANCH   9  14
ENDBRANCH   1   2
BRANCH   1  17
ATOM     17  C   UNL     1      -0.393  25.521  39.131  1.00  0.00     0.286 C 
ATOM     18  C   UNL     1      -1.476  26.430  39.779  1.00  0.00     0.202 C 
ATOM     19  O   UNL     1      -0.115  24.292  39.803  1.00  0.00    -0.341 OA
ATOM     20  C   UNL     1      -2.711  25.646  40.294  1.00  0.00     0.179 C 
ATOM     21  C   UNL     1      -0.836  24.088  41.005  1.00  0.00     0.178 C 
ATOM     22  C   UNL     1      -2.354  24.208  40.740  1.00  0.00     0.177 C 
BRANCH  18  23
ATOM     23  O   UNL     1      -1.874  27.429  38.870  1.00  0.00    -0.385 OA
ATOM     24  H   UNL     1      -2.231  28.196  39.392  1.00  0.00     0.211 HD
ENDBRANCH  18  23
BRANCH  20  25
ATOM     25  O   UNL     1      -3.761  25.632  39.360  1.00  0.00    -0.387 OA
ATOM     26  H   UNL     1      -3.691  26.456  38.821  1.00  0.00     0.211 HD
ENDBRANCH  20  25
BRANCH  21  27
ATOM     27  C   UNL     1      -0.482  22.697  41.549  1.00  0.00     0.191 C 
BRANCH  27  28
ATOM     28  O   UNL     1      -0.399  22.726  42.946  1.00  0.00    -0.394 OA
ATOM     29  H   UNL     1      -1.150  22.168  43.283  1.00  0.00     0.210 HD
ENDBRANCH  27  28
ENDBRANCH  21  27
BRANCH  22  30
ATOM     30  O   UNL     1      -3.114  23.839  41.865  1.00  0.00    -0.387 OA
ATOM     31  H   UNL     1      -2.782  24.368  42.635  1.00  0.00     0.211 HD
ENDBRANCH  22  30
ENDBRANCH   1  17
TORSDOF 10
ENDMDL
MODEL 4
REMARK VINA RESULT:    -4.835      3.848      6.796
REMARK INTER + INTRA:          -8.167
REMARK INTER:                  -6.589
REMARK INTRA:                  -1.578
REMARK UNBOUND:                -1.354
REMARK SMILES OC[C@H]1O[C@@H](O[C@H]2OC=C[C@H]3[C@H](O)[C@@H]4O[C@]4(CO)[C@H]23)[C@@H](O)[C@@H](O)[C@@H]1O
REMARK SMILES IDX 6 1 7 2 10 3 9 4 11 5 8 6 19 7 12 8 16 9 14 10 15 11 13 12
REMARK SMILES IDX 17 14 18 15 5 17 20 18 4 19 22 20 3 21 24 22 21 23 23 25
REMARK SMILES IDX 2 27 1 28 25 30
REMARK H PARENT 13 13 18 16 21 24 23 26 1 29 25 31
REMARK Flexibility Score: inf
ROOT
ATOM      1  O   UNL     1       1.566  26.509  31.907  1.00  0.00    -0.310 OA
ENDROOT
BRANCH   1   2
ATOM      2  C   UNL     1       1.146  27.277  33.021  1.00  0.00     0.315 C 
ATOM      3  C   UNL     1      -0.609  29.365  34.029  1.00  0.00     0.018 C 
ATOM      4  C   UNL     1       0.432  29.689  33.250  1.00  0.00     0.186 C 
ATOM      5  C   UNL     1      -0.713  27.941  34.481  1.00  0.00     0.059 C 
ATOM      6  O   UNL     1       1.300  28.691  32.741  1.00  0.00    -0.472 OA
ATOM      7  C   UNL     1      -0.339  27.026  33.323  1.00  0.00     0.105 C 
ATOM      8  C   UNL     1      -2.061  27.404  34.934  1.00  0.00     0.154 C 
ATOM      9  C   UNL     1      -0.816  25.639  33.756  1.00  0.00     0.130 C 
ATOM     10  C   UNL     1      -1.959  25.886  34.679  1.00  0.00     0.183 C 
ATOM     11  O   UNL     1      -0.747  25.311  35.130  1.00  0.00    -0.360 OA
BRANCH   8  12
ATOM     12  O   UNL     1      -2.271  27.667  36.295  1.00  0.00    -0.390 OA
ATOM     13  H   UNL     1      -1.677  28.427  36.528  1.00  0.00     0.211 HD
ENDBRANCH   8  12
BRANCH   9  14
ATOM     14  C   UNL     1      -1.042  24.487  32.765  1.00  0.00     0.195 C 
BRANCH  14  15
ATOM     15  O   UNL     1       0.174  24.047  32.217  1.00  0.00    -0.393 OA
ATOM     16  H   UNL     1       0.504  24.775  31.625  1.00  0.00     0.210 HD
ENDBRANCH  14  15
ENDBRANCH   9  14
ENDBRANCH   1   2
BRANCH   1  17
ATOM     17  C   UNL     1       1.142  27.103  30.683  1.00  0.00     0.286 C 
ATOM     18  C   UNL     1       2.378  27.542  29.847  1.00  0.00     0.202 C 
ATOM     19  O   UNL     1       0.243  26.190  30.053  1.00  0.00    -0.341 OA
ATOM     20  C   UNL     1       3.036  26.376  29.064  1.00  0.00     0.179 C 
ATOM     21  C   UNL     1       0.578  25.841  28.722  1.00  0.00     0.178 C 
ATOM     22  C   UNL     1       2.018  25.282  28.665  1.00  0.00     0.177 C 
BRANCH  18  23
ATOM     23  O   UNL     1       3.325  28.170  30.678  1.00  0.00    -0.385 OA
ATOM     24  H   UNL     1       3.366  29.131  30.426  1.00  0.00     0.211 HD
ENDBRANCH  18  23
BRANCH  20  25
ATOM     25  O   UNL     1       4.124  25.816  29.756  1.00  0.00    -0.387 OA
ATOM     26  H   UNL     1       4.723  26.556  30.017  1.00  0.00     0.211 HD
ENDBRANCH  20  25
BRANCH  21  27
ATOM     27  C   UNL     1      -0.436  24.799  28.228  1.00  0.00     0.191 C 
BRANCH  27  28
ATOM     28  O   UNL     1      -0.664  24.953  26.855  1.00  0.00    -0.394 OA
ATOM     29  H   UNL     1      -1.086  25.846  26.739  1.00  0.00     0.210 HD
ENDBRANCH  27  28
ENDBRANCH  21  27
BRANCH  22  30
ATOM     30  O   UNL     1       2.328  24.759  27.396  1.00  0.00    -0.387 OA
ATOM     31  H   UNL     1       3.103  25.268  27.046  1.00  0.00     0.211 HD
ENDBRANCH  22  30
ENDBRANCH   1  17
TORSDOF 10
ENDMDL
MODEL 5
REMARK VINA RESULT:    -4.826      2.865      5.311
REMARK INTER + INTRA:          -8.155
REMARK INTER:                  -6.462
REMARK INTRA:                  -1.693
REMARK UNBOUND:                -1.354
REMARK SMILES OC[C@H]1O[C@@H](O[C@H]2OC=C[C@H]3[C@H](O)[C@@H]4O[C@]4(CO)[C@H]23)[C@@H](O)[C@@H](O)[C@@H]1O
REMARK SMILES IDX 6 1 7 2 10 3 9 4 11 5 8 6 19 7 12 8 16 9 14 10 15 11 13 12
REMARK SMILES IDX 17 14 18 15 5 17 20 18 4 19 22 20 3 21 24 22 21 23 23 25
REMARK SMILES IDX 2 27 1 28 25 30
REMARK H PARENT 13 13 18 16 21 24 23 26 1 29 25 31
REMARK Flexibility Score: inf
ROOT
ATOM      1  O   UNL     1      -0.287  26.312  32.257  1.00  0.00    -0.310 OA
ENDROOT
BRANCH   1   2
ATOM      2  C   UNL     1      -0.872  25.818  33.450  1.00  0.00     0.315 C 
ATOM      3  C   UNL     1      -0.452  24.842  36.156  1.00  0.00     0.018 C 
ATOM      4  C   UNL     1      -0.125  24.069  35.111  1.00  0.00     0.186 C 
ATOM      5  C   UNL     1      -1.182  26.117  35.866  1.00  0.00     0.059 C 
ATOM      6  O   UNL     1      -0.314  24.523  33.782  1.00  0.00    -0.472 OA
ATOM      7  C   UNL     1      -0.580  26.762  34.626  1.00  0.00     0.105 C 
ATOM      8  C   UNL     1      -1.154  27.236  36.895  1.00  0.00     0.154 C 
ATOM      9  C   UNL     1      -1.127  28.190  34.627  1.00  0.00     0.130 C 
ATOM     10  C   UNL     1      -1.383  28.512  36.059  1.00  0.00     0.183 C 
ATOM     11  O   UNL     1      -2.436  28.400  35.120  1.00  0.00    -0.360 OA
BRANCH   8  12
ATOM     12  O   UNL     1      -2.176  27.072  37.840  1.00  0.00    -0.390 OA
ATOM     13  H   UNL     1      -2.871  26.512  37.406  1.00  0.00     0.211 HD
ENDBRANCH   8  12
BRANCH   9  14
ATOM     14  C   UNL     1      -0.482  29.331  33.828  1.00  0.00     0.195 C 
BRANCH  14  15
ATOM     15  O   UNL     1       0.736  28.924  33.259  1.00  0.00    -0.393 OA
ATOM     16  H   UNL     1       1.434  29.549  33.592  1.00  0.00     0.210 HD
ENDBRANCH  14  15
ENDBRANCH   9  14
ENDBRANCH   1   2
BRANCH   1  17
ATOM     17  C   UNL     1       0.995  25.731  32.034  1.00  0.00     0.286 C 
ATOM     18  C   UNL     1       1.014  24.991  30.666  1.00  0.00     0.202 C 
ATOM     19  O   UNL     1       1.967  26.761  32.210  1.00  0.00    -0.341 OA
ATOM     20  C   UNL     1       1.222  25.939  29.456  1.00  0.00     0.179 C 
ATOM     21  C   UNL     1       2.857  26.938  31.123  1.00  0.00     0.178 C 
ATOM     22  C   UNL     1       2.062  27.186  29.820  1.00  0.00     0.177 C 
BRANCH  18  23
ATOM     23  O   UNL     1      -0.169  24.243  30.505  1.00  0.00    -0.385 OA
ATOM     24  H   UNL     1      -0.078  23.406  31.033  1.00  0.00     0.211 HD
ENDBRANCH  18  23
BRANCH  20  25
ATOM     25  O   UNL     1       0.008  26.313  28.857  1.00  0.00    -0.387 OA
ATOM     26  H   UNL     1      -0.006  25.928  27.947  1.00  0.00     0.211 HD
ENDBRANCH  20  25
BRANCH  21  27
ATOM     27  C   UNL     1       3.775  28.127  31.440  1.00  0.00     0.191 C 
BRANCH  27  28
ATOM     28  O   UNL     1       3.149  29.332  31.098  1.00  0.00    -0.394 OA
ATOM     29  H   UNL     1       3.124  29.362  30.105  1.00  0.00     0.210 HD
ENDBRANCH  27  28
ENDBRANCH  21  27
BRANCH  22  30
ATOM     30  O   UNL     1       2.904  27.542  28.752  1.00  0.00    -0.387 OA
ATOM     31  H   UNL     1       2.624  28.441  28.439  1.00  0.00     0.211 HD
ENDBRANCH  22  30
ENDBRANCH   1  17
TORSDOF 10
ENDMDL
MODEL 6
REMARK VINA RESULT:    -4.691      1.822      3.254
REMARK INTER + INTRA:          -7.965
REMARK INTER:                  -6.219
REMARK INTRA:                  -1.745
REMARK UNBOUND:                -1.354
REMARK SMILES OC[C@H]1O[C@@H](O[C@H]2OC=C[C@H]3[C@H](O)[C@@H]4O[C@]4(CO)[C@H]23)[C@@H](O)[C@@H](O)[C@@H]1O
REMARK SMILES IDX 6 1 7 2 10 3 9 4 11 5 8 6 19 7 12 8 16 9 14 10 15 11 13 12
REMARK SMILES IDX 17 14 18 15 5 17 20 18 4 19 22 20 3 21 24 22 21 23 23 25
REMARK SMILES IDX 2 27 1 28 25 30
REMARK H PARENT 13 13 18 16 21 24 23 26 1 29 25 31
REMARK Flexibility Score: inf
ROOT
ATOM      1  O   UNL     1      -1.427  26.509  37.490  1.00  0.00    -0.310 OA
ENDROOT
BRANCH   1   2
ATOM      2  C   UNL     1      -2.100  25.984  38.621  1.00  0.00     0.315 C 
ATOM      3  C   UNL     1      -3.610  23.775  39.759  1.00  0.00     0.018 C 
ATOM      4  C   UNL     1      -4.186  24.581  38.857  1.00  0.00     0.186 C 
ATOM      5  C   UNL     1      -2.254  24.165  40.262  1.00  0.00     0.059 C 
ATOM      6  O   UNL     1      -3.471  25.661  38.282  1.00  0.00    -0.472 OA
ATOM      7  C   UNL     1      -1.425  24.689  39.097  1.00  0.00     0.105 C 
ATOM      8  C   UNL     1      -1.360  23.102  40.881  1.00  0.00     0.154 C 
ATOM      9  C   UNL     1       0.010  24.712  39.623  1.00  0.00     0.130 C 
ATOM     10  C   UNL     1       0.067  23.646  40.662  1.00  0.00     0.183 C 
ATOM     11  O   UNL     1       0.214  25.015  40.989  1.00  0.00    -0.360 OA
BRANCH   8  12
ATOM     12  O   UNL     1      -1.632  22.956  42.249  1.00  0.00    -0.390 OA
ATOM     13  H   UNL     1      -0.769  22.727  42.683  1.00  0.00     0.211 HD
ENDBRANCH   8  12
BRANCH   9  14
ATOM     14  C   UNL     1       1.236  24.759  38.699  1.00  0.00     0.195 C 
BRANCH  14  15
ATOM     15  O   UNL     1       1.263  25.950  37.955  1.00  0.00    -0.393 OA
ATOM     16  H   UNL     1       1.234  26.699  38.608  1.00  0.00     0.210 HD
ENDBRANCH  14  15
ENDBRANCH   9  14
ENDBRANCH   1   2
BRANCH   1  17
ATOM     17  C   UNL     1      -1.762  25.784  36.309  1.00  0.00     0.286 C 
ATOM     18  C   UNL     1      -2.389  26.741  35.255  1.00  0.00     0.202 C 
ATOM     19  O   UNL     1      -0.594  25.071  35.901  1.00  0.00    -0.341 OA
ATOM     20  C   UNL     1      -1.337  27.561  34.465  1.00  0.00     0.179 C 
ATOM     21  C   UNL     1      -0.190  25.297  34.562  1.00  0.00     0.178 C 
ATOM     22  C   UNL     1       0.008  26.811  34.316  1.00  0.00     0.177 C 
BRANCH  18  23
ATOM     23  O   UNL     1      -3.317  27.600  35.875  1.00  0.00    -0.385 OA
ATOM     24  H   UNL     1      -3.130  27.601  36.852  1.00  0.00     0.211 HD
ENDBRANCH  18  23
BRANCH  20  25
ATOM     25  O   UNL     1      -1.137  28.839  35.012  1.00  0.00    -0.387 OA
ATOM     26  H   UNL     1      -1.896  29.027  35.615  1.00  0.00     0.211 HD
ENDBRANCH  20  25
BRANCH  21  27
ATOM     27  C   UNL     1       1.114  24.526  34.315  1.00  0.00     0.191 C 
BRANCH  27  28
ATOM     28  O   UNL     1       2.168  25.109  35.029  1.00  0.00    -0.394 OA
ATOM     29  H   UNL     1       2.302  24.548  35.839  1.00  0.00     0.210 HD
ENDBRANCH  27  28
ENDBRANCH  21  27
BRANCH  22  30
ATOM     30  O   UNL     1       0.578  27.067  33.056  1.00  0.00    -0.387 OA
ATOM     31  H   UNL     1      -0.165  27.169  32.408  1.00  0.00     0.211 HD
ENDBRANCH  22  30
ENDBRANCH   1  17
TORSDOF 10
ENDMDL
MODEL 7
REMARK VINA RESULT:    -4.616      1.890      6.721
REMARK INTER + INTRA:          -7.859
REMARK INTER:                  -6.327
REMARK INTRA:                  -1.532
REMARK UNBOUND:                -1.354
REMARK SMILES OC[C@H]1O[C@@H](O[C@H]2OC=C[C@H]3[C@H](O)[C@@H]4O[C@]4(CO)[C@H]23)[C@@H](O)[C@@H](O)[C@@H]1O
REMARK SMILES IDX 6 1 7 2 10 3 9 4 11 5 8 6 19 7 12 8 16 9 14 10 15 11 13 12
REMARK SMILES IDX 17 14 18 15 5 17 20 18 4 19 22 20 3 21 24 22 21 23 23 25
REMARK SMILES IDX 2 27 1 28 25 30
REMARK H PARENT 13 13 18 16 21 24 23 26 1 29 25 31
REMARK Flexibility Score: inf
ROOT
ATOM      1  O   UNL     1      -0.845  26.181  34.675  1.00  0.00    -0.310 OA
ENDROOT
BRANCH   1   2
ATOM      2  C   UNL     1      -0.565  27.124  33.655  1.00  0.00     0.315 C 
ATOM      3  C   UNL     1       0.849  29.546  32.888  1.00  0.00     0.018 C 
ATOM      4  C   UNL     1      -0.211  29.623  33.704  1.00  0.00     0.186 C 
ATOM      5  C   UNL     1       1.146  28.212  32.273  1.00  0.00     0.059 C 
ATOM      6  O   UNL     1      -0.914  28.459  34.099  1.00  0.00    -0.472 OA
ATOM      7  C   UNL     1       0.933  27.126  33.319  1.00  0.00     0.105 C 
ATOM      8  C   UNL     1       2.548  27.932  31.754  1.00  0.00     0.154 C 
ATOM      9  C   UNL     1       1.595  25.882  32.725  1.00  0.00     0.130 C 
ATOM     10  C   UNL     1       2.670  26.397  31.832  1.00  0.00     0.183 C 
ATOM     11  O   UNL     1       1.545  25.706  31.324  1.00  0.00    -0.360 OA
BRANCH   8  12
ATOM     12  O   UNL     1       2.688  28.376  30.432  1.00  0.00    -0.390 OA
ATOM     13  H   UNL     1       3.235  27.693  29.964  1.00  0.00     0.211 HD
ENDBRANCH   8  12
BRANCH   9  14
ATOM     14  C   UNL     1       2.006  24.670  33.575  1.00  0.00     0.195 C 
BRANCH  14  15
ATOM     15  O   UNL     1       2.045  25.000  34.940  1.00  0.00    -0.393 OA
ATOM     16  H   UNL     1       2.660  24.352  35.376  1.00  0.00     0.210 HD
ENDBRANCH  14  15
ENDBRANCH   9  14
ENDBRANCH   1   2
BRANCH   1  17
ATOM     17  C   UNL     1      -0.771  26.781  35.965  1.00  0.00     0.286 C 
ATOM     18  C   UNL     1      -2.170  26.761  36.644  1.00  0.00     0.202 C 
ATOM     19  O   UNL     1       0.286  26.136  36.676  1.00  0.00    -0.341 OA
ATOM     20  C   UNL     1      -2.523  25.395  37.289  1.00  0.00     0.179 C 
ATOM     21  C   UNL     1      -0.076  25.603  37.937  1.00  0.00     0.178 C 
ATOM     22  C   UNL     1      -1.270  24.633  37.780  1.00  0.00     0.177 C 
BRANCH  18  23
ATOM     23  O   UNL     1      -3.162  27.136  35.717  1.00  0.00    -0.385 OA
ATOM     24  H   UNL     1      -4.000  26.655  35.952  1.00  0.00     0.211 HD
ENDBRANCH  18  23
BRANCH  20  25
ATOM     25  O   UNL     1      -3.296  24.588  36.438  1.00  0.00    -0.387 OA
ATOM     26  H   UNL     1      -2.712  23.867  36.100  1.00  0.00     0.211 HD
ENDBRANCH  20  25
BRANCH  21  27
ATOM     27  C   UNL     1       1.145  24.881  38.524  1.00  0.00     0.191 C 
BRANCH  27  28
ATOM     28  O   UNL     1       1.121  24.938  39.923  1.00  0.00    -0.394 OA
ATOM     29  H   UNL     1       0.556  25.721  40.161  1.00  0.00     0.210 HD
ENDBRANCH  27  28
ENDBRANCH  21  27
BRANCH  22  30
ATOM     30  O   UNL     1      -1.548  23.946  38.976  1.00  0.00    -0.387 OA
ATOM     31  H   UNL     1      -0.841  23.263  39.099  1.00  0.00     0.211 HD
ENDBRANCH  22  30
ENDBRANCH   1  17
TORSDOF 10
ENDMDL
MODEL 8
REMARK VINA RESULT:    -4.607      5.419      9.470
REMARK INTER + INTRA:          -7.846
REMARK INTER:                  -6.106
REMARK INTRA:                  -1.740
REMARK UNBOUND:                -1.354
REMARK SMILES OC[C@H]1O[C@@H](O[C@H]2OC=C[C@H]3[C@H](O)[C@@H]4O[C@]4(CO)[C@H]23)[C@@H](O)[C@@H](O)[C@@H]1O
REMARK SMILES IDX 6 1 7 2 10 3 9 4 11 5 8 6 19 7 12 8 16 9 14 10 15 11 13 12
REMARK SMILES IDX 17 14 18 15 5 17 20 18 4 19 22 20 3 21 24 22 21 23 23 25
REMARK SMILES IDX 2 27 1 28 25 30
REMARK H PARENT 13 13 18 16 21 24 23 26 1 29 25 31
REMARK Flexibility Score: inf
ROOT
ATOM      1  O   UNL     1       1.557  26.656  29.276  1.00  0.00    -0.310 OA
ENDROOT
BRANCH   1   2
ATOM      2  C   UNL     1       2.160  26.114  28.114  1.00  0.00     0.315 C 
ATOM      3  C   UNL     1       3.806  24.008  26.969  1.00  0.00     0.018 C 
ATOM      4  C   UNL     1       4.371  24.957  27.729  1.00  0.00     0.186 C 
ATOM      5  C   UNL     1       2.363  24.185  26.610  1.00  0.00     0.059 C 
ATOM      6  O   UNL     1       3.592  25.991  28.304  1.00  0.00    -0.472 OA
ATOM      7  C   UNL     1       1.610  24.709  27.824  1.00  0.00     0.105 C 
ATOM      8  C   UNL     1       1.551  22.971  26.188  1.00  0.00     0.154 C 
ATOM      9  C   UNL     1       0.134  24.512  27.480  1.00  0.00     0.130 C 
ATOM     10  C   UNL     1       0.100  23.357  26.540  1.00  0.00     0.183 C 
ATOM     11  O   UNL     1      -0.260  24.663  26.131  1.00  0.00    -0.360 OA
BRANCH   8  12
ATOM     12  O   UNL     1       1.683  22.735  24.813  1.00  0.00    -0.390 OA
ATOM     13  H   UNL     1       1.024  23.325  24.363  1.00  0.00     0.211 HD
ENDBRANCH   8  12
BRANCH   9  14
ATOM     14  C   UNL     1      -0.976  24.495  28.542  1.00  0.00     0.195 C 
BRANCH  14  15
ATOM     15  O   UNL     1      -1.208  25.784  29.050  1.00  0.00    -0.393 OA
ATOM     16  H   UNL     1      -0.451  26.354  28.749  1.00  0.00     0.210 HD
ENDBRANCH  14  15
ENDBRANCH   9  14
ENDBRANCH   1   2
BRANCH   1  17
ATOM     17  C   UNL     1       2.037  26.011  30.453  1.00  0.00     0.286 C 
ATOM     18  C   UNL     1       2.693  27.055  31.402  1.00  0.00     0.202 C 
ATOM     19  O   UNL     1       0.957  25.253  30.996  1.00  0.00    -0.341 OA
ATOM     20  C   UNL     1       1.664  27.850  32.247  1.00  0.00     0.179 C 
ATOM     21  C   UNL     1       0.657  25.522  32.354  1.00  0.00     0.178 C 
ATOM     22  C   UNL     1       0.387  27.031  32.549  1.00  0.00     0.177 C 
BRANCH  18  23
ATOM     23  O   UNL     1       3.507  27.935  30.664  1.00  0.00    -0.385 OA
ATOM     24  H   UNL     1       4.305  27.429  30.354  1.00  0.00     0.211 HD
ENDBRANCH  18  23
BRANCH  20  25
ATOM     25  O   UNL     1       1.338  29.086  31.663  1.00  0.00    -0.387 OA
ATOM     26  H   UNL     1       0.894  28.900  30.801  1.00  0.00     0.211 HD
ENDBRANCH  20  25
BRANCH  21  27
ATOM     27  C   UNL     1      -0.569  24.688  32.751  1.00  0.00     0.191 C 
BRANCH  27  28
ATOM     28  O   UNL     1      -1.721  25.189  32.132  1.00  0.00    -0.394 OA
ATOM     29  H   UNL     1      -1.575  25.097  31.153  1.00  0.00     0.210 HD
ENDBRANCH  27  28
ENDBRANCH  21  27
BRANCH  22  30
ATOM     30  O   UNL     1      -0.086  27.316  33.842  1.00  0.00    -0.387 OA
ATOM     31  H   UNL     1      -0.956  27.782  33.745  1.00  0.00     0.211 HD
ENDBRANCH  22  30
ENDBRANCH   1  17
TORSDOF 10
ENDMDL
MODEL 9
REMARK VINA RESULT:    -4.522      3.338      7.547
REMARK INTER + INTRA:          -7.726
REMARK INTER:                  -5.970
REMARK INTRA:                  -1.756
REMARK UNBOUND:                -1.354
REMARK SMILES OC[C@H]1O[C@@H](O[C@H]2OC=C[C@H]3[C@H](O)[C@@H]4O[C@]4(CO)[C@H]23)[C@@H](O)[C@@H](O)[C@@H]1O
REMARK SMILES IDX 6 1 7 2 10 3 9 4 11 5 8 6 19 7 12 8 16 9 14 10 15 11 13 12
REMARK SMILES IDX 17 14 18 15 5 17 20 18 4 19 22 20 3 21 24 22 21 23 23 25
REMARK SMILES IDX 2 27 1 28 25 30
REMARK H PARENT 13 13 18 16 21 24 23 26 1 29 25 31
REMARK Flexibility Score: inf
ROOT
ATOM      1  O   UNL     1      -3.944  24.103  37.388  1.00  0.00    -0.310 OA
ENDROOT
BRANCH   1   2
ATOM      2  C   UNL     1      -5.074  24.229  36.543  1.00  0.00     0.315 C 
ATOM      3  C   UNL     1      -7.594  25.582  36.018  1.00  0.00     0.018 C 
ATOM      4  C   UNL     1      -7.509  24.698  37.022  1.00  0.00     0.186 C 
ATOM      5  C   UNL     1      -6.413  25.699  35.104  1.00  0.00     0.059 C 
ATOM      6  O   UNL     1      -6.292  24.030  37.304  1.00  0.00    -0.472 OA
ATOM      7  C   UNL     1      -5.137  25.637  35.932  1.00  0.00     0.105 C 
ATOM      8  C   UNL     1      -6.238  26.964  34.279  1.00  0.00     0.154 C 
ATOM      9  C   UNL     1      -4.038  26.120  34.985  1.00  0.00     0.130 C 
ATOM     10  C   UNL     1      -4.718  27.030  34.023  1.00  0.00     0.183 C 
ATOM     11  O   UNL     1      -4.153  25.799  33.613  1.00  0.00    -0.360 OA
BRANCH   8  12
ATOM     12  O   UNL     1      -6.943  26.874  33.071  1.00  0.00    -0.390 OA
ATOM     13  H   UNL     1      -7.040  25.906  32.875  1.00  0.00     0.211 HD
ENDBRANCH   8  12
BRANCH   9  14
ATOM     14  C   UNL     1      -2.675  26.628  35.480  1.00  0.00     0.195 C 
BRANCH  14  15
ATOM     15  O   UNL     1      -2.688  26.837  36.869  1.00  0.00    -0.393 OA
ATOM     16  H   UNL     1      -3.301  26.157  37.258  1.00  0.00     0.210 HD
ENDBRANCH  14  15
ENDBRANCH   9  14
ENDBRANCH   1   2
BRANCH   1  17
ATOM     17  C   UNL     1      -4.280  24.386  38.744  1.00  0.00     0.286 C 
ATOM     18  C   UNL     1      -3.936  23.165  39.644  1.00  0.00     0.202 C 
ATOM     19  O   UNL     1      -3.657  25.623  39.090  1.00  0.00    -0.341 OA
ATOM     20  C   UNL     1      -2.434  23.084  40.024  1.00  0.00     0.179 C 
ATOM     21  C   UNL     1      -2.840  25.580  40.246  1.00  0.00     0.178 C 
ATOM     22  C   UNL     1      -1.767  24.477  40.098  1.00  0.00     0.177 C 
BRANCH  18  23
ATOM     23  O   UNL     1      -4.349  21.972  39.019  1.00  0.00    -0.385 OA
ATOM     24  H   UNL     1      -3.551  21.551  38.602  1.00  0.00     0.211 HD
ENDBRANCH  18  23
BRANCH  20  25
ATOM     25  O   UNL     1      -1.714  22.231  39.170  1.00  0.00    -0.387 OA
ATOM     26  H   UNL     1      -2.189  21.365  39.145  1.00  0.00     0.211 HD
ENDBRANCH  20  25
BRANCH  21  27
ATOM     27  C   UNL     1      -2.189  26.959  40.427  1.00  0.00     0.191 C 
BRANCH  27  28
ATOM     28  O   UNL     1      -1.139  27.126  39.515  1.00  0.00    -0.394 OA
ATOM     29  H   UNL     1      -0.300  27.110  40.049  1.00  0.00     0.210 HD
ENDBRANCH  27  28
ENDBRANCH  21  27
BRANCH  22  30
ATOM     30  O   UNL     1      -0.826  24.517  41.143  1.00  0.00    -0.387 OA
ATOM     31  H   UNL     1      -0.008  24.057  40.825  1.00  0.00     0.211 HD
ENDBRANCH  22  30
ENDBRANCH   1  17
TORSDOF 10
ENDMDL
