MODEL 1
REMARK VINA RESULT:    -5.146      0.000      0.000
REMARK INTER + INTRA:          -5.146
REMARK INTER:                  -5.146
REMARK INTRA:                   0.000
REMARK UNBOUND:                 0.000
REMARK SMILES CC(C)=C1CC[C@@H](C)CC1=O
REMARK SMILES IDX 8 1 7 2 6 3 5 4 4 5 2 6 1 7 3 8 10 9 11 10 9 11
REMARK H PARENT
REMARK Flexibility Score: inf
ROOT
ATOM      1  C   UNL     1       7.740  32.411  54.574  1.00  0.00     0.008 C 
ATOM      2  C   UNL     1       6.582  31.647  53.922  1.00  0.00    -0.006 C 
ATOM      3  C   UNL     1       5.319  31.730  54.795  1.00  0.00     0.008 C 
ATOM      4  C   UNL     1       4.123  31.058  54.109  1.00  0.00     0.039 C 
ATOM      5  C   UNL     1       4.430  29.636  53.660  1.00  0.00    -0.006 C 
ATOM      6  C   UNL     1       3.462  28.675  53.635  1.00  0.00    -0.070 C 
ATOM      7  C   UNL     1       2.037  28.986  54.036  1.00  0.00     0.039 C 
ATOM      8  C   UNL     1       3.767  27.247  53.245  1.00  0.00     0.039 C 
ATOM      9  C   UNL     1       5.812  29.396  53.143  1.00  0.00     0.159 C 
ATOM     10  O   UNL     1       6.034  28.546  52.240  1.00  0.00    -0.295 OA
ATOM     11  C   UNL     1       6.968  30.178  53.696  1.00  0.00     0.084 C 
ENDROOT
TORSDOF 0
ENDMDL
MODEL 2
REMARK VINA RESULT:    -4.925     11.773     13.205
REMARK INTER + INTRA:          -4.925
REMARK INTER:                  -4.925
REMARK INTRA:                   0.000
REMARK UNBOUND:                 0.000
REMARK SMILES CC(C)=C1CC[C@@H](C)CC1=O
REMARK SMILES IDX 8 1 7 2 6 3 5 4 4 5 2 6 1 7 3 8 10 9 11 10 9 11
REMARK H PARENT
REMARK Flexibility Score: inf
ROOT
ATOM      1  C   UNL     1      10.104  22.065  58.630  1.00  0.00     0.008 C 
ATOM      2  C   UNL     1      11.605  21.771  58.736  1.00  0.00    -0.006 C 
ATOM      3  C   UNL     1      12.188  22.396  60.014  1.00  0.00     0.008 C 
ATOM      4  C   UNL     1      13.667  22.026  60.190  1.00  0.00     0.039 C 
ATOM      5  C   UNL     1      14.498  22.339  58.953  1.00  0.00    -0.006 C 
ATOM      6  C   UNL     1      15.810  22.702  59.054  1.00  0.00    -0.070 C 
ATOM      7  C   UNL     1      16.498  22.793  60.397  1.00  0.00     0.039 C 
ATOM      8  C   UNL     1      16.630  23.070  57.838  1.00  0.00     0.039 C 
ATOM      9  C   UNL     1      13.828  22.110  57.637  1.00  0.00     0.159 C 
ATOM     10  O   UNL     1      14.483  21.745  56.624  1.00  0.00    -0.295 OA
ATOM     11  C   UNL     1      12.346  22.308  57.503  1.00  0.00     0.084 C 
ENDROOT
TORSDOF 0
ENDMDL
MODEL 3
REMARK VINA RESULT:    -4.861     10.263     11.751
REMARK INTER + INTRA:          -4.861
REMARK INTER:                  -4.861
REMARK INTRA:                   0.000
REMARK UNBOUND:                 0.000
REMARK SMILES CC(C)=C1CC[C@@H](C)CC1=O
REMARK SMILES IDX 8 1 7 2 6 3 5 4 4 5 2 6 1 7 3 8 10 9 11 10 9 11
REMARK H PARENT
REMARK Flexibility Score: inf
ROOT
ATOM      1  C   UNL     1       8.083  21.652  56.850  1.00  0.00     0.008 C 
ATOM      2  C   UNL     1       9.394  22.291  57.322  1.00  0.00    -0.006 C 
ATOM      3  C   UNL     1      10.532  21.984  56.335  1.00  0.00     0.008 C 
ATOM      4  C   UNL     1      11.827  22.701  56.737  1.00  0.00     0.039 C 
ATOM      5  C   UNL     1      12.219  22.431  58.184  1.00  0.00    -0.006 C 
ATOM      6  C   UNL     1      13.528  22.392  58.569  1.00  0.00    -0.070 C 
ATOM      7  C   UNL     1      14.644  22.633  57.578  1.00  0.00     0.039 C 
ATOM      8  C   UNL     1      13.931  22.069  59.990  1.00  0.00     0.039 C 
ATOM      9  C   UNL     1      11.093  22.332  59.161  1.00  0.00     0.159 C 
ATOM     10  O   UNL     1      11.229  22.705  60.357  1.00  0.00    -0.295 OA
ATOM     11  C   UNL     1       9.764  21.785  58.724  1.00  0.00     0.084 C 
ENDROOT
TORSDOF 0
ENDMDL
MODEL 4
REMARK VINA RESULT:    -4.755     11.125     12.173
REMARK INTER + INTRA:          -4.755
REMARK INTER:                  -4.755
REMARK INTRA:                   0.000
REMARK UNBOUND:                 0.000
REMARK SMILES CC(C)=C1CC[C@@H](C)CC1=O
REMARK SMILES IDX 8 1 7 2 6 3 5 4 4 5 2 6 1 7 3 8 10 9 11 10 9 11
REMARK H PARENT
REMARK Flexibility Score: inf
ROOT
ATOM      1  C   UNL     1      15.007  22.712  61.104  1.00  0.00     0.008 C 
ATOM      2  C   UNL     1      14.177  22.102  59.968  1.00  0.00    -0.006 C 
ATOM      3  C   UNL     1      14.840  22.375  58.608  1.00  0.00     0.008 C 
ATOM      4  C   UNL     1      14.078  21.685  57.469  1.00  0.00     0.039 C 
ATOM      5  C   UNL     1      12.592  22.019  57.474  1.00  0.00    -0.006 C 
ATOM      6  C   UNL     1      11.876  22.083  56.314  1.00  0.00    -0.070 C 
ATOM      7  C   UNL     1      12.525  21.808  54.975  1.00  0.00     0.039 C 
ATOM      8  C   UNL     1      10.415  22.469  56.300  1.00  0.00     0.039 C 
ATOM      9  C   UNL     1      11.954  22.152  58.818  1.00  0.00     0.159 C 
ATOM     10  O   UNL     1      10.750  21.831  59.006  1.00  0.00    -0.295 OA
ATOM     11  C   UNL     1      12.751  22.670  59.981  1.00  0.00     0.084 C 
ENDROOT
TORSDOF 0
ENDMDL
MODEL 5
REMARK VINA RESULT:    -4.738     11.154     12.027
REMARK INTER + INTRA:          -4.738
REMARK INTER:                  -4.738
REMARK INTRA:                   0.000
REMARK UNBOUND:                 0.000
REMARK SMILES CC(C)=C1CC[C@@H](C)CC1=O
REMARK SMILES IDX 8 1 7 2 6 3 5 4 4 5 2 6 1 7 3 8 10 9 11 10 9 11
REMARK H PARENT
REMARK Flexibility Score: inf
ROOT
ATOM      1  C   UNL     1      15.957  22.342  60.721  1.00  0.00     0.008 C 
ATOM      2  C   UNL     1      14.703  22.768  59.949  1.00  0.00    -0.006 C 
ATOM      3  C   UNL     1      13.456  22.070  60.516  1.00  0.00     0.008 C 
ATOM      4  C   UNL     1      12.178  22.562  59.823  1.00  0.00     0.039 C 
ATOM      5  C   UNL     1      12.264  22.465  58.305  1.00  0.00    -0.006 C 
ATOM      6  C   UNL     1      11.155  22.223  57.547  1.00  0.00    -0.070 C 
ATOM      7  C   UNL     1       9.792  22.058  58.180  1.00  0.00     0.039 C 
ATOM      8  C   UNL     1      11.236  22.068  56.046  1.00  0.00     0.039 C 
ATOM      9  C   UNL     1      13.597  22.767  57.703  1.00  0.00     0.159 C 
ATOM     10  O   UNL     1      13.696  23.299  56.565  1.00  0.00    -0.295 OA
ATOM     11  C   UNL     1      14.854  22.440  58.456  1.00  0.00     0.084 C 
ENDROOT
TORSDOF 0
ENDMDL
MODEL 6
REMARK VINA RESULT:    -4.727     12.462     13.502
REMARK INTER + INTRA:          -4.727
REMARK INTER:                  -4.727
REMARK INTRA:                   0.000
REMARK UNBOUND:                 0.000
REMARK SMILES CC(C)=C1CC[C@@H](C)CC1=O
REMARK SMILES IDX 8 1 7 2 6 3 5 4 4 5 2 6 1 7 3 8 10 9 11 10 9 11
REMARK H PARENT
REMARK Flexibility Score: inf
ROOT
ATOM      1  C   UNL     1      18.016  23.132  60.368  1.00  0.00     0.008 C 
ATOM      2  C   UNL     1      16.712  22.492  59.878  1.00  0.00    -0.006 C 
ATOM      3  C   UNL     1      16.312  23.060  58.507  1.00  0.00     0.008 C 
ATOM      4  C   UNL     1      15.065  22.357  57.955  1.00  0.00     0.039 C 
ATOM      5  C   UNL     1      13.909  22.354  58.946  1.00  0.00    -0.006 C 
ATOM      6  C   UNL     1      12.612  22.394  58.523  1.00  0.00    -0.070 C 
ATOM      7  C   UNL     1      12.268  22.426  57.051  1.00  0.00     0.039 C 
ATOM      8  C   UNL     1      11.458  22.449  59.498  1.00  0.00     0.039 C 
ATOM      9  C   UNL     1      14.279  22.186  60.384  1.00  0.00     0.159 C 
ATOM     10  O   UNL     1      13.516  21.590  61.191  1.00  0.00    -0.295 OA
ATOM     11  C   UNL     1      15.583  22.728  60.893  1.00  0.00     0.084 C 
ENDROOT
TORSDOF 0
ENDMDL
MODEL 7
REMARK VINA RESULT:    -4.652      1.653      4.761
REMARK INTER + INTRA:          -4.652
REMARK INTER:                  -4.652
REMARK INTRA:                   0.000
REMARK UNBOUND:                 0.000
REMARK SMILES CC(C)=C1CC[C@@H](C)CC1=O
REMARK SMILES IDX 8 1 7 2 6 3 5 4 4 5 2 6 1 7 3 8 10 9 11 10 9 11
REMARK H PARENT
REMARK Flexibility Score: inf
ROOT
ATOM      1  C   UNL     1       3.741  27.546  53.310  1.00  0.00     0.008 C 
ATOM      2  C   UNL     1       4.703  28.706  53.030  1.00  0.00    -0.006 C 
ATOM      3  C   UNL     1       6.161  28.254  53.213  1.00  0.00     0.008 C 
ATOM      4  C   UNL     1       7.142  29.373  52.838  1.00  0.00     0.039 C 
ATOM      5  C   UNL     1       6.840  30.680  53.559  1.00  0.00    -0.006 C 
ATOM      6  C   UNL     1       7.835  31.550  53.898  1.00  0.00    -0.070 C 
ATOM      7  C   UNL     1       9.280  31.260  53.557  1.00  0.00     0.039 C 
ATOM      8  C   UNL     1       7.555  32.822  54.664  1.00  0.00     0.039 C 
ATOM      9  C   UNL     1       5.394  30.999  53.761  1.00  0.00     0.159 C 
ATOM     10  O   UNL     1       4.980  32.189  53.765  1.00  0.00    -0.295 OA
ATOM     11  C   UNL     1       4.400  29.890  53.960  1.00  0.00     0.084 C 
ENDROOT
TORSDOF 0
ENDMDL
MODEL 8
REMARK VINA RESULT:    -4.629     11.255     12.664
REMARK INTER + INTRA:          -4.629
REMARK INTER:                  -4.629
REMARK INTRA:                   0.000
REMARK UNBOUND:                 0.000
REMARK SMILES CC(C)=C1CC[C@@H](C)CC1=O
REMARK SMILES IDX 8 1 7 2 6 3 5 4 4 5 2 6 1 7 3 8 10 9 11 10 9 11
REMARK H PARENT
REMARK Flexibility Score: inf
ROOT
ATOM      1  C   UNL     1      10.661  22.075  55.593  1.00  0.00     0.008 C 
ATOM      2  C   UNL     1      11.616  22.569  56.686  1.00  0.00    -0.006 C 
ATOM      3  C   UNL     1      13.065  22.176  56.356  1.00  0.00     0.008 C 
ATOM      4  C   UNL     1      14.046  22.751  57.385  1.00  0.00     0.039 C 
ATOM      5  C   UNL     1      13.658  22.407  58.817  1.00  0.00    -0.006 C 
ATOM      6  C   UNL     1      14.604  22.229  59.785  1.00  0.00    -0.070 C 
ATOM      7  C   UNL     1      16.077  22.383  59.480  1.00  0.00     0.039 C 
ATOM      8  C   UNL     1      14.235  21.831  61.196  1.00  0.00     0.039 C 
ATOM      9  C   UNL     1      12.194  22.394  59.115  1.00  0.00     0.159 C 
ATOM     10  O   UNL     1      11.755  22.720  60.250  1.00  0.00    -0.295 OA
ATOM     11  C   UNL     1      11.214  21.993  58.052  1.00  0.00     0.084 C 
ENDROOT
TORSDOF 0
ENDMDL
MODEL 9
REMARK VINA RESULT:    -4.602     11.587     12.920
REMARK INTER + INTRA:          -4.602
REMARK INTER:                  -4.602
REMARK INTRA:                   0.000
REMARK UNBOUND:                 0.000
REMARK SMILES CC(C)=C1CC[C@@H](C)CC1=O
REMARK SMILES IDX 8 1 7 2 6 3 5 4 4 5 2 6 1 7 3 8 10 9 11 10 9 11
REMARK H PARENT
REMARK Flexibility Score: inf
ROOT
ATOM      1  C   UNL     1      14.598  21.609  61.877  1.00  0.00     0.008 C 
ATOM      2  C   UNL     1      14.452  21.632  60.351  1.00  0.00    -0.006 C 
ATOM      3  C   UNL     1      15.567  22.477  59.713  1.00  0.00     0.008 C 
ATOM      4  C   UNL     1      15.497  22.427  58.182  1.00  0.00     0.039 C 
ATOM      5  C   UNL     1      14.115  22.784  57.648  1.00  0.00    -0.006 C 
ATOM      6  C   UNL     1      13.959  23.409  56.446  1.00  0.00    -0.070 C 
ATOM      7  C   UNL     1      15.151  23.760  55.583  1.00  0.00     0.039 C 
ATOM      8  C   UNL     1      12.598  23.819  55.932  1.00  0.00     0.039 C 
ATOM      9  C   UNL     1      12.956  22.304  58.459  1.00  0.00     0.159 C 
ATOM     10  O   UNL     1      11.864  21.985  57.916  1.00  0.00    -0.295 OA
ATOM     11  C   UNL     1      13.078  22.189  59.951  1.00  0.00     0.084 C 
ENDROOT
TORSDOF 0
ENDMDL
