MODEL 1
REMARK VINA RESULT:    -1.121      0.000      0.000
REMARK INTER + INTRA:          -4.024
REMARK INTER:                  -2.957
REMARK INTRA:                  -1.067
REMARK UNBOUND:                -1.067
REMARK SMILES CCCCCCCCCCCCCCCCCCCCCCCCCCCCCC(=O)[O-]
REMARK SMILES IDX 16 1 17 2 18 3 19 4 20 5 21 6 22 7 23 8 24 9 25 10 26 11
REMARK SMILES IDX 27 12 28 13 29 14 30 15 31 16 32 17 15 18 14 19 13 20 12 21
REMARK SMILES IDX 11 22 10 23 9 24 8 25 7 26 6 27 5 28 4 29 3 30 2 31 1 32
REMARK H PARENT
REMARK Flexibility Score: inf
ROOT
ATOM      1  C   UNL     1      14.150  13.017   7.807  1.00  0.00     0.000 C 
ENDROOT
BRANCH   1   2
ATOM      2  C   UNL     1      15.212  13.426   6.763  1.00  0.00     0.000 C 
BRANCH   2   3
ATOM      3  C   UNL     1      16.222  14.443   7.324  1.00  0.00     0.000 C 
BRANCH   3   4
ATOM      4  C   UNL     1      15.640  15.865   7.400  1.00  0.00     0.000 C 
BRANCH   4   5
ATOM      5  C   UNL     1      15.421  16.481   6.007  1.00  0.00     0.000 C 
BRANCH   5   6
ATOM      6  C   UNL     1      14.051  16.126   5.410  1.00  0.00     0.000 C 
BRANCH   6   7
ATOM      7  C   UNL     1      13.767  16.879   4.098  1.00  0.00     0.000 C 
BRANCH   7   8
ATOM      8  C   UNL     1      12.596  16.262   3.309  1.00  0.00     0.000 C 
BRANCH   8   9
ATOM      9  C   UNL     1      12.800  16.282   1.781  1.00  0.00     0.000 C 
BRANCH   9  10
ATOM     10  C   UNL     1      12.502  17.660   1.164  1.00  0.00     0.000 C 
BRANCH  10  11
ATOM     11  C   UNL     1      12.470  17.620  -0.381  1.00  0.00     0.000 C 
BRANCH  11  12
ATOM     12  C   UNL     1      12.257  18.997  -1.033  1.00  0.00     0.000 C 
BRANCH  12  13
ATOM     13  C   UNL     1      12.926  20.171  -0.292  1.00  0.00     0.006 C 
BRANCH  13  14
ATOM     14  C   UNL     1      14.216  20.679  -0.964  1.00  0.00     0.053 C 
BRANCH  14  15
ATOM     15  C   UNL     1      15.451  20.274  -0.219  1.00  0.00     0.041 C 
ATOM     16  O   UNL     1      16.516  20.935  -0.348  1.00  0.00    -0.550 OA
ATOM     17  O   UNL     1      15.435  19.148   0.592  1.00  0.00    -0.550 OA
ENDBRANCH  14  15
ENDBRANCH  13  14
ENDBRANCH  12  13
ENDBRANCH  11  12
ENDBRANCH  10  11
ENDBRANCH   9  10
ENDBRANCH   8   9
ENDBRANCH   7   8
ENDBRANCH   6   7
ENDBRANCH   5   6
ENDBRANCH   4   5
ENDBRANCH   3   4
ENDBRANCH   2   3
ENDBRANCH   1   2
BRANCH   1  18
ATOM     18  C   UNL     1      14.735  12.605   9.169  1.00  0.00     0.000 C 
BRANCH  18  19
ATOM     19  C   UNL     1      13.749  12.814  10.330  1.00  0.00     0.000 C 
BRANCH  19  20
ATOM     20  C   UNL     1      14.399  12.624  11.715  1.00  0.00     0.000 C 
BRANCH  20  21
ATOM     21  C   UNL     1      15.509  11.553  11.784  1.00  0.00     0.000 C 
BRANCH  21  22
ATOM     22  C   UNL     1      16.947  12.092  11.666  1.00  0.00     0.000 C 
BRANCH  22  23
ATOM     23  C   UNL     1      17.125  13.564  12.084  1.00  0.00     0.000 C 
BRANCH  23  24
ATOM     24  C   UNL     1      16.526  14.593  11.108  1.00  0.00    -0.000 C 
BRANCH  24  25
ATOM     25  C   UNL     1      17.023  16.026  11.375  1.00  0.00    -0.000 C 
BRANCH  25  26
ATOM     26  C   UNL     1      16.884  16.434  12.851  1.00  0.00    -0.000 C 
BRANCH  26  27
ATOM     27  C   UNL     1      16.841  17.961  13.038  1.00  0.00    -0.000 C 
BRANCH  27  28
ATOM     28  C   UNL     1      15.549  18.589  12.488  1.00  0.00    -0.000 C 
BRANCH  28  29
ATOM     29  C   UNL     1      15.743  19.490  11.254  1.00  0.00    -0.000 C 
BRANCH  29  30
ATOM     30  C   UNL     1      14.958  20.818  11.324  1.00  0.00    -0.000 C 
BRANCH  30  31
ATOM     31  C   UNL     1      13.523  20.617  11.831  1.00  0.00    -0.003 C 
ATOM     32  C   UNL     1      12.881  21.947  12.213  1.00  0.00     0.004 C 
ENDBRANCH  30  31
ENDBRANCH  29  30
ENDBRANCH  28  29
ENDBRANCH  27  28
ENDBRANCH  26  27
ENDBRANCH  25  26
ENDBRANCH  24  25
ENDBRANCH  23  24
ENDBRANCH  22  23
ENDBRANCH  21  22
ENDBRANCH  20  21
ENDBRANCH  19  20
ENDBRANCH  18  19
ENDBRANCH   1  18
TORSDOF 28
ENDMDL
MODEL 2
REMARK VINA RESULT:     0.464      3.130      9.770
REMARK INTER + INTRA:           0.156
REMARK INTER:                   1.735
REMARK INTRA:                  -1.579
REMARK UNBOUND:                -1.067
REMARK SMILES CCCCCCCCCCCCCCCCCCCCCCCCCCCCCC(=O)[O-]
REMARK SMILES IDX 16 1 17 2 18 3 19 4 20 5 21 6 22 7 23 8 24 9 25 10 26 11
REMARK SMILES IDX 27 12 28 13 29 14 30 15 31 16 32 17 15 18 14 19 13 20 12 21
REMARK SMILES IDX 11 22 10 23 9 24 8 25 7 26 6 27 5 28 4 29 3 30 2 31 1 32
REMARK H PARENT
REMARK Flexibility Score: inf
ROOT
ATOM      1  C   UNL     1      15.724  12.981   7.001  1.00  0.00     0.000 C 
ENDROOT
BRANCH   1   2
ATOM      2  C   UNL     1      14.337  13.499   7.441  1.00  0.00     0.000 C 
BRANCH   2   3
ATOM      3  C   UNL     1      13.582  12.479   8.312  1.00  0.00     0.000 C 
BRANCH   3   4
ATOM      4  C   UNL     1      14.399  12.035   9.537  1.00  0.00     0.000 C 
BRANCH   4   5
ATOM      5  C   UNL     1      14.187  12.962  10.746  1.00  0.00     0.000 C 
BRANCH   5   6
ATOM      6  C   UNL     1      15.189  12.697  11.881  1.00  0.00     0.000 C 
BRANCH   6   7
ATOM      7  C   UNL     1      16.538  13.403  11.653  1.00  0.00     0.000 C 
BRANCH   7   8
ATOM      8  C   UNL     1      16.771  14.557  12.647  1.00  0.00     0.000 C 
BRANCH   8   9
ATOM      9  C   UNL     1      16.604  15.956  12.022  1.00  0.00     0.000 C 
BRANCH   9  10
ATOM     10  C   UNL     1      16.986  17.085  12.994  1.00  0.00     0.000 C 
BRANCH  10  11
ATOM     11  C   UNL     1      16.089  18.334  12.830  1.00  0.00     0.000 C 
BRANCH  11  12
ATOM     12  C   UNL     1      15.355  18.397  11.480  1.00  0.00     0.000 C 
BRANCH  12  13
ATOM     13  C   UNL     1      15.813  19.537  10.550  1.00  0.00     0.006 C 
BRANCH  13  14
ATOM     14  C   UNL     1      15.889  20.913  11.238  1.00  0.00     0.053 C 
BRANCH  14  15
ATOM     15  C   UNL     1      14.596  21.305  11.885  1.00  0.00     0.041 C 
ATOM     16  O   UNL     1      13.499  21.004  11.345  1.00  0.00    -0.550 OA
ATOM     17  O   UNL     1      14.604  22.031  13.068  1.00  0.00    -0.550 OA
ENDBRANCH  14  15
ENDBRANCH  13  14
ENDBRANCH  12  13
ENDBRANCH  11  12
ENDBRANCH  10  11
ENDBRANCH   9  10
ENDBRANCH   8   9
ENDBRANCH   7   8
ENDBRANCH   6   7
ENDBRANCH   5   6
ENDBRANCH   4   5
ENDBRANCH   3   4
ENDBRANCH   2   3
ENDBRANCH   1   2
BRANCH   1  18
ATOM     18  C   UNL     1      16.808  13.093   8.086  1.00  0.00     0.000 C 
BRANCH  18  19
ATOM     19  C   UNL     1      17.123  14.548   8.470  1.00  0.00     0.000 C 
BRANCH  19  20
ATOM     20  C   UNL     1      16.737  15.559   7.372  1.00  0.00     0.000 C 
BRANCH  20  21
ATOM     21  C   UNL     1      15.548  16.484   7.713  1.00  0.00     0.000 C 
BRANCH  21  22
ATOM     22  C   UNL     1      14.928  17.223   6.512  1.00  0.00     0.000 C 
BRANCH  22  23
ATOM     23  C   UNL     1      14.624  16.335   5.291  1.00  0.00     0.000 C 
BRANCH  23  24
ATOM     24  C   UNL     1      13.792  17.012   4.186  1.00  0.00    -0.000 C 
BRANCH  24  25
ATOM     25  C   UNL     1      12.692  16.095   3.622  1.00  0.00    -0.000 C 
BRANCH  25  26
ATOM     26  C   UNL     1      11.995  16.697   2.391  1.00  0.00    -0.000 C 
BRANCH  26  27
ATOM     27  C   UNL     1      12.939  16.818   1.181  1.00  0.00    -0.000 C 
BRANCH  27  28
ATOM     28  C   UNL     1      12.417  17.799   0.117  1.00  0.00    -0.000 C 
BRANCH  28  29
ATOM     29  C   UNL     1      13.246  19.089  -0.034  1.00  0.00    -0.000 C 
BRANCH  29  30
ATOM     30  C   UNL     1      14.690  18.965   0.498  1.00  0.00    -0.000 C 
BRANCH  30  31
ATOM     31  C   UNL     1      15.678  19.827  -0.299  1.00  0.00    -0.003 C 
ATOM     32  C   UNL     1      15.544  21.302   0.068  1.00  0.00     0.004 C 
ENDBRANCH  30  31
ENDBRANCH  29  30
ENDBRANCH  28  29
ENDBRANCH  27  28
ENDBRANCH  26  27
ENDBRANCH  25  26
ENDBRANCH  24  25
ENDBRANCH  23  24
ENDBRANCH  22  23
ENDBRANCH  21  22
ENDBRANCH  20  21
ENDBRANCH  19  20
ENDBRANCH  18  19
ENDBRANCH   1  18
TORSDOF 28
ENDMDL
MODEL 3
REMARK VINA RESULT:     0.637      1.835      4.177
REMARK INTER + INTRA:           0.613
REMARK INTER:                   2.573
REMARK INTRA:                  -1.960
REMARK UNBOUND:                -1.067
REMARK SMILES CCCCCCCCCCCCCCCCCCCCCCCCCCCCCC(=O)[O-]
REMARK SMILES IDX 16 1 17 2 18 3 19 4 20 5 21 6 22 7 23 8 24 9 25 10 26 11
REMARK SMILES IDX 27 12 28 13 29 14 30 15 31 16 32 17 15 18 14 19 13 20 12 21
REMARK SMILES IDX 11 22 10 23 9 24 8 25 7 26 6 27 5 28 4 29 3 30 2 31 1 32
REMARK H PARENT
REMARK Flexibility Score: inf
ROOT
ATOM      1  C   UNL     1      15.804  16.163   6.357  1.00  0.00     0.000 C 
ENDROOT
BRANCH   1   2
ATOM      2  C   UNL     1      17.125  16.403   5.594  1.00  0.00     0.000 C 
BRANCH   2   3
ATOM      3  C   UNL     1      17.068  17.662   4.711  1.00  0.00     0.000 C 
BRANCH   3   4
ATOM      4  C   UNL     1      16.543  17.362   3.296  1.00  0.00     0.000 C 
BRANCH   4   5
ATOM      5  C   UNL     1      16.560  18.607   2.392  1.00  0.00     0.000 C 
BRANCH   5   6
ATOM      6  C   UNL     1      17.125  18.316   0.993  1.00  0.00     0.000 C 
BRANCH   6   7
ATOM      7  C   UNL     1      17.122  19.560   0.086  1.00  0.00     0.000 C 
BRANCH   7   8
ATOM      8  C   UNL     1      16.035  20.575   0.485  1.00  0.00     0.000 C 
BRANCH   8   9
ATOM      9  C   UNL     1      15.733  21.621  -0.606  1.00  0.00     0.000 C 
BRANCH   9  10
ATOM     10  C   UNL     1      14.400  21.351  -1.327  1.00  0.00     0.000 C 
BRANCH  10  11
ATOM     11  C   UNL     1      13.362  20.661  -0.412  1.00  0.00     0.000 C 
BRANCH  11  12
ATOM     12  C   UNL     1      13.375  19.126  -0.507  1.00  0.00     0.000 C 
BRANCH  12  13
ATOM     13  C   UNL     1      12.606  18.404   0.616  1.00  0.00     0.006 C 
BRANCH  13  14
ATOM     14  C   UNL     1      13.025  16.934   0.814  1.00  0.00     0.053 C 
BRANCH  14  15
ATOM     15  C   UNL     1      12.801  16.456   2.216  1.00  0.00     0.041 C 
ATOM     16  O   UNL     1      12.007  15.505   2.443  1.00  0.00    -0.550 OA
ATOM     17  O   UNL     1      13.446  17.081   3.274  1.00  0.00    -0.550 OA
ENDBRANCH  14  15
ENDBRANCH  13  14
ENDBRANCH  12  13
ENDBRANCH  11  12
ENDBRANCH  10  11
ENDBRANCH   9  10
ENDBRANCH   8   9
ENDBRANCH   7   8
ENDBRANCH   6   7
ENDBRANCH   5   6
ENDBRANCH   4   5
ENDBRANCH   3   4
ENDBRANCH   2   3
ENDBRANCH   1   2
BRANCH   1  18
ATOM     18  C   UNL     1      15.995  15.721   7.818  1.00  0.00     0.000 C 
BRANCH  18  19
ATOM     19  C   UNL     1      16.176  14.202   7.964  1.00  0.00     0.000 C 
BRANCH  19  20
ATOM     20  C   UNL     1      14.858  13.418   7.811  1.00  0.00     0.000 C 
BRANCH  20  21
ATOM     21  C   UNL     1      13.910  13.474   9.029  1.00  0.00     0.000 C 
BRANCH  21  22
ATOM     22  C   UNL     1      14.095  12.340  10.056  1.00  0.00     0.000 C 
BRANCH  22  23
ATOM     23  C   UNL     1      15.547  12.120  10.523  1.00  0.00     0.000 C 
BRANCH  23  24
ATOM     24  C   UNL     1      15.692  11.540  11.942  1.00  0.00    -0.000 C 
BRANCH  24  25
ATOM     25  C   UNL     1      15.629  12.621  13.037  1.00  0.00    -0.000 C 
BRANCH  25  26
ATOM     26  C   UNL     1      16.772  13.642  12.924  1.00  0.00    -0.000 C 
BRANCH  26  27
ATOM     27  C   UNL     1      16.304  14.988  12.343  1.00  0.00    -0.000 C 
BRANCH  27  28
ATOM     28  C   UNL     1      16.989  16.193  13.009  1.00  0.00    -0.000 C 
BRANCH  28  29
ATOM     29  C   UNL     1      16.768  17.539  12.293  1.00  0.00    -0.000 C 
BRANCH  29  30
ATOM     30  C   UNL     1      16.059  17.407  10.928  1.00  0.00    -0.000 C 
BRANCH  30  31
ATOM     31  C   UNL     1      15.080  18.561  10.668  1.00  0.00    -0.003 C 
ATOM     32  C   UNL     1      15.379  19.752  11.574  1.00  0.00     0.004 C 
ENDBRANCH  30  31
ENDBRANCH  29  30
ENDBRANCH  28  29
ENDBRANCH  27  28
ENDBRANCH  26  27
ENDBRANCH  25  26
ENDBRANCH  24  25
ENDBRANCH  23  24
ENDBRANCH  22  23
ENDBRANCH  21  22
ENDBRANCH  20  21
ENDBRANCH  19  20
ENDBRANCH  18  19
ENDBRANCH   1  18
TORSDOF 28
ENDMDL
MODEL 4
REMARK VINA RESULT:     0.911      2.168      5.776
REMARK INTER + INTRA:           1.335
REMARK INTER:                   2.257
REMARK INTRA:                  -0.922
REMARK UNBOUND:                -1.067
REMARK SMILES CCCCCCCCCCCCCCCCCCCCCCCCCCCCCC(=O)[O-]
REMARK SMILES IDX 16 1 17 2 18 3 19 4 20 5 21 6 22 7 23 8 24 9 25 10 26 11
REMARK SMILES IDX 27 12 28 13 29 14 30 15 31 16 32 17 15 18 14 19 13 20 12 21
REMARK SMILES IDX 11 22 10 23 9 24 8 25 7 26 6 27 5 28 4 29 3 30 2 31 1 32
REMARK H PARENT
REMARK Flexibility Score: inf
ROOT
ATOM      1  C   UNL     1      16.698  17.314   5.575  1.00  0.00     0.000 C 
ENDROOT
BRANCH   1   2
ATOM      2  C   UNL     1      17.125  17.152   4.099  1.00  0.00     0.000 C 
BRANCH   2   3
ATOM      3  C   UNL     1      16.921  18.443   3.287  1.00  0.00     0.000 C 
BRANCH   3   4
ATOM      4  C   UNL     1      17.103  18.220   1.776  1.00  0.00     0.000 C 
BRANCH   4   5
ATOM      5  C   UNL     1      16.289  19.221   0.937  1.00  0.00     0.000 C 
BRANCH   5   6
ATOM      6  C   UNL     1      17.123  20.428   0.480  1.00  0.00     0.000 C 
BRANCH   6   7
ATOM      7  C   UNL     1      16.249  21.632   0.085  1.00  0.00     0.000 C 
BRANCH   7   8
ATOM      8  C   UNL     1      16.395  22.001  -1.403  1.00  0.00     0.000 C 
BRANCH   8   9
ATOM      9  C   UNL     1      15.094  21.835  -2.213  1.00  0.00     0.000 C 
BRANCH   9  10
ATOM     10  C   UNL     1      13.856  21.673  -1.313  1.00  0.00     0.000 C 
BRANCH  10  11
ATOM     11  C   UNL     1      13.770  20.267  -0.674  1.00  0.00     0.000 C 
BRANCH  11  12
ATOM     12  C   UNL     1      12.616  19.408  -1.219  1.00  0.00     0.000 C 
BRANCH  12  13
ATOM     13  C   UNL     1      11.943  18.496  -0.175  1.00  0.00     0.006 C 
BRANCH  13  14
ATOM     14  C   UNL     1      12.835  17.336   0.308  1.00  0.00     0.053 C 
BRANCH  14  15
ATOM     15  C   UNL     1      12.395  16.783   1.629  1.00  0.00     0.041 C 
ATOM     16  O   UNL     1      12.841  15.678   2.035  1.00  0.00    -0.550 OA
ATOM     17  O   UNL     1      11.468  17.474   2.397  1.00  0.00    -0.550 OA
ENDBRANCH  14  15
ENDBRANCH  13  14
ENDBRANCH  12  13
ENDBRANCH  11  12
ENDBRANCH  10  11
ENDBRANCH   9  10
ENDBRANCH   8   9
ENDBRANCH   7   8
ENDBRANCH   6   7
ENDBRANCH   5   6
ENDBRANCH   4   5
ENDBRANCH   3   4
ENDBRANCH   2   3
ENDBRANCH   1   2
BRANCH   1  18
ATOM     18  C   UNL     1      17.092  16.132   6.475  1.00  0.00     0.000 C 
BRANCH  18  19
ATOM     19  C   UNL     1      16.212  16.017   7.730  1.00  0.00     0.000 C 
BRANCH  19  20
ATOM     20  C   UNL     1      15.345  17.267   7.977  1.00  0.00     0.000 C 
BRANCH  20  21
ATOM     21  C   UNL     1      16.060  18.440   8.681  1.00  0.00     0.000 C 
BRANCH  21  22
ATOM     22  C   UNL     1      16.580  18.133  10.099  1.00  0.00     0.000 C 
BRANCH  22  23
ATOM     23  C   UNL     1      15.700  18.673  11.243  1.00  0.00     0.000 C 
BRANCH  23  24
ATOM     24  C   UNL     1      16.301  18.523  12.652  1.00  0.00    -0.000 C 
BRANCH  24  25
ATOM     25  C   UNL     1      16.997  17.165  12.861  1.00  0.00    -0.000 C 
BRANCH  25  26
ATOM     26  C   UNL     1      16.098  15.976  12.487  1.00  0.00    -0.000 C 
BRANCH  26  27
ATOM     27  C   UNL     1      16.894  14.797  11.900  1.00  0.00    -0.000 C 
BRANCH  27  28
ATOM     28  C   UNL     1      16.068  13.502  11.826  1.00  0.00    -0.000 C 
BRANCH  28  29
ATOM     29  C   UNL     1      14.864  13.558  10.866  1.00  0.00    -0.000 C 
BRANCH  29  30
ATOM     30  C   UNL     1      15.250  13.417   9.378  1.00  0.00    -0.000 C 
BRANCH  30  31
ATOM     31  C   UNL     1      14.070  12.951   8.514  1.00  0.00    -0.003 C 
ATOM     32  C   UNL     1      14.388  13.081   7.027  1.00  0.00     0.004 C 
ENDBRANCH  30  31
ENDBRANCH  29  30
ENDBRANCH  28  29
ENDBRANCH  27  28
ENDBRANCH  26  27
ENDBRANCH  25  26
ENDBRANCH  24  25
ENDBRANCH  23  24
ENDBRANCH  22  23
ENDBRANCH  21  22
ENDBRANCH  20  21
ENDBRANCH  19  20
ENDBRANCH  18  19
ENDBRANCH   1  18
TORSDOF 28
ENDMDL
MODEL 5
REMARK VINA RESULT:     1.426      2.950     10.755
REMARK INTER + INTRA:           2.694
REMARK INTER:                   4.881
REMARK INTRA:                  -2.187
REMARK UNBOUND:                -1.067
REMARK SMILES CCCCCCCCCCCCCCCCCCCCCCCCCCCCCC(=O)[O-]
REMARK SMILES IDX 16 1 17 2 18 3 19 4 20 5 21 6 22 7 23 8 24 9 25 10 26 11
REMARK SMILES IDX 27 12 28 13 29 14 30 15 31 16 32 17 15 18 14 19 13 20 12 21
REMARK SMILES IDX 11 22 10 23 9 24 8 25 7 26 6 27 5 28 4 29 3 30 2 31 1 32
REMARK H PARENT
REMARK Flexibility Score: inf
ROOT
ATOM      1  C   UNL     1      14.978  14.914   6.666  1.00  0.00     0.000 C 
ENDROOT
BRANCH   1   2
ATOM      2  C   UNL     1      15.055  13.377   6.781  1.00  0.00     0.000 C 
BRANCH   2   3
ATOM      3  C   UNL     1      13.833  12.783   7.503  1.00  0.00     0.000 C 
BRANCH   3   4
ATOM      4  C   UNL     1      13.617  13.401   8.895  1.00  0.00     0.000 C 
BRANCH   4   5
ATOM      5  C   UNL     1      14.388  12.649   9.994  1.00  0.00     0.000 C 
BRANCH   5   6
ATOM      6  C   UNL     1      13.678  12.693  11.355  1.00  0.00     0.000 C 
BRANCH   6   7
ATOM      7  C   UNL     1      14.288  11.711  12.371  1.00  0.00     0.000 C 
BRANCH   7   8
ATOM      8  C   UNL     1      15.327  10.773  11.729  1.00  0.00     0.000 C 
BRANCH   8   9
ATOM      9  C   UNL     1      16.743  10.921  12.318  1.00  0.00     0.000 C 
BRANCH   9  10
ATOM     10  C   UNL     1      17.125  12.390  12.574  1.00  0.00     0.000 C 
BRANCH  10  11
ATOM     11  C   UNL     1      17.042  13.252  11.293  1.00  0.00     0.000 C 
BRANCH  11  12
ATOM     12  C   UNL     1      16.958  14.764  11.567  1.00  0.00     0.000 C 
BRANCH  12  13
ATOM     13  C   UNL     1      16.842  15.642  10.307  1.00  0.00     0.006 C 
BRANCH  13  14
ATOM     14  C   UNL     1      15.634  16.599  10.321  1.00  0.00     0.053 C 
BRANCH  14  15
ATOM     15  C   UNL     1      16.036  18.031  10.500  1.00  0.00     0.041 C 
ATOM     16  O   UNL     1      16.404  18.716   9.509  1.00  0.00    -0.550 OA
ATOM     17  O   UNL     1      16.033  18.600  11.766  1.00  0.00    -0.550 OA
ENDBRANCH  14  15
ENDBRANCH  13  14
ENDBRANCH  12  13
ENDBRANCH  11  12
ENDBRANCH  10  11
ENDBRANCH   9  10
ENDBRANCH   8   9
ENDBRANCH   7   8
ENDBRANCH   6   7
ENDBRANCH   5   6
ENDBRANCH   4   5
ENDBRANCH   3   4
ENDBRANCH   2   3
ENDBRANCH   1   2
BRANCH   1  18
ATOM     18  C   UNL     1      16.062  15.531   5.766  1.00  0.00     0.000 C 
BRANCH  18  19
ATOM     19  C   UNL     1      16.233  17.043   5.986  1.00  0.00     0.000 C 
BRANCH  19  20
ATOM     20  C   UNL     1      17.125  17.712   4.922  1.00  0.00     0.000 C 
BRANCH  20  21
ATOM     21  C   UNL     1      16.596  17.637   3.474  1.00  0.00     0.000 C 
BRANCH  21  22
ATOM     22  C   UNL     1      17.111  18.741   2.530  1.00  0.00     0.000 C 
BRANCH  22  23
ATOM     23  C   UNL     1      16.475  18.743   1.127  1.00  0.00     0.000 C 
BRANCH  23  24
ATOM     24  C   UNL     1      16.470  20.110   0.418  1.00  0.00    -0.000 C 
BRANCH  24  25
ATOM     25  C   UNL     1      15.870  20.044  -0.998  1.00  0.00    -0.000 C 
BRANCH  25  26
ATOM     26  C   UNL     1      14.982  21.257  -1.320  1.00  0.00    -0.000 C 
BRANCH  26  27
ATOM     27  C   UNL     1      13.502  20.873  -1.496  1.00  0.00    -0.000 C 
BRANCH  27  28
ATOM     28  C   UNL     1      13.026  19.852  -0.449  1.00  0.00    -0.000 C 
BRANCH  28  29
ATOM     29  C   UNL     1      12.164  18.704  -1.011  1.00  0.00    -0.000 C 
BRANCH  29  30
ATOM     30  C   UNL     1      11.960  17.538  -0.020  1.00  0.00    -0.000 C 
BRANCH  30  31
ATOM     31  C   UNL     1      12.888  17.643   1.198  1.00  0.00    -0.003 C 
ATOM     32  C   UNL     1      12.623  16.516   2.192  1.00  0.00     0.004 C 
ENDBRANCH  30  31
ENDBRANCH  29  30
ENDBRANCH  28  29
ENDBRANCH  27  28
ENDBRANCH  26  27
ENDBRANCH  25  26
ENDBRANCH  24  25
ENDBRANCH  23  24
ENDBRANCH  22  23
ENDBRANCH  21  22
ENDBRANCH  20  21
ENDBRANCH  19  20
ENDBRANCH  18  19
ENDBRANCH   1  18
TORSDOF 28
ENDMDL
