MODEL 1
REMARK VINA RESULT:    -4.411      0.000      0.000
REMARK INTER + INTRA:          -6.612
REMARK INTER:                  -5.958
REMARK INTRA:                  -0.653
REMARK UNBOUND:                -0.653
REMARK SMILES CC(=O)OCC=C(C)CCC=C(C)C
REMARK SMILES IDX 7 1 6 2 8 3 9 4 10 5 11 6 13 7 12 8 14 9 5 10 4 11 2 12 3 13
REMARK SMILES IDX 1 14
REMARK H PARENT
REMARK Flexibility Score: inf
ROOT
ATOM      1  C   UNL     1      -3.678  -2.970 -33.657  1.00  0.00    -0.074 C 
ATOM      2  C   UNL     1      -2.895  -1.950 -34.078  1.00  0.00     0.013 C 
ATOM      3  C   UNL     1      -3.679  -4.308 -34.359  1.00  0.00     0.039 C 
ENDROOT
BRANCH   1   4
ATOM      4  C   UNL     1      -4.571  -2.764 -32.453  1.00  0.00     0.034 C 
BRANCH   4   5
ATOM      5  C   UNL     1      -4.694  -4.056 -31.638  1.00  0.00     0.032 C 
BRANCH   5   6
ATOM      6  C   UNL     1      -3.763  -4.031 -30.451  1.00  0.00    -0.028 C 
ATOM      7  C   UNL     1      -2.101  -4.941 -28.857  1.00  0.00     0.039 C 
ATOM      8  C   UNL     1      -2.977  -5.067 -30.077  1.00  0.00    -0.080 C 
ATOM      9  C   UNL     1      -2.906  -6.346 -30.874  1.00  0.00     0.039 C 
ENDBRANCH   5   6
ENDBRANCH   4   5
ENDBRANCH   1   4
BRANCH   2  10
ATOM     10  C   UNL     1      -1.970  -2.039 -35.259  1.00  0.00     0.260 C 
BRANCH  10  11
ATOM     11  O   UNL     1      -1.170  -0.864 -35.333  1.00  0.00    -0.462 OA
BRANCH  11  12
ATOM     12  C   UNL     1       0.013  -0.710 -34.606  1.00  0.00     0.302 C 
ATOM     13  O   UNL     1       0.064   0.069 -33.615  1.00  0.00    -0.253 OA
ATOM     14  C   UNL     1       1.241  -1.436 -35.037  1.00  0.00     0.139 C 
ENDBRANCH  11  12
ENDBRANCH  10  11
ENDBRANCH   2  10
TORSDOF 6
ENDMDL
MODEL 2
REMARK VINA RESULT:    -4.125      2.218      6.146
REMARK INTER + INTRA:          -6.225
REMARK INTER:                  -5.622
REMARK INTRA:                  -0.604
REMARK UNBOUND:                -0.653
REMARK SMILES CC(=O)OCC=C(C)CCC=C(C)C
REMARK SMILES IDX 7 1 6 2 8 3 9 4 10 5 11 6 13 7 12 8 14 9 5 10 4 11 2 12 3 13
REMARK SMILES IDX 1 14
REMARK H PARENT
REMARK Flexibility Score: inf
ROOT
ATOM      1  C   UNL     1      -1.217  -1.165 -36.810  1.00  0.00    -0.074 C 
ATOM      2  C   UNL     1      -1.760  -1.093 -35.573  1.00  0.00     0.013 C 
ATOM      3  C   UNL     1      -1.352  -2.405 -37.662  1.00  0.00     0.039 C 
ENDROOT
BRANCH   1   4
ATOM      4  C   UNL     1      -0.459   0.027 -37.350  1.00  0.00     0.034 C 
BRANCH   4   5
ATOM      5  C   UNL     1       0.820   0.273 -36.542  1.00  0.00     0.032 C 
BRANCH   5   6
ATOM      6  C   UNL     1       1.639  -0.989 -36.440  1.00  0.00    -0.028 C 
ATOM      7  C   UNL     1       2.816  -2.838 -35.288  1.00  0.00     0.039 C 
ATOM      8  C   UNL     1       1.970  -1.590 -35.274  1.00  0.00    -0.080 C 
ATOM      9  C   UNL     1       1.477  -1.080 -33.942  1.00  0.00     0.039 C 
ENDBRANCH   5   6
ENDBRANCH   4   5
ENDBRANCH   1   4
BRANCH   2  10
ATOM     10  C   UNL     1      -2.534  -2.212 -34.933  1.00  0.00     0.260 C 
BRANCH  10  11
ATOM     11  O   UNL     1      -2.759  -1.917 -33.559  1.00  0.00    -0.462 OA
BRANCH  11  12
ATOM     12  C   UNL     1      -3.804  -2.486 -32.827  1.00  0.00     0.302 C 
ATOM     13  O   UNL     1      -4.941  -2.652 -33.348  1.00  0.00    -0.253 OA
ATOM     14  C   UNL     1      -3.587  -2.854 -31.399  1.00  0.00     0.139 C 
ENDBRANCH  11  12
ENDBRANCH  10  11
ENDBRANCH   2  10
TORSDOF 6
ENDMDL
MODEL 3
REMARK VINA RESULT:    -4.095      2.518      4.596
REMARK INTER + INTRA:          -6.185
REMARK INTER:                  -5.611
REMARK INTRA:                  -0.573
REMARK UNBOUND:                -0.653
REMARK SMILES CC(=O)OCC=C(C)CCC=C(C)C
REMARK SMILES IDX 7 1 6 2 8 3 9 4 10 5 11 6 13 7 12 8 14 9 5 10 4 11 2 12 3 13
REMARK SMILES IDX 1 14
REMARK H PARENT
REMARK Flexibility Score: inf
ROOT
ATOM      1  C   UNL     1      -2.898  -4.842 -30.005  1.00  0.00    -0.074 C 
ATOM      2  C   UNL     1      -3.502  -3.650 -30.214  1.00  0.00     0.013 C 
ATOM      3  C   UNL     1      -3.019  -5.974 -30.998  1.00  0.00     0.039 C 
ENDROOT
BRANCH   1   4
ATOM      4  C   UNL     1      -2.081  -5.043 -28.748  1.00  0.00     0.034 C 
BRANCH   4   5
ATOM      5  C   UNL     1      -2.839  -5.910 -27.737  1.00  0.00     0.032 C 
BRANCH   5   6
ATOM      6  C   UNL     1      -3.710  -5.058 -26.848  1.00  0.00    -0.028 C 
ATOM      7  C   UNL     1      -4.554  -4.148 -24.705  1.00  0.00     0.039 C 
ATOM      8  C   UNL     1      -3.614  -5.019 -25.498  1.00  0.00    -0.080 C 
ATOM      9  C   UNL     1      -2.555  -5.789 -24.748  1.00  0.00     0.039 C 
ENDBRANCH   5   6
ENDBRANCH   4   5
ENDBRANCH   1   4
BRANCH   2  10
ATOM     10  C   UNL     1      -4.336  -3.336 -31.424  1.00  0.00     0.260 C 
BRANCH  10  11
ATOM     11  O   UNL     1      -3.651  -2.402 -32.252  1.00  0.00    -0.462 OA
BRANCH  11  12
ATOM     12  C   UNL     1      -3.382  -2.646 -33.601  1.00  0.00     0.302 C 
ATOM     13  O   UNL     1      -2.755  -1.801 -34.297  1.00  0.00    -0.253 OA
ATOM     14  C   UNL     1      -3.887  -3.896 -34.237  1.00  0.00     0.139 C 
ENDBRANCH  11  12
ENDBRANCH  10  11
ENDBRANCH   2  10
TORSDOF 6
ENDMDL
MODEL 4
REMARK VINA RESULT:    -4.093      4.990      8.108
REMARK INTER + INTRA:          -6.183
REMARK INTER:                  -5.641
REMARK INTRA:                  -0.542
REMARK UNBOUND:                -0.653
REMARK SMILES CC(=O)OCC=C(C)CCC=C(C)C
REMARK SMILES IDX 7 1 6 2 8 3 9 4 10 5 11 6 13 7 12 8 14 9 5 10 4 11 2 12 3 13
REMARK SMILES IDX 1 14
REMARK H PARENT
REMARK Flexibility Score: inf
ROOT
ATOM      1  C   UNL     1      -2.800  -5.248 -27.639  1.00  0.00    -0.074 C 
ATOM      2  C   UNL     1      -4.069  -4.892 -27.336  1.00  0.00     0.013 C 
ATOM      3  C   UNL     1      -1.897  -5.900 -26.619  1.00  0.00     0.039 C 
ENDROOT
BRANCH   1   4
ATOM      4  C   UNL     1      -2.278  -4.990 -29.035  1.00  0.00     0.034 C 
BRANCH   4   5
ATOM      5  C   UNL     1      -3.426  -4.949 -30.049  1.00  0.00     0.032 C 
BRANCH   5   6
ATOM      6  C   UNL     1      -3.323  -3.725 -30.925  1.00  0.00    -0.028 C 
ATOM      7  C   UNL     1      -3.774  -2.319 -32.913  1.00  0.00     0.039 C 
ATOM      8  C   UNL     1      -3.968  -3.577 -32.106  1.00  0.00    -0.080 C 
ATOM      9  C   UNL     1      -4.927  -4.618 -32.631  1.00  0.00     0.039 C 
ENDBRANCH   5   6
ENDBRANCH   4   5
ENDBRANCH   1   4
BRANCH   2  10
ATOM     10  C   UNL     1      -4.696  -5.100 -25.985  1.00  0.00     0.260 C 
BRANCH  10  11
ATOM     11  O   UNL     1      -4.580  -3.910 -25.212  1.00  0.00    -0.462 OA
BRANCH  11  12
ATOM     12  C   UNL     1      -4.286  -3.923 -23.846  1.00  0.00     0.302 C 
ATOM     13  O   UNL     1      -4.753  -3.039 -23.078  1.00  0.00    -0.253 OA
ATOM     14  C   UNL     1      -3.370  -4.966 -23.302  1.00  0.00     0.139 C 
ENDBRANCH  11  12
ENDBRANCH  10  11
ENDBRANCH   2  10
TORSDOF 6
ENDMDL
MODEL 5
REMARK VINA RESULT:    -4.047      1.969      3.258
REMARK INTER + INTRA:          -6.120
REMARK INTER:                  -5.594
REMARK INTRA:                  -0.526
REMARK UNBOUND:                -0.653
REMARK SMILES CC(=O)OCC=C(C)CCC=C(C)C
REMARK SMILES IDX 7 1 6 2 8 3 9 4 10 5 11 6 13 7 12 8 14 9 5 10 4 11 2 12 3 13
REMARK SMILES IDX 1 14
REMARK H PARENT
REMARK Flexibility Score: inf
ROOT
ATOM      1  C   UNL     1      -1.464  -1.936 -36.141  1.00  0.00    -0.074 C 
ATOM      2  C   UNL     1      -0.873  -0.840 -35.612  1.00  0.00     0.013 C 
ATOM      3  C   UNL     1      -1.419  -2.221 -37.624  1.00  0.00     0.039 C 
ENDROOT
BRANCH   1   4
ATOM      4  C   UNL     1      -2.184  -2.899 -35.223  1.00  0.00     0.034 C 
BRANCH   4   5
ATOM      5  C   UNL     1      -3.078  -2.144 -34.233  1.00  0.00     0.032 C 
BRANCH   5   6
ATOM      6  C   UNL     1      -4.061  -3.081 -33.577  1.00  0.00    -0.028 C 
ATOM      7  C   UNL     1      -5.123  -4.297 -31.701  1.00  0.00     0.039 C 
ATOM      8  C   UNL     1      -4.114  -3.321 -32.246  1.00  0.00    -0.080 C 
ATOM      9  C   UNL     1      -3.220  -2.600 -31.267  1.00  0.00     0.039 C 
ENDBRANCH   5   6
ENDBRANCH   4   5
ENDBRANCH   1   4
BRANCH   2  10
ATOM     10  C   UNL     1      -0.130   0.184 -36.425  1.00  0.00     0.260 C 
BRANCH  10  11
ATOM     11  O   UNL     1       1.228  -0.216 -36.577  1.00  0.00    -0.462 OA
BRANCH  11  12
ATOM     12  C   UNL     1       1.983  -0.739 -35.524  1.00  0.00     0.302 C 
ATOM     13  O   UNL     1       2.406   0.008 -34.600  1.00  0.00    -0.253 OA
ATOM     14  C   UNL     1       2.333  -2.188 -35.521  1.00  0.00     0.139 C 
ENDBRANCH  11  12
ENDBRANCH  10  11
ENDBRANCH   2  10
TORSDOF 6
ENDMDL
MODEL 6
REMARK VINA RESULT:    -3.976      1.830      3.191
REMARK INTER + INTRA:          -6.024
REMARK INTER:                  -5.532
REMARK INTRA:                  -0.492
REMARK UNBOUND:                -0.653
REMARK SMILES CC(=O)OCC=C(C)CCC=C(C)C
REMARK SMILES IDX 7 1 6 2 8 3 9 4 10 5 11 6 13 7 12 8 14 9 5 10 4 11 2 12 3 13
REMARK SMILES IDX 1 14
REMARK H PARENT
REMARK Flexibility Score: inf
ROOT
ATOM      1  C   UNL     1      -3.767  -4.731 -31.854  1.00  0.00    -0.074 C 
ATOM      2  C   UNL     1      -3.658  -3.385 -31.924  1.00  0.00     0.013 C 
ATOM      3  C   UNL     1      -4.481  -5.523 -32.924  1.00  0.00     0.039 C 
ENDROOT
BRANCH   1   4
ATOM      4  C   UNL     1      -3.156  -5.459 -30.677  1.00  0.00     0.034 C 
BRANCH   4   5
ATOM      5  C   UNL     1      -2.833  -4.483 -29.540  1.00  0.00     0.032 C 
BRANCH   5   6
ATOM      6  C   UNL     1      -2.080  -5.180 -28.434  1.00  0.00    -0.028 C 
ATOM      7  C   UNL     1      -1.718  -6.064 -26.150  1.00  0.00     0.039 C 
ATOM      8  C   UNL     1      -2.568  -5.375 -27.187  1.00  0.00    -0.080 C 
ATOM      9  C   UNL     1      -3.968  -4.966 -26.801  1.00  0.00     0.039 C 
ENDBRANCH   5   6
ENDBRANCH   4   5
ENDBRANCH   1   4
BRANCH   2  10
ATOM     10  C   UNL     1      -4.223  -2.557 -33.044  1.00  0.00     0.260 C 
BRANCH  10  11
ATOM     11  O   UNL     1      -3.171  -1.868 -33.711  1.00  0.00    -0.462 OA
BRANCH  11  12
ATOM     12  C   UNL     1      -2.546  -2.370 -34.856  1.00  0.00     0.302 C 
ATOM     13  O   UNL     1      -2.848  -3.508 -35.308  1.00  0.00    -0.253 OA
ATOM     14  C   UNL     1      -1.476  -1.573 -35.518  1.00  0.00     0.139 C 
ENDBRANCH  11  12
ENDBRANCH  10  11
ENDBRANCH   2  10
TORSDOF 6
ENDMDL
MODEL 7
REMARK VINA RESULT:    -3.932      5.429      8.737
REMARK INTER + INTRA:          -5.964
REMARK INTER:                  -5.600
REMARK INTRA:                  -0.364
REMARK UNBOUND:                -0.653
REMARK SMILES CC(=O)OCC=C(C)CCC=C(C)C
REMARK SMILES IDX 7 1 6 2 8 3 9 4 10 5 11 6 13 7 12 8 14 9 5 10 4 11 2 12 3 13
REMARK SMILES IDX 1 14
REMARK H PARENT
REMARK Flexibility Score: inf
ROOT
ATOM      1  C   UNL     1      -2.497  -5.380 -27.030  1.00  0.00    -0.074 C 
ATOM      2  C   UNL     1      -1.747  -5.916 -26.040  1.00  0.00     0.013 C 
ATOM      3  C   UNL     1      -3.973  -5.117 -26.851  1.00  0.00     0.039 C 
ENDROOT
BRANCH   1   4
ATOM      4  C   UNL     1      -1.837  -5.034 -28.347  1.00  0.00     0.034 C 
BRANCH   4   5
ATOM      5  C   UNL     1      -2.799  -5.264 -29.517  1.00  0.00     0.032 C 
BRANCH   5   6
ATOM      6  C   UNL     1      -3.037  -3.981 -30.274  1.00  0.00    -0.028 C 
ATOM      7  C   UNL     1      -3.697  -2.582 -32.207  1.00  0.00     0.039 C 
ATOM      8  C   UNL     1      -3.522  -3.920 -31.536  1.00  0.00    -0.080 C 
ATOM      9  C   UNL     1      -3.946  -5.155 -32.292  1.00  0.00     0.039 C 
ENDBRANCH   5   6
ENDBRANCH   4   5
ENDBRANCH   1   4
BRANCH   2  10
ATOM     10  C   UNL     1      -2.293  -6.298 -24.692  1.00  0.00     0.260 C 
BRANCH  10  11
ATOM     11  O   UNL     1      -1.753  -5.439 -23.693  1.00  0.00    -0.462 OA
BRANCH  11  12
ATOM     12  C   UNL     1      -2.535  -4.868 -22.687  1.00  0.00     0.302 C 
ATOM     13  O   UNL     1      -3.140  -3.778 -22.881  1.00  0.00    -0.253 OA
ATOM     14  C   UNL     1      -2.613  -5.528 -21.352  1.00  0.00     0.139 C 
ENDBRANCH  11  12
ENDBRANCH  10  11
ENDBRANCH   2  10
TORSDOF 6
ENDMDL
MODEL 8
REMARK VINA RESULT:    -3.924      2.465      5.775
REMARK INTER + INTRA:          -5.954
REMARK INTER:                  -5.179
REMARK INTRA:                  -0.775
REMARK UNBOUND:                -0.653
REMARK SMILES CC(=O)OCC=C(C)CCC=C(C)C
REMARK SMILES IDX 7 1 6 2 8 3 9 4 10 5 11 6 13 7 12 8 14 9 5 10 4 11 2 12 3 13
REMARK SMILES IDX 1 14
REMARK H PARENT
REMARK Flexibility Score: inf
ROOT
ATOM      1  C   UNL     1      -2.916  -3.316 -34.743  1.00  0.00    -0.074 C 
ATOM      2  C   UNL     1      -3.320  -2.364 -33.872  1.00  0.00     0.013 C 
ATOM      3  C   UNL     1      -3.456  -4.725 -34.680  1.00  0.00     0.039 C 
ENDROOT
BRANCH   1   4
ATOM      4  C   UNL     1      -1.902  -2.957 -35.807  1.00  0.00     0.034 C 
BRANCH   4   5
ATOM      5  C   UNL     1      -1.633  -1.449 -35.817  1.00  0.00     0.032 C 
BRANCH   5   6
ATOM      6  C   UNL     1      -0.160  -1.170 -35.992  1.00  0.00    -0.028 C 
ATOM      7  C   UNL     1       2.110  -0.469 -35.294  1.00  0.00     0.039 C 
ATOM      8  C   UNL     1       0.656  -0.741 -35.002  1.00  0.00    -0.080 C 
ATOM      9  C   UNL     1       0.173  -0.567 -33.583  1.00  0.00     0.039 C 
ENDBRANCH   5   6
ENDBRANCH   4   5
ENDBRANCH   1   4
BRANCH   2  10
ATOM     10  C   UNL     1      -4.321  -2.603 -32.776  1.00  0.00     0.260 C 
BRANCH  10  11
ATOM     11  O   UNL     1      -3.657  -2.641 -31.517  1.00  0.00    -0.462 OA
BRANCH  11  12
ATOM     12  C   UNL     1      -3.816  -3.694 -30.612  1.00  0.00     0.302 C 
ATOM     13  O   UNL     1      -4.486  -3.539 -29.555  1.00  0.00    -0.253 OA
ATOM     14  C   UNL     1      -3.143  -4.997 -30.876  1.00  0.00     0.139 C 
ENDBRANCH  11  12
ENDBRANCH  10  11
ENDBRANCH   2  10
TORSDOF 6
ENDMDL
MODEL 9
REMARK VINA RESULT:    -3.898      2.865      3.963
REMARK INTER + INTRA:          -5.918
REMARK INTER:                  -5.318
REMARK INTRA:                  -0.601
REMARK UNBOUND:                -0.653
REMARK SMILES CC(=O)OCC=C(C)CCC=C(C)C
REMARK SMILES IDX 7 1 6 2 8 3 9 4 10 5 11 6 13 7 12 8 14 9 5 10 4 11 2 12 3 13
REMARK SMILES IDX 1 14
REMARK H PARENT
REMARK Flexibility Score: inf
ROOT
ATOM      1  C   UNL     1      -3.988  -3.353 -31.201  1.00  0.00    -0.074 C 
ATOM      2  C   UNL     1      -4.971  -3.707 -32.061  1.00  0.00     0.013 C 
ATOM      3  C   UNL     1      -2.948  -2.322 -31.570  1.00  0.00     0.039 C 
ENDROOT
BRANCH   1   4
ATOM      4  C   UNL     1      -3.935  -4.005 -29.837  1.00  0.00     0.034 C 
BRANCH   4   5
ATOM      5  C   UNL     1      -2.796  -5.029 -29.766  1.00  0.00     0.032 C 
BRANCH   5   6
ATOM      6  C   UNL     1      -2.206  -5.077 -28.379  1.00  0.00    -0.028 C 
ATOM      7  C   UNL     1      -1.789  -6.018 -26.127  1.00  0.00     0.039 C 
ATOM      8  C   UNL     1      -2.410  -6.085 -27.499  1.00  0.00    -0.080 C 
ATOM      9  C   UNL     1      -3.207  -7.314 -27.860  1.00  0.00     0.039 C 
ENDBRANCH   5   6
ENDBRANCH   4   5
ENDBRANCH   1   4
BRANCH   2  10
ATOM     10  C   UNL     1      -5.125  -3.126 -33.439  1.00  0.00     0.260 C 
BRANCH  10  11
ATOM     11  O   UNL     1      -4.903  -4.139 -34.415  1.00  0.00    -0.462 OA
BRANCH  11  12
ATOM     12  C   UNL     1      -3.633  -4.646 -34.701  1.00  0.00     0.302 C 
ATOM     13  O   UNL     1      -2.803  -3.968 -35.366  1.00  0.00    -0.253 OA
ATOM     14  C   UNL     1      -3.275  -6.023 -34.258  1.00  0.00     0.139 C 
ENDBRANCH  11  12
ENDBRANCH  10  11
ENDBRANCH   2  10
TORSDOF 6
ENDMDL
