MODEL 1
REMARK VINA RESULT:    -4.846      0.000      0.000
REMARK INTER + INTRA:          -6.506
REMARK INTER:                  -6.262
REMARK INTRA:                  -0.244
REMARK UNBOUND:                -0.244
REMARK SMILES CCO[C@H]1O[C@@H](CO)[C@H](O)[C@H](O)[C@H]1O
REMARK SMILES IDX 4 1 13 2 11 3 9 4 6 5 5 6 3 7 2 8 1 9 14 10 12 12 7 14 8 15
REMARK SMILES IDX 10 17
REMARK H PARENT 14 11 12 13 8 16 10 18
REMARK Flexibility Score: inf
ROOT
ATOM      1  C   UNL     1     108.799  53.255  -0.112  1.00  0.00     0.281 C 
ATOM      2  C   UNL     1     107.459  54.008  -0.106  1.00  0.00     0.202 C 
ATOM      3  C   UNL     1     106.399  53.215  -0.878  1.00  0.00     0.179 C 
ATOM      4  C   UNL     1     106.918  52.905  -2.293  1.00  0.00     0.177 C 
ATOM      5  C   UNL     1     108.341  52.291  -2.262  1.00  0.00     0.178 C 
ATOM      6  O   UNL     1     109.264  52.989  -1.428  1.00  0.00    -0.341 OA
ENDROOT
BRANCH   1   7
ATOM      7  O   UNL     1     108.695  52.054   0.640  1.00  0.00    -0.350 OA
BRANCH   7   8
ATOM      8  C   UNL     1     109.876  51.772   1.368  1.00  0.00     0.160 C 
ATOM      9  C   UNL     1     110.629  50.581   0.779  1.00  0.00     0.035 C 
ENDBRANCH   7   8
ENDBRANCH   1   7
BRANCH   2  10
ATOM     10  O   UNL     1     107.044  54.204   1.222  1.00  0.00    -0.385 OA
ATOM     11  H   UNL     1     107.848  54.466   1.741  1.00  0.00     0.211 HD
ENDBRANCH   2  10
BRANCH   3  12
ATOM     12  O   UNL     1     105.212  53.964  -0.947  1.00  0.00    -0.387 OA
ATOM     13  H   UNL     1     105.246  54.622  -0.203  1.00  0.00     0.211 HD
ENDBRANCH   3  12
BRANCH   5  14
ATOM     14  C   UNL     1     108.386  50.760  -2.066  1.00  0.00     0.191 C 
BRANCH  14  15
ATOM     15  O   UNL     1     107.922  50.068  -3.190  1.00  0.00    -0.394 OA
ATOM     16  H   UNL     1     107.927  50.721  -3.938  1.00  0.00     0.210 HD
ENDBRANCH  14  15
ENDBRANCH   5  14
BRANCH   4  17
ATOM     17  O   UNL     1     106.955  54.087  -3.057  1.00  0.00    -0.387 OA
ATOM     18  H   UNL     1     107.007  54.846  -2.420  1.00  0.00     0.211 HD
ENDBRANCH   4  17
TORSDOF 7
ENDMDL
MODEL 2
REMARK VINA RESULT:    -4.832      1.938      4.848
REMARK INTER + INTRA:          -6.489
REMARK INTER:                  -6.059
REMARK INTRA:                  -0.430
REMARK UNBOUND:                -0.244
REMARK SMILES CCO[C@H]1O[C@@H](CO)[C@H](O)[C@H](O)[C@H]1O
REMARK SMILES IDX 4 1 13 2 11 3 9 4 6 5 5 6 3 7 2 8 1 9 14 10 12 12 7 14 8 15
REMARK SMILES IDX 10 17
REMARK H PARENT 14 11 12 13 8 16 10 18
REMARK Flexibility Score: inf
ROOT
ATOM      1  C   UNL     1     106.889  54.837  -1.801  1.00  0.00     0.281 C 
ATOM      2  C   UNL     1     107.260  53.532  -2.524  1.00  0.00     0.202 C 
ATOM      3  C   UNL     1     107.047  52.331  -1.598  1.00  0.00     0.179 C 
ATOM      4  C   UNL     1     107.827  52.545  -0.288  1.00  0.00     0.177 C 
ATOM      5  C   UNL     1     107.544  53.940   0.327  1.00  0.00     0.178 C 
ATOM      6  O   UNL     1     107.628  55.019  -0.601  1.00  0.00    -0.341 OA
ENDROOT
BRANCH   1   7
ATOM      7  O   UNL     1     105.492  54.880  -1.547  1.00  0.00    -0.350 OA
BRANCH   7   8
ATOM      8  C   UNL     1     104.996  56.206  -1.498  1.00  0.00     0.160 C 
ATOM      9  C   UNL     1     105.425  57.012  -2.723  1.00  0.00     0.035 C 
ENDBRANCH   7   8
ENDBRANCH   1   7
BRANCH   2  10
ATOM     10  O   UNL     1     106.469  53.400  -3.678  1.00  0.00    -0.385 OA
ATOM     11  H   UNL     1     106.998  52.878  -4.335  1.00  0.00     0.211 HD
ENDBRANCH   2  10
BRANCH   3  12
ATOM     12  O   UNL     1     107.485  51.160  -2.240  1.00  0.00    -0.387 OA
ATOM     13  H   UNL     1     108.174  50.752  -1.652  1.00  0.00     0.211 HD
ENDBRANCH   3  12
BRANCH   5  14
ATOM     14  C   UNL     1     106.291  54.013   1.228  1.00  0.00     0.191 C 
BRANCH  14  15
ATOM     15  O   UNL     1     106.002  55.323   1.626  1.00  0.00    -0.394 OA
ATOM     16  H   UNL     1     105.933  55.303   2.616  1.00  0.00     0.210 HD
ENDBRANCH  14  15
ENDBRANCH   5  14
BRANCH   4  17
ATOM     17  O   UNL     1     109.208  52.433  -0.532  1.00  0.00    -0.387 OA
ATOM     18  H   UNL     1     109.528  51.629  -0.046  1.00  0.00     0.211 HD
ENDBRANCH   4  17
TORSDOF 7
ENDMDL
MODEL 3
REMARK VINA RESULT:    -4.779      1.510      2.120
REMARK INTER + INTRA:          -6.420
REMARK INTER:                  -5.950
REMARK INTRA:                  -0.469
REMARK UNBOUND:                -0.244
REMARK SMILES CCO[C@H]1O[C@@H](CO)[C@H](O)[C@H](O)[C@H]1O
REMARK SMILES IDX 4 1 13 2 11 3 9 4 6 5 5 6 3 7 2 8 1 9 14 10 12 12 7 14 8 15
REMARK SMILES IDX 10 17
REMARK H PARENT 14 11 12 13 8 16 10 18
REMARK Flexibility Score: inf
ROOT
ATOM      1  C   UNL     1     109.100  53.180   0.465  1.00  0.00     0.281 C 
ATOM      2  C   UNL     1     108.336  53.858   1.614  1.00  0.00     0.202 C 
ATOM      3  C   UNL     1     106.831  53.609   1.474  1.00  0.00     0.179 C 
ATOM      4  C   UNL     1     106.362  54.062   0.079  1.00  0.00     0.177 C 
ATOM      5  C   UNL     1     107.258  53.481  -1.045  1.00  0.00     0.178 C 
ATOM      6  O   UNL     1     108.658  53.621  -0.812  1.00  0.00    -0.341 OA
ENDROOT
BRANCH   1   7
ATOM      7  O   UNL     1     109.003  51.766   0.573  1.00  0.00    -0.350 OA
BRANCH   7   8
ATOM      8  C   UNL     1     110.258  51.129   0.417  1.00  0.00     0.160 C 
ATOM      9  C   UNL     1     110.793  50.608   1.750  1.00  0.00     0.035 C 
ENDBRANCH   7   8
ENDBRANCH   1   7
BRANCH   2  10
ATOM     10  O   UNL     1     108.798  53.350   2.840  1.00  0.00    -0.385 OA
ATOM     11  H   UNL     1     108.507  53.984   3.545  1.00  0.00     0.211 HD
ENDBRANCH   2  10
BRANCH   3  12
ATOM     12  O   UNL     1     106.144  54.318   2.473  1.00  0.00    -0.387 OA
ATOM     13  H   UNL     1     105.177  54.129   2.343  1.00  0.00     0.211 HD
ENDBRANCH   3  12
BRANCH   5  14
ATOM     14  C   UNL     1     106.863  52.069  -1.529  1.00  0.00     0.191 C 
BRANCH  14  15
ATOM     15  O   UNL     1     107.843  51.497  -2.348  1.00  0.00    -0.394 OA
ATOM     16  H   UNL     1     108.715  51.837  -2.016  1.00  0.00     0.210 HD
ENDBRANCH  14  15
ENDBRANCH   5  14
BRANCH   4  17
ATOM     17  O   UNL     1     106.394  55.467  -0.001  1.00  0.00    -0.387 OA
ATOM     18  H   UNL     1     107.336  55.729  -0.174  1.00  0.00     0.211 HD
ENDBRANCH   4  17
TORSDOF 7
ENDMDL
MODEL 4
REMARK VINA RESULT:    -4.725      1.643      3.405
REMARK INTER + INTRA:          -6.351
REMARK INTER:                  -5.902
REMARK INTRA:                  -0.449
REMARK UNBOUND:                -0.244
REMARK SMILES CCO[C@H]1O[C@@H](CO)[C@H](O)[C@H](O)[C@H]1O
REMARK SMILES IDX 4 1 13 2 11 3 9 4 6 5 5 6 3 7 2 8 1 9 14 10 12 12 7 14 8 15
REMARK SMILES IDX 10 17
REMARK H PARENT 14 11 12 13 8 16 10 18
REMARK Flexibility Score: inf
ROOT
ATOM      1  C   UNL     1     107.294  52.262  -1.545  1.00  0.00     0.281 C 
ATOM      2  C   UNL     1     106.803  53.386  -2.474  1.00  0.00     0.202 C 
ATOM      3  C   UNL     1     107.210  54.753  -1.917  1.00  0.00     0.179 C 
ATOM      4  C   UNL     1     106.703  54.892  -0.471  1.00  0.00     0.177 C 
ATOM      5  C   UNL     1     107.085  53.662   0.393  1.00  0.00     0.178 C 
ATOM      6  O   UNL     1     106.805  52.406  -0.219  1.00  0.00    -0.341 OA
ENDROOT
BRANCH   1   7
ATOM      7  O   UNL     1     108.713  52.197  -1.557  1.00  0.00    -0.350 OA
BRANCH   7   8
ATOM      8  C   UNL     1     109.191  50.879  -1.352  1.00  0.00     0.160 C 
ATOM      9  C   UNL     1     108.784  49.950  -2.494  1.00  0.00     0.035 C 
ENDBRANCH   7   8
ENDBRANCH   1   7
BRANCH   2  10
ATOM     10  O   UNL     1     107.352  53.201  -3.754  1.00  0.00    -0.385 OA
ATOM     11  H   UNL     1     106.808  53.741  -4.383  1.00  0.00     0.211 HD
ENDBRANCH   2  10
BRANCH   3  12
ATOM     12  O   UNL     1     106.668  55.768  -2.724  1.00  0.00    -0.387 OA
ATOM     13  H   UNL     1     107.418  56.136  -3.261  1.00  0.00     0.211 HD
ENDBRANCH   3  12
BRANCH   5  14
ATOM     14  C   UNL     1     108.490  53.725   1.032  1.00  0.00     0.191 C 
BRANCH  14  15
ATOM     15  O   UNL     1     108.874  52.499   1.587  1.00  0.00    -0.394 OA
ATOM     16  H   UNL     1     108.593  52.526   2.539  1.00  0.00     0.210 HD
ENDBRANCH  14  15
ENDBRANCH   5  14
BRANCH   4  17
ATOM     17  O   UNL     1     105.302  55.026  -0.467  1.00  0.00    -0.387 OA
ATOM     18  H   UNL     1     104.929  54.216  -0.904  1.00  0.00     0.211 HD
ENDBRANCH   4  17
TORSDOF 7
ENDMDL
MODEL 5
REMARK VINA RESULT:    -4.657      3.147      5.315
REMARK INTER + INTRA:          -6.263
REMARK INTER:                  -5.929
REMARK INTRA:                  -0.334
REMARK UNBOUND:                -0.244
REMARK SMILES CCO[C@H]1O[C@@H](CO)[C@H](O)[C@H](O)[C@H]1O
REMARK SMILES IDX 4 1 13 2 11 3 9 4 6 5 5 6 3 7 2 8 1 9 14 10 12 12 7 14 8 15
REMARK SMILES IDX 10 17
REMARK H PARENT 14 11 12 13 8 16 10 18
REMARK Flexibility Score: inf
ROOT
ATOM      1  C   UNL     1     106.259  54.018   1.618  1.00  0.00     0.281 C 
ATOM      2  C   UNL     1     105.176  55.102   1.499  1.00  0.00     0.202 C 
ATOM      3  C   UNL     1     105.589  56.356   2.275  1.00  0.00     0.179 C 
ATOM      4  C   UNL     1     105.913  55.976   3.731  1.00  0.00     0.177 C 
ATOM      5  C   UNL     1     106.889  54.773   3.808  1.00  0.00     0.178 C 
ATOM      6  O   UNL     1     106.534  53.676   2.970  1.00  0.00    -0.341 OA
ENDROOT
BRANCH   1   7
ATOM      7  O   UNL     1     107.443  54.427   0.948  1.00  0.00    -0.350 OA
BRANCH   7   8
ATOM      8  C   UNL     1     107.967  53.408   0.114  1.00  0.00     0.160 C 
ATOM      9  C   UNL     1     109.085  52.633   0.808  1.00  0.00     0.035 C 
ENDBRANCH   7   8
ENDBRANCH   1   7
BRANCH   2  10
ATOM     10  O   UNL     1     104.982  55.415   0.143  1.00  0.00    -0.385 OA
ATOM     11  H   UNL     1     104.669  54.586  -0.304  1.00  0.00     0.211 HD
ENDBRANCH   2  10
BRANCH   3  12
ATOM     12  O   UNL     1     104.546  57.296   2.238  1.00  0.00    -0.387 OA
ATOM     13  H   UNL     1     103.698  56.785   2.323  1.00  0.00     0.211 HD
ENDBRANCH   3  12
BRANCH   5  14
ATOM     14  C   UNL     1     108.386  55.142   3.721  1.00  0.00     0.191 C 
BRANCH  14  15
ATOM     15  O   UNL     1     109.215  54.075   4.085  1.00  0.00    -0.394 OA
ATOM     16  H   UNL     1     109.339  53.528   3.266  1.00  0.00     0.210 HD
ENDBRANCH  14  15
ENDBRANCH   5  14
BRANCH   4  17
ATOM     17  O   UNL     1     104.729  55.638   4.411  1.00  0.00    -0.387 OA
ATOM     18  H   UNL     1     104.975  54.998   5.129  1.00  0.00     0.211 HD
ENDBRANCH   4  17
TORSDOF 7
ENDMDL
MODEL 6
REMARK VINA RESULT:    -4.568      2.649      4.949
REMARK INTER + INTRA:          -6.147
REMARK INTER:                  -5.673
REMARK INTRA:                  -0.475
REMARK UNBOUND:                -0.244
REMARK SMILES CCO[C@H]1O[C@@H](CO)[C@H](O)[C@H](O)[C@H]1O
REMARK SMILES IDX 4 1 13 2 11 3 9 4 6 5 5 6 3 7 2 8 1 9 14 10 12 12 7 14 8 15
REMARK SMILES IDX 10 17
REMARK H PARENT 14 11 12 13 8 16 10 18
REMARK Flexibility Score: inf
ROOT
ATOM      1  C   UNL     1     105.053  54.967  -0.086  1.00  0.00     0.281 C 
ATOM      2  C   UNL     1     106.093  53.989   0.485  1.00  0.00     0.202 C 
ATOM      3  C   UNL     1     107.433  54.153  -0.239  1.00  0.00     0.179 C 
ATOM      4  C   UNL     1     107.221  54.002  -1.756  1.00  0.00     0.177 C 
ATOM      5  C   UNL     1     106.056  54.890  -2.265  1.00  0.00     0.178 C 
ATOM      6  O   UNL     1     104.866  54.802  -1.485  1.00  0.00    -0.341 OA
ENDROOT
BRANCH   1   7
ATOM      7  O   UNL     1     105.415  56.307   0.222  1.00  0.00    -0.350 OA
BRANCH   7   8
ATOM      8  C   UNL     1     104.300  57.086   0.618  1.00  0.00     0.160 C 
ATOM      9  C   UNL     1     104.322  57.377   2.117  1.00  0.00     0.035 C 
ENDBRANCH   7   8
ENDBRANCH   1   7
BRANCH   2  10
ATOM     10  O   UNL     1     106.252  54.232   1.859  1.00  0.00    -0.385 OA
ATOM     11  H   UNL     1     107.151  53.896   2.111  1.00  0.00     0.211 HD
ENDBRANCH   2  10
BRANCH   3  12
ATOM     12  O   UNL     1     108.338  53.185   0.226  1.00  0.00    -0.387 OA
ATOM     13  H   UNL     1     108.778  52.796  -0.576  1.00  0.00     0.211 HD
ENDBRANCH   3  12
BRANCH   5  14
ATOM     14  C   UNL     1     106.448  56.344  -2.610  1.00  0.00     0.191 C 
BRANCH  14  15
ATOM     15  O   UNL     1     105.331  57.177  -2.737  1.00  0.00    -0.394 OA
ATOM     16  H   UNL     1     105.491  57.949  -2.135  1.00  0.00     0.210 HD
ENDBRANCH  14  15
ENDBRANCH   5  14
BRANCH   4  17
ATOM     17  O   UNL     1     106.930  52.660  -2.065  1.00  0.00    -0.387 OA
ATOM     18  H   UNL     1     105.947  52.548  -1.991  1.00  0.00     0.211 HD
ENDBRANCH   4  17
TORSDOF 7
ENDMDL
MODEL 7
REMARK VINA RESULT:    -4.512      2.227      4.313
REMARK INTER + INTRA:          -6.076
REMARK INTER:                  -5.604
REMARK INTRA:                  -0.472
REMARK UNBOUND:                -0.244
REMARK SMILES CCO[C@H]1O[C@@H](CO)[C@H](O)[C@H](O)[C@H]1O
REMARK SMILES IDX 4 1 13 2 11 3 9 4 6 5 5 6 3 7 2 8 1 9 14 10 12 12 7 14 8 15
REMARK SMILES IDX 10 17
REMARK H PARENT 14 11 12 13 8 16 10 18
REMARK Flexibility Score: inf
ROOT
ATOM      1  C   UNL     1     106.102  53.951   0.465  1.00  0.00     0.281 C 
ATOM      2  C   UNL     1     107.345  53.287  -0.150  1.00  0.00     0.202 C 
ATOM      3  C   UNL     1     107.947  54.185  -1.235  1.00  0.00     0.179 C 
ATOM      4  C   UNL     1     106.865  54.534  -2.273  1.00  0.00     0.177 C 
ATOM      5  C   UNL     1     105.568  55.052  -1.600  1.00  0.00     0.178 C 
ATOM      6  O   UNL     1     105.113  54.254  -0.509  1.00  0.00    -0.341 OA
ENDROOT
BRANCH   1   7
ATOM      7  O   UNL     1     106.472  55.116   1.190  1.00  0.00    -0.350 OA
BRANCH   7   8
ATOM      8  C   UNL     1     105.875  55.161   2.474  1.00  0.00     0.160 C 
ATOM      9  C   UNL     1     106.868  54.777   3.569  1.00  0.00     0.035 C 
ENDBRANCH   7   8
ENDBRANCH   1   7
BRANCH   2  10
ATOM     10  O   UNL     1     108.291  53.050   0.862  1.00  0.00    -0.385 OA
ATOM     11  H   UNL     1     109.188  53.178   0.456  1.00  0.00     0.211 HD
ENDBRANCH   2  10
BRANCH   3  12
ATOM     12  O   UNL     1     109.019  53.520  -1.853  1.00  0.00    -0.387 OA
ATOM     13  H   UNL     1     109.735  53.436  -1.169  1.00  0.00     0.211 HD
ENDBRANCH   3  12
BRANCH   5  14
ATOM     14  C   UNL     1     105.555  56.565  -1.289  1.00  0.00     0.191 C 
BRANCH  14  15
ATOM     15  O   UNL     1     104.592  56.900  -0.330  1.00  0.00    -0.394 OA
ATOM     16  H   UNL     1     105.033  57.532   0.296  1.00  0.00     0.210 HD
ENDBRANCH  14  15
ENDBRANCH   5  14
BRANCH   4  17
ATOM     17  O   UNL     1     106.551  53.394  -3.035  1.00  0.00    -0.387 OA
ATOM     18  H   UNL     1     105.598  53.178  -2.861  1.00  0.00     0.211 HD
ENDBRANCH   4  17
TORSDOF 7
ENDMDL
MODEL 8
REMARK VINA RESULT:    -4.447      1.674      3.915
REMARK INTER + INTRA:          -5.992
REMARK INTER:                  -5.575
REMARK INTRA:                  -0.416
REMARK UNBOUND:                -0.244
REMARK SMILES CCO[C@H]1O[C@@H](CO)[C@H](O)[C@H](O)[C@H]1O
REMARK SMILES IDX 4 1 13 2 11 3 9 4 6 5 5 6 3 7 2 8 1 9 14 10 12 12 7 14 8 15
REMARK SMILES IDX 10 17
REMARK H PARENT 14 11 12 13 8 16 10 18
REMARK Flexibility Score: inf
ROOT
ATOM      1  C   UNL     1     106.504  53.256  -0.906  1.00  0.00     0.281 C 
ATOM      2  C   UNL     1     107.234  53.467   0.431  1.00  0.00     0.202 C 
ATOM      3  C   UNL     1     108.750  53.430   0.222  1.00  0.00     0.179 C 
ATOM      4  C   UNL     1     109.142  52.121  -0.486  1.00  0.00     0.177 C 
ATOM      5  C   UNL     1     108.273  51.867  -1.746  1.00  0.00     0.178 C 
ATOM      6  O   UNL     1     106.873  52.037  -1.537  1.00  0.00    -0.341 OA
ENDROOT
BRANCH   1   7
ATOM      7  O   UNL     1     106.729  54.361  -1.771  1.00  0.00    -0.350 OA
BRANCH   7   8
ATOM      8  C   UNL     1     105.523  54.999  -2.151  1.00  0.00     0.160 C 
ATOM      9  C   UNL     1     105.628  56.518  -2.028  1.00  0.00     0.035 C 
ENDBRANCH   7   8
ENDBRANCH   1   7
BRANCH   2  10
ATOM     10  O   UNL     1     106.850  54.703   0.978  1.00  0.00    -0.385 OA
ATOM     11  H   UNL     1     107.673  55.135   1.323  1.00  0.00     0.211 HD
ENDBRANCH   2  10
BRANCH   3  12
ATOM     12  O   UNL     1     109.397  53.524   1.465  1.00  0.00    -0.387 OA
ATOM     13  H   UNL     1     109.066  54.355   1.898  1.00  0.00     0.211 HD
ENDBRANCH   3  12
BRANCH   5  14
ATOM     14  C   UNL     1     108.780  52.549  -3.036  1.00  0.00     0.191 C 
BRANCH  14  15
ATOM     15  O   UNL     1     107.809  52.561  -4.044  1.00  0.00    -0.394 OA
ATOM     16  H   UNL     1     107.251  51.753  -3.900  1.00  0.00     0.210 HD
ENDBRANCH  14  15
ENDBRANCH   5  14
BRANCH   4  17
ATOM     17  O   UNL     1     108.983  51.036   0.395  1.00  0.00    -0.387 OA
ATOM     18  H   UNL     1     108.297  51.299   1.063  1.00  0.00     0.211 HD
ENDBRANCH   4  17
TORSDOF 7
ENDMDL
MODEL 9
REMARK VINA RESULT:    -4.417      2.559      5.655
REMARK INTER + INTRA:          -5.952
REMARK INTER:                  -5.631
REMARK INTRA:                  -0.322
REMARK UNBOUND:                -0.244
REMARK SMILES CCO[C@H]1O[C@@H](CO)[C@H](O)[C@H](O)[C@H]1O
REMARK SMILES IDX 4 1 13 2 11 3 9 4 6 5 5 6 3 7 2 8 1 9 14 10 12 12 7 14 8 15
REMARK SMILES IDX 10 17
REMARK H PARENT 14 11 12 13 8 16 10 18
REMARK Flexibility Score: inf
ROOT
ATOM      1  C   UNL     1     108.868  53.585   1.269  1.00  0.00     0.281 C 
ATOM      2  C   UNL     1     109.920  52.466   1.358  1.00  0.00     0.202 C 
ATOM      3  C   UNL     1     109.594  51.520   2.517  1.00  0.00     0.179 C 
ATOM      4  C   UNL     1     109.452  52.329   3.819  1.00  0.00     0.177 C 
ATOM      5  C   UNL     1     108.503  53.542   3.641  1.00  0.00     0.178 C 
ATOM      6  O   UNL     1     108.762  54.324   2.478  1.00  0.00    -0.341 OA
ENDROOT
BRANCH   1   7
ATOM      7  O   UNL     1     107.608  53.048   0.892  1.00  0.00    -0.350 OA
BRANCH   7   8
ATOM      8  C   UNL     1     106.966  53.832  -0.098  1.00  0.00     0.160 C 
ATOM      9  C   UNL     1     105.921  54.763   0.513  1.00  0.00     0.035 C 
ENDBRANCH   7   8
ENDBRANCH   1   7
BRANCH   2  10
ATOM     10  O   UNL     1     109.945  51.757   0.146  1.00  0.00    -0.385 OA
ATOM     11  H   UNL     1     109.199  51.103   0.177  1.00  0.00     0.211 HD
ENDBRANCH   2  10
BRANCH   3  12
ATOM     12  O   UNL     1     110.617  50.566   2.645  1.00  0.00    -0.387 OA
ATOM     13  H   UNL     1     110.244  49.818   3.183  1.00  0.00     0.211 HD
ENDBRANCH   3  12
BRANCH   5  14
ATOM     14  C   UNL     1     107.003  53.231   3.840  1.00  0.00     0.191 C 
BRANCH  14  15
ATOM     15  O   UNL     1     106.258  54.381   4.126  1.00  0.00    -0.394 OA
ATOM     16  H   UNL     1     106.895  55.142   4.082  1.00  0.00     0.210 HD
ENDBRANCH  14  15
ENDBRANCH   5  14
BRANCH   4  17
ATOM     17  O   UNL     1     110.713  52.801   4.227  1.00  0.00    -0.387 OA
ATOM     18  H   UNL     1     111.048  52.179   4.924  1.00  0.00     0.211 HD
ENDBRANCH   4  17
TORSDOF 7
ENDMDL
