MODEL 1
REMARK VINA RESULT:    -4.642      0.000      0.000
REMARK INTER + INTRA:          -9.157
REMARK INTER:                  -7.085
REMARK INTRA:                  -2.072
REMARK UNBOUND:                -2.072
REMARK SMILES OC[C@@H]1O[C@@](CO)(O[C@@H]2O[C@H](CO)[C@@H](O)[C@H](O)[C@@H]2O)[C@@H](O)[C@H]1O
REMARK SMILES IDX 8 1 9 2 11 3 14 4 10 5 16 6 18 7 12 8 13 9 15 11 17 13 19 15
REMARK SMILES IDX 5 17 20 18 4 19 22 20 3 21 6 22 7 23 21 25 23 27 2 29 1 30
REMARK H PARENT 13 10 15 12 17 14 19 16 7 24 21 26 23 28 1 31
REMARK Flexibility Score: inf
ROOT
ATOM      1  O   UNL     1      -9.226  13.157  51.488  1.00  0.00    -0.313 OA
ENDROOT
BRANCH   1   2
ATOM      2  C   UNL     1      -8.022  13.082  50.729  1.00  0.00     0.285 C 
ATOM      3  C   UNL     1      -8.476  10.813  50.129  1.00  0.00     0.178 C 
ATOM      4  C   UNL     1      -7.986  10.465  51.560  1.00  0.00     0.177 C 
ATOM      5  O   UNL     1      -8.159  12.133  49.683  1.00  0.00    -0.341 OA
ATOM      6  C   UNL     1      -6.664  11.201  51.832  1.00  0.00     0.179 C 
ATOM      7  C   UNL     1      -6.823  12.733  51.644  1.00  0.00     0.202 C 
BRANCH   3   8
ATOM      8  C   UNL     1      -9.979  10.532  49.963  1.00  0.00     0.191 C 
BRANCH   8   9
ATOM      9  O   UNL     1     -10.631  10.589  51.202  1.00  0.00    -0.394 OA
ATOM     10  H   UNL     1     -11.322   9.876  51.192  1.00  0.00     0.210 HD
ENDBRANCH   8   9
ENDBRANCH   3   8
BRANCH   4  11
ATOM     11  O   UNL     1      -7.796   9.076  51.663  1.00  0.00    -0.387 OA
ATOM     12  H   UNL     1      -8.187   8.792  52.530  1.00  0.00     0.211 HD
ENDBRANCH   4  11
BRANCH   6  13
ATOM     13  O   UNL     1      -6.141  10.881  53.099  1.00  0.00    -0.387 OA
ATOM     14  H   UNL     1      -5.429  10.200  52.972  1.00  0.00     0.211 HD
ENDBRANCH   6  13
BRANCH   7  15
ATOM     15  O   UNL     1      -6.978  13.389  52.878  1.00  0.00    -0.385 OA
ATOM     16  H   UNL     1      -7.701  14.059  52.765  1.00  0.00     0.211 HD
ENDBRANCH   7  15
ENDBRANCH   1   2
BRANCH   1  17
ATOM     17  C   UNL     1      -9.790  14.464  51.592  1.00  0.00     0.224 C 
ATOM     18  C   UNL     1     -11.312  14.326  51.509  1.00  0.00     0.208 C 
ATOM     19  O   UNL     1      -9.506  15.042  52.854  1.00  0.00    -0.337 OA
ATOM     20  C   UNL     1     -11.696  14.047  52.939  1.00  0.00     0.180 C 
ATOM     21  C   UNL     1     -10.593  14.773  53.720  1.00  0.00     0.179 C 
BRANCH  17  22
ATOM     22  C   UNL     1      -9.296  15.389  50.448  1.00  0.00     0.225 C 
BRANCH  22  23
ATOM     23  O   UNL     1     -10.254  15.529  49.434  1.00  0.00    -0.391 OA
ATOM     24  H   UNL     1     -11.033  14.975  49.698  1.00  0.00     0.210 HD
ENDBRANCH  22  23
ENDBRANCH  17  22
BRANCH  18  25
ATOM     25  O   UNL     1     -11.698  13.293  50.638  1.00  0.00    -0.385 OA
ATOM     26  H   UNL     1     -12.680  13.193  50.737  1.00  0.00     0.211 HD
ENDBRANCH  18  25
BRANCH  20  27
ATOM     27  O   UNL     1     -11.652  12.667  53.200  1.00  0.00    -0.387 OA
ATOM     28  H   UNL     1     -12.583  12.334  53.115  1.00  0.00     0.211 HD
ENDBRANCH  20  27
BRANCH  21  29
ATOM     29  C   UNL     1     -11.103  16.093  54.315  1.00  0.00     0.191 C 
BRANCH  29  30
ATOM     30  O   UNL     1     -10.688  17.177  53.526  1.00  0.00    -0.394 OA
ATOM     31  H   UNL     1     -11.386  17.308  52.832  1.00  0.00     0.210 HD
ENDBRANCH  29  30
ENDBRANCH  21  29
ENDBRANCH   1  17
TORSDOF 13
ENDMDL
MODEL 2
REMARK VINA RESULT:    -4.574     13.824     16.203
REMARK INTER + INTRA:          -9.052
REMARK INTER:                  -6.872
REMARK INTRA:                  -2.180
REMARK UNBOUND:                -2.072
REMARK SMILES OC[C@@H]1O[C@@](CO)(O[C@@H]2O[C@H](CO)[C@@H](O)[C@H](O)[C@@H]2O)[C@@H](O)[C@H]1O
REMARK SMILES IDX 8 1 9 2 11 3 14 4 10 5 16 6 18 7 12 8 13 9 15 11 17 13 19 15
REMARK SMILES IDX 5 17 20 18 4 19 22 20 3 21 6 22 7 23 21 25 23 27 2 29 1 30
REMARK H PARENT 13 10 15 12 17 14 19 16 7 24 21 26 23 28 1 31
REMARK Flexibility Score: inf
ROOT
ATOM      1  O   UNL     1       5.243  11.286  56.949  1.00  0.00    -0.313 OA
ENDROOT
BRANCH   1   2
ATOM      2  C   UNL     1       5.540  12.582  57.461  1.00  0.00     0.285 C 
ATOM      3  C   UNL     1       4.787  11.955  59.642  1.00  0.00     0.178 C 
ATOM      4  C   UNL     1       3.357  12.145  59.070  1.00  0.00     0.177 C 
ATOM      5  O   UNL     1       5.838  12.507  58.846  1.00  0.00    -0.341 OA
ATOM      6  C   UNL     1       3.292  13.484  58.316  1.00  0.00     0.179 C 
ATOM      7  C   UNL     1       4.364  13.553  57.197  1.00  0.00     0.202 C 
BRANCH   3   8
ATOM      8  C   UNL     1       5.074  10.479  59.967  1.00  0.00     0.191 C 
BRANCH   8   9
ATOM      9  O   UNL     1       4.385   9.637  59.083  1.00  0.00    -0.394 OA
ATOM     10  H   UNL     1       4.875   8.773  59.073  1.00  0.00     0.210 HD
ENDBRANCH   8   9
ENDBRANCH   3   8
BRANCH   4  11
ATOM     11  O   UNL     1       2.429  12.138  60.125  1.00  0.00    -0.387 OA
ATOM     12  H   UNL     1       1.675  12.726  59.854  1.00  0.00     0.211 HD
ENDBRANCH   4  11
BRANCH   6  13
ATOM     13  O   UNL     1       2.000  13.738  57.819  1.00  0.00    -0.387 OA
ATOM     14  H   UNL     1       1.449  12.927  57.974  1.00  0.00     0.211 HD
ENDBRANCH   6  13
BRANCH   7  15
ATOM     15  O   UNL     1       3.810  13.275  55.935  1.00  0.00    -0.385 OA
ATOM     16  H   UNL     1       3.918  12.301  55.776  1.00  0.00     0.211 HD
ENDBRANCH   7  15
ENDBRANCH   1   2
BRANCH   1  17
ATOM     17  C   UNL     1       6.234  10.743  56.078  1.00  0.00     0.224 C 
ATOM     18  C   UNL     1       5.601   9.575  55.316  1.00  0.00     0.208 C 
ATOM     19  O   UNL     1       6.630  11.692  55.103  1.00  0.00    -0.337 OA
ATOM     20  C   UNL     1       4.948  10.262  54.145  1.00  0.00     0.180 C 
ATOM     21  C   UNL     1       5.850  11.486  53.941  1.00  0.00     0.179 C 
BRANCH  17  22
ATOM     22  C   UNL     1       7.466  10.229  56.868  1.00  0.00     0.225 C 
BRANCH  22  23
ATOM     23  O   UNL     1       7.149   9.137  57.688  1.00  0.00    -0.391 OA
ATOM     24  H   UNL     1       6.911   9.507  58.577  1.00  0.00     0.210 HD
ENDBRANCH  22  23
ENDBRANCH  17  22
BRANCH  18  25
ATOM     25  O   UNL     1       4.678   8.872  56.109  1.00  0.00    -0.385 OA
ATOM     26  H   UNL     1       4.076   8.393  55.481  1.00  0.00     0.211 HD
ENDBRANCH  18  25
BRANCH  20  27
ATOM     27  O   UNL     1       3.643  10.667  54.476  1.00  0.00    -0.387 OA
ATOM     28  H   UNL     1       3.610  11.649  54.339  1.00  0.00     0.211 HD
ENDBRANCH  20  27
BRANCH  21  29
ATOM     29  C   UNL     1       6.781  11.301  52.734  1.00  0.00     0.191 C 
BRANCH  29  30
ATOM     30  O   UNL     1       7.997  11.969  52.949  1.00  0.00    -0.394 OA
ATOM     31  H   UNL     1       8.584  11.339  53.443  1.00  0.00     0.210 HD
ENDBRANCH  29  30
ENDBRANCH  21  29
ENDBRANCH   1  17
TORSDOF 13
ENDMDL
MODEL 3
REMARK VINA RESULT:    -4.555     13.025     15.527
REMARK INTER + INTRA:          -9.023
REMARK INTER:                  -6.949
REMARK INTRA:                  -2.075
REMARK UNBOUND:                -2.072
REMARK SMILES OC[C@@H]1O[C@@](CO)(O[C@@H]2O[C@H](CO)[C@@H](O)[C@H](O)[C@@H]2O)[C@@H](O)[C@H]1O
REMARK SMILES IDX 8 1 9 2 11 3 14 4 10 5 16 6 18 7 12 8 13 9 15 11 17 13 19 15
REMARK SMILES IDX 5 17 20 18 4 19 22 20 3 21 6 22 7 23 21 25 23 27 2 29 1 30
REMARK H PARENT 13 10 15 12 17 14 19 16 7 24 21 26 23 28 1 31
REMARK Flexibility Score: inf
ROOT
ATOM      1  O   UNL     1       5.189  11.815  55.153  1.00  0.00    -0.313 OA
ENDROOT
BRANCH   1   2
ATOM      2  C   UNL     1       4.529  11.739  53.893  1.00  0.00     0.285 C 
ATOM      3  C   UNL     1       5.940   9.938  53.200  1.00  0.00     0.178 C 
ATOM      4  C   UNL     1       7.010  11.034  52.948  1.00  0.00     0.177 C 
ATOM      5  O   UNL     1       4.607  10.420  53.376  1.00  0.00    -0.341 OA
ATOM      6  C   UNL     1       6.370  12.188  52.158  1.00  0.00     0.179 C 
ATOM      7  C   UNL     1       5.135  12.762  52.901  1.00  0.00     0.202 C 
BRANCH   3   8
ATOM      8  C   UNL     1       6.340   9.016  54.364  1.00  0.00     0.191 C 
BRANCH   8   9
ATOM      9  O   UNL     1       7.278   9.646  55.193  1.00  0.00    -0.394 OA
ATOM     10  H   UNL     1       8.171   9.480  54.791  1.00  0.00     0.210 HD
ENDBRANCH   8   9
ENDBRANCH   3   8
BRANCH   4  11
ATOM     11  O   UNL     1       8.079  10.484  52.220  1.00  0.00    -0.387 OA
ATOM     12  H   UNL     1       8.404  11.189  51.601  1.00  0.00     0.211 HD
ENDBRANCH   4  11
BRANCH   6  13
ATOM     13  O   UNL     1       7.309  13.191  51.852  1.00  0.00    -0.387 OA
ATOM     14  H   UNL     1       7.915  13.290  52.632  1.00  0.00     0.211 HD
ENDBRANCH   6  13
BRANCH   7  15
ATOM     15  O   UNL     1       5.453  13.944  53.592  1.00  0.00    -0.385 OA
ATOM     16  H   UNL     1       6.375  13.838  53.944  1.00  0.00     0.211 HD
ENDBRANCH   7  15
ENDBRANCH   1   2
BRANCH   1  17
ATOM     17  C   UNL     1       4.378  12.290  56.228  1.00  0.00     0.224 C 
ATOM     18  C   UNL     1       4.684  11.434  57.460  1.00  0.00     0.208 C 
ATOM     19  O   UNL     1       4.716  13.623  56.570  1.00  0.00    -0.337 OA
ATOM     20  C   UNL     1       5.880  12.130  58.056  1.00  0.00     0.180 C 
ATOM     21  C   UNL     1       5.659  13.585  57.625  1.00  0.00     0.179 C 
BRANCH  17  22
ATOM     22  C   UNL     1       2.868  12.181  55.892  1.00  0.00     0.225 C 
BRANCH  22  23
ATOM     23  O   UNL     1       2.108  13.151  56.560  1.00  0.00    -0.391 OA
ATOM     24  H   UNL     1       2.751  13.768  56.995  1.00  0.00     0.210 HD
ENDBRANCH  22  23
ENDBRANCH  17  22
BRANCH  18  25
ATOM     25  O   UNL     1       4.956  10.099  57.117  1.00  0.00    -0.385 OA
ATOM     26  H   UNL     1       4.671   9.987  56.172  1.00  0.00     0.211 HD
ENDBRANCH  18  25
BRANCH  20  27
ATOM     27  O   UNL     1       7.069  11.630  57.496  1.00  0.00    -0.387 OA
ATOM     28  H   UNL     1       7.579  11.218  58.241  1.00  0.00     0.211 HD
ENDBRANCH  20  27
BRANCH  21  29
ATOM     29  C   UNL     1       5.146  14.443  58.790  1.00  0.00     0.191 C 
BRANCH  29  30
ATOM     30  O   UNL     1       3.780  14.718  58.630  1.00  0.00    -0.394 OA
ATOM     31  H   UNL     1       3.604  14.731  57.653  1.00  0.00     0.210 HD
ENDBRANCH  29  30
ENDBRANCH  21  29
ENDBRANCH   1  17
TORSDOF 13
ENDMDL
MODEL 4
REMARK VINA RESULT:    -4.517     12.753     15.319
REMARK INTER + INTRA:          -8.967
REMARK INTER:                  -6.858
REMARK INTRA:                  -2.109
REMARK UNBOUND:                -2.072
REMARK SMILES OC[C@@H]1O[C@@](CO)(O[C@@H]2O[C@H](CO)[C@@H](O)[C@H](O)[C@@H]2O)[C@@H](O)[C@H]1O
REMARK SMILES IDX 8 1 9 2 11 3 14 4 10 5 16 6 18 7 12 8 13 9 15 11 17 13 19 15
REMARK SMILES IDX 5 17 20 18 4 19 22 20 3 21 6 22 7 23 21 25 23 27 2 29 1 30
REMARK H PARENT 13 10 15 12 17 14 19 16 7 24 21 26 23 28 1 31
REMARK Flexibility Score: inf
ROOT
ATOM      1  O   UNL     1       3.604  11.082  58.209  1.00  0.00    -0.313 OA
ENDROOT
BRANCH   1   2
ATOM      2  C   UNL     1       4.025  11.246  59.561  1.00  0.00     0.285 C 
ATOM      3  C   UNL     1       5.627  12.901  58.920  1.00  0.00     0.178 C 
ATOM      4  C   UNL     1       6.494  11.703  58.448  1.00  0.00     0.177 C 
ATOM      5  O   UNL     1       4.526  12.558  59.764  1.00  0.00    -0.341 OA
ATOM      6  C   UNL     1       6.520  10.634  59.553  1.00  0.00     0.179 C 
ATOM      7  C   UNL     1       5.085  10.182  59.933  1.00  0.00     0.202 C 
BRANCH   3   8
ATOM      8  C   UNL     1       5.154  13.758  57.735  1.00  0.00     0.191 C 
BRANCH   8   9
ATOM      9  O   UNL     1       4.947  12.960  56.601  1.00  0.00    -0.394 OA
ATOM     10  H   UNL     1       5.525  13.330  55.883  1.00  0.00     0.210 HD
ENDBRANCH   8   9
ENDBRANCH   3   8
BRANCH   4  11
ATOM     11  O   UNL     1       7.798  12.149  58.176  1.00  0.00    -0.387 OA
ATOM     12  H   UNL     1       7.826  13.117  58.395  1.00  0.00     0.211 HD
ENDBRANCH   4  11
BRANCH   6  13
ATOM     13  O   UNL     1       7.337   9.543  59.203  1.00  0.00    -0.387 OA
ATOM     14  H   UNL     1       7.890   9.815  58.424  1.00  0.00     0.211 HD
ENDBRANCH   6  13
BRANCH   7  15
ATOM     15  O   UNL     1       4.751   8.962  59.318  1.00  0.00    -0.385 OA
ATOM     16  H   UNL     1       4.326   8.392  60.011  1.00  0.00     0.211 HD
ENDBRANCH   7  15
ENDBRANCH   1   2
BRANCH   1  17
ATOM     17  C   UNL     1       2.199  10.896  58.036  1.00  0.00     0.224 C 
ATOM     18  C   UNL     1       1.967  10.385  56.611  1.00  0.00     0.208 C 
ATOM     19  O   UNL     1       1.707   9.895  58.909  1.00  0.00    -0.337 OA
ATOM     20  C   UNL     1       2.144   8.897  56.763  1.00  0.00     0.180 C 
ATOM     21  C   UNL     1       1.706   8.662  58.214  1.00  0.00     0.179 C 
BRANCH  17  22
ATOM     22  C   UNL     1       1.421  12.223  58.237  1.00  0.00     0.225 C 
BRANCH  22  23
ATOM     23  O   UNL     1       1.847  13.223  57.351  1.00  0.00    -0.391 OA
ATOM     24  H   UNL     1       2.650  12.871  56.887  1.00  0.00     0.210 HD
ENDBRANCH  22  23
ENDBRANCH  17  22
BRANCH  18  25
ATOM     25  O   UNL     1       2.876  10.944  55.698  1.00  0.00    -0.385 OA
ATOM     26  H   UNL     1       3.550  10.242  55.505  1.00  0.00     0.211 HD
ENDBRANCH  18  25
BRANCH  20  27
ATOM     27  O   UNL     1       3.495   8.543  56.597  1.00  0.00    -0.387 OA
ATOM     28  H   UNL     1       3.977   9.377  56.357  1.00  0.00     0.211 HD
ENDBRANCH  20  27
BRANCH  21  29
ATOM     29  C   UNL     1       0.302   8.046  58.283  1.00  0.00     0.191 C 
BRANCH  29  30
ATOM     30  O   UNL     1       0.234   7.097  59.314  1.00  0.00    -0.394 OA
ATOM     31  H   UNL     1       0.288   6.204  58.884  1.00  0.00     0.210 HD
ENDBRANCH  29  30
ENDBRANCH  21  29
ENDBRANCH   1  17
TORSDOF 13
ENDMDL
MODEL 5
REMARK VINA RESULT:    -4.497     14.038     15.968
REMARK INTER + INTRA:          -8.936
REMARK INTER:                  -6.751
REMARK INTRA:                  -2.185
REMARK UNBOUND:                -2.072
REMARK SMILES OC[C@@H]1O[C@@](CO)(O[C@@H]2O[C@H](CO)[C@@H](O)[C@H](O)[C@@H]2O)[C@@H](O)[C@H]1O
REMARK SMILES IDX 8 1 9 2 11 3 14 4 10 5 16 6 18 7 12 8 13 9 15 11 17 13 19 15
REMARK SMILES IDX 5 17 20 18 4 19 22 20 3 21 6 22 7 23 21 25 23 27 2 29 1 30
REMARK H PARENT 13 10 15 12 17 14 19 16 7 24 21 26 23 28 1 31
REMARK Flexibility Score: inf
ROOT
ATOM      1  O   UNL     1       5.226  11.141  57.041  1.00  0.00    -0.313 OA
ENDROOT
BRANCH   1   2
ATOM      2  C   UNL     1       4.437  10.778  55.911  1.00  0.00     0.285 C 
ATOM      3  C   UNL     1       6.365   9.960  54.757  1.00  0.00     0.178 C 
ATOM      4  C   UNL     1       6.680  11.453  54.476  1.00  0.00     0.177 C 
ATOM      5  O   UNL     1       5.039   9.696  55.218  1.00  0.00    -0.341 OA
ATOM      6  C   UNL     1       5.407  12.148  53.965  1.00  0.00     0.179 C 
ATOM      7  C   UNL     1       4.238  11.995  54.975  1.00  0.00     0.202 C 
BRANCH   3   8
ATOM      8  C   UNL     1       7.402   9.333  55.705  1.00  0.00     0.191 C 
BRANCH   8   9
ATOM      9  O   UNL     1       7.931  10.303  56.568  1.00  0.00    -0.394 OA
ATOM     10  H   UNL     1       8.661   9.862  57.077  1.00  0.00     0.210 HD
ENDBRANCH   8   9
ENDBRANCH   3   8
BRANCH   4  11
ATOM     11  O   UNL     1       7.699  11.541  53.511  1.00  0.00    -0.387 OA
ATOM     12  H   UNL     1       8.535  11.224  53.942  1.00  0.00     0.211 HD
ENDBRANCH   4  11
BRANCH   6  13
ATOM     13  O   UNL     1       5.645  13.496  53.640  1.00  0.00    -0.387 OA
ATOM     14  H   UNL     1       4.865  13.827  53.121  1.00  0.00     0.211 HD
ENDBRANCH   6  13
BRANCH   7  15
ATOM     15  O   UNL     1       4.076  13.155  55.753  1.00  0.00    -0.385 OA
ATOM     16  H   UNL     1       3.445  13.747  55.267  1.00  0.00     0.211 HD
ENDBRANCH   7  15
ENDBRANCH   1   2
BRANCH   1  17
ATOM     17  C   UNL     1       4.633  10.848  58.306  1.00  0.00     0.224 C 
ATOM     18  C   UNL     1       5.401  11.629  59.375  1.00  0.00     0.208 C 
ATOM     19  O   UNL     1       3.293  11.307  58.357  1.00  0.00    -0.337 OA
ATOM     20  C   UNL     1       4.713  12.969  59.363  1.00  0.00     0.180 C 
ATOM     21  C   UNL     1       3.288  12.600  58.931  1.00  0.00     0.179 C 
BRANCH  17  22
ATOM     22  C   UNL     1       4.702   9.333  58.630  1.00  0.00     0.225 C 
BRANCH  22  23
ATOM     23  O   UNL     1       6.021   8.889  58.796  1.00  0.00    -0.391 OA
ATOM     24  H   UNL     1       6.609   9.584  58.400  1.00  0.00     0.210 HD
ENDBRANCH  22  23
ENDBRANCH  17  22
BRANCH  18  25
ATOM     25  O   UNL     1       6.770  11.725  59.073  1.00  0.00    -0.385 OA
ATOM     26  H   UNL     1       7.011  12.684  59.161  1.00  0.00     0.211 HD
ENDBRANCH  18  25
BRANCH  20  27
ATOM     27  O   UNL     1       5.307  13.818  58.413  1.00  0.00    -0.387 OA
ATOM     28  H   UNL     1       4.681  13.862  57.644  1.00  0.00     0.211 HD
ENDBRANCH  20  27
BRANCH  21  29
ATOM     29  C   UNL     1       2.319  12.619  60.121  1.00  0.00     0.191 C 
BRANCH  29  30
ATOM     30  O   UNL     1       1.460  11.511  60.071  1.00  0.00    -0.394 OA
ATOM     31  H   UNL     1       1.926  10.768  60.537  1.00  0.00     0.210 HD
ENDBRANCH  29  30
ENDBRANCH  21  29
ENDBRANCH   1  17
TORSDOF 13
ENDMDL
MODEL 6
REMARK VINA RESULT:    -4.417     13.435     15.838
REMARK INTER + INTRA:          -8.813
REMARK INTER:                  -6.757
REMARK INTRA:                  -2.056
REMARK UNBOUND:                -2.072
REMARK SMILES OC[C@@H]1O[C@@](CO)(O[C@@H]2O[C@H](CO)[C@@H](O)[C@H](O)[C@@H]2O)[C@@H](O)[C@H]1O
REMARK SMILES IDX 8 1 9 2 11 3 14 4 10 5 16 6 18 7 12 8 13 9 15 11 17 13 19 15
REMARK SMILES IDX 5 17 20 18 4 19 22 20 3 21 6 22 7 23 21 25 23 27 2 29 1 30
REMARK H PARENT 13 10 15 12 17 14 19 16 7 24 21 26 23 28 1 31
REMARK Flexibility Score: inf
ROOT
ATOM      1  O   UNL     1       4.784  11.168  57.124  1.00  0.00    -0.313 OA
ENDROOT
BRANCH   1   2
ATOM      2  C   UNL     1       5.297  11.066  58.450  1.00  0.00     0.285 C 
ATOM      3  C   UNL     1       3.086  10.983  59.358  1.00  0.00     0.178 C 
ATOM      4  C   UNL     1       3.066  12.518  59.128  1.00  0.00     0.177 C 
ATOM      5  O   UNL     1       4.377  10.375  59.280  1.00  0.00    -0.341 OA
ATOM      6  C   UNL     1       4.369  13.125  59.674  1.00  0.00     0.179 C 
ATOM      7  C   UNL     1       5.614  12.470  59.019  1.00  0.00     0.202 C 
BRANCH   3   8
ATOM      8  C   UNL     1       2.092  10.261  58.433  1.00  0.00     0.191 C 
BRANCH   8   9
ATOM      9  O   UNL     1       1.863  11.012  57.272  1.00  0.00    -0.394 OA
ATOM     10  H   UNL     1       2.597  11.678  57.214  1.00  0.00     0.210 HD
ENDBRANCH   8   9
ENDBRANCH   3   8
BRANCH   4  11
ATOM     11  O   UNL     1       1.958  13.074  59.790  1.00  0.00    -0.387 OA
ATOM     12  H   UNL     1       1.144  12.706  59.356  1.00  0.00     0.211 HD
ENDBRANCH   4  11
BRANCH   6  13
ATOM     13  O   UNL     1       4.384  14.527  59.543  1.00  0.00    -0.387 OA
ATOM     14  H   UNL     1       3.563  14.796  59.054  1.00  0.00     0.211 HD
ENDBRANCH   6  13
BRANCH   7  15
ATOM     15  O   UNL     1       6.140  13.277  57.994  1.00  0.00    -0.385 OA
ATOM     16  H   UNL     1       5.428  13.917  57.731  1.00  0.00     0.211 HD
ENDBRANCH   7  15
ENDBRANCH   1   2
BRANCH   1  17
ATOM     17  C   UNL     1       5.664  10.697  56.103  1.00  0.00     0.224 C 
ATOM     18  C   UNL     1       4.826   9.916  55.087  1.00  0.00     0.208 C 
ATOM     19  O   UNL     1       6.248  11.778  55.397  1.00  0.00    -0.337 OA
ATOM     20  C   UNL     1       4.334  10.999  54.163  1.00  0.00     0.180 C 
ATOM     21  C   UNL     1       5.458  12.040  54.252  1.00  0.00     0.179 C 
BRANCH  17  22
ATOM     22  C   UNL     1       6.763   9.769  56.682  1.00  0.00     0.225 C 
BRANCH  22  23
ATOM     23  O   UNL     1       7.976   9.892  55.989  1.00  0.00    -0.391 OA
ATOM     24  H   UNL     1       8.052   9.094  55.404  1.00  0.00     0.210 HD
ENDBRANCH  22  23
ENDBRANCH  17  22
BRANCH  18  25
ATOM     25  O   UNL     1       3.775   9.215  55.702  1.00  0.00    -0.385 OA
ATOM     26  H   UNL     1       3.254   9.885  56.217  1.00  0.00     0.211 HD
ENDBRANCH  18  25
BRANCH  20  27
ATOM     27  O   UNL     1       3.128  11.541  54.639  1.00  0.00    -0.387 OA
ATOM     28  H   UNL     1       3.029  12.430  54.209  1.00  0.00     0.211 HD
ENDBRANCH  20  27
BRANCH  21  29
ATOM     29  C   UNL     1       6.351  12.008  53.004  1.00  0.00     0.191 C 
BRANCH  29  30
ATOM     30  O   UNL     1       7.677  11.719  53.360  1.00  0.00    -0.394 OA
ATOM     31  H   UNL     1       8.047  12.541  53.777  1.00  0.00     0.210 HD
ENDBRANCH  29  30
ENDBRANCH  21  29
ENDBRANCH   1  17
TORSDOF 13
ENDMDL
MODEL 7
REMARK VINA RESULT:    -4.349     11.415     14.635
REMARK INTER + INTRA:          -8.709
REMARK INTER:                  -6.547
REMARK INTRA:                  -2.161
REMARK UNBOUND:                -2.072
REMARK SMILES OC[C@@H]1O[C@@](CO)(O[C@@H]2O[C@H](CO)[C@@H](O)[C@H](O)[C@@H]2O)[C@@H](O)[C@H]1O
REMARK SMILES IDX 8 1 9 2 11 3 14 4 10 5 16 6 18 7 12 8 13 9 15 11 17 13 19 15
REMARK SMILES IDX 5 17 20 18 4 19 22 20 3 21 6 22 7 23 21 25 23 27 2 29 1 30
REMARK H PARENT 13 10 15 12 17 14 19 16 7 24 21 26 23 28 1 31
REMARK Flexibility Score: inf
ROOT
ATOM      1  O   UNL     1       3.326  11.303  57.772  1.00  0.00    -0.313 OA
ENDROOT
BRANCH   1   2
ATOM      2  C   UNL     1       2.023  11.483  58.320  1.00  0.00     0.285 C 
ATOM      3  C   UNL     1       1.437   9.221  57.810  1.00  0.00     0.178 C 
ATOM      4  C   UNL     1       1.256   9.725  56.353  1.00  0.00     0.177 C 
ATOM      5  O   UNL     1       1.518  10.248  58.802  1.00  0.00    -0.341 OA
ATOM      6  C   UNL     1       0.419  11.015  56.368  1.00  0.00     0.179 C 
ATOM      7  C   UNL     1       1.072  12.099  57.266  1.00  0.00     0.202 C 
BRANCH   3   8
ATOM      8  C   UNL     1       2.630   8.258  57.931  1.00  0.00     0.191 C 
BRANCH   8   9
ATOM      9  O   UNL     1       3.636   8.602  57.018  1.00  0.00    -0.394 OA
ATOM     10  H   UNL     1       3.233   8.536  56.113  1.00  0.00     0.210 HD
ENDBRANCH   8   9
ENDBRANCH   3   8
BRANCH   4  11
ATOM     11  O   UNL     1       0.607   8.736  55.596  1.00  0.00    -0.387 OA
ATOM     12  H   UNL     1      -0.267   8.561  56.033  1.00  0.00     0.211 HD
ENDBRANCH   4  11
BRANCH   6  13
ATOM     13  O   UNL     1       0.176  11.491  55.066  1.00  0.00    -0.387 OA
ATOM     14  H   UNL     1      -0.802  11.436  54.899  1.00  0.00     0.211 HD
ENDBRANCH   6  13
BRANCH   7  15
ATOM     15  O   UNL     1       1.779  13.044  56.501  1.00  0.00    -0.385 OA
ATOM     16  H   UNL     1       2.320  12.538  55.839  1.00  0.00     0.211 HD
ENDBRANCH   7  15
ENDBRANCH   1   2
BRANCH   1  17
ATOM     17  C   UNL     1       4.383  11.884  58.536  1.00  0.00     0.224 C 
ATOM     18  C   UNL     1       5.602  12.025  57.620  1.00  0.00     0.208 C 
ATOM     19  O   UNL     1       4.045  13.193  58.959  1.00  0.00    -0.337 OA
ATOM     20  C   UNL     1       5.358  13.352  56.949  1.00  0.00     0.180 C 
ATOM     21  C   UNL     1       4.556  14.112  58.013  1.00  0.00     0.179 C 
BRANCH  17  22
ATOM     22  C   UNL     1       4.758  10.999  59.754  1.00  0.00     0.225 C 
BRANCH  22  23
ATOM     23  O   UNL     1       5.361   9.795  59.365  1.00  0.00    -0.391 OA
ATOM     24  H   UNL     1       4.986   9.086  59.948  1.00  0.00     0.210 HD
ENDBRANCH  22  23
ENDBRANCH  17  22
BRANCH  18  25
ATOM     25  O   UNL     1       5.691  10.966  56.700  1.00  0.00    -0.385 OA
ATOM     26  H   UNL     1       6.223  10.254  57.142  1.00  0.00     0.211 HD
ENDBRANCH  18  25
BRANCH  20  27
ATOM     27  O   UNL     1       4.587  13.180  55.786  1.00  0.00    -0.387 OA
ATOM     28  H   UNL     1       5.125  13.544  55.035  1.00  0.00     0.211 HD
ENDBRANCH  20  27
BRANCH  21  29
ATOM     29  C   UNL     1       5.427  15.149  58.736  1.00  0.00     0.191 C 
BRANCH  29  30
ATOM     30  O   UNL     1       6.303  15.768  57.832  1.00  0.00    -0.394 OA
ATOM     31  H   UNL     1       5.814  16.539  57.443  1.00  0.00     0.210 HD
ENDBRANCH  29  30
ENDBRANCH  21  29
ENDBRANCH   1  17
TORSDOF 13
ENDMDL
MODEL 8
REMARK VINA RESULT:    -4.309     13.057     15.816
REMARK INTER + INTRA:          -8.649
REMARK INTER:                  -6.729
REMARK INTRA:                  -1.920
REMARK UNBOUND:                -2.072
REMARK SMILES OC[C@@H]1O[C@@](CO)(O[C@@H]2O[C@H](CO)[C@@H](O)[C@H](O)[C@@H]2O)[C@@H](O)[C@H]1O
REMARK SMILES IDX 8 1 9 2 11 3 14 4 10 5 16 6 18 7 12 8 13 9 15 11 17 13 19 15
REMARK SMILES IDX 5 17 20 18 4 19 22 20 3 21 6 22 7 23 21 25 23 27 2 29 1 30
REMARK H PARENT 13 10 15 12 17 14 19 16 7 24 21 26 23 28 1 31
REMARK Flexibility Score: inf
ROOT
ATOM      1  O   UNL     1       5.534  11.745  50.347  1.00  0.00    -0.313 OA
ENDROOT
BRANCH   1   2
ATOM      2  C   UNL     1       4.315  11.495  49.654  1.00  0.00     0.285 C 
ATOM      3  C   UNL     1       5.193  12.453  47.647  1.00  0.00     0.178 C 
ATOM      4  C   UNL     1       4.914  13.822  48.324  1.00  0.00     0.177 C 
ATOM      5  O   UNL     1       4.563  11.330  48.266  1.00  0.00    -0.341 OA
ATOM      6  C   UNL     1       3.492  13.812  48.910  1.00  0.00     0.179 C 
ATOM      7  C   UNL     1       3.302  12.637  49.906  1.00  0.00     0.202 C 
BRANCH   3   8
ATOM      8  C   UNL     1       6.702  12.203  47.481  1.00  0.00     0.191 C 
BRANCH   8   9
ATOM      9  O   UNL     1       7.021  10.878  47.807  1.00  0.00    -0.394 OA
ATOM     10  H   UNL     1       6.169  10.434  48.058  1.00  0.00     0.210 HD
ENDBRANCH   8   9
ENDBRANCH   3   8
BRANCH   4  11
ATOM     11  O   UNL     1       5.037  14.847  47.370  1.00  0.00    -0.387 OA
ATOM     12  H   UNL     1       5.658  15.524  47.748  1.00  0.00     0.211 HD
ENDBRANCH   4  11
BRANCH   6  13
ATOM     13  O   UNL     1       3.161  15.050  49.491  1.00  0.00    -0.387 OA
ATOM     14  H   UNL     1       3.951  15.646  49.410  1.00  0.00     0.211 HD
ENDBRANCH   6  13
BRANCH   7  15
ATOM     15  O   UNL     1       3.416  13.070  51.239  1.00  0.00    -0.385 OA
ATOM     16  H   UNL     1       3.407  12.259  51.812  1.00  0.00     0.211 HD
ENDBRANCH   7  15
ENDBRANCH   1   2
BRANCH   1  17
ATOM     17  C   UNL     1       5.908  10.738  51.288  1.00  0.00     0.224 C 
ATOM     18  C   UNL     1       7.377  10.963  51.656  1.00  0.00     0.208 C 
ATOM     19  O   UNL     1       5.167  10.866  52.489  1.00  0.00    -0.337 OA
ATOM     20  C   UNL     1       7.286  11.971  52.772  1.00  0.00     0.180 C 
ATOM     21  C   UNL     1       5.923  11.645  53.396  1.00  0.00     0.179 C 
BRANCH  17  22
ATOM     22  C   UNL     1       5.741   9.315  50.694  1.00  0.00     0.225 C 
BRANCH  22  23
ATOM     23  O   UNL     1       6.837   8.942  49.903  1.00  0.00    -0.391 OA
ATOM     24  H   UNL     1       6.793   7.956  49.801  1.00  0.00     0.210 HD
ENDBRANCH  22  23
ENDBRANCH  17  22
BRANCH  18  25
ATOM     25  O   UNL     1       8.125  11.435  50.565  1.00  0.00    -0.385 OA
ATOM     26  H   UNL     1       8.117  10.713  49.884  1.00  0.00     0.211 HD
ENDBRANCH  18  25
BRANCH  20  27
ATOM     27  O   UNL     1       7.285  13.279  52.255  1.00  0.00    -0.387 OA
ATOM     28  H   UNL     1       6.560  13.767  52.724  1.00  0.00     0.211 HD
ENDBRANCH  20  27
BRANCH  21  29
ATOM     29  C   UNL     1       6.081  10.874  54.714  1.00  0.00     0.191 C 
BRANCH  29  30
ATOM     30  O   UNL     1       7.422  10.875  55.124  1.00  0.00    -0.394 OA
ATOM     31  H   UNL     1       7.427  11.124  56.085  1.00  0.00     0.210 HD
ENDBRANCH  29  30
ENDBRANCH  21  29
ENDBRANCH   1  17
TORSDOF 13
ENDMDL
MODEL 9
REMARK VINA RESULT:    -4.214     12.966     15.791
REMARK INTER + INTRA:          -8.503
REMARK INTER:                  -6.690
REMARK INTRA:                  -1.813
REMARK UNBOUND:                -2.072
REMARK SMILES OC[C@@H]1O[C@@](CO)(O[C@@H]2O[C@H](CO)[C@@H](O)[C@H](O)[C@@H]2O)[C@@H](O)[C@H]1O
REMARK SMILES IDX 8 1 9 2 11 3 14 4 10 5 16 6 18 7 12 8 13 9 15 11 17 13 19 15
REMARK SMILES IDX 5 17 20 18 4 19 22 20 3 21 6 22 7 23 21 25 23 27 2 29 1 30
REMARK H PARENT 13 10 15 12 17 14 19 16 7 24 21 26 23 28 1 31
REMARK Flexibility Score: inf
ROOT
ATOM      1  O   UNL     1       5.256  11.651  57.785  1.00  0.00    -0.313 OA
ENDROOT
BRANCH   1   2
ATOM      2  C   UNL     1       6.341  11.672  58.710  1.00  0.00     0.285 C 
ATOM      3  C   UNL     1       7.666  10.295  57.273  1.00  0.00     0.178 C 
ATOM      4  C   UNL     1       6.801   9.120  57.803  1.00  0.00     0.177 C 
ATOM      5  O   UNL     1       7.573  11.506  58.027  1.00  0.00    -0.341 OA
ATOM      6  C   UNL     1       6.719   9.209  59.336  1.00  0.00     0.179 C 
ATOM      7  C   UNL     1       6.153  10.580  59.791  1.00  0.00     0.202 C 
BRANCH   3   8
ATOM      8  C   UNL     1       7.399  10.564  55.783  1.00  0.00     0.191 C 
BRANCH   8   9
ATOM      9  O   UNL     1       6.153  10.046  55.403  1.00  0.00    -0.394 OA
ATOM     10  H   UNL     1       6.276   9.067  55.286  1.00  0.00     0.210 HD
ENDBRANCH   8   9
ENDBRANCH   3   8
BRANCH   4  11
ATOM     11  O   UNL     1       7.385   7.901  57.420  1.00  0.00    -0.387 OA
ATOM     12  H   UNL     1       7.029   7.203  58.029  1.00  0.00     0.211 HD
ENDBRANCH   4  11
BRANCH   6  13
ATOM     13  O   UNL     1       5.989   8.135  59.881  1.00  0.00    -0.387 OA
ATOM     14  H   UNL     1       6.155   7.336  59.315  1.00  0.00     0.211 HD
ENDBRANCH   6  13
BRANCH   7  15
ATOM     15  O   UNL     1       4.789  10.490  60.125  1.00  0.00    -0.385 OA
ATOM     16  H   UNL     1       4.284  10.978  59.424  1.00  0.00     0.211 HD
ENDBRANCH   7  15
ENDBRANCH   1   2
BRANCH   1  17
ATOM     17  C   UNL     1       4.413  12.802  57.824  1.00  0.00     0.224 C 
ATOM     18  C   UNL     1       3.738  12.934  56.456  1.00  0.00     0.208 C 
ATOM     19  O   UNL     1       3.373  12.638  58.772  1.00  0.00    -0.337 OA
ATOM     20  C   UNL     1       2.530  12.045  56.597  1.00  0.00     0.180 C 
ATOM     21  C   UNL     1       2.235  12.132  58.100  1.00  0.00     0.179 C 
BRANCH  17  22
ATOM     22  C   UNL     1       5.223  14.091  58.122  1.00  0.00     0.225 C 
BRANCH  22  23
ATOM     23  O   UNL     1       4.407  15.128  58.596  1.00  0.00    -0.391 OA
ATOM     24  H   UNL     1       3.652  14.700  59.077  1.00  0.00     0.210 HD
ENDBRANCH  22  23
ENDBRANCH  17  22
BRANCH  18  25
ATOM     25  O   UNL     1       4.586  12.528  55.412  1.00  0.00    -0.385 OA
ATOM     26  H   UNL     1       5.501  12.482  55.793  1.00  0.00     0.211 HD
ENDBRANCH  18  25
BRANCH  20  27
ATOM     27  O   UNL     1       2.848  10.723  56.237  1.00  0.00    -0.387 OA
ATOM     28  H   UNL     1       2.804  10.187  57.071  1.00  0.00     0.211 HD
ENDBRANCH  20  27
BRANCH  21  29
ATOM     29  C   UNL     1       1.034  13.045  58.383  1.00  0.00     0.191 C 
BRANCH  29  30
ATOM     30  O   UNL     1       1.379  14.388  58.167  1.00  0.00    -0.394 OA
ATOM     31  H   UNL     1       2.067  14.618  58.844  1.00  0.00     0.210 HD
ENDBRANCH  29  30
ENDBRANCH  21  29
ENDBRANCH   1  17
TORSDOF 13
ENDMDL
