MODEL 1
REMARK VINA RESULT:    -4.450      0.000      0.000
REMARK INTER + INTRA:          -6.751
REMARK INTER:                  -6.011
REMARK INTRA:                  -0.740
REMARK UNBOUND:                -0.740
REMARK SMILES CC(=O)CCC=C(C)CCC=C(C)C
REMARK SMILES IDX 7 1 6 2 8 3 9 4 10 5 11 6 13 7 12 8 14 9 5 10 4 11 2 12 3 13
REMARK SMILES IDX 1 14
REMARK H PARENT
REMARK Flexibility Score: inf
ROOT
ATOM      1  C   UNL     1     128.653 122.164  99.252  1.00  0.00    -0.077 C 
ATOM      2  C   UNL     1     129.597 121.387  98.674  1.00  0.00    -0.028 C 
ATOM      3  C   UNL     1     127.473 121.574  99.988  1.00  0.00     0.039 C 
ENDROOT
BRANCH   1   4
ATOM      4  C   UNL     1     128.772 123.672  99.142  1.00  0.00     0.034 C 
BRANCH   4   5
ATOM      5  C   UNL     1     129.205 124.111  97.737  1.00  0.00     0.032 C 
BRANCH   5   6
ATOM      6  C   UNL     1     130.141 125.295  97.783  1.00  0.00    -0.028 C 
ATOM      7  C   UNL     1     132.321 126.459  97.909  1.00  0.00     0.039 C 
ATOM      8  C   UNL     1     131.490 125.205  97.835  1.00  0.00    -0.080 C 
ATOM      9  C   UNL     1     132.208 123.881  97.759  1.00  0.00     0.039 C 
ENDBRANCH   5   6
ENDBRANCH   4   5
ENDBRANCH   1   4
BRANCH   2  10
ATOM     10  C   UNL     1     129.615 119.879  98.733  1.00  0.00     0.035 C 
BRANCH  10  11
ATOM     11  C   UNL     1     131.029 119.343  98.488  1.00  0.00     0.079 C 
BRANCH  11  12
ATOM     12  C   UNL     1     131.328 118.189  99.409  1.00  0.00     0.130 C 
ATOM     13  O   UNL     1     132.336 117.524  99.231  1.00  0.00    -0.300 OA
ATOM     14  C   UNL     1     130.405 117.830 100.535  1.00  0.00     0.087 C 
ENDBRANCH  11  12
ENDBRANCH  10  11
ENDBRANCH   2  10
TORSDOF 6
ENDMDL
MODEL 2
REMARK VINA RESULT:    -4.420      2.353      5.417
REMARK INTER + INTRA:          -6.711
REMARK INTER:                  -5.827
REMARK INTRA:                  -0.884
REMARK UNBOUND:                -0.740
REMARK SMILES CC(=O)CCC=C(C)CCC=C(C)C
REMARK SMILES IDX 7 1 6 2 8 3 9 4 10 5 11 6 13 7 12 8 14 9 5 10 4 11 2 12 3 13
REMARK SMILES IDX 1 14
REMARK H PARENT
REMARK Flexibility Score: inf
ROOT
ATOM      1  C   UNL     1     128.824 122.398  99.576  1.00  0.00    -0.077 C 
ATOM      2  C   UNL     1     128.922 122.976  98.357  1.00  0.00    -0.028 C 
ATOM      3  C   UNL     1     128.711 123.217 100.841  1.00  0.00     0.039 C 
ENDROOT
BRANCH   1   4
ATOM      4  C   UNL     1     128.847 120.886  99.679  1.00  0.00     0.034 C 
BRANCH   4   5
ATOM      5  C   UNL     1     129.576 120.242  98.491  1.00  0.00     0.032 C 
BRANCH   5   6
ATOM      6  C   UNL     1     130.463 119.101  98.930  1.00  0.00    -0.028 C 
ATOM      7  C   UNL     1     132.570 117.825  99.154  1.00  0.00     0.039 C 
ATOM      8  C   UNL     1     131.793 119.030  98.694  1.00  0.00    -0.080 C 
ATOM      9  C   UNL     1     132.551 120.153  98.032  1.00  0.00     0.039 C 
ENDBRANCH   5   6
ENDBRANCH   4   5
ENDBRANCH   1   4
BRANCH   2  10
ATOM     10  C   UNL     1     128.882 124.464  98.111  1.00  0.00     0.035 C 
BRANCH  10  11
ATOM     11  C   UNL     1     130.113 124.916  97.318  1.00  0.00     0.079 C 
BRANCH  11  12
ATOM     12  C   UNL     1     131.367 124.726  98.130  1.00  0.00     0.130 C 
ATOM     13  O   UNL     1     131.470 125.278  99.214  1.00  0.00    -0.300 OA
ATOM     14  C   UNL     1     132.501 123.881  97.630  1.00  0.00     0.087 C 
ENDBRANCH  11  12
ENDBRANCH  10  11
ENDBRANCH   2  10
TORSDOF 6
ENDMDL
MODEL 3
REMARK VINA RESULT:    -4.378      1.377      2.032
REMARK INTER + INTRA:          -6.654
REMARK INTER:                  -5.524
REMARK INTRA:                  -1.129
REMARK UNBOUND:                -0.740
REMARK SMILES CC(=O)CCC=C(C)CCC=C(C)C
REMARK SMILES IDX 7 1 6 2 8 3 9 4 10 5 11 6 13 7 12 8 14 9 5 10 4 11 2 12 3 13
REMARK SMILES IDX 1 14
REMARK H PARENT
REMARK Flexibility Score: inf
ROOT
ATOM      1  C   UNL     1     129.070 123.467  98.895  1.00  0.00    -0.077 C 
ATOM      2  C   UNL     1     128.898 122.198  98.462  1.00  0.00    -0.028 C 
ATOM      3  C   UNL     1     129.416 123.780 100.333  1.00  0.00     0.039 C 
ENDROOT
BRANCH   1   4
ATOM      4  C   UNL     1     128.894 124.611  97.916  1.00  0.00     0.034 C 
BRANCH   4   5
ATOM      5  C   UNL     1     130.178 125.437  97.763  1.00  0.00     0.032 C 
BRANCH   5   6
ATOM      6  C   UNL     1     131.296 124.629  97.149  1.00  0.00    -0.028 C 
ATOM      7  C   UNL     1     133.521 123.552  97.041  1.00  0.00     0.039 C 
ATOM      8  C   UNL     1     132.464 124.343  97.767  1.00  0.00    -0.080 C 
ATOM      9  C   UNL     1     132.733 124.739  99.198  1.00  0.00     0.039 C 
ENDBRANCH   5   6
ENDBRANCH   4   5
ENDBRANCH   1   4
BRANCH   2  10
ATOM     10  C   UNL     1     129.072 120.970  99.321  1.00  0.00     0.035 C 
BRANCH  10  11
ATOM     11  C   UNL     1     129.755 119.848  98.532  1.00  0.00     0.079 C 
BRANCH  11  12
ATOM     12  C   UNL     1     131.246 119.882  98.742  1.00  0.00     0.130 C 
ATOM     13  O   UNL     1     131.948 119.039  98.204  1.00  0.00    -0.300 OA
ATOM     14  C   UNL     1     131.889 120.922  99.610  1.00  0.00     0.087 C 
ENDBRANCH  11  12
ENDBRANCH  10  11
ENDBRANCH   2  10
TORSDOF 6
ENDMDL
MODEL 4
REMARK VINA RESULT:    -4.276      3.805      7.589
REMARK INTER + INTRA:          -6.516
REMARK INTER:                  -5.875
REMARK INTRA:                  -0.642
REMARK UNBOUND:                -0.740
REMARK SMILES CC(=O)CCC=C(C)CCC=C(C)C
REMARK SMILES IDX 7 1 6 2 8 3 9 4 10 5 11 6 13 7 12 8 14 9 5 10 4 11 2 12 3 13
REMARK SMILES IDX 1 14
REMARK H PARENT
REMARK Flexibility Score: inf
ROOT
ATOM      1  C   UNL     1     131.967 125.757  98.513  1.00  0.00    -0.077 C 
ATOM      2  C   UNL     1     132.676 126.858  98.177  1.00  0.00    -0.028 C 
ATOM      3  C   UNL     1     132.119 125.089  99.860  1.00  0.00     0.039 C 
ENDROOT
BRANCH   1   4
ATOM      4  C   UNL     1     131.003 125.165  97.503  1.00  0.00     0.034 C 
BRANCH   4   5
ATOM      5  C   UNL     1     129.579 125.055  98.067  1.00  0.00     0.032 C 
BRANCH   5   6
ATOM      6  C   UNL     1     129.109 123.621  98.125  1.00  0.00    -0.028 C 
ATOM      7  C   UNL     1     128.435 121.498  99.202  1.00  0.00     0.039 C 
ATOM      8  C   UNL     1     128.873 122.938  99.268  1.00  0.00    -0.080 C 
ATOM      9  C   UNL     1     128.974 123.587 100.626  1.00  0.00     0.039 C 
ENDBRANCH   5   6
ENDBRANCH   4   5
ENDBRANCH   1   4
BRANCH   2  10
ATOM     10  C   UNL     1     133.644 127.564  99.095  1.00  0.00     0.035 C 
BRANCH  10  11
ATOM     11  C   UNL     1     133.290 129.050  99.217  1.00  0.00     0.079 C 
BRANCH  11  12
ATOM     12  C   UNL     1     133.324 129.488 100.658  1.00  0.00     0.130 C 
ATOM     13  O   UNL     1     133.375 128.645 101.541  1.00  0.00    -0.300 OA
ATOM     14  C   UNL     1     133.285 130.939 101.035  1.00  0.00     0.087 C 
ENDBRANCH  11  12
ENDBRANCH  10  11
ENDBRANCH   2  10
TORSDOF 6
ENDMDL
MODEL 5
REMARK VINA RESULT:    -4.250     14.167     16.764
REMARK INTER + INTRA:          -6.482
REMARK INTER:                  -5.517
REMARK INTRA:                  -0.964
REMARK UNBOUND:                -0.740
REMARK SMILES CC(=O)CCC=C(C)CCC=C(C)C
REMARK SMILES IDX 7 1 6 2 8 3 9 4 10 5 11 6 13 7 12 8 14 9 5 10 4 11 2 12 3 13
REMARK SMILES IDX 1 14
REMARK H PARENT
REMARK Flexibility Score: inf
ROOT
ATOM      1  C   UNL     1     116.977 125.248 107.409  1.00  0.00    -0.077 C 
ATOM      2  C   UNL     1     117.947 126.110 107.028  1.00  0.00    -0.028 C 
ATOM      3  C   UNL     1     117.296 123.863 107.924  1.00  0.00     0.039 C 
ENDROOT
BRANCH   1   4
ATOM      4  C   UNL     1     115.527 125.675 107.298  1.00  0.00     0.034 C 
BRANCH   4   5
ATOM      5  C   UNL     1     114.940 126.067 108.661  1.00  0.00     0.032 C 
BRANCH   5   6
ATOM      6  C   UNL     1     115.431 127.421 109.114  1.00  0.00    -0.028 C 
ATOM      7  C   UNL     1     116.749 129.018 110.468  1.00  0.00     0.039 C 
ATOM      8  C   UNL     1     116.360 127.617 110.078  1.00  0.00    -0.080 C 
ATOM      9  C   UNL     1     117.077 126.470 110.745  1.00  0.00     0.039 C 
ENDBRANCH   5   6
ENDBRANCH   4   5
ENDBRANCH   1   4
BRANCH   2  10
ATOM     10  C   UNL     1     119.426 125.824 107.114  1.00  0.00     0.035 C 
BRANCH  10  11
ATOM     11  C   UNL     1     120.155 126.953 107.850  1.00  0.00     0.079 C 
BRANCH  11  12
ATOM     12  C   UNL     1     121.279 127.497 107.008  1.00  0.00     0.130 C 
ATOM     13  O   UNL     1     122.085 126.725 106.510  1.00  0.00    -0.300 OA
ATOM     14  C   UNL     1     121.439 128.970 106.776  1.00  0.00     0.087 C 
ENDBRANCH  11  12
ENDBRANCH  10  11
ENDBRANCH   2  10
TORSDOF 6
ENDMDL
MODEL 6
REMARK VINA RESULT:    -4.198      1.730      3.527
REMARK INTER + INTRA:          -6.411
REMARK INTER:                  -5.460
REMARK INTRA:                  -0.951
REMARK UNBOUND:                -0.740
REMARK SMILES CC(=O)CCC=C(C)CCC=C(C)C
REMARK SMILES IDX 7 1 6 2 8 3 9 4 10 5 11 6 13 7 12 8 14 9 5 10 4 11 2 12 3 13
REMARK SMILES IDX 1 14
REMARK H PARENT
REMARK Flexibility Score: inf
ROOT
ATOM      1  C   UNL     1     133.369 121.837  97.899  1.00  0.00    -0.077 C 
ATOM      2  C   UNL     1     132.781 120.902  98.679  1.00  0.00    -0.028 C 
ATOM      3  C   UNL     1     133.907 121.508  96.526  1.00  0.00     0.039 C 
ENDROOT
BRANCH   1   4
ATOM      4  C   UNL     1     133.509 123.252  98.424  1.00  0.00     0.034 C 
BRANCH   4   5
ATOM      5  C   UNL     1     132.338 123.644  99.335  1.00  0.00     0.032 C 
BRANCH   5   6
ATOM      6  C   UNL     1     131.260 124.381  98.576  1.00  0.00    -0.028 C 
ATOM      7  C   UNL     1     129.052 124.696  97.505  1.00  0.00     0.039 C 
ATOM      8  C   UNL     1     130.036 123.877  98.299  1.00  0.00    -0.080 C 
ATOM      9  C   UNL     1     129.588 122.531  98.811  1.00  0.00     0.039 C 
ENDBRANCH   5   6
ENDBRANCH   4   5
ENDBRANCH   1   4
BRANCH   2  10
ATOM     10  C   UNL     1     132.551 119.468  98.268  1.00  0.00     0.035 C 
BRANCH  10  11
ATOM     11  C   UNL     1     131.076 119.086  98.433  1.00  0.00     0.079 C 
BRANCH  11  12
ATOM     12  C   UNL     1     130.910 118.066  99.529  1.00  0.00     0.130 C 
ATOM     13  O   UNL     1     129.842 117.983 100.115  1.00  0.00    -0.300 OA
ATOM     14  C   UNL     1     132.035 117.157  99.927  1.00  0.00     0.087 C 
ENDBRANCH  11  12
ENDBRANCH  10  11
ENDBRANCH   2  10
TORSDOF 6
ENDMDL
MODEL 7
REMARK VINA RESULT:    -4.191      1.538      3.670
REMARK INTER + INTRA:          -6.402
REMARK INTER:                  -5.147
REMARK INTRA:                  -1.255
REMARK UNBOUND:                -0.740
REMARK SMILES CC(=O)CCC=C(C)CCC=C(C)C
REMARK SMILES IDX 7 1 6 2 8 3 9 4 10 5 11 6 13 7 12 8 14 9 5 10 4 11 2 12 3 13
REMARK SMILES IDX 1 14
REMARK H PARENT
REMARK Flexibility Score: inf
ROOT
ATOM      1  C   UNL     1     131.675 124.148  98.693  1.00  0.00    -0.077 C 
ATOM      2  C   UNL     1     132.315 123.226  97.938  1.00  0.00    -0.028 C 
ATOM      3  C   UNL     1     131.898 124.253 100.184  1.00  0.00     0.039 C 
ENDROOT
BRANCH   1   4
ATOM      4  C   UNL     1     130.693 125.092  98.028  1.00  0.00     0.034 C 
BRANCH   4   5
ATOM      5  C   UNL     1     129.416 124.367  97.581  1.00  0.00     0.032 C 
BRANCH   5   6
ATOM      6  C   UNL     1     128.550 123.979  98.757  1.00  0.00    -0.028 C 
ATOM      7  C   UNL     1     127.428 122.440 100.336  1.00  0.00     0.039 C 
ATOM      8  C   UNL     1     128.339 122.707  99.166  1.00  0.00    -0.080 C 
ATOM      9  C   UNL     1     129.035 121.532  98.526  1.00  0.00     0.039 C 
ENDBRANCH   5   6
ENDBRANCH   4   5
ENDBRANCH   1   4
BRANCH   2  10
ATOM     10  C   UNL     1     133.336 122.249  98.466  1.00  0.00     0.035 C 
BRANCH  10  11
ATOM     11  C   UNL     1     133.185 120.884  97.785  1.00  0.00     0.079 C 
BRANCH  11  12
ATOM     12  C   UNL     1     132.362 119.954  98.637  1.00  0.00     0.130 C 
ATOM     13  O   UNL     1     131.754 119.035  98.109  1.00  0.00    -0.300 OA
ATOM     14  C   UNL     1     132.261 120.138 100.122  1.00  0.00     0.087 C 
ENDBRANCH  11  12
ENDBRANCH  10  11
ENDBRANCH   2  10
TORSDOF 6
ENDMDL
MODEL 8
REMARK VINA RESULT:    -4.177     14.701     17.171
REMARK INTER + INTRA:          -6.382
REMARK INTER:                  -4.903
REMARK INTRA:                  -1.479
REMARK UNBOUND:                -0.740
REMARK SMILES CC(=O)CCC=C(C)CCC=C(C)C
REMARK SMILES IDX 7 1 6 2 8 3 9 4 10 5 11 6 13 7 12 8 14 9 5 10 4 11 2 12 3 13
REMARK SMILES IDX 1 14
REMARK H PARENT
REMARK Flexibility Score: inf
ROOT
ATOM      1  C   UNL     1     117.019 125.058 107.187  1.00  0.00    -0.077 C 
ATOM      2  C   UNL     1     117.820 126.121 106.948  1.00  0.00    -0.028 C 
ATOM      3  C   UNL     1     117.580 123.688 107.491  1.00  0.00     0.039 C 
ENDROOT
BRANCH   1   4
ATOM      4  C   UNL     1     115.515 125.241 107.131  1.00  0.00     0.034 C 
BRANCH   4   5
ATOM      5  C   UNL     1     115.059 126.481 107.913  1.00  0.00     0.032 C 
BRANCH   5   6
ATOM      6  C   UNL     1     114.951 126.201 109.393  1.00  0.00    -0.028 C 
ATOM      7  C   UNL     1     115.521 126.426 111.790  1.00  0.00     0.039 C 
ATOM      8  C   UNL     1     115.696 126.810 110.344  1.00  0.00    -0.080 C 
ATOM      9  C   UNL     1     116.666 127.917 110.017  1.00  0.00     0.039 C 
ENDBRANCH   5   6
ENDBRANCH   4   5
ENDBRANCH   1   4
BRANCH   2  10
ATOM     10  C   UNL     1     119.327 126.085 107.002  1.00  0.00     0.035 C 
BRANCH  10  11
ATOM     11  C   UNL     1     119.840 126.715 108.301  1.00  0.00     0.079 C 
BRANCH  11  12
ATOM     12  C   UNL     1     120.183 125.649 109.309  1.00  0.00     0.130 C 
ATOM     13  O   UNL     1     121.221 125.018 109.185  1.00  0.00    -0.300 OA
ATOM     14  C   UNL     1     119.271 125.336 110.457  1.00  0.00     0.087 C 
ENDBRANCH  11  12
ENDBRANCH  10  11
ENDBRANCH   2  10
TORSDOF 6
ENDMDL
MODEL 9
REMARK VINA RESULT:    -4.134      2.537      4.552
REMARK INTER + INTRA:          -6.325
REMARK INTER:                  -5.142
REMARK INTRA:                  -1.183
REMARK UNBOUND:                -0.740
REMARK SMILES CC(=O)CCC=C(C)CCC=C(C)C
REMARK SMILES IDX 7 1 6 2 8 3 9 4 10 5 11 6 13 7 12 8 14 9 5 10 4 11 2 12 3 13
REMARK SMILES IDX 1 14
REMARK H PARENT
REMARK Flexibility Score: inf
ROOT
ATOM      1  C   UNL     1     129.761 121.331  99.108  1.00  0.00    -0.077 C 
ATOM      2  C   UNL     1     129.577 120.120  98.536  1.00  0.00    -0.028 C 
ATOM      3  C   UNL     1     130.980 121.643  99.944  1.00  0.00     0.039 C 
ENDROOT
BRANCH   1   4
ATOM      4  C   UNL     1     128.704 122.402  98.920  1.00  0.00     0.034 C 
BRANCH   4   5
ATOM      5  C   UNL     1     127.904 122.649 100.206  1.00  0.00     0.032 C 
BRANCH   5   6
ATOM      6  C   UNL     1     126.582 121.919 100.193  1.00  0.00    -0.028 C 
ATOM      7  C   UNL     1     125.012 120.062 100.653  1.00  0.00     0.039 C 
ATOM      8  C   UNL     1     126.369 120.708 100.757  1.00  0.00    -0.080 C 
ATOM      9  C   UNL     1     127.435 119.994 101.550  1.00  0.00     0.039 C 
ENDBRANCH   5   6
ENDBRANCH   4   5
ENDBRANCH   1   4
BRANCH   2  10
ATOM     10  C   UNL     1     130.561 118.978  98.619  1.00  0.00     0.035 C 
BRANCH  10  11
ATOM     11  C   UNL     1     130.104 117.941  99.650  1.00  0.00     0.079 C 
BRANCH  11  12
ATOM     12  C   UNL     1     131.012 117.950 100.851  1.00  0.00     0.130 C 
ATOM     13  O   UNL     1     130.526 117.998 101.971  1.00  0.00    -0.300 OA
ATOM     14  C   UNL     1     132.504 117.915 100.703  1.00  0.00     0.087 C 
ENDBRANCH  11  12
ENDBRANCH  10  11
ENDBRANCH   2  10
TORSDOF 6
ENDMDL
