MODEL 1
REMARK VINA RESULT:    -5.345      0.000      0.000
REMARK INTER + INTRA:         -11.345
REMARK INTER:                 -10.031
REMARK INTRA:                  -1.314
REMARK UNBOUND:                -1.314
REMARK SMILES CCCCCCCCC=CCCCCCCCC(=O)[O-]
REMARK SMILES IDX 10 1 9 2 11 3 12 4 13 5 14 6 15 7 16 8 17 9 18 10 19 11
REMARK SMILES IDX 20 12 8 13 7 14 6 15 5 16 4 17 3 18 2 19 1 20
REMARK H PARENT
REMARK Flexibility Score: inf
ROOT
ATOM      1  C   UNL     1      49.838  49.786  35.653  1.00  0.00    -0.031 C 
ATOM      2  C   UNL     1      49.223  50.685  34.870  1.00  0.00    -0.031 C 
ENDROOT
BRANCH   1   3
ATOM      3  C   UNL     1      51.284  49.937  36.037  1.00  0.00     0.027 C 
BRANCH   3   4
ATOM      4  C   UNL     1      51.498  49.612  37.520  1.00  0.00     0.004 C 
BRANCH   4   5
ATOM      5  C   UNL     1      51.856  50.878  38.312  1.00  0.00     0.000 C 
BRANCH   5   6
ATOM      6  C   UNL     1      53.170  50.733  39.099  1.00  0.00     0.000 C 
BRANCH   6   7
ATOM      7  C   UNL     1      53.184  51.577  40.385  1.00  0.00     0.000 C 
BRANCH   7   8
ATOM      8  C   UNL     1      51.770  51.916  40.891  1.00  0.00     0.006 C 
BRANCH   8   9
ATOM      9  C   UNL     1      51.200  50.910  41.904  1.00  0.00     0.053 C 
BRANCH   9  10
ATOM     10  C   UNL     1      51.296  51.414  43.312  1.00  0.00     0.041 C 
ATOM     11  O   UNL     1      52.421  51.684  43.811  1.00  0.00    -0.550 OA
ATOM     12  O   UNL     1      50.148  51.553  44.082  1.00  0.00    -0.550 OA
ENDBRANCH   9  10
ENDBRANCH   8   9
ENDBRANCH   7   8
ENDBRANCH   6   7
ENDBRANCH   5   6
ENDBRANCH   4   5
ENDBRANCH   3   4
ENDBRANCH   1   3
BRANCH   2  13
ATOM     13  C   UNL     1      47.791  50.510  34.439  1.00  0.00     0.027 C 
BRANCH  13  14
ATOM     14  C   UNL     1      47.320  49.058  34.624  1.00  0.00     0.004 C 
BRANCH  14  15
ATOM     15  C   UNL     1      45.931  48.915  35.281  1.00  0.00     0.000 C 
BRANCH  15  16
ATOM     16  C   UNL     1      45.524  47.472  35.628  1.00  0.00     0.000 C 
BRANCH  16  17
ATOM     17  C   UNL     1      46.369  46.420  34.889  1.00  0.00    -0.000 C 
BRANCH  17  18
ATOM     18  C   UNL     1      47.332  45.674  35.826  1.00  0.00    -0.000 C 
BRANCH  18  19
ATOM     19  C   UNL     1      47.271  46.196  37.269  1.00  0.00    -0.003 C 
ATOM     20  C   UNL     1      48.580  46.875  37.663  1.00  0.00     0.004 C 
ENDBRANCH  18  19
ENDBRANCH  17  18
ENDBRANCH  16  17
ENDBRANCH  15  16
ENDBRANCH  14  15
ENDBRANCH  13  14
ENDBRANCH   2  13
TORSDOF 15
ENDMDL
MODEL 2
REMARK VINA RESULT:    -5.343      7.498     11.726
REMARK INTER + INTRA:         -11.342
REMARK INTER:                 -10.096
REMARK INTRA:                  -1.246
REMARK UNBOUND:                -1.314
REMARK SMILES CCCCCCCCC=CCCCCCCCC(=O)[O-]
REMARK SMILES IDX 10 1 9 2 11 3 12 4 13 5 14 6 15 7 16 8 17 9 18 10 19 11
REMARK SMILES IDX 20 12 8 13 7 14 6 15 5 16 4 17 3 18 2 19 1 20
REMARK H PARENT
REMARK Flexibility Score: inf
ROOT
ATOM      1  C   UNL     1      45.609  43.677  30.067  1.00  0.00    -0.031 C 
ATOM      2  C   UNL     1      46.123  43.189  31.207  1.00  0.00    -0.031 C 
ENDROOT
BRANCH   1   3
ATOM      3  C   UNL     1      44.885  42.792  29.090  1.00  0.00     0.027 C 
BRANCH   3   4
ATOM      4  C   UNL     1      43.999  43.619  28.149  1.00  0.00     0.004 C 
BRANCH   4   5
ATOM      5  C   UNL     1      44.435  43.440  26.688  1.00  0.00     0.000 C 
BRANCH   5   6
ATOM      6  C   UNL     1      44.768  44.775  25.999  1.00  0.00     0.000 C 
BRANCH   6   7
ATOM      7  C   UNL     1      46.247  44.875  25.590  1.00  0.00     0.000 C 
BRANCH   7   8
ATOM      8  C   UNL     1      47.195  44.971  26.800  1.00  0.00     0.006 C 
BRANCH   8   9
ATOM      9  C   UNL     1      46.893  46.139  27.753  1.00  0.00     0.053 C 
BRANCH   9  10
ATOM     10  C   UNL     1      48.130  46.645  28.430  1.00  0.00     0.041 C 
ATOM     11  O   UNL     1      48.787  47.592  27.921  1.00  0.00    -0.550 OA
ATOM     12  O   UNL     1      48.575  46.050  29.604  1.00  0.00    -0.550 OA
ENDBRANCH   9  10
ENDBRANCH   8   9
ENDBRANCH   7   8
ENDBRANCH   6   7
ENDBRANCH   5   6
ENDBRANCH   4   5
ENDBRANCH   3   4
ENDBRANCH   1   3
BRANCH   2  13
ATOM     13  C   UNL     1      46.895  44.059  32.161  1.00  0.00     0.027 C 
BRANCH  13  14
ATOM     14  C   UNL     1      46.066  44.400  33.410  1.00  0.00     0.004 C 
BRANCH  14  15
ATOM     15  C   UNL     1      46.625  45.567  34.251  1.00  0.00     0.000 C 
BRANCH  15  16
ATOM     16  C   UNL     1      45.567  46.375  35.022  1.00  0.00     0.000 C 
BRANCH  16  17
ATOM     17  C   UNL     1      46.185  47.456  35.925  1.00  0.00    -0.000 C 
BRANCH  17  18
ATOM     18  C   UNL     1      46.264  48.827  35.235  1.00  0.00    -0.000 C 
BRANCH  18  19
ATOM     19  C   UNL     1      47.711  49.304  35.040  1.00  0.00    -0.003 C 
ATOM     20  C   UNL     1      47.750  50.726  34.488  1.00  0.00     0.004 C 
ENDBRANCH  18  19
ENDBRANCH  17  18
ENDBRANCH  16  17
ENDBRANCH  15  16
ENDBRANCH  14  15
ENDBRANCH  13  14
ENDBRANCH   2  13
TORSDOF 15
ENDMDL
MODEL 3
REMARK VINA RESULT:    -5.328      4.648      8.238
REMARK INTER + INTRA:         -11.313
REMARK INTER:                  -9.579
REMARK INTRA:                  -1.735
REMARK UNBOUND:                -1.314
REMARK SMILES CCCCCCCCC=CCCCCCCCC(=O)[O-]
REMARK SMILES IDX 10 1 9 2 11 3 12 4 13 5 14 6 15 7 16 8 17 9 18 10 19 11
REMARK SMILES IDX 20 12 8 13 7 14 6 15 5 16 4 17 3 18 2 19 1 20
REMARK H PARENT
REMARK Flexibility Score: inf
ROOT
ATOM      1  C   UNL     1      46.113  48.824  35.379  1.00  0.00    -0.031 C 
ATOM      2  C   UNL     1      47.233  49.092  34.690  1.00  0.00    -0.031 C 
ENDROOT
BRANCH   1   3
ATOM      3  C   UNL     1      45.651  47.411  35.609  1.00  0.00     0.027 C 
BRANCH   3   4
ATOM      4  C   UNL     1      46.769  46.409  35.298  1.00  0.00     0.004 C 
BRANCH   4   5
ATOM      5  C   UNL     1      46.355  45.461  34.163  1.00  0.00     0.000 C 
BRANCH   5   6
ATOM      6  C   UNL     1      47.491  45.207  33.158  1.00  0.00     0.000 C 
BRANCH   6   7
ATOM      7  C   UNL     1      48.677  46.166  33.354  1.00  0.00     0.000 C 
BRANCH   7   8
ATOM      8  C   UNL     1      49.050  46.925  32.067  1.00  0.00     0.006 C 
BRANCH   8   9
ATOM      9  C   UNL     1      49.808  48.241  32.302  1.00  0.00     0.053 C 
BRANCH   9  10
ATOM     10  C   UNL     1      50.832  48.497  31.238  1.00  0.00     0.041 C 
ATOM     11  O   UNL     1      51.897  47.826  31.210  1.00  0.00    -0.550 OA
ATOM     12  O   UNL     1      50.623  49.499  30.298  1.00  0.00    -0.550 OA
ENDBRANCH   9  10
ENDBRANCH   8   9
ENDBRANCH   7   8
ENDBRANCH   6   7
ENDBRANCH   5   6
ENDBRANCH   4   5
ENDBRANCH   3   4
ENDBRANCH   1   3
BRANCH   2  13
ATOM     13  C   UNL     1      47.670  50.505  34.410  1.00  0.00     0.027 C 
BRANCH  13  14
ATOM     14  C   UNL     1      49.063  50.790  34.993  1.00  0.00     0.004 C 
BRANCH  14  15
ATOM     15  C   UNL     1      49.726  49.582  35.688  1.00  0.00     0.000 C 
BRANCH  15  16
ATOM     16  C   UNL     1      51.237  49.728  35.941  1.00  0.00     0.000 C 
BRANCH  16  17
ATOM     17  C   UNL     1      51.568  50.851  36.939  1.00  0.00    -0.000 C 
BRANCH  17  18
ATOM     18  C   UNL     1      52.872  50.590  37.709  1.00  0.00    -0.000 C 
BRANCH  18  19
ATOM     19  C   UNL     1      52.624  50.236  39.182  1.00  0.00    -0.003 C 
ATOM     20  C   UNL     1      51.787  51.311  39.872  1.00  0.00     0.004 C 
ENDBRANCH  18  19
ENDBRANCH  17  18
ENDBRANCH  16  17
ENDBRANCH  15  16
ENDBRANCH  14  15
ENDBRANCH  13  14
ENDBRANCH   2  13
TORSDOF 15
ENDMDL
MODEL 4
REMARK VINA RESULT:    -5.278      2.110      4.017
REMARK INTER + INTRA:         -11.221
REMARK INTER:                  -9.224
REMARK INTRA:                  -1.997
REMARK UNBOUND:                -1.314
REMARK SMILES CCCCCCCCC=CCCCCCCCC(=O)[O-]
REMARK SMILES IDX 10 1 9 2 11 3 12 4 13 5 14 6 15 7 16 8 17 9 18 10 19 11
REMARK SMILES IDX 20 12 8 13 7 14 6 15 5 16 4 17 3 18 2 19 1 20
REMARK H PARENT
REMARK Flexibility Score: inf
ROOT
ATOM      1  C   UNL     1      48.862  47.453  37.775  1.00  0.00    -0.031 C 
ATOM      2  C   UNL     1      49.763  47.630  36.798  1.00  0.00    -0.031 C 
ENDROOT
BRANCH   1   3
ATOM      3  C   UNL     1      48.232  46.112  38.031  1.00  0.00     0.027 C 
BRANCH   3   4
ATOM      4  C   UNL     1      48.529  45.627  39.456  1.00  0.00     0.004 C 
BRANCH   4   5
ATOM      5  C   UNL     1      48.729  46.815  40.408  1.00  0.00     0.000 C 
BRANCH   5   6
ATOM      6  C   UNL     1      49.681  46.489  41.572  1.00  0.00     0.000 C 
BRANCH   6   7
ATOM      7  C   UNL     1      49.731  47.609  42.625  1.00  0.00     0.000 C 
BRANCH   7   8
ATOM      8  C   UNL     1      49.181  48.948  42.099  1.00  0.00     0.006 C 
BRANCH   8   9
ATOM      9  C   UNL     1      50.118  50.147  42.313  1.00  0.00     0.053 C 
BRANCH   9  10
ATOM     10  C   UNL     1      50.880  50.494  41.070  1.00  0.00     0.041 C 
ATOM     11  O   UNL     1      51.035  49.634  40.163  1.00  0.00    -0.550 OA
ATOM     12  O   UNL     1      51.447  51.755  40.930  1.00  0.00    -0.550 OA
ENDBRANCH   9  10
ENDBRANCH   8   9
ENDBRANCH   7   8
ENDBRANCH   6   7
ENDBRANCH   5   6
ENDBRANCH   4   5
ENDBRANCH   3   4
ENDBRANCH   1   3
BRANCH   2  13
ATOM     13  C   UNL     1      50.355  48.982  36.502  1.00  0.00     0.027 C 
BRANCH  13  14
ATOM     14  C   UNL     1      50.059  49.424  35.060  1.00  0.00     0.004 C 
BRANCH  14  15
ATOM     15  C   UNL     1      49.167  50.679  34.945  1.00  0.00     0.000 C 
BRANCH  15  16
ATOM     16  C   UNL     1      47.711  50.403  34.531  1.00  0.00     0.000 C 
BRANCH  16  17
ATOM     17  C   UNL     1      47.365  48.905  34.530  1.00  0.00    -0.000 C 
BRANCH  17  18
ATOM     18  C   UNL     1      46.105  48.590  35.353  1.00  0.00    -0.000 C 
BRANCH  18  19
ATOM     19  C   UNL     1      45.792  47.087  35.397  1.00  0.00    -0.003 C 
ATOM     20  C   UNL     1      46.789  46.295  34.555  1.00  0.00     0.004 C 
ENDBRANCH  18  19
ENDBRANCH  17  18
ENDBRANCH  16  17
ENDBRANCH  15  16
ENDBRANCH  14  15
ENDBRANCH  13  14
ENDBRANCH   2  13
TORSDOF 15
ENDMDL
MODEL 5
REMARK VINA RESULT:    -5.260      7.453     10.547
REMARK INTER + INTRA:         -11.186
REMARK INTER:                  -9.701
REMARK INTRA:                  -1.486
REMARK UNBOUND:                -1.314
REMARK SMILES CCCCCCCCC=CCCCCCCCC(=O)[O-]
REMARK SMILES IDX 10 1 9 2 11 3 12 4 13 5 14 6 15 7 16 8 17 9 18 10 19 11
REMARK SMILES IDX 20 12 8 13 7 14 6 15 5 16 4 17 3 18 2 19 1 20
REMARK H PARENT
REMARK Flexibility Score: inf
ROOT
ATOM      1  C   UNL     1      49.186  47.366  32.470  1.00  0.00    -0.031 C 
ATOM      2  C   UNL     1      49.719  48.557  32.784  1.00  0.00    -0.031 C 
ENDROOT
BRANCH   1   3
ATOM      3  C   UNL     1      49.266  46.814  31.073  1.00  0.00     0.027 C 
BRANCH   3   4
ATOM      4  C   UNL     1      50.056  47.753  30.153  1.00  0.00     0.004 C 
BRANCH   4   5
ATOM      5  C   UNL     1      49.867  47.364  28.680  1.00  0.00     0.000 C 
BRANCH   5   6
ATOM      6  C   UNL     1      48.400  47.458  28.225  1.00  0.00     0.000 C 
BRANCH   6   7
ATOM      7  C   UNL     1      47.819  46.092  27.820  1.00  0.00     0.000 C 
BRANCH   7   8
ATOM      8  C   UNL     1      46.282  46.051  27.900  1.00  0.00     0.006 C 
BRANCH   8   9
ATOM      9  C   UNL     1      45.720  44.890  28.736  1.00  0.00     0.053 C 
BRANCH   9  10
ATOM     10  C   UNL     1      45.434  43.681  27.897  1.00  0.00     0.041 C 
ATOM     11  O   UNL     1      45.317  42.549  28.437  1.00  0.00    -0.550 OA
ATOM     12  O   UNL     1      45.329  43.801  26.517  1.00  0.00    -0.550 OA
ENDBRANCH   9  10
ENDBRANCH   8   9
ENDBRANCH   7   8
ENDBRANCH   6   7
ENDBRANCH   5   6
ENDBRANCH   4   5
ENDBRANCH   3   4
ENDBRANCH   1   3
BRANCH   2  13
ATOM     13  C   UNL     1      49.594  49.139  34.167  1.00  0.00     0.027 C 
BRANCH  13  14
ATOM     14  C   UNL     1      48.599  50.311  34.198  1.00  0.00     0.004 C 
BRANCH  14  15
ATOM     15  C   UNL     1      47.189  49.940  34.703  1.00  0.00     0.000 C 
BRANCH  15  16
ATOM     16  C   UNL     1      47.091  48.577  35.409  1.00  0.00     0.000 C 
BRANCH  16  17
ATOM     17  C   UNL     1      45.638  48.106  35.596  1.00  0.00    -0.000 C 
BRANCH  17  18
ATOM     18  C   UNL     1      45.458  46.612  35.286  1.00  0.00    -0.000 C 
BRANCH  18  19
ATOM     19  C   UNL     1      46.679  46.007  34.578  1.00  0.00    -0.003 C 
ATOM     20  C   UNL     1      46.278  44.811  33.719  1.00  0.00     0.004 C 
ENDBRANCH  18  19
ENDBRANCH  17  18
ENDBRANCH  16  17
ENDBRANCH  15  16
ENDBRANCH  14  15
ENDBRANCH  13  14
ENDBRANCH   2  13
TORSDOF 15
ENDMDL
MODEL 6
REMARK VINA RESULT:    -5.252      7.846      9.518
REMARK INTER + INTRA:         -11.171
REMARK INTER:                 -10.226
REMARK INTRA:                  -0.945
REMARK UNBOUND:                -1.314
REMARK SMILES CCCCCCCCC=CCCCCCCCC(=O)[O-]
REMARK SMILES IDX 10 1 9 2 11 3 12 4 13 5 14 6 15 7 16 8 17 9 18 10 19 11
REMARK SMILES IDX 20 12 8 13 7 14 6 15 5 16 4 17 3 18 2 19 1 20
REMARK H PARENT
REMARK Flexibility Score: inf
ROOT
ATOM      1  C   UNL     1      42.444  52.753  33.920  1.00  0.00    -0.031 C 
ATOM      2  C   UNL     1      41.610  51.769  34.287  1.00  0.00    -0.031 C 
ENDROOT
BRANCH   1   3
ATOM      3  C   UNL     1      43.754  52.977  34.623  1.00  0.00     0.027 C 
BRANCH   3   4
ATOM      4  C   UNL     1      43.532  53.468  36.059  1.00  0.00     0.004 C 
BRANCH   4   5
ATOM      5  C   UNL     1      44.060  54.899  36.236  1.00  0.00     0.000 C 
BRANCH   5   6
ATOM      6  C   UNL     1      45.037  55.029  37.418  1.00  0.00     0.000 C 
BRANCH   6   7
ATOM      7  C   UNL     1      45.860  56.328  37.363  1.00  0.00     0.000 C 
BRANCH   7   8
ATOM      8  C   UNL     1      45.418  57.359  38.417  1.00  0.00     0.006 C 
BRANCH   8   9
ATOM      9  C   UNL     1      44.434  56.815  39.465  1.00  0.00     0.053 C 
BRANCH   9  10
ATOM     10  C   UNL     1      43.999  57.875  40.430  1.00  0.00     0.041 C 
ATOM     11  O   UNL     1      42.911  58.485  40.252  1.00  0.00    -0.550 OA
ATOM     12  O   UNL     1      44.810  58.212  41.507  1.00  0.00    -0.550 OA
ENDBRANCH   9  10
ENDBRANCH   8   9
ENDBRANCH   7   8
ENDBRANCH   6   7
ENDBRANCH   5   6
ENDBRANCH   4   5
ENDBRANCH   3   4
ENDBRANCH   1   3
BRANCH   2  13
ATOM     13  C   UNL     1      40.273  51.576  33.622  1.00  0.00     0.027 C 
BRANCH  13  14
ATOM     14  C   UNL     1      40.416  50.869  32.264  1.00  0.00     0.004 C 
BRANCH  14  15
ATOM     15  C   UNL     1      40.525  49.332  32.351  1.00  0.00     0.000 C 
BRANCH  15  16
ATOM     16  C   UNL     1      39.179  48.589  32.413  1.00  0.00     0.000 C 
BRANCH  16  17
ATOM     17  C   UNL     1      38.063  49.312  31.639  1.00  0.00    -0.000 C 
BRANCH  17  18
ATOM     18  C   UNL     1      37.646  48.559  30.366  1.00  0.00    -0.000 C 
BRANCH  18  19
ATOM     19  C   UNL     1      37.460  49.495  29.164  1.00  0.00    -0.003 C 
ATOM     20  C   UNL     1      38.246  50.791  29.351  1.00  0.00     0.004 C 
ENDBRANCH  18  19
ENDBRANCH  17  18
ENDBRANCH  16  17
ENDBRANCH  15  16
ENDBRANCH  14  15
ENDBRANCH  13  14
ENDBRANCH   2  13
TORSDOF 15
ENDMDL
MODEL 7
REMARK VINA RESULT:    -5.250      2.199      3.799
REMARK INTER + INTRA:         -11.167
REMARK INTER:                 -10.033
REMARK INTRA:                  -1.134
REMARK UNBOUND:                -1.314
REMARK SMILES CCCCCCCCC=CCCCCCCCC(=O)[O-]
REMARK SMILES IDX 10 1 9 2 11 3 12 4 13 5 14 6 15 7 16 8 17 9 18 10 19 11
REMARK SMILES IDX 20 12 8 13 7 14 6 15 5 16 4 17 3 18 2 19 1 20
REMARK H PARENT
REMARK Flexibility Score: inf
ROOT
ATOM      1  C   UNL     1      47.462  49.007  34.833  1.00  0.00    -0.031 C 
ATOM      2  C   UNL     1      46.294  48.619  35.365  1.00  0.00    -0.031 C 
ENDROOT
BRANCH   1   3
ATOM      3  C   UNL     1      47.742  50.451  34.520  1.00  0.00     0.027 C 
BRANCH   3   4
ATOM      4  C   UNL     1      49.159  50.845  34.956  1.00  0.00     0.004 C 
BRANCH   4   5
ATOM      5  C   UNL     1      49.810  49.724  35.780  1.00  0.00     0.000 C 
BRANCH   5   6
ATOM      6  C   UNL     1      51.291  49.999  36.091  1.00  0.00     0.000 C 
BRANCH   6   7
ATOM      7  C   UNL     1      51.475  51.080  37.171  1.00  0.00     0.000 C 
BRANCH   7   8
ATOM      8  C   UNL     1      52.284  50.580  38.383  1.00  0.00     0.006 C 
BRANCH   8   9
ATOM      9  C   UNL     1      51.431  49.983  39.514  1.00  0.00     0.053 C 
BRANCH   9  10
ATOM     10  C   UNL     1      51.330  50.908  40.688  1.00  0.00     0.041 C 
ATOM     11  O   UNL     1      52.029  51.955  40.732  1.00  0.00    -0.550 OA
ATOM     12  O   UNL     1      50.488  50.597  41.749  1.00  0.00    -0.550 OA
ENDBRANCH   9  10
ENDBRANCH   8   9
ENDBRANCH   7   8
ENDBRANCH   6   7
ENDBRANCH   5   6
ENDBRANCH   4   5
ENDBRANCH   3   4
ENDBRANCH   1   3
BRANCH   2  13
ATOM     13  C   UNL     1      45.988  47.168  35.629  1.00  0.00     0.027 C 
BRANCH  13  14
ATOM     14  C   UNL     1      47.228  46.414  36.134  1.00  0.00     0.004 C 
BRANCH  14  15
ATOM     15  C   UNL     1      47.512  46.586  37.641  1.00  0.00     0.000 C 
BRANCH  15  16
ATOM     16  C   UNL     1      47.600  45.273  38.438  1.00  0.00     0.000 C 
BRANCH  16  17
ATOM     17  C   UNL     1      47.044  45.405  39.867  1.00  0.00    -0.000 C 
BRANCH  17  18
ATOM     18  C   UNL     1      48.114  45.850  40.876  1.00  0.00    -0.000 C 
BRANCH  18  19
ATOM     19  C   UNL     1      47.529  46.691  42.020  1.00  0.00    -0.003 C 
ATOM     20  C   UNL     1      46.566  45.867  42.870  1.00  0.00     0.004 C 
ENDBRANCH  18  19
ENDBRANCH  17  18
ENDBRANCH  16  17
ENDBRANCH  15  16
ENDBRANCH  14  15
ENDBRANCH  13  14
ENDBRANCH   2  13
TORSDOF 15
ENDMDL
MODEL 8
REMARK VINA RESULT:    -5.248      8.582     12.283
REMARK INTER + INTRA:         -11.163
REMARK INTER:                  -9.840
REMARK INTRA:                  -1.324
REMARK UNBOUND:                -1.314
REMARK SMILES CCCCCCCCC=CCCCCCCCC(=O)[O-]
REMARK SMILES IDX 10 1 9 2 11 3 12 4 13 5 14 6 15 7 16 8 17 9 18 10 19 11
REMARK SMILES IDX 20 12 8 13 7 14 6 15 5 16 4 17 3 18 2 19 1 20
REMARK H PARENT
REMARK Flexibility Score: inf
ROOT
ATOM      1  C   UNL     1      44.163  53.710  35.455  1.00  0.00    -0.031 C 
ATOM      2  C   UNL     1      43.560  54.884  35.211  1.00  0.00    -0.031 C 
ENDROOT
BRANCH   1   3
ATOM      3  C   UNL     1      43.941  52.514  34.570  1.00  0.00     0.027 C 
BRANCH   3   4
ATOM      4  C   UNL     1      43.230  51.389  35.333  1.00  0.00     0.004 C 
BRANCH   4   5
ATOM      5  C   UNL     1      41.715  51.636  35.387  1.00  0.00     0.000 C 
BRANCH   5   6
ATOM      6  C   UNL     1      41.091  51.796  33.990  1.00  0.00     0.000 C 
BRANCH   6   7
ATOM      7  C   UNL     1      39.557  51.908  34.040  1.00  0.00     0.000 C 
BRANCH   7   8
ATOM      8  C   UNL     1      38.889  51.542  32.701  1.00  0.00     0.006 C 
BRANCH   8   9
ATOM      9  C   UNL     1      39.786  50.745  31.741  1.00  0.00     0.053 C 
BRANCH   9  10
ATOM     10  C   UNL     1      39.443  49.286  31.734  1.00  0.00     0.041 C 
ATOM     11  O   UNL     1      40.168  48.463  32.354  1.00  0.00    -0.550 OA
ATOM     12  O   UNL     1      38.343  48.832  31.017  1.00  0.00    -0.550 OA
ENDBRANCH   9  10
ENDBRANCH   8   9
ENDBRANCH   7   8
ENDBRANCH   6   7
ENDBRANCH   5   6
ENDBRANCH   4   5
ENDBRANCH   3   4
ENDBRANCH   1   3
BRANCH   2  13
ATOM     13  C   UNL     1      43.735  56.067  36.124  1.00  0.00     0.027 C 
BRANCH  13  14
ATOM     14  C   UNL     1      44.211  55.636  37.521  1.00  0.00     0.004 C 
BRANCH  14  15
ATOM     15  C   UNL     1      45.703  55.908  37.802  1.00  0.00     0.000 C 
BRANCH  15  16
ATOM     16  C   UNL     1      46.248  57.216  37.204  1.00  0.00     0.000 C 
BRANCH  16  17
ATOM     17  C   UNL     1      45.860  58.456  38.029  1.00  0.00    -0.000 C 
BRANCH  17  18
ATOM     18  C   UNL     1      46.303  58.349  39.497  1.00  0.00    -0.000 C 
BRANCH  18  19
ATOM     19  C   UNL     1      45.207  58.797  40.475  1.00  0.00    -0.003 C 
ATOM     20  C   UNL     1      44.127  57.728  40.615  1.00  0.00     0.004 C 
ENDBRANCH  18  19
ENDBRANCH  17  18
ENDBRANCH  16  17
ENDBRANCH  15  16
ENDBRANCH  14  15
ENDBRANCH  13  14
ENDBRANCH   2  13
TORSDOF 15
ENDMDL
MODEL 9
REMARK VINA RESULT:    -5.209      3.007      6.256
REMARK INTER + INTRA:         -11.090
REMARK INTER:                  -9.177
REMARK INTRA:                  -1.912
REMARK UNBOUND:                -1.314
REMARK SMILES CCCCCCCCC=CCCCCCCCC(=O)[O-]
REMARK SMILES IDX 10 1 9 2 11 3 12 4 13 5 14 6 15 7 16 8 17 9 18 10 19 11
REMARK SMILES IDX 20 12 8 13 7 14 6 15 5 16 4 17 3 18 2 19 1 20
REMARK H PARENT
REMARK Flexibility Score: inf
ROOT
ATOM      1  C   UNL     1      47.364  46.550  36.341  1.00  0.00    -0.031 C 
ATOM      2  C   UNL     1      47.717  46.779  37.615  1.00  0.00    -0.031 C 
ENDROOT
BRANCH   1   3
ATOM      3  C   UNL     1      46.059  47.048  35.785  1.00  0.00     0.027 C 
BRANCH   3   4
ATOM      4  C   UNL     1      46.160  48.525  35.382  1.00  0.00     0.004 C 
BRANCH   4   5
ATOM      5  C   UNL     1      47.440  48.786  34.574  1.00  0.00     0.000 C 
BRANCH   5   6
ATOM      6  C   UNL     1      47.777  50.283  34.463  1.00  0.00     0.000 C 
BRANCH   6   7
ATOM      7  C   UNL     1      49.162  50.620  35.041  1.00  0.00     0.000 C 
BRANCH   7   8
ATOM      8  C   UNL     1      49.762  49.466  35.864  1.00  0.00     0.006 C 
BRANCH   8   9
ATOM      9  C   UNL     1      51.283  49.303  35.713  1.00  0.00     0.053 C 
BRANCH   9  10
ATOM     10  C   UNL     1      52.039  50.293  36.545  1.00  0.00     0.041 C 
ATOM     11  O   UNL     1      51.568  50.686  37.645  1.00  0.00    -0.550 OA
ATOM     12  O   UNL     1      53.248  50.807  36.090  1.00  0.00    -0.550 OA
ENDBRANCH   9  10
ENDBRANCH   8   9
ENDBRANCH   7   8
ENDBRANCH   6   7
ENDBRANCH   5   6
ENDBRANCH   4   5
ENDBRANCH   3   4
ENDBRANCH   1   3
BRANCH   2  13
ATOM     13  C   UNL     1      48.997  46.235  38.191  1.00  0.00     0.027 C 
BRANCH  13  14
ATOM     14  C   UNL     1      48.726  45.288  39.371  1.00  0.00     0.004 C 
BRANCH  14  15
ATOM     15  C   UNL     1      47.316  45.418  39.985  1.00  0.00     0.000 C 
BRANCH  15  16
ATOM     16  C   UNL     1      47.274  46.063  41.381  1.00  0.00     0.000 C 
BRANCH  16  17
ATOM     17  C   UNL     1      48.603  46.734  41.769  1.00  0.00    -0.000 C 
BRANCH  17  18
ATOM     18  C   UNL     1      48.430  48.216  42.138  1.00  0.00    -0.000 C 
BRANCH  18  19
ATOM     19  C   UNL     1      49.716  49.027  41.928  1.00  0.00    -0.003 C 
ATOM     20  C   UNL     1      50.563  48.433  40.805  1.00  0.00     0.004 C 
ENDBRANCH  18  19
ENDBRANCH  17  18
ENDBRANCH  16  17
ENDBRANCH  15  16
ENDBRANCH  14  15
ENDBRANCH  13  14
ENDBRANCH   2  13
TORSDOF 15
ENDMDL
