MODEL 1
REMARK VINA RESULT:    -4.623      0.000      0.000
REMARK INTER + INTRA:          -7.537
REMARK INTER:                  -6.785
REMARK INTRA:                  -0.752
REMARK UNBOUND:                -0.752
REMARK SMILES O=C([O-])CCCCCCCC(=O)[O-]
REMARK SMILES IDX 7 1 6 2 5 3 4 4 2 5 1 6 3 7 8 8 9 9 10 10 11 11 12 12 13 13
REMARK H PARENT
REMARK Flexibility Score: inf
ROOT
ATOM      1  C   UNL     1      12.465   5.531  52.960  1.00  0.00     0.000 C 
ENDROOT
BRANCH   1   2
ATOM      2  C   UNL     1      11.924   4.092  53.041  1.00  0.00     0.000 C 
BRANCH   2   3
ATOM      3  C   UNL     1      11.556   3.614  54.458  1.00  0.00     0.006 C 
BRANCH   3   4
ATOM      4  C   UNL     1      12.656   3.902  55.488  1.00  0.00     0.053 C 
BRANCH   4   5
ATOM      5  C   UNL     1      12.272   3.356  56.827  1.00  0.00     0.041 C 
ATOM      6  O   UNL     1      11.584   4.049  57.621  1.00  0.00    -0.550 OA
ATOM      7  O   UNL     1      12.716   2.098  57.219  1.00  0.00    -0.550 OA
ENDBRANCH   4   5
ENDBRANCH   3   4
ENDBRANCH   2   3
ENDBRANCH   1   2
BRANCH   1   8
ATOM      8  C   UNL     1      11.390   6.627  52.842  1.00  0.00     0.000 C 
BRANCH   8   9
ATOM      9  C   UNL     1      11.536   7.757  53.883  1.00  0.00     0.006 C 
BRANCH   9  10
ATOM     10  C   UNL     1      11.136   7.310  55.295  1.00  0.00     0.053 C 
BRANCH  10  11
ATOM     11  C   UNL     1       9.685   6.948  55.338  1.00  0.00     0.041 C 
ATOM     12  O   UNL     1       8.814   7.777  54.965  1.00  0.00    -0.550 OA
ATOM     13  O   UNL     1       9.291   5.712  55.836  1.00  0.00    -0.550 OA
ENDBRANCH  10  11
ENDBRANCH   9  10
ENDBRANCH   8   9
ENDBRANCH   1   8
TORSDOF 8
ENDMDL
MODEL 2
REMARK VINA RESULT:    -4.579      0.173      4.265
REMARK INTER + INTRA:          -7.473
REMARK INTER:                  -6.721
REMARK INTRA:                  -0.752
REMARK UNBOUND:                -0.752
REMARK SMILES O=C([O-])CCCCCCCC(=O)[O-]
REMARK SMILES IDX 7 1 6 2 5 3 4 4 2 5 1 6 3 7 8 8 9 9 10 10 11 11 12 12 13 13
REMARK H PARENT
REMARK Flexibility Score: inf
ROOT
ATOM      1  C   UNL     1      12.472   5.517  52.947  1.00  0.00     0.000 C 
ENDROOT
BRANCH   1   2
ATOM      2  C   UNL     1      11.428   6.645  52.855  1.00  0.00     0.000 C 
BRANCH   2   3
ATOM      3  C   UNL     1      11.603   7.777  53.885  1.00  0.00     0.006 C 
BRANCH   3   4
ATOM      4  C   UNL     1      11.114   7.389  55.286  1.00  0.00     0.053 C 
BRANCH   4   5
ATOM      5  C   UNL     1       9.657   7.046  55.253  1.00  0.00     0.041 C 
ATOM      6  O   UNL     1       8.799   7.944  55.047  1.00  0.00    -0.550 OA
ATOM      7  O   UNL     1       9.244   5.742  55.498  1.00  0.00    -0.550 OA
ENDBRANCH   4   5
ENDBRANCH   3   4
ENDBRANCH   2   3
ENDBRANCH   1   2
BRANCH   1   8
ATOM      8  C   UNL     1      11.891   4.091  52.971  1.00  0.00     0.000 C 
BRANCH   8   9
ATOM      9  C   UNL     1      11.513   3.596  54.383  1.00  0.00     0.006 C 
BRANCH   9  10
ATOM     10  C   UNL     1      12.590   3.922  55.427  1.00  0.00     0.053 C 
BRANCH  10  11
ATOM     11  C   UNL     1      12.172   3.435  56.778  1.00  0.00     0.041 C 
ATOM     12  O   UNL     1      12.479   2.274  57.156  1.00  0.00    -0.550 OA
ATOM     13  O   UNL     1      11.401   4.247  57.601  1.00  0.00    -0.550 OA
ENDBRANCH  10  11
ENDBRANCH   9  10
ENDBRANCH   8   9
ENDBRANCH   1   8
TORSDOF 8
ENDMDL
MODEL 3
REMARK VINA RESULT:    -4.512      1.756      2.399
REMARK INTER + INTRA:          -7.374
REMARK INTER:                  -6.642
REMARK INTRA:                  -0.733
REMARK UNBOUND:                -0.752
REMARK SMILES O=C([O-])CCCCCCCC(=O)[O-]
REMARK SMILES IDX 7 1 6 2 5 3 4 4 2 5 1 6 3 7 8 8 9 9 10 10 11 11 12 12 13 13
REMARK H PARENT
REMARK Flexibility Score: inf
ROOT
ATOM      1  C   UNL     1       9.889   4.043  54.949  1.00  0.00     0.000 C 
ENDROOT
BRANCH   1   2
ATOM      2  C   UNL     1      11.304   3.516  54.645  1.00  0.00     0.000 C 
BRANCH   2   3
ATOM      3  C   UNL     1      12.451   4.350  55.243  1.00  0.00     0.006 C 
BRANCH   3   4
ATOM      4  C   UNL     1      13.424   3.512  56.081  1.00  0.00     0.053 C 
BRANCH   4   5
ATOM      5  C   UNL     1      12.719   2.916  57.259  1.00  0.00     0.041 C 
ATOM      6  O   UNL     1      12.030   3.645  58.020  1.00  0.00    -0.550 OA
ATOM      7  O   UNL     1      12.863   1.564  57.546  1.00  0.00    -0.550 OA
ENDBRANCH   4   5
ENDBRANCH   3   4
ENDBRANCH   2   3
ENDBRANCH   1   2
BRANCH   1   8
ATOM      8  C   UNL     1       9.840   5.342  55.773  1.00  0.00     0.000 C 
BRANCH   8   9
ATOM      9  C   UNL     1       9.430   6.585  54.954  1.00  0.00     0.006 C 
BRANCH   9  10
ATOM     10  C   UNL     1      10.639   7.406  54.488  1.00  0.00     0.053 C 
BRANCH  10  11
ATOM     11  C   UNL     1      10.813   7.286  53.008  1.00  0.00     0.041 C 
ATOM     12  O   UNL     1      10.098   7.967  52.227  1.00  0.00    -0.550 OA
ATOM     13  O   UNL     1      11.733   6.383  52.488  1.00  0.00    -0.550 OA
ENDBRANCH  10  11
ENDBRANCH   9  10
ENDBRANCH   8   9
ENDBRANCH   1   8
TORSDOF 8
ENDMDL
MODEL 4
REMARK VINA RESULT:    -4.511      1.994      4.956
REMARK INTER + INTRA:          -7.373
REMARK INTER:                  -6.748
REMARK INTRA:                  -0.625
REMARK UNBOUND:                -0.752
REMARK SMILES O=C([O-])CCCCCCCC(=O)[O-]
REMARK SMILES IDX 7 1 6 2 5 3 4 4 2 5 1 6 3 7 8 8 9 9 10 10 11 11 12 12 13 13
REMARK H PARENT
REMARK Flexibility Score: inf
ROOT
ATOM      1  C   UNL     1      10.227   4.124  55.830  1.00  0.00     0.000 C 
ENDROOT
BRANCH   1   2
ATOM      2  C   UNL     1       9.518   5.478  56.009  1.00  0.00     0.000 C 
BRANCH   2   3
ATOM      3  C   UNL     1       9.415   6.331  54.730  1.00  0.00     0.006 C 
BRANCH   3   4
ATOM      4  C   UNL     1       9.687   7.819  54.983  1.00  0.00     0.053 C 
BRANCH   4   5
ATOM      5  C   UNL     1      11.118   8.144  54.690  1.00  0.00     0.041 C 
ATOM      6  O   UNL     1      11.728   9.000  55.383  1.00  0.00    -0.550 OA
ATOM      7  O   UNL     1      11.765   7.537  53.620  1.00  0.00    -0.550 OA
ENDBRANCH   4   5
ENDBRANCH   3   4
ENDBRANCH   2   3
ENDBRANCH   1   2
BRANCH   1   8
ATOM      8  C   UNL     1      10.721   3.828  54.402  1.00  0.00     0.000 C 
BRANCH   8   9
ATOM      9  C   UNL     1      12.228   4.093  54.197  1.00  0.00     0.006 C 
BRANCH   9  10
ATOM     10  C   UNL     1      12.904   4.644  55.459  1.00  0.00     0.053 C 
BRANCH  10  11
ATOM     11  C   UNL     1      13.961   3.700  55.939  1.00  0.00     0.041 C 
ATOM     12  O   UNL     1      15.162   3.866  55.598  1.00  0.00    -0.550 OA
ATOM     13  O   UNL     1      13.613   2.607  56.724  1.00  0.00    -0.550 OA
ENDBRANCH  10  11
ENDBRANCH   9  10
ENDBRANCH   8   9
ENDBRANCH   1   8
TORSDOF 8
ENDMDL
MODEL 5
REMARK VINA RESULT:    -4.505      2.116      2.969
REMARK INTER + INTRA:          -7.365
REMARK INTER:                  -6.639
REMARK INTRA:                  -0.726
REMARK UNBOUND:                -0.752
REMARK SMILES O=C([O-])CCCCCCCC(=O)[O-]
REMARK SMILES IDX 7 1 6 2 5 3 4 4 2 5 1 6 3 7 8 8 9 9 10 10 11 11 12 12 13 13
REMARK H PARENT
REMARK Flexibility Score: inf
ROOT
ATOM      1  C   UNL     1       9.506   4.089  54.856  1.00  0.00     0.000 C 
ENDROOT
BRANCH   1   2
ATOM      2  C   UNL     1      10.841   3.361  54.617  1.00  0.00     0.000 C 
BRANCH   2   3
ATOM      3  C   UNL     1      11.869   3.500  55.755  1.00  0.00     0.006 C 
BRANCH   3   4
ATOM      4  C   UNL     1      13.181   4.151  55.297  1.00  0.00     0.053 C 
BRANCH   4   5
ATOM      5  C   UNL     1      14.354   3.381  55.816  1.00  0.00     0.041 C 
ATOM      6  O   UNL     1      14.179   2.407  56.594  1.00  0.00    -0.550 OA
ATOM      7  O   UNL     1      15.645   3.770  55.480  1.00  0.00    -0.550 OA
ENDBRANCH   4   5
ENDBRANCH   3   4
ENDBRANCH   2   3
ENDBRANCH   1   2
BRANCH   1   8
ATOM      8  C   UNL     1       9.586   5.313  55.786  1.00  0.00     0.000 C 
BRANCH   8   9
ATOM      9  C   UNL     1       9.595   6.664  55.038  1.00  0.00     0.006 C 
BRANCH   9  10
ATOM     10  C   UNL     1      11.013   7.118  54.665  1.00  0.00     0.053 C 
BRANCH  10  11
ATOM     11  C   UNL     1      11.214   7.042  53.185  1.00  0.00     0.041 C 
ATOM     12  O   UNL     1      12.113   6.305  52.704  1.00  0.00    -0.550 OA
ATOM     13  O   UNL     1      10.439   7.825  52.338  1.00  0.00    -0.550 OA
ENDBRANCH  10  11
ENDBRANCH   9  10
ENDBRANCH   8   9
ENDBRANCH   1   8
TORSDOF 8
ENDMDL
MODEL 6
REMARK VINA RESULT:    -4.494      1.553      5.034
REMARK INTER + INTRA:          -7.349
REMARK INTER:                  -6.654
REMARK INTRA:                  -0.695
REMARK UNBOUND:                -0.752
REMARK SMILES O=C([O-])CCCCCCCC(=O)[O-]
REMARK SMILES IDX 7 1 6 2 5 3 4 4 2 5 1 6 3 7 8 8 9 9 10 10 11 11 12 12 13 13
REMARK H PARENT
REMARK Flexibility Score: inf
ROOT
ATOM      1  C   UNL     1      11.400   3.736  53.748  1.00  0.00     0.000 C 
ENDROOT
BRANCH   1   2
ATOM      2  C   UNL     1      12.501   4.799  53.576  1.00  0.00     0.000 C 
BRANCH   2   3
ATOM      3  C   UNL     1      12.149   5.948  52.613  1.00  0.00     0.006 C 
BRANCH   3   4
ATOM      4  C   UNL     1      11.799   7.251  53.342  1.00  0.00     0.053 C 
BRANCH   4   5
ATOM      5  C   UNL     1      10.339   7.549  53.205  1.00  0.00     0.041 C 
ATOM      6  O   UNL     1       9.500   6.957  53.934  1.00  0.00    -0.550 OA
ATOM      7  O   UNL     1       9.899   8.446  52.239  1.00  0.00    -0.550 OA
ENDBRANCH   4   5
ENDBRANCH   3   4
ENDBRANCH   2   3
ENDBRANCH   1   2
BRANCH   1   8
ATOM      8  C   UNL     1      10.615   3.818  55.070  1.00  0.00     0.000 C 
BRANCH   8   9
ATOM      9  C   UNL     1      11.399   4.485  56.221  1.00  0.00     0.006 C 
BRANCH   9  10
ATOM     10  C   UNL     1      11.677   3.516  57.379  1.00  0.00     0.053 C 
BRANCH  10  11
ATOM     11  C   UNL     1      12.951   2.769  57.140  1.00  0.00     0.041 C 
ATOM     12  O   UNL     1      13.850   3.265  56.412  1.00  0.00    -0.550 OA
ATOM     13  O   UNL     1      13.126   1.502  57.684  1.00  0.00    -0.550 OA
ENDBRANCH  10  11
ENDBRANCH   9  10
ENDBRANCH   8   9
ENDBRANCH   1   8
TORSDOF 8
ENDMDL
MODEL 7
REMARK VINA RESULT:    -4.487      1.754      5.107
REMARK INTER + INTRA:          -7.338
REMARK INTER:                  -6.606
REMARK INTRA:                  -0.732
REMARK UNBOUND:                -0.752
REMARK SMILES O=C([O-])CCCCCCCC(=O)[O-]
REMARK SMILES IDX 7 1 6 2 5 3 4 4 2 5 1 6 3 7 8 8 9 9 10 10 11 11 12 12 13 13
REMARK H PARENT
REMARK Flexibility Score: inf
ROOT
ATOM      1  C   UNL     1       9.927   4.038  54.850  1.00  0.00     0.000 C 
ENDROOT
BRANCH   1   2
ATOM      2  C   UNL     1       9.895   5.306  55.723  1.00  0.00     0.000 C 
BRANCH   2   3
ATOM      3  C   UNL     1       9.496   6.595  54.982  1.00  0.00     0.006 C 
BRANCH   3   4
ATOM      4  C   UNL     1      10.706   7.380  54.459  1.00  0.00     0.053 C 
BRANCH   4   5
ATOM      5  C   UNL     1      10.901   7.124  52.997  1.00  0.00     0.041 C 
ATOM      6  O   UNL     1      11.902   6.475  52.596  1.00  0.00    -0.550 OA
ATOM      7  O   UNL     1      10.003   7.645  52.073  1.00  0.00    -0.550 OA
ENDBRANCH   4   5
ENDBRANCH   3   4
ENDBRANCH   2   3
ENDBRANCH   1   2
BRANCH   1   8
ATOM      8  C   UNL     1      11.305   3.362  54.732  1.00  0.00     0.000 C 
BRANCH   8   9
ATOM      9  C   UNL     1      12.475   4.243  55.217  1.00  0.00     0.006 C 
BRANCH   9  10
ATOM     10  C   UNL     1      13.469   3.469  56.094  1.00  0.00     0.053 C 
BRANCH  10  11
ATOM     11  C   UNL     1      12.769   2.863  57.268  1.00  0.00     0.041 C 
ATOM     12  O   UNL     1      12.840   1.624  57.481  1.00  0.00    -0.550 OA
ATOM     13  O   UNL     1      11.994   3.661  58.102  1.00  0.00    -0.550 OA
ENDBRANCH  10  11
ENDBRANCH   9  10
ENDBRANCH   8   9
ENDBRANCH   1   8
TORSDOF 8
ENDMDL
MODEL 8
REMARK VINA RESULT:    -4.418      1.238      2.070
REMARK INTER + INTRA:          -7.237
REMARK INTER:                  -6.426
REMARK INTRA:                  -0.811
REMARK UNBOUND:                -0.752
REMARK SMILES O=C([O-])CCCCCCCC(=O)[O-]
REMARK SMILES IDX 7 1 6 2 5 3 4 4 2 5 1 6 3 7 8 8 9 9 10 10 11 11 12 12 13 13
REMARK H PARENT
REMARK Flexibility Score: inf
ROOT
ATOM      1  C   UNL     1      11.349   6.732  52.790  1.00  0.00     0.000 C 
ENDROOT
BRANCH   1   2
ATOM      2  C   UNL     1      12.428   5.649  52.603  1.00  0.00     0.000 C 
BRANCH   2   3
ATOM      3  C   UNL     1      12.048   4.255  53.135  1.00  0.00     0.006 C 
BRANCH   3   4
ATOM      4  C   UNL     1      12.368   4.078  54.625  1.00  0.00     0.053 C 
BRANCH   4   5
ATOM      5  C   UNL     1      11.119   3.787  55.396  1.00  0.00     0.041 C 
ATOM      6  O   UNL     1      10.017   3.674  54.798  1.00  0.00    -0.550 OA
ATOM      7  O   UNL     1      11.163   3.689  56.781  1.00  0.00    -0.550 OA
ENDBRANCH   4   5
ENDBRANCH   3   4
ENDBRANCH   2   3
ENDBRANCH   1   2
BRANCH   1   8
ATOM      8  C   UNL     1      11.675   7.802  53.848  1.00  0.00     0.000 C 
BRANCH   8   9
ATOM      9  C   UNL     1      11.053   7.519  55.232  1.00  0.00     0.006 C 
BRANCH   9  10
ATOM     10  C   UNL     1       9.560   7.174  55.145  1.00  0.00     0.053 C 
BRANCH  10  11
ATOM     11  C   UNL     1       8.756   8.403  54.861  1.00  0.00     0.041 C 
ATOM     12  O   UNL     1       7.916   8.409  53.923  1.00  0.00    -0.550 OA
ATOM     13  O   UNL     1       8.969   9.560  55.601  1.00  0.00    -0.550 OA
ENDBRANCH  10  11
ENDBRANCH   9  10
ENDBRANCH   8   9
ENDBRANCH   1   8
TORSDOF 8
ENDMDL
MODEL 9
REMARK VINA RESULT:    -4.404      2.723      5.856
REMARK INTER + INTRA:          -7.215
REMARK INTER:                  -6.580
REMARK INTRA:                  -0.635
REMARK UNBOUND:                -0.752
REMARK SMILES O=C([O-])CCCCCCCC(=O)[O-]
REMARK SMILES IDX 7 1 6 2 5 3 4 4 2 5 1 6 3 7 8 8 9 9 10 10 11 11 12 12 13 13
REMARK H PARENT
REMARK Flexibility Score: inf
ROOT
ATOM      1  C   UNL     1       9.444   6.643  55.345  1.00  0.00     0.000 C 
ENDROOT
BRANCH   1   2
ATOM      2  C   UNL     1      10.612   7.366  54.649  1.00  0.00     0.000 C 
BRANCH   2   3
ATOM      3  C   UNL     1      10.373   7.709  53.167  1.00  0.00     0.006 C 
BRANCH   3   4
ATOM      4  C   UNL     1       8.892   7.653  52.773  1.00  0.00     0.053 C 
BRANCH   4   5
ATOM      5  C   UNL     1       8.686   8.278  51.429  1.00  0.00     0.041 C 
ATOM      6  O   UNL     1       9.496   8.049  50.493  1.00  0.00    -0.550 OA
ATOM      7  O   UNL     1       7.626   9.152  51.223  1.00  0.00    -0.550 OA
ENDBRANCH   4   5
ENDBRANCH   3   4
ENDBRANCH   2   3
ENDBRANCH   1   2
BRANCH   1   8
ATOM      8  C   UNL     1       9.776   5.243  55.893  1.00  0.00     0.000 C 
BRANCH   8   9
ATOM      9  C   UNL     1       9.772   4.136  54.818  1.00  0.00     0.006 C 
BRANCH   9  10
ATOM     10  C   UNL     1      11.085   3.341  54.790  1.00  0.00     0.053 C 
BRANCH  10  11
ATOM     11  C   UNL     1      12.169   4.145  54.146  1.00  0.00     0.041 C 
ATOM     12  O   UNL     1      13.188   4.479  54.806  1.00  0.00    -0.550 OA
ATOM     13  O   UNL     1      12.032   4.569  52.830  1.00  0.00    -0.550 OA
ENDBRANCH  10  11
ENDBRANCH   9  10
ENDBRANCH   8   9
ENDBRANCH   1   8
TORSDOF 8
ENDMDL
