MODEL 1
REMARK VINA RESULT:     3.128      0.000      0.000
REMARK INTER + INTRA:           8.703
REMARK INTER:                   8.249
REMARK INTRA:                   0.454
REMARK UNBOUND:                 0.454
REMARK SMILES CCCCCCCCCCCCCCCCCCCCCCCCCCCCCC(=O)[O-]
REMARK SMILES IDX 16 1 17 2 18 3 19 4 20 5 21 6 22 7 23 8 24 9 25 10 26 11
REMARK SMILES IDX 27 12 28 13 29 14 30 15 31 16 32 17 15 18 14 19 13 20 12 21
REMARK SMILES IDX 11 22 10 23 9 24 8 25 7 26 6 27 5 28 4 29 3 30 2 31 1 32
REMARK H PARENT
REMARK Flexibility Score: inf
ROOT
ATOM      1  C   UNL     1      26.092  28.398  23.468  1.00  0.00     0.000 C 
ENDROOT
BRANCH   1   2
ATOM      2  C   UNL     1      27.182  27.880  24.423  1.00  0.00     0.000 C 
BRANCH   2   3
ATOM      3  C   UNL     1      26.721  26.652  25.231  1.00  0.00     0.000 C 
BRANCH   3   4
ATOM      4  C   UNL     1      27.783  25.541  25.346  1.00  0.00     0.000 C 
BRANCH   4   5
ATOM      5  C   UNL     1      27.358  24.420  26.311  1.00  0.00     0.000 C 
BRANCH   5   6
ATOM      6  C   UNL     1      28.095  23.099  26.039  1.00  0.00     0.000 C 
BRANCH   6   7
ATOM      7  C   UNL     1      27.566  22.370  24.791  1.00  0.00     0.000 C 
BRANCH   7   8
ATOM      8  C   UNL     1      27.880  23.126  23.490  1.00  0.00     0.000 C 
BRANCH   8   9
ATOM      9  C   UNL     1      28.119  22.181  22.303  1.00  0.00     0.000 C 
BRANCH   9  10
ATOM     10  C   UNL     1      26.871  22.089  21.416  1.00  0.00     0.000 C 
BRANCH  10  11
ATOM     11  C   UNL     1      25.902  23.245  21.705  1.00  0.00     0.000 C 
BRANCH  11  12
ATOM     12  C   UNL     1      24.958  23.540  20.528  1.00  0.00     0.000 C 
BRANCH  12  13
ATOM     13  C   UNL     1      23.499  23.728  20.969  1.00  0.00     0.006 C 
BRANCH  13  14
ATOM     14  C   UNL     1      23.016  25.152  20.675  1.00  0.00     0.053 C 
BRANCH  14  15
ATOM     15  C   UNL     1      23.634  26.131  21.622  1.00  0.00     0.041 C 
ATOM     16  O   UNL     1      22.982  27.135  22.014  1.00  0.00    -0.550 OA
ATOM     17  O   UNL     1      24.939  25.942  22.067  1.00  0.00    -0.550 OA
ENDBRANCH  14  15
ENDBRANCH  13  14
ENDBRANCH  12  13
ENDBRANCH  11  12
ENDBRANCH  10  11
ENDBRANCH   9  10
ENDBRANCH   8   9
ENDBRANCH   7   8
ENDBRANCH   6   7
ENDBRANCH   5   6
ENDBRANCH   4   5
ENDBRANCH   3   4
ENDBRANCH   2   3
ENDBRANCH   1   2
BRANCH   1  18
ATOM     18  C   UNL     1      26.185  29.916  23.231  1.00  0.00     0.000 C 
BRANCH  18  19
ATOM     19  C   UNL     1      25.913  30.731  24.508  1.00  0.00     0.000 C 
BRANCH  19  20
ATOM     20  C   UNL     1      26.952  30.475  25.612  1.00  0.00     0.000 C 
BRANCH  20  21
ATOM     21  C   UNL     1      28.111  31.495  25.620  1.00  0.00     0.000 C 
BRANCH  21  22
ATOM     22  C   UNL     1      27.909  32.603  26.669  1.00  0.00     0.000 C 
BRANCH  22  23
ATOM     23  C   UNL     1      26.865  33.649  26.223  1.00  0.00     0.000 C 
BRANCH  23  24
ATOM     24  C   UNL     1      27.050  35.030  26.877  1.00  0.00    -0.000 C 
BRANCH  24  25
ATOM     25  C   UNL     1      27.038  36.216  25.897  1.00  0.00    -0.000 C 
BRANCH  25  26
ATOM     26  C   UNL     1      27.996  37.344  26.311  1.00  0.00    -0.000 C 
BRANCH  26  27
ATOM     27  C   UNL     1      28.122  38.389  25.195  1.00  0.00    -0.000 C 
BRANCH  27  28
ATOM     28  C   UNL     1      26.767  38.760  24.565  1.00  0.00    -0.000 C 
BRANCH  28  29
ATOM     29  C   UNL     1      26.748  38.766  23.022  1.00  0.00    -0.000 C 
BRANCH  29  30
ATOM     30  C   UNL     1      28.111  39.027  22.351  1.00  0.00    -0.000 C 
BRANCH  30  31
ATOM     31  C   UNL     1      28.042  39.805  21.023  1.00  0.00    -0.003 C 
ATOM     32  C   UNL     1      28.097  41.319  21.218  1.00  0.00     0.004 C 
ENDBRANCH  30  31
ENDBRANCH  29  30
ENDBRANCH  28  29
ENDBRANCH  27  28
ENDBRANCH  26  27
ENDBRANCH  25  26
ENDBRANCH  24  25
ENDBRANCH  23  24
ENDBRANCH  22  23
ENDBRANCH  21  22
ENDBRANCH  20  21
ENDBRANCH  19  20
ENDBRANCH  18  19
ENDBRANCH   1  18
TORSDOF 28
ENDMDL
MODEL 2
REMARK VINA RESULT:     3.272      1.826      2.327
REMARK INTER + INTRA:           9.081
REMARK INTER:                  10.181
REMARK INTRA:                  -1.099
REMARK UNBOUND:                 0.454
REMARK SMILES CCCCCCCCCCCCCCCCCCCCCCCCCCCCCC(=O)[O-]
REMARK SMILES IDX 16 1 17 2 18 3 19 4 20 5 21 6 22 7 23 8 24 9 25 10 26 11
REMARK SMILES IDX 27 12 28 13 29 14 30 15 31 16 32 17 15 18 14 19 13 20 12 21
REMARK SMILES IDX 11 22 10 23 9 24 8 25 7 26 6 27 5 28 4 29 3 30 2 31 1 32
REMARK H PARENT
REMARK Flexibility Score: inf
ROOT
ATOM      1  C   UNL     1      26.118  28.364  23.475  1.00  0.00     0.000 C 
ENDROOT
BRANCH   1   2
ATOM      2  C   UNL     1      27.196  27.860  24.451  1.00  0.00     0.000 C 
BRANCH   2   3
ATOM      3  C   UNL     1      26.699  26.694  25.327  1.00  0.00     0.000 C 
BRANCH   3   4
ATOM      4  C   UNL     1      27.756  25.603  25.580  1.00  0.00     0.000 C 
BRANCH   4   5
ATOM      5  C   UNL     1      27.288  24.557  26.608  1.00  0.00     0.000 C 
BRANCH   5   6
ATOM      6  C   UNL     1      27.887  23.166  26.347  1.00  0.00     0.000 C 
BRANCH   6   7
ATOM      7  C   UNL     1      27.204  22.435  25.178  1.00  0.00     0.000 C 
BRANCH   7   8
ATOM      8  C   UNL     1      27.490  23.098  23.821  1.00  0.00     0.000 C 
BRANCH   8   9
ATOM      9  C   UNL     1      26.929  22.290  22.642  1.00  0.00     0.000 C 
BRANCH   9  10
ATOM     10  C   UNL     1      25.675  22.959  22.065  1.00  0.00     0.000 C 
BRANCH  10  11
ATOM     11  C   UNL     1      25.540  24.404  22.569  1.00  0.00     0.000 C 
BRANCH  11  12
ATOM     12  C   UNL     1      25.477  25.431  21.427  1.00  0.00     0.000 C 
BRANCH  12  13
ATOM     13  C   UNL     1      26.859  25.977  21.041  1.00  0.00     0.006 C 
BRANCH  13  14
ATOM     14  C   UNL     1      27.834  24.835  20.733  1.00  0.00     0.053 C 
BRANCH  14  15
ATOM     15  C   UNL     1      27.730  24.417  19.301  1.00  0.00     0.041 C 
ATOM     16  O   UNL     1      28.110  25.192  18.384  1.00  0.00    -0.550 OA
ATOM     17  O   UNL     1      27.202  23.172  18.975  1.00  0.00    -0.550 OA
ENDBRANCH  14  15
ENDBRANCH  13  14
ENDBRANCH  12  13
ENDBRANCH  11  12
ENDBRANCH  10  11
ENDBRANCH   9  10
ENDBRANCH   8   9
ENDBRANCH   7   8
ENDBRANCH   6   7
ENDBRANCH   5   6
ENDBRANCH   4   5
ENDBRANCH   3   4
ENDBRANCH   2   3
ENDBRANCH   1   2
BRANCH   1  18
ATOM     18  C   UNL     1      26.288  29.851  23.122  1.00  0.00     0.000 C 
BRANCH  18  19
ATOM     19  C   UNL     1      26.114  30.772  24.342  1.00  0.00     0.000 C 
BRANCH  19  20
ATOM     20  C   UNL     1      27.112  30.463  25.470  1.00  0.00     0.000 C 
BRANCH  20  21
ATOM     21  C   UNL     1      28.119  31.602  25.738  1.00  0.00     0.000 C 
BRANCH  21  22
ATOM     22  C   UNL     1      27.660  32.534  26.874  1.00  0.00     0.000 C 
BRANCH  22  23
ATOM     23  C   UNL     1      26.667  33.610  26.385  1.00  0.00     0.000 C 
BRANCH  23  24
ATOM     24  C   UNL     1      26.659  34.887  27.246  1.00  0.00    -0.000 C 
BRANCH  24  25
ATOM     25  C   UNL     1      26.867  36.194  26.463  1.00  0.00    -0.000 C 
BRANCH  25  26
ATOM     26  C   UNL     1      27.676  37.239  27.247  1.00  0.00    -0.000 C 
BRANCH  26  27
ATOM     27  C   UNL     1      28.096  38.400  26.336  1.00  0.00    -0.000 C 
BRANCH  27  28
ATOM     28  C   UNL     1      26.912  39.289  25.914  1.00  0.00    -0.000 C 
BRANCH  28  29
ATOM     29  C   UNL     1      26.871  39.648  24.414  1.00  0.00    -0.000 C 
BRANCH  29  30
ATOM     30  C   UNL     1      28.092  39.182  23.595  1.00  0.00    -0.000 C 
BRANCH  30  31
ATOM     31  C   UNL     1      27.765  38.660  22.183  1.00  0.00    -0.003 C 
ATOM     32  C   UNL     1      27.484  37.158  22.155  1.00  0.00     0.004 C 
ENDBRANCH  30  31
ENDBRANCH  29  30
ENDBRANCH  28  29
ENDBRANCH  27  28
ENDBRANCH  26  27
ENDBRANCH  25  26
ENDBRANCH  24  25
ENDBRANCH  23  24
ENDBRANCH  22  23
ENDBRANCH  21  22
ENDBRANCH  20  21
ENDBRANCH  19  20
ENDBRANCH  18  19
ENDBRANCH   1  18
TORSDOF 28
ENDMDL
MODEL 3
REMARK VINA RESULT:     3.761     16.741     19.313
REMARK INTER + INTRA:          10.371
REMARK INTER:                   9.506
REMARK INTRA:                   0.865
REMARK UNBOUND:                 0.454
REMARK SMILES CCCCCCCCCCCCCCCCCCCCCCCCCCCCCC(=O)[O-]
REMARK SMILES IDX 16 1 17 2 18 3 19 4 20 5 21 6 22 7 23 8 24 9 25 10 26 11
REMARK SMILES IDX 27 12 28 13 29 14 30 15 31 16 32 17 15 18 14 19 13 20 12 21
REMARK SMILES IDX 11 22 10 23 9 24 8 25 7 26 6 27 5 28 4 29 3 30 2 31 1 32
REMARK H PARENT
REMARK Flexibility Score: inf
ROOT
ATOM      1  C   UNL     1      13.217  36.945  22.626  1.00  0.00     0.000 C 
ENDROOT
BRANCH   1   2
ATOM      2  C   UNL     1      13.630  36.864  21.146  1.00  0.00     0.000 C 
BRANCH   2   3
ATOM      3  C   UNL     1      13.171  38.092  20.338  1.00  0.00     0.000 C 
BRANCH   3   4
ATOM      4  C   UNL     1      12.860  37.791  18.859  1.00  0.00     0.000 C 
BRANCH   4   5
ATOM      5  C   UNL     1      11.599  36.925  18.688  1.00  0.00     0.000 C 
BRANCH   5   6
ATOM      6  C   UNL     1      11.493  35.824  19.755  1.00  0.00     0.000 C 
BRANCH   6   7
ATOM      7  C   UNL     1      10.042  35.561  20.195  1.00  0.00     0.000 C 
BRANCH   7   8
ATOM      8  C   UNL     1       9.826  35.819  21.695  1.00  0.00     0.000 C 
BRANCH   8   9
ATOM      9  C   UNL     1       8.475  35.286  22.195  1.00  0.00     0.000 C 
BRANCH   9  10
ATOM     10  C   UNL     1       8.239  33.850  21.712  1.00  0.00     0.000 C 
BRANCH  10  11
ATOM     11  C   UNL     1       8.966  32.839  22.612  1.00  0.00     0.000 C 
BRANCH  11  12
ATOM     12  C   UNL     1       9.779  33.511  23.729  1.00  0.00     0.000 C 
BRANCH  12  13
ATOM     13  C   UNL     1      11.246  33.055  23.755  1.00  0.00     0.006 C 
BRANCH  13  14
ATOM     14  C   UNL     1      11.821  33.136  25.173  1.00  0.00     0.053 C 
BRANCH  14  15
ATOM     15  C   UNL     1      11.895  34.555  25.638  1.00  0.00     0.041 C 
ATOM     16  O   UNL     1      10.885  35.112  26.145  1.00  0.00    -0.550 OA
ATOM     17  O   UNL     1      13.080  35.272  25.503  1.00  0.00    -0.550 OA
ENDBRANCH  14  15
ENDBRANCH  13  14
ENDBRANCH  12  13
ENDBRANCH  11  12
ENDBRANCH  10  11
ENDBRANCH   9  10
ENDBRANCH   8   9
ENDBRANCH   7   8
ENDBRANCH   6   7
ENDBRANCH   5   6
ENDBRANCH   4   5
ENDBRANCH   3   4
ENDBRANCH   2   3
ENDBRANCH   1   2
BRANCH   1  18
ATOM     18  C   UNL     1      13.010  38.393  23.104  1.00  0.00     0.000 C 
BRANCH  18  19
ATOM     19  C   UNL     1      11.694  38.576  23.881  1.00  0.00     0.000 C 
BRANCH  19  20
ATOM     20  C   UNL     1      10.658  37.484  23.565  1.00  0.00     0.000 C 
BRANCH  20  21
ATOM     21  C   UNL     1       9.460  37.467  24.538  1.00  0.00     0.000 C 
BRANCH  21  22
ATOM     22  C   UNL     1       9.074  38.878  25.018  1.00  0.00     0.000 C 
BRANCH  22  23
ATOM     23  C   UNL     1       7.991  38.848  26.117  1.00  0.00     0.000 C 
BRANCH  23  24
ATOM     24  C   UNL     1       8.436  39.483  27.447  1.00  0.00    -0.000 C 
BRANCH  24  25
ATOM     25  C   UNL     1       8.039  40.959  27.622  1.00  0.00    -0.000 C 
BRANCH  25  26
ATOM     26  C   UNL     1       8.842  41.667  28.724  1.00  0.00    -0.000 C 
BRANCH  26  27
ATOM     27  C   UNL     1       8.021  41.770  30.016  1.00  0.00    -0.000 C 
BRANCH  27  28
ATOM     28  C   UNL     1       8.878  42.125  31.245  1.00  0.00    -0.000 C 
BRANCH  28  29
ATOM     29  C   UNL     1       8.191  41.891  32.606  1.00  0.00    -0.000 C 
BRANCH  29  30
ATOM     30  C   UNL     1       8.218  40.435  33.113  1.00  0.00    -0.000 C 
BRANCH  30  31
ATOM     31  C   UNL     1       9.604  39.762  33.080  1.00  0.00    -0.003 C 
ATOM     32  C   UNL     1      10.686  40.660  32.481  1.00  0.00     0.004 C 
ENDBRANCH  30  31
ENDBRANCH  29  30
ENDBRANCH  28  29
ENDBRANCH  27  28
ENDBRANCH  26  27
ENDBRANCH  25  26
ENDBRANCH  24  25
ENDBRANCH  23  24
ENDBRANCH  22  23
ENDBRANCH  21  22
ENDBRANCH  20  21
ENDBRANCH  19  20
ENDBRANCH  18  19
ENDBRANCH   1  18
TORSDOF 28
ENDMDL
MODEL 4
REMARK VINA RESULT:     4.715      9.976     15.198
REMARK INTER + INTRA:          12.887
REMARK INTER:                  14.806
REMARK INTRA:                  -1.919
REMARK UNBOUND:                 0.454
REMARK SMILES CCCCCCCCCCCCCCCCCCCCCCCCCCCCCC(=O)[O-]
REMARK SMILES IDX 16 1 17 2 18 3 19 4 20 5 21 6 22 7 23 8 24 9 25 10 26 11
REMARK SMILES IDX 27 12 28 13 29 14 30 15 31 16 32 17 15 18 14 19 13 20 12 21
REMARK SMILES IDX 11 22 10 23 9 24 8 25 7 26 6 27 5 28 4 29 3 30 2 31 1 32
REMARK H PARENT
REMARK Flexibility Score: inf
ROOT
ATOM      1  C   UNL     1      19.189  31.693  23.737  1.00  0.00     0.000 C 
ENDROOT
BRANCH   1   2
ATOM      2  C   UNL     1      17.748  32.136  24.048  1.00  0.00     0.000 C 
BRANCH   2   3
ATOM      3  C   UNL     1      17.148  33.013  22.934  1.00  0.00     0.000 C 
BRANCH   3   4
ATOM      4  C   UNL     1      15.708  33.485  23.212  1.00  0.00     0.000 C 
BRANCH   4   5
ATOM      5  C   UNL     1      15.078  34.196  22.001  1.00  0.00     0.000 C 
BRANCH   5   6
ATOM      6  C   UNL     1      13.818  34.991  22.376  1.00  0.00     0.000 C 
BRANCH   6   7
ATOM      7  C   UNL     1      13.346  35.924  21.246  1.00  0.00     0.000 C 
BRANCH   7   8
ATOM      8  C   UNL     1      12.261  36.909  21.710  1.00  0.00     0.000 C 
BRANCH   8   9
ATOM      9  C   UNL     1      12.287  37.141  23.228  1.00  0.00     0.000 C 
BRANCH   9  10
ATOM     10  C   UNL     1      11.012  36.602  23.888  1.00  0.00     0.000 C 
BRANCH  10  11
ATOM     11  C   UNL     1       9.985  36.167  22.832  1.00  0.00     0.000 C 
BRANCH  11  12
ATOM     12  C   UNL     1       9.576  34.692  22.970  1.00  0.00     0.000 C 
BRANCH  12  13
ATOM     13  C   UNL     1      10.782  33.741  23.000  1.00  0.00     0.006 C 
BRANCH  13  14
ATOM     14  C   UNL     1      10.631  32.701  24.116  1.00  0.00     0.053 C 
BRANCH  14  15
ATOM     15  C   UNL     1      11.258  33.186  25.384  1.00  0.00     0.041 C 
ATOM     16  O   UNL     1      10.732  32.916  26.497  1.00  0.00    -0.550 OA
ATOM     17  O   UNL     1      12.420  33.948  25.341  1.00  0.00    -0.550 OA
ENDBRANCH  14  15
ENDBRANCH  13  14
ENDBRANCH  12  13
ENDBRANCH  11  12
ENDBRANCH  10  11
ENDBRANCH   9  10
ENDBRANCH   8   9
ENDBRANCH   7   8
ENDBRANCH   6   7
ENDBRANCH   5   6
ENDBRANCH   4   5
ENDBRANCH   3   4
ENDBRANCH   2   3
ENDBRANCH   1   2
BRANCH   1  18
ATOM     18  C   UNL     1      19.325  31.059  22.342  1.00  0.00     0.000 C 
BRANCH  18  19
ATOM     19  C   UNL     1      19.688  29.565  22.405  1.00  0.00     0.000 C 
BRANCH  19  20
ATOM     20  C   UNL     1      21.148  29.289  22.008  1.00  0.00     0.000 C 
BRANCH  20  21
ATOM     21  C   UNL     1      21.642  27.881  22.404  1.00  0.00     0.000 C 
BRANCH  21  22
ATOM     22  C   UNL     1      23.044  27.575  21.847  1.00  0.00     0.000 C 
BRANCH  22  23
ATOM     23  C   UNL     1      23.421  26.085  21.995  1.00  0.00     0.000 C 
BRANCH  23  24
ATOM     24  C   UNL     1      23.525  25.334  20.655  1.00  0.00    -0.000 C 
BRANCH  24  25
ATOM     25  C   UNL     1      23.642  23.805  20.780  1.00  0.00    -0.000 C 
BRANCH  25  26
ATOM     26  C   UNL     1      24.159  23.355  22.155  1.00  0.00    -0.000 C 
BRANCH  26  27
ATOM     27  C   UNL     1      25.623  22.906  22.067  1.00  0.00    -0.000 C 
BRANCH  27  28
ATOM     28  C   UNL     1      26.603  23.934  22.661  1.00  0.00    -0.000 C 
BRANCH  28  29
ATOM     29  C   UNL     1      27.591  23.366  23.700  1.00  0.00    -0.000 C 
BRANCH  29  30
ATOM     30  C   UNL     1      26.945  22.566  24.849  1.00  0.00    -0.000 C 
BRANCH  30  31
ATOM     31  C   UNL     1      27.312  23.052  26.264  1.00  0.00    -0.003 C 
ATOM     32  C   UNL     1      27.664  24.538  26.309  1.00  0.00     0.004 C 
ENDBRANCH  30  31
ENDBRANCH  29  30
ENDBRANCH  28  29
ENDBRANCH  27  28
ENDBRANCH  26  27
ENDBRANCH  25  26
ENDBRANCH  24  25
ENDBRANCH  23  24
ENDBRANCH  22  23
ENDBRANCH  21  22
ENDBRANCH  20  21
ENDBRANCH  19  20
ENDBRANCH  18  19
ENDBRANCH   1  18
TORSDOF 28
ENDMDL
MODEL 5
REMARK VINA RESULT:     4.889      8.815     13.306
REMARK INTER + INTRA:          13.346
REMARK INTER:                  14.958
REMARK INTRA:                  -1.612
REMARK UNBOUND:                 0.454
REMARK SMILES CCCCCCCCCCCCCCCCCCCCCCCCCCCCCC(=O)[O-]
REMARK SMILES IDX 16 1 17 2 18 3 19 4 20 5 21 6 22 7 23 8 24 9 25 10 26 11
REMARK SMILES IDX 27 12 28 13 29 14 30 15 31 16 32 17 15 18 14 19 13 20 12 21
REMARK SMILES IDX 11 22 10 23 9 24 8 25 7 26 6 27 5 28 4 29 3 30 2 31 1 32
REMARK H PARENT
REMARK Flexibility Score: inf
ROOT
ATOM      1  C   UNL     1      22.036  31.641  24.617  1.00  0.00     0.000 C 
ENDROOT
BRANCH   1   2
ATOM      2  C   UNL     1      20.896  32.648  24.373  1.00  0.00     0.000 C 
BRANCH   2   3
ATOM      3  C   UNL     1      19.516  31.968  24.299  1.00  0.00     0.000 C 
BRANCH   3   4
ATOM      4  C   UNL     1      19.055  31.637  22.867  1.00  0.00     0.000 C 
BRANCH   4   5
ATOM      5  C   UNL     1      18.361  32.829  22.183  1.00  0.00     0.000 C 
BRANCH   5   6
ATOM      6  C   UNL     1      17.074  33.254  22.907  1.00  0.00     0.000 C 
BRANCH   6   7
ATOM      7  C   UNL     1      15.917  33.550  21.937  1.00  0.00     0.000 C 
BRANCH   7   8
ATOM      8  C   UNL     1      14.875  34.507  22.538  1.00  0.00     0.000 C 
BRANCH   8   9
ATOM      9  C   UNL     1      13.863  35.005  21.496  1.00  0.00     0.000 C 
BRANCH   9  10
ATOM     10  C   UNL     1      13.447  36.453  21.781  1.00  0.00     0.000 C 
BRANCH  10  11
ATOM     11  C   UNL     1      12.481  36.525  22.973  1.00  0.00     0.000 C 
BRANCH  11  12
ATOM     12  C   UNL     1      11.007  36.403  22.555  1.00  0.00     0.000 C 
BRANCH  12  13
ATOM     13  C   UNL     1      10.290  35.230  23.240  1.00  0.00     0.006 C 
BRANCH  13  14
ATOM     14  C   UNL     1      11.074  33.926  23.058  1.00  0.00     0.053 C 
BRANCH  14  15
ATOM     15  C   UNL     1      10.682  32.920  24.094  1.00  0.00     0.041 C 
ATOM     16  O   UNL     1       9.882  31.990  23.806  1.00  0.00    -0.550 OA
ATOM     17  O   UNL     1      11.193  33.013  25.384  1.00  0.00    -0.550 OA
ENDBRANCH  14  15
ENDBRANCH  13  14
ENDBRANCH  12  13
ENDBRANCH  11  12
ENDBRANCH  10  11
ENDBRANCH   9  10
ENDBRANCH   8   9
ENDBRANCH   7   8
ENDBRANCH   6   7
ENDBRANCH   5   6
ENDBRANCH   4   5
ENDBRANCH   3   4
ENDBRANCH   2   3
ENDBRANCH   1   2
BRANCH   1  18
ATOM     18  C   UNL     1      23.428  32.282  24.491  1.00  0.00     0.000 C 
BRANCH  18  19
ATOM     19  C   UNL     1      24.562  31.309  24.857  1.00  0.00     0.000 C 
BRANCH  19  20
ATOM     20  C   UNL     1      25.697  31.985  25.644  1.00  0.00     0.000 C 
BRANCH  20  21
ATOM     21  C   UNL     1      27.109  31.563  25.183  1.00  0.00     0.000 C 
BRANCH  21  22
ATOM     22  C   UNL     1      27.459  30.126  25.611  1.00  0.00     0.000 C 
BRANCH  22  23
ATOM     23  C   UNL     1      27.829  29.230  24.409  1.00  0.00     0.000 C 
BRANCH  23  24
ATOM     24  C   UNL     1      26.670  28.346  23.912  1.00  0.00    -0.000 C 
BRANCH  24  25
ATOM     25  C   UNL     1      27.037  27.382  22.771  1.00  0.00    -0.000 C 
BRANCH  25  26
ATOM     26  C   UNL     1      27.734  26.106  23.267  1.00  0.00    -0.000 C 
BRANCH  26  27
ATOM     27  C   UNL     1      26.856  24.873  23.019  1.00  0.00    -0.000 C 
BRANCH  27  28
ATOM     28  C   UNL     1      27.186  24.157  21.697  1.00  0.00    -0.000 C 
BRANCH  28  29
ATOM     29  C   UNL     1      26.070  24.210  20.633  1.00  0.00    -0.000 C 
BRANCH  29  30
ATOM     30  C   UNL     1      24.731  23.574  21.055  1.00  0.00    -0.000 C 
BRANCH  30  31
ATOM     31  C   UNL     1      23.514  24.516  20.981  1.00  0.00    -0.003 C 
ATOM     32  C   UNL     1      23.829  25.933  21.459  1.00  0.00     0.004 C 
ENDBRANCH  30  31
ENDBRANCH  29  30
ENDBRANCH  28  29
ENDBRANCH  27  28
ENDBRANCH  26  27
ENDBRANCH  25  26
ENDBRANCH  24  25
ENDBRANCH  23  24
ENDBRANCH  22  23
ENDBRANCH  21  22
ENDBRANCH  20  21
ENDBRANCH  19  20
ENDBRANCH  18  19
ENDBRANCH   1  18
TORSDOF 28
ENDMDL
MODEL 6
REMARK VINA RESULT:     4.976      8.529     10.135
REMARK INTER + INTRA:          13.576
REMARK INTER:                  15.909
REMARK INTRA:                  -2.333
REMARK UNBOUND:                 0.454
REMARK SMILES CCCCCCCCCCCCCCCCCCCCCCCCCCCCCC(=O)[O-]
REMARK SMILES IDX 16 1 17 2 18 3 19 4 20 5 21 6 22 7 23 8 24 9 25 10 26 11
REMARK SMILES IDX 27 12 28 13 29 14 30 15 31 16 32 17 15 18 14 19 13 20 12 21
REMARK SMILES IDX 11 22 10 23 9 24 8 25 7 26 6 27 5 28 4 29 3 30 2 31 1 32
REMARK H PARENT
REMARK Flexibility Score: inf
ROOT
ATOM      1  C   UNL     1      21.177  28.545  22.572  1.00  0.00     0.000 C 
ENDROOT
BRANCH   1   2
ATOM      2  C   UNL     1      22.498  28.121  21.905  1.00  0.00     0.000 C 
BRANCH   2   3
ATOM      3  C   UNL     1      22.693  26.594  21.903  1.00  0.00     0.000 C 
BRANCH   3   4
ATOM      4  C   UNL     1      24.013  26.130  21.258  1.00  0.00     0.000 C 
BRANCH   4   5
ATOM      5  C   UNL     1      25.104  25.832  22.304  1.00  0.00     0.000 C 
BRANCH   5   6
ATOM      6  C   UNL     1      25.850  27.098  22.752  1.00  0.00     0.000 C 
BRANCH   6   7
ATOM      7  C   UNL     1      26.755  26.854  23.972  1.00  0.00     0.000 C 
BRANCH   7   8
ATOM      8  C   UNL     1      27.728  25.684  23.759  1.00  0.00     0.000 C 
BRANCH   8   9
ATOM      9  C   UNL     1      27.698  24.675  24.917  1.00  0.00     0.000 C 
BRANCH   9  10
ATOM     10  C   UNL     1      27.820  23.238  24.396  1.00  0.00     0.000 C 
BRANCH  10  11
ATOM     11  C   UNL     1      26.481  22.739  23.833  1.00  0.00     0.000 C 
BRANCH  11  12
ATOM     12  C   UNL     1      26.593  22.234  22.386  1.00  0.00     0.000 C 
BRANCH  12  13
ATOM     13  C   UNL     1      27.867  22.723  21.682  1.00  0.00     0.006 C 
BRANCH  13  14
ATOM     14  C   UNL     1      27.657  22.813  20.167  1.00  0.00     0.053 C 
BRANCH  14  15
ATOM     15  C   UNL     1      27.252  24.196  19.767  1.00  0.00     0.041 C 
ATOM     16  O   UNL     1      27.871  25.196  20.220  1.00  0.00    -0.550 OA
ATOM     17  O   UNL     1      26.183  24.386  18.898  1.00  0.00    -0.550 OA
ENDBRANCH  14  15
ENDBRANCH  13  14
ENDBRANCH  12  13
ENDBRANCH  11  12
ENDBRANCH  10  11
ENDBRANCH   9  10
ENDBRANCH   8   9
ENDBRANCH   7   8
ENDBRANCH   6   7
ENDBRANCH   5   6
ENDBRANCH   4   5
ENDBRANCH   3   4
ENDBRANCH   2   3
ENDBRANCH   1   2
BRANCH   1  18
ATOM     18  C   UNL     1      20.603  29.842  21.976  1.00  0.00     0.000 C 
BRANCH  18  19
ATOM     19  C   UNL     1      19.209  30.182  22.531  1.00  0.00     0.000 C 
BRANCH  19  20
ATOM     20  C   UNL     1      19.144  31.580  23.167  1.00  0.00     0.000 C 
BRANCH  20  21
ATOM     21  C   UNL     1      18.422  32.627  22.292  1.00  0.00     0.000 C 
BRANCH  21  22
ATOM     22  C   UNL     1      17.103  33.108  22.923  1.00  0.00     0.000 C 
BRANCH  22  23
ATOM     23  C   UNL     1      16.087  33.587  21.865  1.00  0.00     0.000 C 
BRANCH  23  24
ATOM     24  C   UNL     1      14.842  34.270  22.462  1.00  0.00    -0.000 C 
BRANCH  24  25
ATOM     25  C   UNL     1      13.842  34.810  21.425  1.00  0.00    -0.000 C 
BRANCH  25  26
ATOM     26  C   UNL     1      13.480  36.285  21.655  1.00  0.00    -0.000 C 
BRANCH  26  27
ATOM     27  C   UNL     1      11.965  36.455  21.824  1.00  0.00    -0.000 C 
BRANCH  27  28
ATOM     28  C   UNL     1      11.555  36.773  23.274  1.00  0.00    -0.000 C 
BRANCH  28  29
ATOM     29  C   UNL     1      10.723  35.676  23.970  1.00  0.00    -0.000 C 
BRANCH  29  30
ATOM     30  C   UNL     1      10.767  34.291  23.293  1.00  0.00    -0.000 C 
BRANCH  30  31
ATOM     31  C   UNL     1      10.791  33.095  24.264  1.00  0.00    -0.003 C 
ATOM     32  C   UNL     1      11.317  33.466  25.650  1.00  0.00     0.004 C 
ENDBRANCH  30  31
ENDBRANCH  29  30
ENDBRANCH  28  29
ENDBRANCH  27  28
ENDBRANCH  26  27
ENDBRANCH  25  26
ENDBRANCH  24  25
ENDBRANCH  23  24
ENDBRANCH  22  23
ENDBRANCH  21  22
ENDBRANCH  20  21
ENDBRANCH  19  20
ENDBRANCH  18  19
ENDBRANCH   1  18
TORSDOF 28
ENDMDL
MODEL 7
REMARK VINA RESULT:     4.993      9.258     11.116
REMARK INTER + INTRA:          13.620
REMARK INTER:                  14.994
REMARK INTRA:                  -1.374
REMARK UNBOUND:                 0.454
REMARK SMILES CCCCCCCCCCCCCCCCCCCCCCCCCCCCCC(=O)[O-]
REMARK SMILES IDX 16 1 17 2 18 3 19 4 20 5 21 6 22 7 23 8 24 9 25 10 26 11
REMARK SMILES IDX 27 12 28 13 29 14 30 15 31 16 32 17 15 18 14 19 13 20 12 21
REMARK SMILES IDX 11 22 10 23 9 24 8 25 7 26 6 27 5 28 4 29 3 30 2 31 1 32
REMARK H PARENT
REMARK Flexibility Score: inf
ROOT
ATOM      1  C   UNL     1      19.804  32.015  24.487  1.00  0.00     0.000 C 
ENDROOT
BRANCH   1   2
ATOM      2  C   UNL     1      21.232  32.581  24.372  1.00  0.00     0.000 C 
BRANCH   2   3
ATOM      3  C   UNL     1      22.311  31.498  24.556  1.00  0.00     0.000 C 
BRANCH   3   4
ATOM      4  C   UNL     1      23.753  32.038  24.534  1.00  0.00     0.000 C 
BRANCH   4   5
ATOM      5  C   UNL     1      24.793  30.951  24.863  1.00  0.00     0.000 C 
BRANCH   5   6
ATOM      6  C   UNL     1      26.090  31.535  25.444  1.00  0.00     0.000 C 
BRANCH   6   7
ATOM      7  C   UNL     1      27.352  30.885  24.850  1.00  0.00     0.000 C 
BRANCH   7   8
ATOM      8  C   UNL     1      27.406  29.369  25.096  1.00  0.00     0.000 C 
BRANCH   8   9
ATOM      9  C   UNL     1      27.075  28.556  23.836  1.00  0.00     0.000 C 
BRANCH   9  10
ATOM     10  C   UNL     1      27.112  27.051  24.128  1.00  0.00     0.000 C 
BRANCH  10  11
ATOM     11  C   UNL     1      27.392  26.248  22.849  1.00  0.00     0.000 C 
BRANCH  11  12
ATOM     12  C   UNL     1      26.187  25.406  22.398  1.00  0.00     0.000 C 
BRANCH  12  13
ATOM     13  C   UNL     1      26.291  24.957  20.933  1.00  0.00     0.006 C 
BRANCH  13  14
ATOM     14  C   UNL     1      25.062  24.138  20.522  1.00  0.00     0.053 C 
BRANCH  14  15
ATOM     15  C   UNL     1      23.866  24.532  21.328  1.00  0.00     0.041 C 
ATOM     16  O   UNL     1      23.319  25.652  21.148  1.00  0.00    -0.550 OA
ATOM     17  O   UNL     1      23.356  23.665  22.290  1.00  0.00    -0.550 OA
ENDBRANCH  14  15
ENDBRANCH  13  14
ENDBRANCH  12  13
ENDBRANCH  11  12
ENDBRANCH  10  11
ENDBRANCH   9  10
ENDBRANCH   8   9
ENDBRANCH   7   8
ENDBRANCH   6   7
ENDBRANCH   5   6
ENDBRANCH   4   5
ENDBRANCH   3   4
ENDBRANCH   2   3
ENDBRANCH   1   2
BRANCH   1  18
ATOM     18  C   UNL     1      19.265  31.493  23.144  1.00  0.00     0.000 C 
BRANCH  18  19
ATOM     19  C   UNL     1      18.565  32.588  22.321  1.00  0.00     0.000 C 
BRANCH  19  20
ATOM     20  C   UNL     1      17.228  33.033  22.936  1.00  0.00     0.000 C 
BRANCH  20  21
ATOM     21  C   UNL     1      16.235  33.613  21.906  1.00  0.00     0.000 C 
BRANCH  21  22
ATOM     22  C   UNL     1      15.006  34.256  22.576  1.00  0.00     0.000 C 
BRANCH  22  23
ATOM     23  C   UNL     1      13.857  34.506  21.575  1.00  0.00     0.000 C 
BRANCH  23  24
ATOM     24  C   UNL     1      13.408  35.977  21.499  1.00  0.00    -0.000 C 
BRANCH  24  25
ATOM     25  C   UNL     1      11.945  36.183  21.070  1.00  0.00    -0.000 C 
BRANCH  25  26
ATOM     26  C   UNL     1      10.956  36.064  22.240  1.00  0.00    -0.000 C 
BRANCH  26  27
ATOM     27  C   UNL     1      11.491  36.790  23.482  1.00  0.00    -0.000 C 
BRANCH  27  28
ATOM     28  C   UNL     1      11.080  36.107  24.799  1.00  0.00    -0.000 C 
BRANCH  28  29
ATOM     29  C   UNL     1      12.010  34.965  25.257  1.00  0.00    -0.000 C 
BRANCH  29  30
ATOM     30  C   UNL     1      11.955  33.688  24.396  1.00  0.00    -0.000 C 
BRANCH  30  31
ATOM     31  C   UNL     1      10.761  32.759  24.689  1.00  0.00    -0.003 C 
ATOM     32  C   UNL     1       9.941  32.433  23.442  1.00  0.00     0.004 C 
ENDBRANCH  30  31
ENDBRANCH  29  30
ENDBRANCH  28  29
ENDBRANCH  27  28
ENDBRANCH  26  27
ENDBRANCH  25  26
ENDBRANCH  24  25
ENDBRANCH  23  24
ENDBRANCH  22  23
ENDBRANCH  21  22
ENDBRANCH  20  21
ENDBRANCH  19  20
ENDBRANCH  18  19
ENDBRANCH   1  18
TORSDOF 28
ENDMDL
MODEL 8
REMARK VINA RESULT:     5.096      8.982     10.747
REMARK INTER + INTRA:          13.891
REMARK INTER:                  15.814
REMARK INTRA:                  -1.923
REMARK UNBOUND:                 0.454
REMARK SMILES CCCCCCCCCCCCCCCCCCCCCCCCCCCCCC(=O)[O-]
REMARK SMILES IDX 16 1 17 2 18 3 19 4 20 5 21 6 22 7 23 8 24 9 25 10 26 11
REMARK SMILES IDX 27 12 28 13 29 14 30 15 31 16 32 17 15 18 14 19 13 20 12 21
REMARK SMILES IDX 11 22 10 23 9 24 8 25 7 26 6 27 5 28 4 29 3 30 2 31 1 32
REMARK H PARENT
REMARK Flexibility Score: inf
ROOT
ATOM      1  C   UNL     1      20.178  29.253  22.461  1.00  0.00     0.000 C 
ENDROOT
BRANCH   1   2
ATOM      2  C   UNL     1      21.543  28.832  21.887  1.00  0.00     0.000 C 
BRANCH   2   3
ATOM      3  C   UNL     1      21.968  27.426  22.351  1.00  0.00     0.000 C 
BRANCH   3   4
ATOM      4  C   UNL     1      23.315  26.954  21.770  1.00  0.00     0.000 C 
BRANCH   4   5
ATOM      5  C   UNL     1      23.471  25.423  21.820  1.00  0.00     0.000 C 
BRANCH   5   6
ATOM      6  C   UNL     1      24.002  24.843  20.499  1.00  0.00     0.000 C 
BRANCH   6   7
ATOM      7  C   UNL     1      24.965  23.662  20.713  1.00  0.00     0.000 C 
BRANCH   7   8
ATOM      8  C   UNL     1      26.439  24.071  20.567  1.00  0.00     0.000 C 
BRANCH   8   9
ATOM      9  C   UNL     1      27.317  23.518  21.700  1.00  0.00     0.000 C 
BRANCH   9  10
ATOM     10  C   UNL     1      26.606  23.636  23.053  1.00  0.00     0.000 C 
BRANCH  10  11
ATOM     11  C   UNL     1      27.506  24.325  24.091  1.00  0.00     0.000 C 
BRANCH  11  12
ATOM     12  C   UNL     1      27.869  25.766  23.701  1.00  0.00     0.000 C 
BRANCH  12  13
ATOM     13  C   UNL     1      27.579  26.777  24.821  1.00  0.00     0.006 C 
BRANCH  13  14
ATOM     14  C   UNL     1      27.790  28.214  24.331  1.00  0.00     0.053 C 
BRANCH  14  15
ATOM     15  C   UNL     1      26.495  28.826  23.903  1.00  0.00     0.041 C 
ATOM     16  O   UNL     1      26.024  28.582  22.760  1.00  0.00    -0.550 OA
ATOM     17  O   UNL     1      25.808  29.678  24.761  1.00  0.00    -0.550 OA
ENDBRANCH  14  15
ENDBRANCH  13  14
ENDBRANCH  12  13
ENDBRANCH  11  12
ENDBRANCH  10  11
ENDBRANCH   9  10
ENDBRANCH   8   9
ENDBRANCH   7   8
ENDBRANCH   6   7
ENDBRANCH   5   6
ENDBRANCH   4   5
ENDBRANCH   3   4
ENDBRANCH   2   3
ENDBRANCH   1   2
BRANCH   1  18
ATOM     18  C   UNL     1      19.781  30.683  22.055  1.00  0.00     0.000 C 
BRANCH  18  19
ATOM     19  C   UNL     1      18.974  31.405  23.148  1.00  0.00     0.000 C 
BRANCH  19  20
ATOM     20  C   UNL     1      18.327  32.708  22.649  1.00  0.00     0.000 C 
BRANCH  20  21
ATOM     21  C   UNL     1      16.872  32.901  23.128  1.00  0.00     0.000 C 
BRANCH  21  22
ATOM     22  C   UNL     1      16.058  33.800  22.180  1.00  0.00     0.000 C 
BRANCH  22  23
ATOM     23  C   UNL     1      14.618  34.033  22.686  1.00  0.00     0.000 C 
BRANCH  23  24
ATOM     24  C   UNL     1      13.986  35.344  22.181  1.00  0.00    -0.000 C 
BRANCH  24  25
ATOM     25  C   UNL     1      12.685  35.166  21.381  1.00  0.00    -0.000 C 
BRANCH  25  26
ATOM     26  C   UNL     1      11.855  36.457  21.294  1.00  0.00    -0.000 C 
BRANCH  26  27
ATOM     27  C   UNL     1      11.511  36.979  22.695  1.00  0.00    -0.000 C 
BRANCH  27  28
ATOM     28  C   UNL     1      10.560  36.046  23.467  1.00  0.00    -0.000 C 
BRANCH  28  29
ATOM     29  C   UNL     1      11.195  35.321  24.670  1.00  0.00    -0.000 C 
BRANCH  29  30
ATOM     30  C   UNL     1      11.391  33.802  24.492  1.00  0.00    -0.000 C 
BRANCH  30  31
ATOM     31  C   UNL     1      10.638  33.186  23.297  1.00  0.00    -0.003 C 
ATOM     32  C   UNL     1       9.901  31.898  23.659  1.00  0.00     0.004 C 
ENDBRANCH  30  31
ENDBRANCH  29  30
ENDBRANCH  28  29
ENDBRANCH  27  28
ENDBRANCH  26  27
ENDBRANCH  25  26
ENDBRANCH  24  25
ENDBRANCH  23  24
ENDBRANCH  22  23
ENDBRANCH  21  22
ENDBRANCH  20  21
ENDBRANCH  19  20
ENDBRANCH  18  19
ENDBRANCH   1  18
TORSDOF 28
ENDMDL
