MODEL 1
REMARK VINA RESULT:    -8.038      0.000      0.000
REMARK INTER + INTRA:          -9.525
REMARK INTER:                  -9.682
REMARK INTRA:                   0.157
REMARK UNBOUND:                 0.157
REMARK SMILES O=c1c(O)c(-c2ccc(O)c(O)c2)oc2cc(O)cc(O)c12
REMARK SMILES IDX 5 1 3 2 2 3 1 4 22 5 20 6 19 7 17 8 16 9 15 10 14 11 6 12
REMARK SMILES IDX 7 13 8 14 9 15 13 16 11 17 10 18 12 20 4 22 21 24 18 26
REMARK H PARENT 10 19 12 21 4 23 21 25 18 27
REMARK Flexibility Score: inf
ROOT
ATOM      1  C   UNL     1      17.888  -3.356  69.148  1.00  0.00     0.180 A 
ATOM      2  C   UNL     1      18.916  -3.809  68.302  1.00  0.00     0.208 A 
ATOM      3  C   UNL     1      18.608  -4.734  67.292  1.00  0.00     0.238 A 
ATOM      4  O   UNL     1      19.521  -5.094  66.505  1.00  0.00    -0.285 OA
ATOM      5  C   UNL     1      17.281  -5.208  67.151  1.00  0.00     0.111 A 
ATOM      6  C   UNL     1      16.866  -6.176  66.188  1.00  0.00     0.134 A 
ATOM      7  C   UNL     1      15.504  -6.474  66.052  1.00  0.00     0.093 A 
ATOM      8  C   UNL     1      14.552  -5.888  66.886  1.00  0.00     0.123 A 
ATOM      9  C   UNL     1      14.955  -4.985  67.870  1.00  0.00     0.094 A 
ATOM     10  C   UNL     1      16.301  -4.640  68.006  1.00  0.00     0.146 A 
ATOM     11  O   UNL     1      16.642  -3.768  68.948  1.00  0.00    -0.452 OA
ENDROOT
BRANCH   1  12
ATOM     12  C   UNL     1      18.138  -2.401  70.251  1.00  0.00     0.025 A 
ATOM     13  C   UNL     1      19.299  -2.533  71.029  1.00  0.00     0.016 A 
ATOM     14  C   UNL     1      19.567  -1.631  72.062  1.00  0.00     0.051 A 
ATOM     15  C   UNL     1      18.685  -0.574  72.321  1.00  0.00     0.157 A 
ATOM     16  C   UNL     1      17.266  -1.326  70.502  1.00  0.00     0.062 A 
ATOM     17  C   UNL     1      17.534  -0.419  71.538  1.00  0.00     0.158 A 
BRANCH  15  18
ATOM     18  O   UNL     1      18.946   0.327  73.352  1.00  0.00    -0.504 OA
ATOM     19  H   UNL     1      19.838   0.802  73.427  1.00  0.00     0.293 HD
ENDBRANCH  15  18
BRANCH  17  20
ATOM     20  O   UNL     1      16.666   0.642  71.790  1.00  0.00    -0.504 OA
ATOM     21  H   UNL     1      16.886   1.355  72.476  1.00  0.00     0.293 HD
ENDBRANCH  17  20
ENDBRANCH   1  12
BRANCH   2  22
ATOM     22  O   UNL     1      20.214  -3.311  68.446  1.00  0.00    -0.502 OA
ATOM     23  H   UNL     1      20.579  -2.569  67.861  1.00  0.00     0.293 HD
ENDBRANCH   2  22
BRANCH   6  24
ATOM     24  O   UNL     1      17.745  -6.890  65.367  1.00  0.00    -0.507 OA
ATOM     25  H   UNL     1      18.064  -6.580  64.462  1.00  0.00     0.293 HD
ENDBRANCH   6  24
BRANCH   8  26
ATOM     26  O   UNL     1      13.208  -6.219  66.732  1.00  0.00    -0.508 OA
ATOM     27  H   UNL     1      12.482  -5.747  67.259  1.00  0.00     0.293 HD
ENDBRANCH   8  26
TORSDOF 6
ENDMDL
MODEL 2
REMARK VINA RESULT:    -7.774      1.359      6.652
REMARK INTER + INTRA:          -9.208
REMARK INTER:                  -8.888
REMARK INTRA:                  -0.320
REMARK UNBOUND:                 0.157
REMARK SMILES O=c1c(O)c(-c2ccc(O)c(O)c2)oc2cc(O)cc(O)c12
REMARK SMILES IDX 5 1 3 2 2 3 1 4 22 5 20 6 19 7 17 8 16 9 15 10 14 11 6 12
REMARK SMILES IDX 7 13 8 14 9 15 13 16 11 17 10 18 12 20 4 22 21 24 18 26
REMARK H PARENT 10 19 12 21 4 23 21 25 18 27
REMARK Flexibility Score: inf
ROOT
ATOM      1  C   UNL     1      17.098  -3.974  68.651  1.00  0.00     0.180 A 
ATOM      2  C   UNL     1      18.472  -4.108  68.382  1.00  0.00     0.208 A 
ATOM      3  C   UNL     1      19.368  -3.181  68.937  1.00  0.00     0.238 A 
ATOM      4  O   UNL     1      20.600  -3.338  68.738  1.00  0.00    -0.285 OA
ATOM      5  C   UNL     1      18.878  -2.122  69.739  1.00  0.00     0.111 A 
ATOM      6  C   UNL     1      19.692  -1.102  70.319  1.00  0.00     0.134 A 
ATOM      7  C   UNL     1      19.118  -0.179  71.202  1.00  0.00     0.093 A 
ATOM      8  C   UNL     1      17.751  -0.197  71.473  1.00  0.00     0.123 A 
ATOM      9  C   UNL     1      16.936  -1.154  70.865  1.00  0.00     0.094 A 
ATOM     10  C   UNL     1      17.485  -2.110  70.010  1.00  0.00     0.146 A 
ATOM     11  O   UNL     1      16.678  -3.009  69.460  1.00  0.00    -0.452 OA
ENDROOT
BRANCH   1  12
ATOM     12  C   UNL     1      16.090  -4.897  68.081  1.00  0.00     0.025 A 
ATOM     13  C   UNL     1      15.492  -4.592  66.848  1.00  0.00     0.016 A 
ATOM     14  C   UNL     1      14.554  -5.458  66.282  1.00  0.00     0.051 A 
ATOM     15  C   UNL     1      14.212  -6.650  66.933  1.00  0.00     0.157 A 
ATOM     16  C   UNL     1      15.758  -6.105  68.721  1.00  0.00     0.062 A 
ATOM     17  C   UNL     1      14.817  -6.976  68.153  1.00  0.00     0.158 A 
BRANCH  15  18
ATOM     18  O   UNL     1      13.274  -7.516  66.374  1.00  0.00    -0.504 OA
ATOM     19  H   UNL     1      13.452  -7.998  65.500  1.00  0.00     0.293 HD
ENDBRANCH  15  18
BRANCH  17  20
ATOM     20  O   UNL     1      14.485  -8.170  68.791  1.00  0.00    -0.504 OA
ATOM     21  H   UNL     1      13.728  -8.757  68.457  1.00  0.00     0.293 HD
ENDBRANCH  17  20
ENDBRANCH   1  12
BRANCH   2  22
ATOM     22  O   UNL     1      18.935  -5.174  67.606  1.00  0.00    -0.502 OA
ATOM     23  H   UNL     1      19.775  -5.113  67.044  1.00  0.00     0.293 HD
ENDBRANCH   2  22
BRANCH   6  24
ATOM     24  O   UNL     1      21.053  -0.936  70.041  1.00  0.00    -0.507 OA
ATOM     25  H   UNL     1      21.618  -0.173  70.379  1.00  0.00     0.293 HD
ENDBRANCH   6  24
BRANCH   8  26
ATOM     26  O   UNL     1      17.211   0.746  72.345  1.00  0.00    -0.508 OA
ATOM     27  H   UNL     1      16.646   0.471  73.141  1.00  0.00     0.293 HD
ENDBRANCH   8  26
TORSDOF 6
ENDMDL
MODEL 3
REMARK VINA RESULT:    -7.598      4.152      6.537
REMARK INTER + INTRA:          -8.996
REMARK INTER:                  -8.662
REMARK INTRA:                  -0.334
REMARK UNBOUND:                 0.157
REMARK SMILES O=c1c(O)c(-c2ccc(O)c(O)c2)oc2cc(O)cc(O)c12
REMARK SMILES IDX 5 1 3 2 2 3 1 4 22 5 20 6 19 7 17 8 16 9 15 10 14 11 6 12
REMARK SMILES IDX 7 13 8 14 9 15 13 16 11 17 10 18 12 20 4 22 21 24 18 26
REMARK H PARENT 10 19 12 21 4 23 21 25 18 27
REMARK Flexibility Score: inf
ROOT
ATOM      1  C   UNL     1      22.215  -2.457  70.108  1.00  0.00     0.180 A 
ATOM      2  C   UNL     1      21.768  -1.929  71.332  1.00  0.00     0.208 A 
ATOM      3  C   UNL     1      20.388  -1.832  71.567  1.00  0.00     0.238 A 
ATOM      4  O   UNL     1      19.994  -1.410  72.686  1.00  0.00    -0.285 OA
ATOM      5  C   UNL     1      19.472  -2.248  70.570  1.00  0.00     0.111 A 
ATOM      6  C   UNL     1      18.052  -2.156  70.687  1.00  0.00     0.134 A 
ATOM      7  C   UNL     1      17.241  -2.718  69.693  1.00  0.00     0.093 A 
ATOM      8  C   UNL     1      17.796  -3.307  68.557  1.00  0.00     0.123 A 
ATOM      9  C   UNL     1      19.183  -3.348  68.406  1.00  0.00     0.094 A 
ATOM     10  C   UNL     1      20.018  -2.830  69.397  1.00  0.00     0.146 A 
ATOM     11  O   UNL     1      21.333  -2.899  69.220  1.00  0.00    -0.452 OA
ENDROOT
BRANCH   1  12
ATOM     12  C   UNL     1      23.654  -2.568  69.776  1.00  0.00     0.025 A 
ATOM     13  C   UNL     1      24.334  -3.768  70.038  1.00  0.00     0.016 A 
ATOM     14  C   UNL     1      25.686  -3.902  69.715  1.00  0.00     0.051 A 
ATOM     15  C   UNL     1      26.375  -2.843  69.111  1.00  0.00     0.157 A 
ATOM     16  C   UNL     1      24.345  -1.514  69.150  1.00  0.00     0.062 A 
ATOM     17  C   UNL     1      25.703  -1.648  68.824  1.00  0.00     0.158 A 
BRANCH  15  18
ATOM     18  O   UNL     1      27.725  -2.971  68.789  1.00  0.00    -0.504 OA
ATOM     19  H   UNL     1      28.234  -2.222  68.333  1.00  0.00     0.293 HD
ENDBRANCH  15  18
BRANCH  17  20
ATOM     20  O   UNL     1      26.388  -0.601  68.210  1.00  0.00    -0.504 OA
ATOM     21  H   UNL     1      27.134  -0.774  67.545  1.00  0.00     0.293 HD
ENDBRANCH  17  20
ENDBRANCH   1  12
BRANCH   2  22
ATOM     22  O   UNL     1      22.690  -1.547  72.310  1.00  0.00    -0.502 OA
ATOM     23  H   UNL     1      23.402  -2.176  72.661  1.00  0.00     0.293 HD
ENDBRANCH   2  22
BRANCH   6  24
ATOM     24  O   UNL     1      17.394  -1.506  71.735  1.00  0.00    -0.507 OA
ATOM     25  H   UNL     1      16.453  -1.148  71.687  1.00  0.00     0.293 HD
ENDBRANCH   6  24
BRANCH   8  26
ATOM     26  O   UNL     1      16.958  -3.842  67.581  1.00  0.00    -0.508 OA
ATOM     27  H   UNL     1      16.146  -3.337  67.245  1.00  0.00     0.293 HD
ENDBRANCH   8  26
TORSDOF 6
ENDMDL
MODEL 4
REMARK VINA RESULT:    -7.564      2.839      8.528
REMARK INTER + INTRA:          -8.955
REMARK INTER:                  -8.626
REMARK INTRA:                  -0.330
REMARK UNBOUND:                 0.157
REMARK SMILES O=c1c(O)c(-c2ccc(O)c(O)c2)oc2cc(O)cc(O)c12
REMARK SMILES IDX 5 1 3 2 2 3 1 4 22 5 20 6 19 7 17 8 16 9 15 10 14 11 6 12
REMARK SMILES IDX 7 13 8 14 9 15 13 16 11 17 10 18 12 20 4 22 21 24 18 26
REMARK H PARENT 10 19 12 21 4 23 21 25 18 27
REMARK Flexibility Score: inf
ROOT
ATOM      1  C   UNL     1      15.868  -7.454  66.216  1.00  0.00     0.180 A 
ATOM      2  C   UNL     1      14.872  -7.513  67.207  1.00  0.00     0.208 A 
ATOM      3  C   UNL     1      14.896  -6.575  68.251  1.00  0.00     0.238 A 
ATOM      4  O   UNL     1      13.972  -6.597  69.105  1.00  0.00    -0.285 OA
ATOM      5  C   UNL     1      15.924  -5.602  68.302  1.00  0.00     0.111 A 
ATOM      6  C   UNL     1      16.068  -4.630  69.336  1.00  0.00     0.134 A 
ATOM      7  C   UNL     1      17.046  -3.633  69.216  1.00  0.00     0.093 A 
ATOM      8  C   UNL     1      17.925  -3.615  68.134  1.00  0.00     0.123 A 
ATOM      9  C   UNL     1      17.830  -4.596  67.147  1.00  0.00     0.094 A 
ATOM     10  C   UNL     1      16.843  -5.580  67.220  1.00  0.00     0.146 A 
ATOM     11  O   UNL     1      16.780  -6.490  66.255  1.00  0.00    -0.452 OA
ENDROOT
BRANCH   1  12
ATOM     12  C   UNL     1      15.924  -8.423  65.098  1.00  0.00     0.025 A 
ATOM     13  C   UNL     1      15.274  -8.124  63.890  1.00  0.00     0.016 A 
ATOM     14  C   UNL     1      15.330  -9.014  62.815  1.00  0.00     0.051 A 
ATOM     15  C   UNL     1      16.051 -10.209  62.927  1.00  0.00     0.157 A 
ATOM     16  C   UNL     1      16.664  -9.616  65.198  1.00  0.00     0.062 A 
ATOM     17  C   UNL     1      16.722 -10.510  64.119  1.00  0.00     0.158 A 
BRANCH  15  18
ATOM     18  O   UNL     1      16.108 -11.102  61.857  1.00  0.00    -0.504 OA
ATOM     19  H   UNL     1      16.959 -11.605  61.632  1.00  0.00     0.293 HD
ENDBRANCH  15  18
BRANCH  17  20
ATOM     20  O   UNL     1      17.450 -11.694  64.221  1.00  0.00    -0.504 OA
ATOM     21  H   UNL     1      17.818 -12.015  65.110  1.00  0.00     0.293 HD
ENDBRANCH  17  20
ENDBRANCH   1  12
BRANCH   2  22
ATOM     22  O   UNL     1      13.855  -8.467  67.125  1.00  0.00    -0.502 OA
ATOM     23  H   UNL     1      14.016  -9.405  66.777  1.00  0.00     0.293 HD
ENDBRANCH   2  22
BRANCH   6  24
ATOM     24  O   UNL     1      15.303  -4.614  70.506  1.00  0.00    -0.507 OA
ATOM     25  H   UNL     1      14.830  -5.416  70.894  1.00  0.00     0.293 HD
ENDBRANCH   6  24
BRANCH   8  26
ATOM     26  O   UNL     1      18.895  -2.618  68.055  1.00  0.00    -0.508 OA
ATOM     27  H   UNL     1      19.861  -2.834  67.834  1.00  0.00     0.293 HD
ENDBRANCH   8  26
TORSDOF 6
ENDMDL
MODEL 5
REMARK VINA RESULT:    -7.559      2.213      4.333
REMARK INTER + INTRA:          -8.949
REMARK INTER:                  -9.106
REMARK INTRA:                   0.158
REMARK UNBOUND:                 0.157
REMARK SMILES O=c1c(O)c(-c2ccc(O)c(O)c2)oc2cc(O)cc(O)c12
REMARK SMILES IDX 5 1 3 2 2 3 1 4 22 5 20 6 19 7 17 8 16 9 15 10 14 11 6 12
REMARK SMILES IDX 7 13 8 14 9 15 13 16 11 17 10 18 12 20 4 22 21 24 18 26
REMARK H PARENT 10 19 12 21 4 23 21 25 18 27
REMARK Flexibility Score: inf
ROOT
ATOM      1  C   UNL     1      16.119  -5.529  67.585  1.00  0.00     0.180 A 
ATOM      2  C   UNL     1      15.039  -5.898  68.407  1.00  0.00     0.208 A 
ATOM      3  C   UNL     1      14.057  -6.760  67.893  1.00  0.00     0.238 A 
ATOM      4  O   UNL     1      13.122  -7.130  68.650  1.00  0.00    -0.285 OA
ATOM      5  C   UNL     1      14.158  -7.228  66.560  1.00  0.00     0.111 A 
ATOM      6  C   UNL     1      13.199  -8.072  65.924  1.00  0.00     0.134 A 
ATOM      7  C   UNL     1      13.466  -8.580  64.647  1.00  0.00     0.093 A 
ATOM      8  C   UNL     1      14.623  -8.221  63.957  1.00  0.00     0.123 A 
ATOM      9  C   UNL     1      15.539  -7.349  64.547  1.00  0.00     0.094 A 
ATOM     10  C   UNL     1      15.319  -6.856  65.834  1.00  0.00     0.146 A 
ATOM     11  O   UNL     1      16.220  -6.037  66.363  1.00  0.00    -0.452 OA
ENDROOT
BRANCH   1  12
ATOM     12  C   UNL     1      17.180  -4.605  68.047  1.00  0.00     0.025 A 
ATOM     13  C   UNL     1      18.498  -4.788  67.601  1.00  0.00     0.016 A 
ATOM     14  C   UNL     1      19.511  -3.916  68.007  1.00  0.00     0.051 A 
ATOM     15  C   UNL     1      19.217  -2.839  68.853  1.00  0.00     0.157 A 
ATOM     16  C   UNL     1      16.886  -3.510  68.880  1.00  0.00     0.062 A 
ATOM     17  C   UNL     1      17.902  -2.632  69.288  1.00  0.00     0.158 A 
BRANCH  15  18
ATOM     18  O   UNL     1      20.225  -1.967  69.264  1.00  0.00    -0.504 OA
ATOM     19  H   UNL     1      20.175  -1.479  70.150  1.00  0.00     0.293 HD
ENDBRANCH  15  18
BRANCH  17  20
ATOM     20  O   UNL     1      17.611  -1.552  70.118  1.00  0.00    -0.504 OA
ATOM     21  H   UNL     1      16.660  -1.225  70.249  1.00  0.00     0.293 HD
ENDBRANCH  17  20
ENDBRANCH   1  12
BRANCH   2  22
ATOM     22  O   UNL     1      14.972  -5.442  69.726  1.00  0.00    -0.502 OA
ATOM     23  H   UNL     1      15.034  -6.067  70.521  1.00  0.00     0.293 HD
ENDBRANCH   2  22
BRANCH   6  24
ATOM     24  O   UNL     1      11.966  -8.417  66.487  1.00  0.00    -0.507 OA
ATOM     25  H   UNL     1      11.120  -7.877  66.391  1.00  0.00     0.293 HD
ENDBRANCH   6  24
BRANCH   8  26
ATOM     26  O   UNL     1      14.849  -8.733  62.681  1.00  0.00    -0.508 OA
ATOM     27  H   UNL     1      14.966  -9.728  62.522  1.00  0.00     0.293 HD
ENDBRANCH   8  26
TORSDOF 6
ENDMDL
MODEL 6
REMARK VINA RESULT:    -7.468      3.399      7.325
REMARK INTER + INTRA:          -8.839
REMARK INTER:                  -8.726
REMARK INTRA:                  -0.113
REMARK UNBOUND:                 0.157
REMARK SMILES O=c1c(O)c(-c2ccc(O)c(O)c2)oc2cc(O)cc(O)c12
REMARK SMILES IDX 5 1 3 2 2 3 1 4 22 5 20 6 19 7 17 8 16 9 15 10 14 11 6 12
REMARK SMILES IDX 7 13 8 14 9 15 13 16 11 17 10 18 12 20 4 22 21 24 18 26
REMARK H PARENT 10 19 12 21 4 23 21 25 18 27
REMARK Flexibility Score: inf
ROOT
ATOM      1  C   UNL     1      20.105  -2.844  68.779  1.00  0.00     0.180 A 
ATOM      2  C   UNL     1      20.213  -1.451  68.616  1.00  0.00     0.208 A 
ATOM      3  C   UNL     1      21.440  -0.827  68.895  1.00  0.00     0.238 A 
ATOM      4  O   UNL     1      21.547   0.411  68.695  1.00  0.00    -0.285 OA
ATOM      5  C   UNL     1      22.537  -1.600  69.348  1.00  0.00     0.111 A 
ATOM      6  C   UNL     1      23.813  -1.066  69.699  1.00  0.00     0.134 A 
ATOM      7  C   UNL     1      24.864  -1.937  70.010  1.00  0.00     0.093 A 
ATOM      8  C   UNL     1      24.668  -3.318  70.047  1.00  0.00     0.123 A 
ATOM      9  C   UNL     1      23.408  -3.846  69.764  1.00  0.00     0.094 A 
ATOM     10  C   UNL     1      22.350  -3.005  69.414  1.00  0.00     0.146 A 
ATOM     11  O   UNL     1      21.169  -3.549  69.142  1.00  0.00    -0.452 OA
ENDROOT
BRANCH   1  12
ATOM     12  C   UNL     1      18.839  -3.569  68.529  1.00  0.00     0.025 A 
ATOM     13  C   UNL     1      17.694  -3.237  69.271  1.00  0.00     0.016 A 
ATOM     14  C   UNL     1      16.483  -3.894  69.038  1.00  0.00     0.051 A 
ATOM     15  C   UNL     1      16.396  -4.883  68.050  1.00  0.00     0.157 A 
ATOM     16  C   UNL     1      18.741  -4.548  67.524  1.00  0.00     0.062 A 
ATOM     17  C   UNL     1      17.525  -5.208  67.288  1.00  0.00     0.158 A 
BRANCH  15  18
ATOM     18  O   UNL     1      15.191  -5.543  67.816  1.00  0.00    -0.504 OA
ATOM     19  H   UNL     1      14.606  -5.865  68.579  1.00  0.00     0.293 HD
ENDBRANCH  15  18
BRANCH  17  20
ATOM     20  O   UNL     1      17.431  -6.182  66.296  1.00  0.00    -0.504 OA
ATOM     21  H   UNL     1      18.233  -6.739  66.022  1.00  0.00     0.293 HD
ENDBRANCH  17  20
ENDBRANCH   1  12
BRANCH   2  22
ATOM     22  O   UNL     1      19.125  -0.712  68.146  1.00  0.00    -0.502 OA
ATOM     23  H   UNL     1      19.230   0.205  67.728  1.00  0.00     0.293 HD
ENDBRANCH   2  22
BRANCH   6  24
ATOM     24  O   UNL     1      24.092   0.302  69.783  1.00  0.00    -0.507 OA
ATOM     25  H   UNL     1      23.939   0.965  69.040  1.00  0.00     0.293 HD
ENDBRANCH   6  24
BRANCH   8  26
ATOM     26  O   UNL     1      25.732  -4.154  70.376  1.00  0.00    -0.508 OA
ATOM     27  H   UNL     1      25.753  -5.125  70.084  1.00  0.00     0.293 HD
ENDBRANCH   8  26
TORSDOF 6
ENDMDL
MODEL 7
REMARK VINA RESULT:    -7.450      2.524      3.523
REMARK INTER + INTRA:          -8.818
REMARK INTER:                  -8.519
REMARK INTRA:                  -0.298
REMARK UNBOUND:                 0.157
REMARK SMILES O=c1c(O)c(-c2ccc(O)c(O)c2)oc2cc(O)cc(O)c12
REMARK SMILES IDX 5 1 3 2 2 3 1 4 22 5 20 6 19 7 17 8 16 9 15 10 14 11 6 12
REMARK SMILES IDX 7 13 8 14 9 15 13 16 11 17 10 18 12 20 4 22 21 24 18 26
REMARK H PARENT 10 19 12 21 4 23 21 25 18 27
REMARK Flexibility Score: inf
ROOT
ATOM      1  C   UNL     1      17.640  -4.200  68.057  1.00  0.00     0.180 A 
ATOM      2  C   UNL     1      16.499  -4.284  68.874  1.00  0.00     0.208 A 
ATOM      3  C   UNL     1      15.435  -5.109  68.474  1.00  0.00     0.238 A 
ATOM      4  O   UNL     1      14.440  -5.223  69.236  1.00  0.00    -0.285 OA
ATOM      5  C   UNL     1      15.518  -5.825  67.255  1.00  0.00     0.111 A 
ATOM      6  C   UNL     1      14.483  -6.658  66.734  1.00  0.00     0.134 A 
ATOM      7  C   UNL     1      14.725  -7.421  65.585  1.00  0.00     0.093 A 
ATOM      8  C   UNL     1      15.938  -7.332  64.903  1.00  0.00     0.123 A 
ATOM      9  C   UNL     1      16.935  -6.475  65.372  1.00  0.00     0.094 A 
ATOM     10  C   UNL     1      16.738  -5.730  66.535  1.00  0.00     0.146 A 
ATOM     11  O   UNL     1      17.715  -4.934  66.954  1.00  0.00    -0.452 OA
ENDROOT
BRANCH   1  12
ATOM     12  C   UNL     1      18.791  -3.333  68.399  1.00  0.00     0.025 A 
ATOM     13  C   UNL     1      19.966  -3.912  68.902  1.00  0.00     0.016 A 
ATOM     14  C   UNL     1      21.072  -3.116  69.212  1.00  0.00     0.051 A 
ATOM     15  C   UNL     1      21.023  -1.731  69.008  1.00  0.00     0.157 A 
ATOM     16  C   UNL     1      18.754  -1.945  68.176  1.00  0.00     0.062 A 
ATOM     17  C   UNL     1      19.863  -1.144  68.485  1.00  0.00     0.158 A 
BRANCH  15  18
ATOM     18  O   UNL     1      22.122  -0.932  69.318  1.00  0.00    -0.504 OA
ATOM     19  H   UNL     1      22.823  -0.702  68.623  1.00  0.00     0.293 HD
ENDBRANCH  15  18
BRANCH  17  20
ATOM     20  O   UNL     1      19.823   0.232  68.271  1.00  0.00    -0.504 OA
ATOM     21  H   UNL     1      19.151   0.824  68.747  1.00  0.00     0.293 HD
ENDBRANCH  17  20
ENDBRANCH   1  12
BRANCH   2  22
ATOM     22  O   UNL     1      16.448  -3.586  70.083  1.00  0.00    -0.502 OA
ATOM     23  H   UNL     1      16.145  -2.621  70.141  1.00  0.00     0.293 HD
ENDBRANCH   2  22
BRANCH   6  24
ATOM     24  O   UNL     1      13.201  -6.749  67.284  1.00  0.00    -0.507 OA
ATOM     25  H   UNL     1      12.635  -7.584  67.284  1.00  0.00     0.293 HD
ENDBRANCH   6  24
BRANCH   8  26
ATOM     26  O   UNL     1      16.138  -8.094  63.754  1.00  0.00    -0.508 OA
ATOM     27  H   UNL     1      16.937  -8.713  63.661  1.00  0.00     0.293 HD
ENDBRANCH   8  26
TORSDOF 6
ENDMDL
MODEL 8
REMARK VINA RESULT:    -7.404      2.709      3.463
REMARK INTER + INTRA:          -8.762
REMARK INTER:                  -8.543
REMARK INTRA:                  -0.220
REMARK UNBOUND:                 0.157
REMARK SMILES O=c1c(O)c(-c2ccc(O)c(O)c2)oc2cc(O)cc(O)c12
REMARK SMILES IDX 5 1 3 2 2 3 1 4 22 5 20 6 19 7 17 8 16 9 15 10 14 11 6 12
REMARK SMILES IDX 7 13 8 14 9 15 13 16 11 17 10 18 12 20 4 22 21 24 18 26
REMARK H PARENT 10 19 12 21 4 23 21 25 18 27
REMARK Flexibility Score: inf
ROOT
ATOM      1  C   UNL     1      18.400  -4.712  67.594  1.00  0.00     0.180 A 
ATOM      2  C   UNL     1      18.571  -5.416  66.389  1.00  0.00     0.208 A 
ATOM      3  C   UNL     1      17.480  -6.116  65.850  1.00  0.00     0.238 A 
ATOM      4  O   UNL     1      17.623  -6.700  64.744  1.00  0.00    -0.285 OA
ATOM      5  C   UNL     1      16.237  -6.117  66.530  1.00  0.00     0.111 A 
ATOM      6  C   UNL     1      15.077  -6.826  66.095  1.00  0.00     0.134 A 
ATOM      7  C   UNL     1      13.866  -6.650  66.776  1.00  0.00     0.093 A 
ATOM      8  C   UNL     1      13.788  -5.845  67.912  1.00  0.00     0.123 A 
ATOM      9  C   UNL     1      14.931  -5.195  68.380  1.00  0.00     0.094 A 
ATOM     10  C   UNL     1      16.145  -5.321  67.701  1.00  0.00     0.146 A 
ATOM     11  O   UNL     1      17.206  -4.678  68.173  1.00  0.00    -0.452 OA
ENDROOT
BRANCH   1  12
ATOM     12  C   UNL     1      19.509  -3.971  68.237  1.00  0.00     0.025 A 
ATOM     13  C   UNL     1      19.431  -2.575  68.356  1.00  0.00     0.016 A 
ATOM     14  C   UNL     1      20.456  -1.857  68.977  1.00  0.00     0.051 A 
ATOM     15  C   UNL     1      21.567  -2.528  69.503  1.00  0.00     0.157 A 
ATOM     16  C   UNL     1      20.617  -4.642  68.785  1.00  0.00     0.062 A 
ATOM     17  C   UNL     1      21.647  -3.924  69.411  1.00  0.00     0.158 A 
BRANCH  15  18
ATOM     18  O   UNL     1      22.595  -1.817  70.122  1.00  0.00    -0.504 OA
ATOM     19  H   UNL     1      22.405  -1.136  70.847  1.00  0.00     0.293 HD
ENDBRANCH  15  18
BRANCH  17  20
ATOM     20  O   UNL     1      22.748  -4.589  69.947  1.00  0.00    -0.504 OA
ATOM     21  H   UNL     1      22.691  -5.080  70.833  1.00  0.00     0.293 HD
ENDBRANCH  17  20
ENDBRANCH   1  12
BRANCH   2  22
ATOM     22  O   UNL     1      19.799  -5.383  65.724  1.00  0.00    -0.502 OA
ATOM     23  H   UNL     1      20.453  -6.156  65.751  1.00  0.00     0.293 HD
ENDBRANCH   2  22
BRANCH   6  24
ATOM     24  O   UNL     1      15.067  -7.729  65.028  1.00  0.00    -0.507 OA
ATOM     25  H   UNL     1      15.476  -8.650  65.051  1.00  0.00     0.293 HD
ENDBRANCH   6  24
BRANCH   8  26
ATOM     26  O   UNL     1      12.570  -5.706  68.573  1.00  0.00    -0.508 OA
ATOM     27  H   UNL     1      11.908  -4.981  68.318  1.00  0.00     0.293 HD
ENDBRANCH   8  26
TORSDOF 6
ENDMDL
