MODEL 1
REMARK VINA RESULT:    -4.140      0.000      0.000
REMARK INTER + INTRA:          -5.546
REMARK INTER:                  -5.108
REMARK INTRA:                  -0.438
REMARK UNBOUND:                -0.438
REMARK SMILES C=CC[C@@H](C)C(=O)CC
REMARK SMILES IDX 4 1 5 2 6 3 7 4 8 5 9 6 3 7 2 8 1 9
REMARK H PARENT
REMARK Flexibility Score: inf
ROOT
ATOM      1  C   UNL     1      14.597   3.509   3.396  1.00  0.00     0.057 C 
ATOM      2  C   UNL     1      14.775   2.805   2.043  1.00  0.00     0.016 C 
ENDROOT
BRANCH   1   3
ATOM      3  C   UNL     1      15.384   4.802   3.433  1.00  0.00     0.135 C 
ATOM      4  O   UNL     1      16.605   4.753   3.485  1.00  0.00    -0.299 OA
BRANCH   3   5
ATOM      5  C   UNL     1      14.709   6.152   3.436  1.00  0.00     0.072 C 
ATOM      6  C   UNL     1      14.723   6.771   2.042  1.00  0.00     0.012 C 
ENDBRANCH   3   5
ENDBRANCH   1   3
BRANCH   1   7
ATOM      7  C   UNL     1      13.110   3.768   3.721  1.00  0.00     0.038 C 
BRANCH   7   8
ATOM      8  C   UNL     1      12.201   3.376   2.585  1.00  0.00    -0.034 C 
ATOM      9  C   UNL     1      11.528   4.287   1.875  1.00  0.00     0.004 C 
ENDBRANCH   7   8
ENDBRANCH   1   7
TORSDOF 4
ENDMDL
MODEL 2
REMARK VINA RESULT:    -3.685      1.460      1.967
REMARK INTER + INTRA:          -4.985
REMARK INTER:                  -4.809
REMARK INTRA:                  -0.176
REMARK UNBOUND:                -0.438
REMARK SMILES C=CC[C@@H](C)C(=O)CC
REMARK SMILES IDX 4 1 5 2 6 3 7 4 8 5 9 6 3 7 2 8 1 9
REMARK H PARENT
REMARK Flexibility Score: inf
ROOT
ATOM      1  C   UNL     1      14.545   4.470   2.672  1.00  0.00     0.057 C 
ATOM      2  C   UNL     1      13.890   5.713   2.050  1.00  0.00     0.016 C 
ENDROOT
BRANCH   1   3
ATOM      3  C   UNL     1      15.865   4.830   3.319  1.00  0.00     0.135 C 
ATOM      4  O   UNL     1      15.865   5.292   4.451  1.00  0.00    -0.299 OA
BRANCH   3   5
ATOM      5  C   UNL     1      17.183   4.662   2.602  1.00  0.00     0.072 C 
ATOM      6  C   UNL     1      17.605   5.963   1.927  1.00  0.00     0.012 C 
ENDBRANCH   3   5
ENDBRANCH   1   3
BRANCH   1   7
ATOM      7  C   UNL     1      13.613   3.773   3.686  1.00  0.00     0.038 C 
BRANCH   7   8
ATOM      8  C   UNL     1      12.261   3.462   3.100  1.00  0.00    -0.034 C 
ATOM      9  C   UNL     1      12.096   2.511   2.175  1.00  0.00     0.004 C 
ENDBRANCH   7   8
ENDBRANCH   1   7
TORSDOF 4
ENDMDL
MODEL 3
REMARK VINA RESULT:    -3.380     17.942     19.296
REMARK INTER + INTRA:          -4.609
REMARK INTER:                  -4.230
REMARK INTRA:                  -0.379
REMARK UNBOUND:                -0.438
REMARK SMILES C=CC[C@@H](C)C(=O)CC
REMARK SMILES IDX 4 1 5 2 6 3 7 4 8 5 9 6 3 7 2 8 1 9
REMARK H PARENT
REMARK Flexibility Score: inf
ROOT
ATOM      1  C   UNL     1      25.459 -10.441   6.664  1.00  0.00     0.057 C 
ATOM      2  C   UNL     1      26.514  -9.959   5.658  1.00  0.00     0.016 C 
ENDROOT
BRANCH   1   3
ATOM      3  C   UNL     1      25.842 -10.039   8.073  1.00  0.00     0.135 C 
ATOM      4  O   UNL     1      25.452  -8.966   8.512  1.00  0.00    -0.299 OA
BRANCH   3   5
ATOM      5  C   UNL     1      26.714 -10.909   8.947  1.00  0.00     0.072 C 
ATOM      6  C   UNL     1      26.376 -12.384   8.757  1.00  0.00     0.012 C 
ENDBRANCH   3   5
ENDBRANCH   1   3
BRANCH   1   7
ATOM      7  C   UNL     1      24.048  -9.921   6.315  1.00  0.00     0.038 C 
BRANCH   7   8
ATOM      8  C   UNL     1      23.048 -11.038   6.169  1.00  0.00    -0.034 C 
ATOM      9  C   UNL     1      22.561 -11.691   7.229  1.00  0.00     0.004 C 
ENDBRANCH   7   8
ENDBRANCH   1   7
TORSDOF 4
ENDMDL
MODEL 4
REMARK VINA RESULT:    -3.196     18.155     19.462
REMARK INTER + INTRA:          -4.382
REMARK INTER:                  -3.875
REMARK INTRA:                  -0.506
REMARK UNBOUND:                -0.438
REMARK SMILES C=CC[C@@H](C)C(=O)CC
REMARK SMILES IDX 4 1 5 2 6 3 7 4 8 5 9 6 3 7 2 8 1 9
REMARK H PARENT
REMARK Flexibility Score: inf
ROOT
ATOM      1  C   UNL     1      24.595 -10.080   6.004  1.00  0.00     0.057 C 
ATOM      2  C   UNL     1      25.678 -10.688   5.103  1.00  0.00     0.016 C 
ENDROOT
BRANCH   1   3
ATOM      3  C   UNL     1      23.776 -11.169   6.665  1.00  0.00     0.135 C 
ATOM      4  O   UNL     1      22.698 -10.881   7.165  1.00  0.00    -0.299 OA
BRANCH   3   5
ATOM      5  C   UNL     1      24.261 -12.596   6.753  1.00  0.00     0.072 C 
ATOM      6  C   UNL     1      24.600 -12.968   8.192  1.00  0.00     0.012 C 
ENDBRANCH   3   5
ENDBRANCH   1   3
BRANCH   1   7
ATOM      7  C   UNL     1      25.191  -9.129   7.064  1.00  0.00     0.038 C 
BRANCH   7   8
ATOM      8  C   UNL     1      26.413  -9.709   7.728  1.00  0.00    -0.034 C 
ATOM      9  C   UNL     1      26.534  -9.763   9.058  1.00  0.00     0.004 C 
ENDBRANCH   7   8
ENDBRANCH   1   7
TORSDOF 4
ENDMDL
MODEL 5
REMARK VINA RESULT:    -3.194     18.234     19.720
REMARK INTER + INTRA:          -4.378
REMARK INTER:                  -3.924
REMARK INTRA:                  -0.454
REMARK UNBOUND:                -0.438
REMARK SMILES C=CC[C@@H](C)C(=O)CC
REMARK SMILES IDX 4 1 5 2 6 3 7 4 8 5 9 6 3 7 2 8 1 9
REMARK H PARENT
REMARK Flexibility Score: inf
ROOT
ATOM      1  C   UNL     1      23.672 -11.308   7.074  1.00  0.00     0.057 C 
ATOM      2  C   UNL     1      22.158 -11.526   7.205  1.00  0.00     0.016 C 
ENDROOT
BRANCH   1   3
ATOM      3  C   UNL     1      24.327 -12.499   6.405  1.00  0.00     0.135 C 
ATOM      4  O   UNL     1      23.702 -13.123   5.561  1.00  0.00    -0.299 OA
BRANCH   3   5
ATOM      5  C   UNL     1      25.719 -12.958   6.768  1.00  0.00     0.072 C 
ATOM      6  C   UNL     1      25.929 -12.917   8.279  1.00  0.00     0.012 C 
ENDBRANCH   3   5
ENDBRANCH   1   3
BRANCH   1   7
ATOM      7  C   UNL     1      24.006 -10.007   6.314  1.00  0.00     0.038 C 
BRANCH   7   8
ATOM      8  C   UNL     1      25.102  -9.220   6.983  1.00  0.00    -0.034 C 
ATOM      9  C   UNL     1      26.370  -9.279   6.562  1.00  0.00     0.004 C 
ENDBRANCH   7   8
ENDBRANCH   1   7
TORSDOF 4
ENDMDL
MODEL 6
REMARK VINA RESULT:    -3.162     18.447     19.047
REMARK INTER + INTRA:          -4.339
REMARK INTER:                  -3.866
REMARK INTRA:                  -0.473
REMARK UNBOUND:                -0.438
REMARK SMILES C=CC[C@@H](C)C(=O)CC
REMARK SMILES IDX 4 1 5 2 6 3 7 4 8 5 9 6 3 7 2 8 1 9
REMARK H PARENT
REMARK Flexibility Score: inf
ROOT
ATOM      1  C   UNL     1      23.304 -11.261   6.551  1.00  0.00     0.057 C 
ATOM      2  C   UNL     1      22.013 -11.605   7.307  1.00  0.00     0.016 C 
ENDROOT
BRANCH   1   3
ATOM      3  C   UNL     1      24.518 -11.546   7.410  1.00  0.00     0.135 C 
ATOM      4  O   UNL     1      24.596 -12.619   7.992  1.00  0.00    -0.299 OA
BRANCH   3   5
ATOM      5  C   UNL     1      25.625 -10.537   7.595  1.00  0.00     0.072 C 
ATOM      6  C   UNL     1      25.223  -9.178   7.031  1.00  0.00     0.012 C 
ENDBRANCH   3   5
ENDBRANCH   1   3
BRANCH   1   7
ATOM      7  C   UNL     1      23.403 -12.011   5.205  1.00  0.00     0.038 C 
BRANCH   7   8
ATOM      8  C   UNL     1      23.745 -11.091   4.063  1.00  0.00    -0.034 C 
ATOM      9  C   UNL     1      25.011 -10.857   3.702  1.00  0.00     0.004 C 
ENDBRANCH   7   8
ENDBRANCH   1   7
TORSDOF 4
ENDMDL
MODEL 7
REMARK VINA RESULT:    -3.085     17.961     19.426
REMARK INTER + INTRA:          -4.244
REMARK INTER:                  -3.738
REMARK INTRA:                  -0.505
REMARK UNBOUND:                -0.438
REMARK SMILES C=CC[C@@H](C)C(=O)CC
REMARK SMILES IDX 4 1 5 2 6 3 7 4 8 5 9 6 3 7 2 8 1 9
REMARK H PARENT
REMARK Flexibility Score: inf
ROOT
ATOM      1  C   UNL     1      23.425 -11.894   5.989  1.00  0.00     0.057 C 
ATOM      2  C   UNL     1      22.385 -11.557   7.068  1.00  0.00     0.016 C 
ENDROOT
BRANCH   1   3
ATOM      3  C   UNL     1      24.198 -10.655   5.587  1.00  0.00     0.135 C 
ATOM      4  O   UNL     1      24.629 -10.569   4.446  1.00  0.00    -0.299 OA
BRANCH   3   5
ATOM      5  C   UNL     1      24.478  -9.534   6.558  1.00  0.00     0.072 C 
ATOM      6  C   UNL     1      25.978  -9.368   6.781  1.00  0.00     0.012 C 
ENDBRANCH   3   5
ENDBRANCH   1   3
BRANCH   1   7
ATOM      7  C   UNL     1      24.388 -13.012   6.444  1.00  0.00     0.038 C 
BRANCH   7   8
ATOM      8  C   UNL     1      24.590 -13.018   7.937  1.00  0.00    -0.034 C 
ATOM      9  C   UNL     1      25.769 -12.715   8.490  1.00  0.00     0.004 C 
ENDBRANCH   7   8
ENDBRANCH   1   7
TORSDOF 4
ENDMDL
MODEL 8
REMARK VINA RESULT:    -3.071     18.228     18.918
REMARK INTER + INTRA:          -4.226
REMARK INTER:                  -3.774
REMARK INTRA:                  -0.452
REMARK UNBOUND:                -0.438
REMARK SMILES C=CC[C@@H](C)C(=O)CC
REMARK SMILES IDX 4 1 5 2 6 3 7 4 8 5 9 6 3 7 2 8 1 9
REMARK H PARENT
REMARK Flexibility Score: inf
ROOT
ATOM      1  C   UNL     1      24.580 -10.152   6.522  1.00  0.00     0.057 C 
ATOM      2  C   UNL     1      25.357  -8.965   7.109  1.00  0.00     0.016 C 
ENDROOT
BRANCH   1   3
ATOM      3  C   UNL     1      25.077 -10.480   5.130  1.00  0.00     0.135 C 
ATOM      4  O   UNL     1      26.275 -10.418   4.897  1.00  0.00    -0.299 OA
BRANCH   3   5
ATOM      5  C   UNL     1      24.136 -10.856   4.010  1.00  0.00     0.072 C 
ATOM      6  C   UNL     1      24.038 -12.371   3.866  1.00  0.00     0.012 C 
ENDBRANCH   3   5
ENDBRANCH   1   3
BRANCH   1   7
ATOM      7  C   UNL     1      24.651 -11.396   7.432  1.00  0.00     0.038 C 
BRANCH   7   8
ATOM      8  C   UNL     1      23.337 -12.129   7.502  1.00  0.00    -0.034 C 
ATOM      9  C   UNL     1      22.187 -11.548   7.146  1.00  0.00     0.004 C 
ENDBRANCH   7   8
ENDBRANCH   1   7
TORSDOF 4
ENDMDL
MODEL 9
REMARK VINA RESULT:    -3.020     17.992     19.020
REMARK INTER + INTRA:          -4.164
REMARK INTER:                  -3.755
REMARK INTRA:                  -0.408
REMARK UNBOUND:                -0.438
REMARK SMILES C=CC[C@@H](C)C(=O)CC
REMARK SMILES IDX 4 1 5 2 6 3 7 4 8 5 9 6 3 7 2 8 1 9
REMARK H PARENT
REMARK Flexibility Score: inf
ROOT
ATOM      1  C   UNL     1      23.611 -11.291   6.454  1.00  0.00     0.057 C 
ATOM      2  C   UNL     1      22.290 -11.605   7.170  1.00  0.00     0.016 C 
ENDROOT
BRANCH   1   3
ATOM      3  C   UNL     1      23.636 -11.924   5.078  1.00  0.00     0.135 C 
ATOM      4  O   UNL     1      23.431 -13.125   4.974  1.00  0.00    -0.299 OA
BRANCH   3   5
ATOM      5  C   UNL     1      23.935 -11.125   3.833  1.00  0.00     0.072 C 
ATOM      6  C   UNL     1      25.380 -11.330   3.388  1.00  0.00     0.012 C 
ENDBRANCH   3   5
ENDBRANCH   1   3
BRANCH   1   7
ATOM      7  C   UNL     1      23.870  -9.772   6.358  1.00  0.00     0.038 C 
BRANCH   7   8
ATOM      8  C   UNL     1      25.179  -9.375   6.990  1.00  0.00    -0.034 C 
ATOM      9  C   UNL     1      25.997 -10.276   7.542  1.00  0.00     0.004 C 
ENDBRANCH   7   8
ENDBRANCH   1   7
TORSDOF 4
ENDMDL
