MODEL 1
REMARK VINA RESULT:    -4.201      0.000      0.000
REMARK INTER + INTRA:          -6.227
REMARK INTER:                  -5.920
REMARK INTRA:                  -0.307
REMARK UNBOUND:                -0.307
REMARK SMILES CCCCCCCCC(=O)[O-]
REMARK SMILES IDX 6 1 7 2 8 3 9 4 10 5 11 6 5 7 4 8 3 9 2 10 1 11
REMARK H PARENT
REMARK Flexibility Score: inf
ROOT
ATOM      1  C   UNL     1      14.912 -33.022  21.831  1.00  0.00     0.000 C 
ENDROOT
BRANCH   1   2
ATOM      2  C   UNL     1      15.419 -34.446  21.533  1.00  0.00     0.006 C 
BRANCH   2   3
ATOM      3  C   UNL     1      15.128 -34.894  20.095  1.00  0.00     0.053 C 
BRANCH   3   4
ATOM      4  C   UNL     1      16.406 -35.117  19.350  1.00  0.00     0.041 C 
ATOM      5  O   UNL     1      17.076 -34.135  18.934  1.00  0.00    -0.550 OA
ATOM      6  O   UNL     1      16.884 -36.408  19.156  1.00  0.00    -0.550 OA
ENDBRANCH   3   4
ENDBRANCH   2   3
ENDBRANCH   1   2
BRANCH   1   7
ATOM      7  C   UNL     1      13.849 -32.495  20.850  1.00  0.00     0.000 C 
BRANCH   7   8
ATOM      8  C   UNL     1      13.421 -31.049  21.155  1.00  0.00    -0.000 C 
BRANCH   8   9
ATOM      9  C   UNL     1      12.647 -30.929  22.477  1.00  0.00    -0.000 C 
BRANCH   9  10
ATOM     10  C   UNL     1      13.371 -30.051  23.506  1.00  0.00    -0.003 C 
ATOM     11  C   UNL     1      12.466 -28.926  24.004  1.00  0.00     0.004 C 
ENDBRANCH   9  10
ENDBRANCH   8   9
ENDBRANCH   7   8
ENDBRANCH   1   7
TORSDOF 7
ENDMDL
MODEL 2
REMARK VINA RESULT:    -4.162      2.710      3.369
REMARK INTER + INTRA:          -6.172
REMARK INTER:                  -5.483
REMARK INTRA:                  -0.689
REMARK UNBOUND:                -0.307
REMARK SMILES CCCCCCCCC(=O)[O-]
REMARK SMILES IDX 6 1 7 2 8 3 9 4 10 5 11 6 5 7 4 8 3 9 2 10 1 11
REMARK H PARENT
REMARK Flexibility Score: inf
ROOT
ATOM      1  C   UNL     1      15.860 -30.849  21.640  1.00  0.00     0.000 C 
ENDROOT
BRANCH   1   2
ATOM      2  C   UNL     1      16.175 -31.020  23.138  1.00  0.00     0.006 C 
BRANCH   2   3
ATOM      3  C   UNL     1      16.378 -32.486  23.543  1.00  0.00     0.053 C 
BRANCH   3   4
ATOM      4  C   UNL     1      15.106 -33.254  23.373  1.00  0.00     0.041 C 
ATOM      5  O   UNL     1      14.143 -33.068  24.164  1.00  0.00    -0.550 OA
ATOM      6  O   UNL     1      14.964 -34.142  22.314  1.00  0.00    -0.550 OA
ENDBRANCH   3   4
ENDBRANCH   2   3
ENDBRANCH   1   2
BRANCH   1   7
ATOM      7  C   UNL     1      14.563 -30.076  21.336  1.00  0.00     0.000 C 
BRANCH   7   8
ATOM      8  C   UNL     1      13.326 -30.988  21.274  1.00  0.00    -0.000 C 
BRANCH   8   9
ATOM      9  C   UNL     1      12.215 -30.540  22.237  1.00  0.00    -0.000 C 
BRANCH   9  10
ATOM     10  C   UNL     1      12.766 -29.853  23.494  1.00  0.00    -0.003 C 
ATOM     11  C   UNL     1      11.963 -28.600  23.834  1.00  0.00     0.004 C 
ENDBRANCH   9  10
ENDBRANCH   8   9
ENDBRANCH   7   8
ENDBRANCH   1   7
TORSDOF 7
ENDMDL
MODEL 3
REMARK VINA RESULT:    -4.129      1.452      2.009
REMARK INTER + INTRA:          -6.126
REMARK INTER:                  -5.734
REMARK INTRA:                  -0.392
REMARK UNBOUND:                -0.307
REMARK SMILES CCCCCCCCC(=O)[O-]
REMARK SMILES IDX 6 1 7 2 8 3 9 4 10 5 11 6 5 7 4 8 3 9 2 10 1 11
REMARK H PARENT
REMARK Flexibility Score: inf
ROOT
ATOM      1  C   UNL     1      14.714 -32.758  23.707  1.00  0.00     0.000 C 
ENDROOT
BRANCH   1   2
ATOM      2  C   UNL     1      15.236 -32.848  22.261  1.00  0.00     0.006 C 
BRANCH   2   3
ATOM      3  C   UNL     1      15.193 -34.275  21.698  1.00  0.00     0.053 C 
BRANCH   3   4
ATOM      4  C   UNL     1      14.989 -34.244  20.216  1.00  0.00     0.041 C 
ATOM      5  O   UNL     1      14.034 -33.588  19.722  1.00  0.00    -0.550 OA
ATOM      6  O   UNL     1      15.880 -34.900  19.376  1.00  0.00    -0.550 OA
ENDBRANCH   3   4
ENDBRANCH   2   3
ENDBRANCH   1   2
BRANCH   1   7
ATOM      7  C   UNL     1      13.624 -31.695  23.937  1.00  0.00     0.000 C 
BRANCH   7   8
ATOM      8  C   UNL     1      12.896 -31.298  22.642  1.00  0.00    -0.000 C 
BRANCH   8   9
ATOM      9  C   UNL     1      12.596 -29.792  22.572  1.00  0.00    -0.000 C 
BRANCH   9  10
ATOM     10  C   UNL     1      12.463 -29.153  23.961  1.00  0.00    -0.003 C 
ATOM     11  C   UNL     1      13.144 -27.788  24.006  1.00  0.00     0.004 C 
ENDBRANCH   9  10
ENDBRANCH   8   9
ENDBRANCH   7   8
ENDBRANCH   1   7
TORSDOF 7
ENDMDL
MODEL 4
REMARK VINA RESULT:    -4.126      1.735      2.387
REMARK INTER + INTRA:          -6.122
REMARK INTER:                  -5.623
REMARK INTRA:                  -0.498
REMARK UNBOUND:                -0.307
REMARK SMILES CCCCCCCCC(=O)[O-]
REMARK SMILES IDX 6 1 7 2 8 3 9 4 10 5 11 6 5 7 4 8 3 9 2 10 1 11
REMARK H PARENT
REMARK Flexibility Score: inf
ROOT
ATOM      1  C   UNL     1      15.599 -31.903  23.488  1.00  0.00     0.000 C 
ENDROOT
BRANCH   1   2
ATOM      2  C   UNL     1      16.076 -32.768  22.306  1.00  0.00     0.006 C 
BRANCH   2   3
ATOM      3  C   UNL     1      15.184 -33.992  22.063  1.00  0.00     0.053 C 
BRANCH   3   4
ATOM      4  C   UNL     1      14.817 -34.090  20.616  1.00  0.00     0.041 C 
ATOM      5  O   UNL     1      15.344 -34.971  19.887  1.00  0.00    -0.550 OA
ATOM      6  O   UNL     1      13.858 -33.238  20.081  1.00  0.00    -0.550 OA
ENDBRANCH   3   4
ENDBRANCH   2   3
ENDBRANCH   1   2
BRANCH   1   7
ATOM      7  C   UNL     1      14.091 -31.993  23.787  1.00  0.00     0.000 C 
BRANCH   7   8
ATOM      8  C   UNL     1      13.279 -30.883  23.098  1.00  0.00    -0.000 C 
BRANCH   8   9
ATOM      9  C   UNL     1      14.123 -29.634  22.797  1.00  0.00    -0.000 C 
BRANCH   9  10
ATOM     10  C   UNL     1      13.508 -28.354  23.378  1.00  0.00    -0.003 C 
ATOM     11  C   UNL     1      12.163 -28.640  24.040  1.00  0.00     0.004 C 
ENDBRANCH   9  10
ENDBRANCH   8   9
ENDBRANCH   7   8
ENDBRANCH   1   7
TORSDOF 7
ENDMDL
MODEL 5
REMARK VINA RESULT:    -4.115      2.037      2.742
REMARK INTER + INTRA:          -6.106
REMARK INTER:                  -5.593
REMARK INTRA:                  -0.513
REMARK UNBOUND:                -0.307
REMARK SMILES CCCCCCCCC(=O)[O-]
REMARK SMILES IDX 6 1 7 2 8 3 9 4 10 5 11 6 5 7 4 8 3 9 2 10 1 11
REMARK H PARENT
REMARK Flexibility Score: inf
ROOT
ATOM      1  C   UNL     1      15.822 -30.179  22.663  1.00  0.00     0.000 C 
ENDROOT
BRANCH   1   2
ATOM      2  C   UNL     1      15.963 -31.711  22.734  1.00  0.00     0.006 C 
BRANCH   2   3
ATOM      3  C   UNL     1      16.145 -32.359  21.356  1.00  0.00     0.053 C 
BRANCH   3   4
ATOM      4  C   UNL     1      15.064 -33.362  21.105  1.00  0.00     0.041 C 
ATOM      5  O   UNL     1      13.997 -33.014  20.535  1.00  0.00    -0.550 OA
ATOM      6  O   UNL     1      15.252 -34.692  21.459  1.00  0.00    -0.550 OA
ENDBRANCH   3   4
ENDBRANCH   2   3
ENDBRANCH   1   2
BRANCH   1   7
ATOM      7  C   UNL     1      14.637 -29.677  21.817  1.00  0.00     0.000 C 
BRANCH   7   8
ATOM      8  C   UNL     1      13.276 -30.151  22.355  1.00  0.00    -0.000 C 
BRANCH   8   9
ATOM      9  C   UNL     1      12.984 -29.622  23.768  1.00  0.00    -0.000 C 
BRANCH   9  10
ATOM     10  C   UNL     1      12.708 -28.112  23.786  1.00  0.00    -0.003 C 
ATOM     11  C   UNL     1      11.294 -27.805  23.300  1.00  0.00     0.004 C 
ENDBRANCH   9  10
ENDBRANCH   8   9
ENDBRANCH   7   8
ENDBRANCH   1   7
TORSDOF 7
ENDMDL
MODEL 6
REMARK VINA RESULT:    -4.110      3.812      6.463
REMARK INTER + INTRA:          -6.100
REMARK INTER:                  -5.857
REMARK INTRA:                  -0.243
REMARK UNBOUND:                -0.307
REMARK SMILES CCCCCCCCC(=O)[O-]
REMARK SMILES IDX 6 1 7 2 8 3 9 4 10 5 11 6 5 7 4 8 3 9 2 10 1 11
REMARK H PARENT
REMARK Flexibility Score: inf
ROOT
ATOM      1  C   UNL     1      13.255 -31.360  20.890  1.00  0.00     0.000 C 
ENDROOT
BRANCH   1   2
ATOM      2  C   UNL     1      12.335 -30.968  22.062  1.00  0.00     0.006 C 
BRANCH   2   3
ATOM      3  C   UNL     1      13.112 -30.580  23.327  1.00  0.00     0.053 C 
BRANCH   3   4
ATOM      4  C   UNL     1      12.960 -29.118  23.604  1.00  0.00     0.041 C 
ATOM      5  O   UNL     1      13.919 -28.330  23.390  1.00  0.00    -0.550 OA
ATOM      6  O   UNL     1      11.745 -28.617  24.053  1.00  0.00    -0.550 OA
ENDBRANCH   3   4
ENDBRANCH   2   3
ENDBRANCH   1   2
BRANCH   1   7
ATOM      7  C   UNL     1      14.376 -32.352  21.252  1.00  0.00     0.000 C 
BRANCH   7   8
ATOM      8  C   UNL     1      14.367 -33.610  20.366  1.00  0.00    -0.000 C 
BRANCH   8   9
ATOM      9  C   UNL     1      15.317 -34.702  20.884  1.00  0.00    -0.000 C 
BRANCH   9  10
ATOM     10  C   UNL     1      16.105 -35.380  19.756  1.00  0.00    -0.003 C 
ATOM     11  C   UNL     1      17.018 -34.384  19.046  1.00  0.00     0.004 C 
ENDBRANCH   9  10
ENDBRANCH   8   9
ENDBRANCH   7   8
ENDBRANCH   1   7
TORSDOF 7
ENDMDL
MODEL 7
REMARK VINA RESULT:    -4.109      2.174      2.934
REMARK INTER + INTRA:          -6.098
REMARK INTER:                  -5.386
REMARK INTRA:                  -0.711
REMARK UNBOUND:                -0.307
REMARK SMILES CCCCCCCCC(=O)[O-]
REMARK SMILES IDX 6 1 7 2 8 3 9 4 10 5 11 6 5 7 4 8 3 9 2 10 1 11
REMARK H PARENT
REMARK Flexibility Score: inf
ROOT
ATOM      1  C   UNL     1      16.181 -30.948  23.149  1.00  0.00     0.000 C 
ENDROOT
BRANCH   1   2
ATOM      2  C   UNL     1      16.325 -32.422  22.729  1.00  0.00     0.006 C 
BRANCH   2   3
ATOM      3  C   UNL     1      14.992 -33.180  22.738  1.00  0.00     0.053 C 
BRANCH   3   4
ATOM      4  C   UNL     1      14.638 -33.630  21.356  1.00  0.00     0.041 C 
ATOM      5  O   UNL     1      15.011 -34.760  20.943  1.00  0.00    -0.550 OA
ATOM      6  O   UNL     1      13.857 -32.822  20.539  1.00  0.00    -0.550 OA
ENDBRANCH   3   4
ENDBRANCH   2   3
ENDBRANCH   1   2
BRANCH   1   7
ATOM      7  C   UNL     1      16.067 -29.950  21.982  1.00  0.00     0.000 C 
BRANCH   7   8
ATOM      8  C   UNL     1      14.630 -29.446  21.766  1.00  0.00    -0.000 C 
BRANCH   8   9
ATOM      9  C   UNL     1      14.006 -28.874  23.049  1.00  0.00    -0.000 C 
BRANCH   9  10
ATOM     10  C   UNL     1      12.823 -29.711  23.553  1.00  0.00    -0.003 C 
ATOM     11  C   UNL     1      12.107 -30.403  22.397  1.00  0.00     0.004 C 
ENDBRANCH   9  10
ENDBRANCH   8   9
ENDBRANCH   7   8
ENDBRANCH   1   7
TORSDOF 7
ENDMDL
MODEL 8
REMARK VINA RESULT:    -4.104      4.378      6.343
REMARK INTER + INTRA:          -6.091
REMARK INTER:                  -5.460
REMARK INTRA:                  -0.632
REMARK UNBOUND:                -0.307
REMARK SMILES CCCCCCCCC(=O)[O-]
REMARK SMILES IDX 6 1 7 2 8 3 9 4 10 5 11 6 5 7 4 8 3 9 2 10 1 11
REMARK H PARENT
REMARK Flexibility Score: inf
ROOT
ATOM      1  C   UNL     1      14.915 -31.034  23.471  1.00  0.00     0.000 C 
ENDROOT
BRANCH   1   2
ATOM      2  C   UNL     1      14.233 -29.870  22.728  1.00  0.00     0.006 C 
BRANCH   2   3
ATOM      3  C   UNL     1      12.704 -29.990  22.705  1.00  0.00     0.053 C 
BRANCH   3   4
ATOM      4  C   UNL     1      12.082 -28.874  23.482  1.00  0.00     0.041 C 
ATOM      5  O   UNL     1      12.670 -28.399  24.490  1.00  0.00    -0.550 OA
ATOM      6  O   UNL     1      10.875 -28.325  23.068  1.00  0.00    -0.550 OA
ENDBRANCH   3   4
ENDBRANCH   2   3
ENDBRANCH   1   2
BRANCH   1   7
ATOM      7  C   UNL     1      13.964 -32.152  23.935  1.00  0.00     0.000 C 
BRANCH   7   8
ATOM      8  C   UNL     1      14.548 -33.559  23.723  1.00  0.00    -0.000 C 
BRANCH   8   9
ATOM      9  C   UNL     1      15.641 -33.587  22.644  1.00  0.00    -0.000 C 
BRANCH   9  10
ATOM     10  C   UNL     1      15.177 -34.275  21.353  1.00  0.00    -0.003 C 
ATOM     11  C   UNL     1      14.316 -33.339  20.509  1.00  0.00     0.004 C 
ENDBRANCH   9  10
ENDBRANCH   8   9
ENDBRANCH   7   8
ENDBRANCH   1   7
TORSDOF 7
ENDMDL
MODEL 9
REMARK VINA RESULT:    -4.016      1.892      2.889
REMARK INTER + INTRA:          -5.966
REMARK INTER:                  -5.250
REMARK INTRA:                  -0.716
REMARK UNBOUND:                -0.307
REMARK SMILES CCCCCCCCC(=O)[O-]
REMARK SMILES IDX 6 1 7 2 8 3 9 4 10 5 11 6 5 7 4 8 3 9 2 10 1 11
REMARK H PARENT
REMARK Flexibility Score: inf
ROOT
ATOM      1  C   UNL     1      13.708 -32.081  23.891  1.00  0.00     0.000 C 
ENDROOT
BRANCH   1   2
ATOM      2  C   UNL     1      14.633 -33.186  23.348  1.00  0.00     0.006 C 
BRANCH   2   3
ATOM      3  C   UNL     1      14.723 -33.191  21.817  1.00  0.00     0.053 C 
BRANCH   3   4
ATOM      4  C   UNL     1      16.051 -33.718  21.375  1.00  0.00     0.041 C 
ATOM      5  O   UNL     1      16.467 -34.827  21.803  1.00  0.00    -0.550 OA
ATOM      6  O   UNL     1      16.811 -33.007  20.454  1.00  0.00    -0.550 OA
ENDBRANCH   3   4
ENDBRANCH   2   3
ENDBRANCH   1   2
BRANCH   1   7
ATOM      7  C   UNL     1      13.071 -31.183  22.814  1.00  0.00     0.000 C 
BRANCH   7   8
ATOM      8  C   UNL     1      12.933 -29.718  23.264  1.00  0.00    -0.000 C 
BRANCH   8   9
ATOM      9  C   UNL     1      14.140 -28.860  22.856  1.00  0.00    -0.000 C 
BRANCH   9  10
ATOM     10  C   UNL     1      14.874 -29.421  21.630  1.00  0.00    -0.003 C 
ATOM     11  C   UNL     1      16.320 -29.773  21.969  1.00  0.00     0.004 C 
ENDBRANCH   9  10
ENDBRANCH   8   9
ENDBRANCH   7   8
ENDBRANCH   1   7
TORSDOF 7
ENDMDL
