MODEL 1
REMARK VINA RESULT:    -4.711      0.000      0.000
REMARK INTER + INTRA:          -4.711
REMARK INTER:                  -4.711
REMARK INTRA:                   0.000
REMARK UNBOUND:                 0.000
REMARK SMILES CC1=CC(=O)[C@H]2C[C@@H]1C2(C)C
REMARK SMILES IDX 1 1 2 2 3 3 4 4 5 5 6 6 7 7 8 8 9 9 10 10 11 11
REMARK H PARENT
REMARK Flexibility Score: inf
ROOT
ATOM      1  C   UNL     1       8.668  18.437  59.904  1.00  0.00     0.040 C 
ATOM      2  C   UNL     1       9.794  18.616  58.936  1.00  0.00    -0.066 C 
ATOM      3  C   UNL     1      11.094  18.535  59.336  1.00  0.00     0.047 C 
ATOM      4  C   UNL     1      12.129  18.764  58.277  1.00  0.00     0.159 C 
ATOM      5  O   UNL     1      13.361  18.754  58.530  1.00  0.00    -0.295 OA
ATOM      6  C   UNL     1      11.583  19.013  56.871  1.00  0.00     0.067 C 
ATOM      7  C   UNL     1      10.498  17.929  56.689  1.00  0.00     0.021 C 
ATOM      8  C   UNL     1       9.540  18.885  57.437  1.00  0.00     0.022 C 
ATOM      9  C   UNL     1      10.440  20.064  56.962  1.00  0.00    -0.019 C 
ATOM     10  C   UNL     1      10.020  20.602  55.571  1.00  0.00     0.012 C 
ATOM     11  C   UNL     1      10.625  21.276  57.918  1.00  0.00     0.012 C 
ENDROOT
TORSDOF 0
ENDMDL
MODEL 2
REMARK VINA RESULT:    -4.606      7.253      8.898
REMARK INTER + INTRA:          -4.606
REMARK INTER:                  -4.606
REMARK INTRA:                   0.000
REMARK UNBOUND:                 0.000
REMARK SMILES CC1=CC(=O)[C@H]2C[C@@H]1C2(C)C
REMARK SMILES IDX 1 1 2 2 3 3 4 4 5 5 6 6 7 7 8 8 9 9 10 10 11 11
REMARK H PARENT
REMARK Flexibility Score: inf
ROOT
ATOM      1  C   UNL     1       4.273  26.882  57.334  1.00  0.00     0.040 C 
ATOM      2  C   UNL     1       5.072  26.351  56.186  1.00  0.00    -0.066 C 
ATOM      3  C   UNL     1       4.586  26.374  54.913  1.00  0.00     0.047 C 
ATOM      4  C   UNL     1       5.470  25.784  53.856  1.00  0.00     0.159 C 
ATOM      5  O   UNL     1       5.118  25.710  52.651  1.00  0.00    -0.295 OA
ATOM      6  C   UNL     1       6.827  25.277  54.345  1.00  0.00     0.067 C 
ATOM      7  C   UNL     1       7.344  26.405  55.263  1.00  0.00     0.021 C 
ATOM      8  C   UNL     1       6.489  25.769  56.383  1.00  0.00     0.022 C 
ATOM      9  C   UNL     1       6.603  24.416  55.622  1.00  0.00    -0.019 C 
ATOM     10  C   UNL     1       7.869  23.619  56.025  1.00  0.00     0.012 C 
ATOM     11  C   UNL     1       5.386  23.449  55.657  1.00  0.00     0.012 C 
ENDROOT
TORSDOF 0
ENDMDL
MODEL 3
REMARK VINA RESULT:    -4.550      1.463      3.363
REMARK INTER + INTRA:          -4.550
REMARK INTER:                  -4.550
REMARK INTRA:                   0.000
REMARK UNBOUND:                 0.000
REMARK SMILES CC1=CC(=O)[C@H]2C[C@@H]1C2(C)C
REMARK SMILES IDX 1 1 2 2 3 3 4 4 5 5 6 6 7 7 8 8 9 9 10 10 11 11
REMARK H PARENT
REMARK Flexibility Score: inf
ROOT
ATOM      1  C   UNL     1      10.271  17.421  55.600  1.00  0.00     0.040 C 
ATOM      2  C   UNL     1      10.048  18.492  56.620  1.00  0.00    -0.066 C 
ATOM      3  C   UNL     1      10.773  19.646  56.607  1.00  0.00     0.047 C 
ATOM      4  C   UNL     1      10.476  20.627  57.701  1.00  0.00     0.159 C 
ATOM      5  O   UNL     1      11.105  21.710  57.820  1.00  0.00    -0.295 OA
ATOM      6  C   UNL     1       9.359  20.218  58.662  1.00  0.00     0.067 C 
ATOM      7  C   UNL     1       8.233  19.706  57.738  1.00  0.00     0.021 C 
ATOM      8  C   UNL     1       8.978  18.352  57.724  1.00  0.00     0.022 C 
ATOM      9  C   UNL     1       9.596  18.743  59.098  1.00  0.00    -0.019 C 
ATOM     10  C   UNL     1       8.696  18.329  60.289  1.00  0.00     0.012 C 
ATOM     11  C   UNL     1      11.051  18.288  59.405  1.00  0.00     0.012 C 
ENDROOT
TORSDOF 0
ENDMDL
MODEL 4
REMARK VINA RESULT:    -4.549     11.599     12.928
REMARK INTER + INTRA:          -4.549
REMARK INTER:                  -4.549
REMARK INTRA:                   0.000
REMARK UNBOUND:                 0.000
REMARK SMILES CC1=CC(=O)[C@H]2C[C@@H]1C2(C)C
REMARK SMILES IDX 1 1 2 2 3 3 4 4 5 5 6 6 7 7 8 8 9 9 10 10 11 11
REMARK H PARENT
REMARK Flexibility Score: inf
ROOT
ATOM      1  C   UNL     1      22.125  10.869  52.758  1.00  0.00     0.040 C 
ATOM      2  C   UNL     1      20.708  11.349  52.771  1.00  0.00    -0.066 C 
ATOM      3  C   UNL     1      19.716  10.614  53.346  1.00  0.00     0.047 C 
ATOM      4  C   UNL     1      18.334  11.190  53.266  1.00  0.00     0.159 C 
ATOM      5  O   UNL     1      17.329  10.588  53.724  1.00  0.00    -0.295 OA
ATOM      6  C   UNL     1      18.232  12.556  52.587  1.00  0.00     0.067 C 
ATOM      7  C   UNL     1      19.390  13.371  53.203  1.00  0.00     0.021 C 
ATOM      8  C   UNL     1      20.305  12.704  52.151  1.00  0.00     0.022 C 
ATOM      9  C   UNL     1      19.043  12.511  51.260  1.00  0.00    -0.019 C 
ATOM     10  C   UNL     1      18.765  13.740  50.358  1.00  0.00     0.012 C 
ATOM     11  C   UNL     1      18.953  11.231  50.382  1.00  0.00     0.012 C 
ENDROOT
TORSDOF 0
ENDMDL
MODEL 5
REMARK VINA RESULT:    -4.440      6.765      8.622
REMARK INTER + INTRA:          -4.440
REMARK INTER:                  -4.440
REMARK INTRA:                   0.000
REMARK UNBOUND:                 0.000
REMARK SMILES CC1=CC(=O)[C@H]2C[C@@H]1C2(C)C
REMARK SMILES IDX 1 1 2 2 3 3 4 4 5 5 6 6 7 7 8 8 9 9 10 10 11 11
REMARK H PARENT
REMARK Flexibility Score: inf
ROOT
ATOM      1  C   UNL     1       5.335  24.877  52.203  1.00  0.00     0.040 C 
ATOM      2  C   UNL     1       5.849  24.954  53.606  1.00  0.00    -0.066 C 
ATOM      3  C   UNL     1       6.505  23.906  54.179  1.00  0.00     0.047 C 
ATOM      4  C   UNL     1       6.943  24.097  55.600  1.00  0.00     0.159 C 
ATOM      5  O   UNL     1       7.523  23.189  56.251  1.00  0.00    -0.295 OA
ATOM      6  C   UNL     1       6.634  25.467  56.203  1.00  0.00     0.067 C 
ATOM      7  C   UNL     1       7.063  26.467  55.107  1.00  0.00     0.021 C 
ATOM      8  C   UNL     1       5.678  26.225  54.465  1.00  0.00     0.022 C 
ATOM      9  C   UNL     1       5.157  25.830  55.878  1.00  0.00    -0.019 C 
ATOM     10  C   UNL     1       4.658  27.054  56.686  1.00  0.00     0.012 C 
ATOM     11  C   UNL     1       4.083  24.709  55.977  1.00  0.00     0.012 C 
ENDROOT
TORSDOF 0
ENDMDL
MODEL 6
REMARK VINA RESULT:    -4.432      1.651      2.480
REMARK INTER + INTRA:          -4.432
REMARK INTER:                  -4.432
REMARK INTRA:                   0.000
REMARK UNBOUND:                 0.000
REMARK SMILES CC1=CC(=O)[C@H]2C[C@@H]1C2(C)C
REMARK SMILES IDX 1 1 2 2 3 3 4 4 5 5 6 6 7 7 8 8 9 9 10 10 11 11
REMARK H PARENT
REMARK Flexibility Score: inf
ROOT
ATOM      1  C   UNL     1       8.801  18.493  60.407  1.00  0.00     0.040 C 
ATOM      2  C   UNL     1       9.602  19.049  59.272  1.00  0.00    -0.066 C 
ATOM      3  C   UNL     1       9.592  20.380  58.982  1.00  0.00     0.047 C 
ATOM      4  C   UNL     1      10.411  20.807  57.802  1.00  0.00     0.159 C 
ATOM      5  O   UNL     1      10.452  22.002  57.410  1.00  0.00    -0.295 OA
ATOM      6  C   UNL     1      11.191  19.690  57.107  1.00  0.00     0.067 C 
ATOM      7  C   UNL     1      11.834  18.900  58.267  1.00  0.00     0.021 C 
ATOM      8  C   UNL     1      10.489  18.148  58.387  1.00  0.00     0.022 C 
ATOM      9  C   UNL     1      10.235  18.482  56.888  1.00  0.00    -0.019 C 
ATOM     10  C   UNL     1      10.839  17.418  55.936  1.00  0.00     0.012 C 
ATOM     11  C   UNL     1       8.775  18.768  56.437  1.00  0.00     0.012 C 
ENDROOT
TORSDOF 0
ENDMDL
MODEL 7
REMARK VINA RESULT:    -4.419      1.659      3.030
REMARK INTER + INTRA:          -4.419
REMARK INTER:                  -4.419
REMARK INTRA:                   0.000
REMARK UNBOUND:                 0.000
REMARK SMILES CC1=CC(=O)[C@H]2C[C@@H]1C2(C)C
REMARK SMILES IDX 1 1 2 2 3 3 4 4 5 5 6 6 7 7 8 8 9 9 10 10 11 11
REMARK H PARENT
REMARK Flexibility Score: inf
ROOT
ATOM      1  C   UNL     1      13.211  19.095  57.818  1.00  0.00     0.040 C 
ATOM      2  C   UNL     1      11.750  19.241  58.105  1.00  0.00    -0.066 C 
ATOM      3  C   UNL     1      11.140  18.500  59.072  1.00  0.00     0.047 C 
ATOM      4  C   UNL     1       9.667  18.718  59.243  1.00  0.00     0.159 C 
ATOM      5  O   UNL     1       8.984  18.066  60.074  1.00  0.00    -0.295 OA
ATOM      6  C   UNL     1       9.053  19.783  58.334  1.00  0.00     0.067 C 
ATOM      7  C   UNL     1      10.038  20.969  58.422  1.00  0.00     0.021 C 
ATOM      8  C   UNL     1      10.868  20.248  57.336  1.00  0.00     0.022 C 
ATOM      9  C   UNL     1       9.556  19.545  56.882  1.00  0.00    -0.019 C 
ATOM     10  C   UNL     1       8.769  20.382  55.841  1.00  0.00     0.012 C 
ATOM     11  C   UNL     1       9.648  18.082  56.362  1.00  0.00     0.012 C 
ENDROOT
TORSDOF 0
ENDMDL
MODEL 8
REMARK VINA RESULT:    -4.389     11.396     12.823
REMARK INTER + INTRA:          -4.389
REMARK INTER:                  -4.389
REMARK INTRA:                   0.000
REMARK UNBOUND:                 0.000
REMARK SMILES CC1=CC(=O)[C@H]2C[C@@H]1C2(C)C
REMARK SMILES IDX 1 1 2 2 3 3 4 4 5 5 6 6 7 7 8 8 9 9 10 10 11 11
REMARK H PARENT
REMARK Flexibility Score: inf
ROOT
ATOM      1  C   UNL     1      18.471  14.190  49.998  1.00  0.00     0.040 C 
ATOM      2  C   UNL     1      18.759  13.238  51.115  1.00  0.00    -0.066 C 
ATOM      3  C   UNL     1      19.874  13.367  51.888  1.00  0.00     0.047 C 
ATOM      4  C   UNL     1      20.064  12.332  52.955  1.00  0.00     0.159 C 
ATOM      5  O   UNL     1      21.073  12.321  53.706  1.00  0.00    -0.295 OA
ATOM      6  C   UNL     1      18.949  11.291  53.064  1.00  0.00     0.067 C 
ATOM      7  C   UNL     1      17.649  12.121  52.996  1.00  0.00     0.021 C 
ATOM      8  C   UNL     1      17.802  12.076  51.458  1.00  0.00     0.022 C 
ATOM      9  C   UNL     1      18.623  10.765  51.636  1.00  0.00    -0.019 C 
ATOM     10  C   UNL     1      17.721   9.505  51.665  1.00  0.00     0.012 C 
ATOM     11  C   UNL     1      19.802  10.499  50.659  1.00  0.00     0.012 C 
ENDROOT
TORSDOF 0
ENDMDL
MODEL 9
REMARK VINA RESULT:    -4.378      1.397      3.295
REMARK INTER + INTRA:          -4.378
REMARK INTER:                  -4.378
REMARK INTRA:                   0.000
REMARK UNBOUND:                 0.000
REMARK SMILES CC1=CC(=O)[C@H]2C[C@@H]1C2(C)C
REMARK SMILES IDX 1 1 2 2 3 3 4 4 5 5 6 6 7 7 8 8 9 9 10 10 11 11
REMARK H PARENT
REMARK Flexibility Score: inf
ROOT
ATOM      1  C   UNL     1      10.129  21.805  57.124  1.00  0.00     0.040 C 
ATOM      2  C   UNL     1      10.063  20.605  58.014  1.00  0.00    -0.066 C 
ATOM      3  C   UNL     1      11.132  19.774  58.164  1.00  0.00     0.047 C 
ATOM      4  C   UNL     1      10.929  18.589  59.060  1.00  0.00     0.159 C 
ATOM      5  O   UNL     1      11.827  17.728  59.248  1.00  0.00    -0.295 OA
ATOM      6  C   UNL     1       9.556  18.500  59.727  1.00  0.00     0.067 C 
ATOM      7  C   UNL     1       9.293  19.931  60.243  1.00  0.00     0.021 C 
ATOM      8  C   UNL     1       8.791  20.260  58.819  1.00  0.00     0.022 C 
ATOM      9  C   UNL     1       8.464  18.748  58.647  1.00  0.00    -0.019 C 
ATOM     10  C   UNL     1       7.043  18.391  59.153  1.00  0.00     0.012 C 
ATOM     11  C   UNL     1       8.656  18.110  57.242  1.00  0.00     0.012 C 
ENDROOT
TORSDOF 0
ENDMDL
