MODEL 1
REMARK VINA RESULT:    -5.102      0.000      0.000
REMARK INTER + INTRA:          -8.064
REMARK INTER:                  -7.786
REMARK INTRA:                  -0.278
REMARK UNBOUND:                -0.278
REMARK SMILES O=C([O-])CCCCCCCCC(=O)[O-]
REMARK SMILES IDX 7 1 6 2 5 3 4 4 2 5 1 6 3 7 8 8 9 9 10 10 11 11 12 12 13 13
REMARK SMILES IDX 14 14
REMARK H PARENT
REMARK Flexibility Score: inf
ROOT
ATOM      1  C   UNL     1       3.724  44.625  11.808  1.00  0.00     0.000 C 
ENDROOT
BRANCH   1   2
ATOM      2  C   UNL     1       3.822  45.313  10.435  1.00  0.00     0.000 C 
BRANCH   2   3
ATOM      3  C   UNL     1       4.642  46.616  10.416  1.00  0.00     0.006 C 
BRANCH   3   4
ATOM      4  C   UNL     1       5.120  47.003   9.010  1.00  0.00     0.053 C 
BRANCH   4   5
ATOM      5  C   UNL     1       6.333  47.876   9.093  1.00  0.00     0.041 C 
ATOM      6  O   UNL     1       6.284  49.068   8.692  1.00  0.00    -0.550 OA
ATOM      7  O   UNL     1       7.532  47.357   9.566  1.00  0.00    -0.550 OA
ENDBRANCH   4   5
ENDBRANCH   3   4
ENDBRANCH   2   3
ENDBRANCH   1   2
BRANCH   1   8
ATOM      8  C   UNL     1       2.457  43.770  11.960  1.00  0.00     0.000 C 
BRANCH   8   9
ATOM      9  C   UNL     1       2.563  42.480  11.132  1.00  0.00     0.000 C 
BRANCH   9  10
ATOM     10  C   UNL     1       2.714  41.220  12.006  1.00  0.00     0.006 C 
BRANCH  10  11
ATOM     11  C   UNL     1       4.167  40.859  12.354  1.00  0.00     0.053 C 
BRANCH  11  12
ATOM     12  C   UNL     1       4.277  39.504  12.981  1.00  0.00     0.041 C 
ATOM     13  O   UNL     1       5.155  39.280  13.855  1.00  0.00    -0.550 OA
ATOM     14  O   UNL     1       3.387  38.497  12.625  1.00  0.00    -0.550 OA
ENDBRANCH  11  12
ENDBRANCH  10  11
ENDBRANCH   9  10
ENDBRANCH   8   9
ENDBRANCH   1   8
TORSDOF 9
ENDMDL
MODEL 2
REMARK VINA RESULT:    -5.081      1.890      2.466
REMARK INTER + INTRA:          -8.032
REMARK INTER:                  -7.465
REMARK INTRA:                  -0.567
REMARK UNBOUND:                -0.278
REMARK SMILES O=C([O-])CCCCCCCCC(=O)[O-]
REMARK SMILES IDX 7 1 6 2 5 3 4 4 2 5 1 6 3 7 8 8 9 9 10 10 11 11 12 12 13 13
REMARK SMILES IDX 14 14
REMARK H PARENT
REMARK Flexibility Score: inf
ROOT
ATOM      1  C   UNL     1       2.734  42.966   9.607  1.00  0.00     0.000 C 
ENDROOT
BRANCH   1   2
ATOM      2  C   UNL     1       4.044  43.727   9.330  1.00  0.00     0.000 C 
BRANCH   2   3
ATOM      3  C   UNL     1       4.286  44.956  10.225  1.00  0.00     0.006 C 
BRANCH   3   4
ATOM      4  C   UNL     1       4.663  46.212   9.430  1.00  0.00     0.053 C 
BRANCH   4   5
ATOM      5  C   UNL     1       3.433  46.918   8.953  1.00  0.00     0.041 C 
ATOM      6  O   UNL     1       2.384  46.902   9.648  1.00  0.00    -0.550 OA
ATOM      7  O   UNL     1       3.431  47.550   7.716  1.00  0.00    -0.550 OA
ENDBRANCH   4   5
ENDBRANCH   3   4
ENDBRANCH   2   3
ENDBRANCH   1   2
BRANCH   1   8
ATOM      8  C   UNL     1       1.909  43.588  10.743  1.00  0.00     0.000 C 
BRANCH   8   9
ATOM      9  C   UNL     1       1.911  42.681  11.983  1.00  0.00     0.000 C 
BRANCH   9  10
ATOM     10  C   UNL     1       2.760  41.410  11.791  1.00  0.00     0.006 C 
BRANCH  10  11
ATOM     11  C   UNL     1       2.424  40.269  12.765  1.00  0.00     0.053 C 
BRANCH  11  12
ATOM     12  C   UNL     1       3.460  39.188  12.748  1.00  0.00     0.041 C 
ATOM     13  O   UNL     1       3.166  38.037  12.330  1.00  0.00    -0.550 OA
ATOM     14  O   UNL     1       4.758  39.461  13.160  1.00  0.00    -0.550 OA
ENDBRANCH  11  12
ENDBRANCH  10  11
ENDBRANCH   9  10
ENDBRANCH   8   9
ENDBRANCH   1   8
TORSDOF 9
ENDMDL
MODEL 3
REMARK VINA RESULT:    -5.059      0.923      1.655
REMARK INTER + INTRA:          -7.999
REMARK INTER:                  -7.640
REMARK INTRA:                  -0.358
REMARK UNBOUND:                -0.278
REMARK SMILES O=C([O-])CCCCCCCCC(=O)[O-]
REMARK SMILES IDX 7 1 6 2 5 3 4 4 2 5 1 6 3 7 8 8 9 9 10 10 11 11 12 12 13 13
REMARK SMILES IDX 14 14
REMARK H PARENT
REMARK Flexibility Score: inf
ROOT
ATOM      1  C   UNL     1       4.141  43.721  10.091  1.00  0.00     0.000 C 
ENDROOT
BRANCH   1   2
ATOM      2  C   UNL     1       4.139  44.836  11.153  1.00  0.00     0.000 C 
BRANCH   2   3
ATOM      3  C   UNL     1       4.121  46.270  10.592  1.00  0.00     0.006 C 
BRANCH   3   4
ATOM      4  C   UNL     1       4.768  46.380   9.206  1.00  0.00     0.053 C 
BRANCH   4   5
ATOM      5  C   UNL     1       5.746  47.512   9.173  1.00  0.00     0.041 C 
ATOM      6  O   UNL     1       6.946  47.321   9.503  1.00  0.00    -0.550 OA
ATOM      7  O   UNL     1       5.322  48.788   8.825  1.00  0.00    -0.550 OA
ENDBRANCH   4   5
ENDBRANCH   3   4
ENDBRANCH   2   3
ENDBRANCH   1   2
BRANCH   1   8
ATOM      8  C   UNL     1       2.791  42.997   9.980  1.00  0.00     0.000 C 
BRANCH   8   9
ATOM      9  C   UNL     1       2.329  42.485  11.353  1.00  0.00     0.000 C 
BRANCH   9  10
ATOM     10  C   UNL     1       3.270  41.417  11.940  1.00  0.00     0.006 C 
BRANCH  10  11
ATOM     11  C   UNL     1       2.549  40.232  12.603  1.00  0.00     0.053 C 
BRANCH  11  12
ATOM     12  C   UNL     1       3.431  39.027  12.716  1.00  0.00     0.041 C 
ATOM     13  O   UNL     1       3.006  37.897  12.358  1.00  0.00    -0.550 OA
ATOM     14  O   UNL     1       4.733  39.158  13.184  1.00  0.00    -0.550 OA
ENDBRANCH  11  12
ENDBRANCH  10  11
ENDBRANCH   9  10
ENDBRANCH   8   9
ENDBRANCH   1   8
TORSDOF 9
ENDMDL
MODEL 4
REMARK VINA RESULT:    -5.003      1.007      7.632
REMARK INTER + INTRA:          -7.913
REMARK INTER:                  -7.498
REMARK INTRA:                  -0.415
REMARK UNBOUND:                -0.278
REMARK SMILES O=C([O-])CCCCCCCCC(=O)[O-]
REMARK SMILES IDX 7 1 6 2 5 3 4 4 2 5 1 6 3 7 8 8 9 9 10 10 11 11 12 12 13 13
REMARK SMILES IDX 14 14
REMARK H PARENT
REMARK Flexibility Score: inf
ROOT
ATOM      1  C   UNL     1       2.391  43.870  11.475  1.00  0.00     0.000 C 
ENDROOT
BRANCH   1   2
ATOM      2  C   UNL     1       1.833  42.519  11.957  1.00  0.00     0.000 C 
BRANCH   2   3
ATOM      3  C   UNL     1       2.831  41.347  11.912  1.00  0.00     0.006 C 
BRANCH   3   4
ATOM      4  C   UNL     1       2.412  40.168  12.799  1.00  0.00     0.053 C 
BRANCH   4   5
ATOM      5  C   UNL     1       3.403  39.052  12.689  1.00  0.00     0.041 C 
ATOM      6  O   UNL     1       3.032  37.910  12.314  1.00  0.00    -0.550 OA
ATOM      7  O   UNL     1       4.728  39.263  13.049  1.00  0.00    -0.550 OA
ENDBRANCH   4   5
ENDBRANCH   3   4
ENDBRANCH   2   3
ENDBRANCH   1   2
BRANCH   1   8
ATOM      8  C   UNL     1       3.749  44.216  12.104  1.00  0.00     0.000 C 
BRANCH   8   9
ATOM      9  C   UNL     1       4.531  45.196  11.217  1.00  0.00     0.000 C 
BRANCH   9  10
ATOM     10  C   UNL     1       3.637  45.916  10.189  1.00  0.00     0.006 C 
BRANCH  10  11
ATOM     11  C   UNL     1       4.400  46.532   9.006  1.00  0.00     0.053 C 
BRANCH  11  12
ATOM     12  C   UNL     1       5.394  47.561   9.450  1.00  0.00     0.041 C 
ATOM     13  O   UNL     1       5.012  48.573  10.095  1.00  0.00    -0.550 OA
ATOM     14  O   UNL     1       6.746  47.384   9.182  1.00  0.00    -0.550 OA
ENDBRANCH  11  12
ENDBRANCH  10  11
ENDBRANCH   9  10
ENDBRANCH   8   9
ENDBRANCH   1   8
TORSDOF 9
ENDMDL
MODEL 5
REMARK VINA RESULT:    -4.917      2.051      7.431
REMARK INTER + INTRA:          -7.782
REMARK INTER:                  -7.189
REMARK INTRA:                  -0.592
REMARK UNBOUND:                -0.278
REMARK SMILES O=C([O-])CCCCCCCCC(=O)[O-]
REMARK SMILES IDX 7 1 6 2 5 3 4 4 2 5 1 6 3 7 8 8 9 9 10 10 11 11 12 12 13 13
REMARK SMILES IDX 14 14
REMARK H PARENT
REMARK Flexibility Score: inf
ROOT
ATOM      1  C   UNL     1       2.734  43.049   9.993  1.00  0.00     0.000 C 
ENDROOT
BRANCH   1   2
ATOM      2  C   UNL     1       2.480  42.804  11.492  1.00  0.00     0.000 C 
BRANCH   2   3
ATOM      3  C   UNL     1       2.650  41.345  11.952  1.00  0.00     0.006 C 
BRANCH   3   4
ATOM      4  C   UNL     1       4.091  41.009  12.359  1.00  0.00     0.053 C 
BRANCH   4   5
ATOM      5  C   UNL     1       4.162  39.632  12.940  1.00  0.00     0.041 C 
ATOM      6  O   UNL     1       5.130  39.304  13.675  1.00  0.00    -0.550 OA
ATOM      7  O   UNL     1       3.186  38.694  12.629  1.00  0.00    -0.550 OA
ENDBRANCH   4   5
ENDBRANCH   3   4
ENDBRANCH   2   3
ENDBRANCH   1   2
BRANCH   1   8
ATOM      8  C   UNL     1       4.112  43.666   9.712  1.00  0.00     0.000 C 
BRANCH   8   9
ATOM      9  C   UNL     1       4.405  44.819  10.685  1.00  0.00     0.000 C 
BRANCH   9  10
ATOM     10  C   UNL     1       4.688  46.151   9.965  1.00  0.00     0.006 C 
BRANCH  10  11
ATOM     11  C   UNL     1       3.519  47.149   9.995  1.00  0.00     0.053 C 
BRANCH  11  12
ATOM     12  C   UNL     1       2.656  47.043   8.777  1.00  0.00     0.041 C 
ATOM     13  O   UNL     1       2.956  47.678   7.731  1.00  0.00    -0.550 OA
ATOM     14  O   UNL     1       1.538  46.217   8.784  1.00  0.00    -0.550 OA
ENDBRANCH  11  12
ENDBRANCH  10  11
ENDBRANCH   9  10
ENDBRANCH   8   9
ENDBRANCH   1   8
TORSDOF 9
ENDMDL
MODEL 6
REMARK VINA RESULT:    -4.857      1.308      7.898
REMARK INTER + INTRA:          -7.690
REMARK INTER:                  -7.313
REMARK INTRA:                  -0.377
REMARK UNBOUND:                -0.278
REMARK SMILES O=C([O-])CCCCCCCCC(=O)[O-]
REMARK SMILES IDX 7 1 6 2 5 3 4 4 2 5 1 6 3 7 8 8 9 9 10 10 11 11 12 12 13 13
REMARK SMILES IDX 14 14
REMARK H PARENT
REMARK Flexibility Score: inf
ROOT
ATOM      1  C   UNL     1       3.918  44.580   9.659  1.00  0.00     0.000 C 
ENDROOT
BRANCH   1   2
ATOM      2  C   UNL     1       3.231  43.258  10.047  1.00  0.00     0.000 C 
BRANCH   2   3
ATOM      3  C   UNL     1       3.528  42.764  11.474  1.00  0.00     0.006 C 
BRANCH   3   4
ATOM      4  C   UNL     1       2.626  41.600  11.905  1.00  0.00     0.053 C 
BRANCH   4   5
ATOM      5  C   UNL     1       3.452  40.453  12.399  1.00  0.00     0.041 C 
ATOM      6  O   UNL     1       4.666  40.624  12.682  1.00  0.00    -0.550 OA
ATOM      7  O   UNL     1       2.892  39.186  12.499  1.00  0.00    -0.550 OA
ENDBRANCH   4   5
ENDBRANCH   3   4
ENDBRANCH   2   3
ENDBRANCH   1   2
BRANCH   1   8
ATOM      8  C   UNL     1       4.150  45.510  10.859  1.00  0.00     0.000 C 
BRANCH   8   9
ATOM      9  C   UNL     1       4.486  46.934  10.393  1.00  0.00     0.000 C 
BRANCH   9  10
ATOM     10  C   UNL     1       5.468  46.959   9.207  1.00  0.00     0.006 C 
BRANCH  10  11
ATOM     11  C   UNL     1       6.641  47.938   9.375  1.00  0.00     0.053 C 
BRANCH  11  12
ATOM     12  C   UNL     1       6.183  49.363   9.424  1.00  0.00     0.041 C 
ATOM     13  O   UNL     1       6.325  50.038  10.478  1.00  0.00    -0.550 OA
ATOM     14  O   UNL     1       5.632  49.957   8.295  1.00  0.00    -0.550 OA
ENDBRANCH  11  12
ENDBRANCH  10  11
ENDBRANCH   9  10
ENDBRANCH   8   9
ENDBRANCH   1   8
TORSDOF 9
ENDMDL
MODEL 7
REMARK VINA RESULT:    -4.807      2.030      7.081
REMARK INTER + INTRA:          -7.615
REMARK INTER:                  -6.838
REMARK INTRA:                  -0.777
REMARK UNBOUND:                -0.278
REMARK SMILES O=C([O-])CCCCCCCCC(=O)[O-]
REMARK SMILES IDX 7 1 6 2 5 3 4 4 2 5 1 6 3 7 8 8 9 9 10 10 11 11 12 12 13 13
REMARK SMILES IDX 14 14
REMARK H PARENT
REMARK Flexibility Score: inf
ROOT
ATOM      1  C   UNL     1       1.597  45.389   9.995  1.00  0.00     0.000 C 
ENDROOT
BRANCH   1   2
ATOM      2  C   UNL     1       1.479  44.110   9.147  1.00  0.00     0.000 C 
BRANCH   2   3
ATOM      3  C   UNL     1       2.554  43.043   9.423  1.00  0.00     0.006 C 
BRANCH   3   4
ATOM      4  C   UNL     1       3.116  43.113  10.848  1.00  0.00     0.053 C 
BRANCH   4   5
ATOM      5  C   UNL     1       2.384  42.166  11.746  1.00  0.00     0.041 C 
ATOM      6  O   UNL     1       2.833  41.007  11.946  1.00  0.00    -0.550 OA
ATOM      7  O   UNL     1       1.179  42.546  12.324  1.00  0.00    -0.550 OA
ENDBRANCH   4   5
ENDBRANCH   3   4
ENDBRANCH   2   3
ENDBRANCH   1   2
BRANCH   1   8
ATOM      8  C   UNL     1       1.998  46.621   9.168  1.00  0.00     0.000 C 
BRANCH   8   9
ATOM      9  C   UNL     1       2.870  47.577   9.997  1.00  0.00     0.000 C 
BRANCH   9  10
ATOM     10  C   UNL     1       4.188  46.930  10.464  1.00  0.00     0.006 C 
BRANCH  10  11
ATOM     11  C   UNL     1       5.168  46.596   9.328  1.00  0.00     0.053 C 
BRANCH  11  12
ATOM     12  C   UNL     1       6.198  47.666   9.139  1.00  0.00     0.041 C 
ATOM     13  O   UNL     1       7.407  47.435   9.405  1.00  0.00    -0.550 OA
ATOM     14  O   UNL     1       5.828  48.908   8.637  1.00  0.00    -0.550 OA
ENDBRANCH  11  12
ENDBRANCH  10  11
ENDBRANCH   9  10
ENDBRANCH   8   9
ENDBRANCH   1   8
TORSDOF 9
ENDMDL
MODEL 8
REMARK VINA RESULT:    -4.748      3.816      5.399
REMARK INTER + INTRA:          -7.524
REMARK INTER:                  -6.690
REMARK INTRA:                  -0.834
REMARK UNBOUND:                -0.278
REMARK SMILES O=C([O-])CCCCCCCCC(=O)[O-]
REMARK SMILES IDX 7 1 6 2 5 3 4 4 2 5 1 6 3 7 8 8 9 9 10 10 11 11 12 12 13 13
REMARK SMILES IDX 14 14
REMARK H PARENT
REMARK Flexibility Score: inf
ROOT
ATOM      1  C   UNL     1       6.374  49.115   8.987  1.00  0.00     0.000 C 
ENDROOT
BRANCH   1   2
ATOM      2  C   UNL     1       5.892  49.986  10.162  1.00  0.00     0.000 C 
BRANCH   2   3
ATOM      3  C   UNL     1       4.599  50.779   9.898  1.00  0.00     0.006 C 
BRANCH   3   4
ATOM      4  C   UNL     1       3.334  50.024  10.325  1.00  0.00     0.053 C 
BRANCH   4   5
ATOM      5  C   UNL     1       2.615  49.489   9.127  1.00  0.00     0.041 C 
ATOM      6  O   UNL     1       3.002  49.792   7.969  1.00  0.00    -0.550 OA
ATOM      7  O   UNL     1       1.487  48.695   9.291  1.00  0.00    -0.550 OA
ENDBRANCH   4   5
ENDBRANCH   3   4
ENDBRANCH   2   3
ENDBRANCH   1   2
BRANCH   1   8
ATOM      8  C   UNL     1       6.561  47.640   9.371  1.00  0.00     0.000 C 
BRANCH   8   9
ATOM      9  C   UNL     1       5.257  46.852   9.176  1.00  0.00     0.000 C 
BRANCH   9  10
ATOM     10  C   UNL     1       4.521  46.577  10.500  1.00  0.00     0.006 C 
BRANCH  10  11
ATOM     11  C   UNL     1       4.324  45.087  10.819  1.00  0.00     0.053 C 
BRANCH  11  12
ATOM     12  C   UNL     1       3.613  44.363   9.718  1.00  0.00     0.041 C 
ATOM     13  O   UNL     1       4.217  43.490   9.041  1.00  0.00    -0.550 OA
ATOM     14  O   UNL     1       2.273  44.629   9.462  1.00  0.00    -0.550 OA
ENDBRANCH  11  12
ENDBRANCH  10  11
ENDBRANCH   9  10
ENDBRANCH   8   9
ENDBRANCH   1   8
TORSDOF 9
ENDMDL
MODEL 9
REMARK VINA RESULT:    -4.721      3.559      7.857
REMARK INTER + INTRA:          -7.482
REMARK INTER:                  -6.675
REMARK INTRA:                  -0.807
REMARK UNBOUND:                -0.278
REMARK SMILES O=C([O-])CCCCCCCCC(=O)[O-]
REMARK SMILES IDX 7 1 6 2 5 3 4 4 2 5 1 6 3 7 8 8 9 9 10 10 11 11 12 12 13 13
REMARK SMILES IDX 14 14
REMARK H PARENT
REMARK Flexibility Score: inf
ROOT
ATOM      1  C   UNL     1       6.212  48.987   9.451  1.00  0.00     0.000 C 
ENDROOT
BRANCH   1   2
ATOM      2  C   UNL     1       6.163  47.452   9.343  1.00  0.00     0.000 C 
BRANCH   2   3
ATOM      3  C   UNL     1       4.987  46.784  10.079  1.00  0.00     0.006 C 
BRANCH   3   4
ATOM      4  C   UNL     1       4.487  45.514   9.379  1.00  0.00     0.053 C 
BRANCH   4   5
ATOM      5  C   UNL     1       4.126  44.469  10.387  1.00  0.00     0.041 C 
ATOM      6  O   UNL     1       3.654  43.364  10.013  1.00  0.00    -0.550 OA
ATOM      7  O   UNL     1       4.266  44.734  11.744  1.00  0.00    -0.550 OA
ENDBRANCH   4   5
ENDBRANCH   3   4
ENDBRANCH   2   3
ENDBRANCH   1   2
BRANCH   1   8
ATOM      8  C   UNL     1       5.183  49.551  10.443  1.00  0.00     0.000 C 
BRANCH   8   9
ATOM      9  C   UNL     1       4.435  50.748   9.836  1.00  0.00     0.000 C 
BRANCH   9  10
ATOM     10  C   UNL     1       4.560  50.815   8.302  1.00  0.00     0.006 C 
BRANCH  10  11
ATOM     11  C   UNL     1       3.232  50.632   7.550  1.00  0.00     0.053 C 
BRANCH  11  12
ATOM     12  C   UNL     1       2.796  49.200   7.514  1.00  0.00     0.041 C 
ATOM     13  O   UNL     1       1.628  48.885   7.863  1.00  0.00    -0.550 OA
ATOM     14  O   UNL     1       3.668  48.218   7.062  1.00  0.00    -0.550 OA
ENDBRANCH  11  12
ENDBRANCH  10  11
ENDBRANCH   9  10
ENDBRANCH   8   9
ENDBRANCH   1   8
TORSDOF 9
ENDMDL
