MODEL 1
REMARK VINA RESULT:    -4.013      0.000      0.000
REMARK INTER + INTRA:          -4.341
REMARK INTER:                  -4.247
REMARK INTRA:                  -0.093
REMARK UNBOUND:                -0.093
REMARK SMILES C=C(C)[C@@H]1CC=C(C)C(=O)C1
REMARK SMILES IDX 8 1 7 2 6 3 5 4 4 5 11 6 9 7 10 8 2 9 1 10 3 11
REMARK H PARENT
REMARK Flexibility Score: inf
ROOT
ATOM      1  C   UNL     1     199.409 150.320 165.237  1.00  0.00     0.048 C 
ATOM      2  C   UNL     1     198.973 150.345 163.798  1.00  0.00    -0.012 C 
ATOM      3  C   UNL     1     199.464 151.274 162.959  1.00  0.00    -0.019 C 
ATOM      4  C   UNL     1     199.120 151.290 161.492  1.00  0.00     0.036 C 
ATOM      5  C   UNL     1     197.709 150.722 161.246  1.00  0.00     0.025 C 
ATOM      6  C   UNL     1     197.581 149.315 161.861  1.00  0.00     0.089 C 
ATOM      7  C   UNL     1     198.017 149.325 163.301  1.00  0.00     0.158 C 
ATOM      8  O   UNL     1     197.593 148.426 164.076  1.00  0.00    -0.295 OA
ENDROOT
BRANCH   5   9
ATOM      9  C   UNL     1     197.350 150.725 159.769  1.00  0.00    -0.077 C 
ATOM     10  C   UNL     1     198.032 149.982 158.879  1.00  0.00     0.008 C 
ATOM     11  C   UNL     1     196.204 151.587 159.308  1.00  0.00     0.039 C 
ENDBRANCH   5   9
TORSDOF 1
ENDMDL
MODEL 2
REMARK VINA RESULT:    -3.712      8.601     10.477
REMARK INTER + INTRA:          -4.023
REMARK INTER:                  -3.927
REMARK INTRA:                  -0.096
REMARK UNBOUND:                -0.093
REMARK SMILES C=C(C)[C@@H]1CC=C(C)C(=O)C1
REMARK SMILES IDX 8 1 7 2 6 3 5 4 4 5 11 6 9 7 10 8 2 9 1 10 3 11
REMARK H PARENT
REMARK Flexibility Score: inf
ROOT
ATOM      1  C   UNL     1     202.601 149.145 168.678  1.00  0.00     0.048 C 
ATOM      2  C   UNL     1     202.309 147.713 169.033  1.00  0.00    -0.012 C 
ATOM      3  C   UNL     1     201.045 147.317 169.263  1.00  0.00    -0.019 C 
ATOM      4  C   UNL     1     200.695 145.879 169.542  1.00  0.00     0.036 C 
ATOM      5  C   UNL     1     201.854 145.152 170.250  1.00  0.00     0.025 C 
ATOM      6  C   UNL     1     203.153 145.289 169.434  1.00  0.00     0.089 C 
ATOM      7  C   UNL     1     203.421 146.732 169.102  1.00  0.00     0.158 C 
ATOM      8  O   UNL     1     204.599 147.092 168.839  1.00  0.00    -0.295 OA
ENDROOT
BRANCH   5   9
ATOM      9  C   UNL     1     201.518 143.696 170.532  1.00  0.00    -0.077 C 
ATOM     10  C   UNL     1     202.079 143.031 171.558  1.00  0.00     0.008 C 
ATOM     11  C   UNL     1     200.534 142.997 169.631  1.00  0.00     0.039 C 
ENDBRANCH   5   9
TORSDOF 1
ENDMDL
MODEL 3
REMARK VINA RESULT:    -3.622      1.803      4.776
REMARK INTER + INTRA:          -3.927
REMARK INTER:                  -3.833
REMARK INTRA:                  -0.094
REMARK UNBOUND:                -0.093
REMARK SMILES C=C(C)[C@@H]1CC=C(C)C(=O)C1
REMARK SMILES IDX 8 1 7 2 6 3 5 4 4 5 11 6 9 7 10 8 2 9 1 10 3 11
REMARK H PARENT
REMARK Flexibility Score: inf
ROOT
ATOM      1  C   UNL     1     196.978 150.855 159.747  1.00  0.00     0.048 C 
ATOM      2  C   UNL     1     197.740 150.614 161.021  1.00  0.00    -0.012 C 
ATOM      3  C   UNL     1     197.354 149.642 161.866  1.00  0.00    -0.019 C 
ATOM      4  C   UNL     1     198.132 149.310 163.112  1.00  0.00     0.036 C 
ATOM      5  C   UNL     1     198.846 150.556 163.671  1.00  0.00     0.025 C 
ATOM      6  C   UNL     1     199.729 151.201 162.585  1.00  0.00     0.089 C 
ATOM      7  C   UNL     1     198.936 151.437 161.329  1.00  0.00     0.158 C 
ATOM      8  O   UNL     1     199.326 152.315 160.513  1.00  0.00    -0.295 OA
ENDROOT
BRANCH   5   9
ATOM      9  C   UNL     1     199.641 150.235 164.925  1.00  0.00    -0.077 C 
ATOM     10  C   UNL     1     200.354 149.099 165.034  1.00  0.00     0.008 C 
ATOM     11  C   UNL     1     199.619 151.219 166.065  1.00  0.00     0.039 C 
ENDBRANCH   5   9
TORSDOF 1
ENDMDL
MODEL 4
REMARK VINA RESULT:    -3.594      2.722      3.748
REMARK INTER + INTRA:          -3.898
REMARK INTER:                  -3.806
REMARK INTRA:                  -0.092
REMARK UNBOUND:                -0.093
REMARK SMILES C=C(C)[C@@H]1CC=C(C)C(=O)C1
REMARK SMILES IDX 8 1 7 2 6 3 5 4 4 5 11 6 9 7 10 8 2 9 1 10 3 11
REMARK H PARENT
REMARK Flexibility Score: inf
ROOT
ATOM      1  C   UNL     1     200.588 153.838 164.942  1.00  0.00     0.048 C 
ATOM      2  C   UNL     1     200.056 152.492 164.532  1.00  0.00    -0.012 C 
ATOM      3  C   UNL     1     200.117 152.104 163.246  1.00  0.00    -0.019 C 
ATOM      4  C   UNL     1     199.672 150.736 162.801  1.00  0.00     0.036 C 
ATOM      5  C   UNL     1     198.539 150.201 163.698  1.00  0.00     0.025 C 
ATOM      6  C   UNL     1     198.968 150.223 165.177  1.00  0.00     0.089 C 
ATOM      7  C   UNL     1     199.487 151.583 165.558  1.00  0.00     0.158 C 
ATOM      8  O   UNL     1     199.475 151.927 166.770  1.00  0.00    -0.295 OA
ENDROOT
BRANCH   5   9
ATOM      9  C   UNL     1     198.084 148.817 163.265  1.00  0.00    -0.077 C 
ATOM     10  C   UNL     1     196.984 148.643 162.510  1.00  0.00     0.008 C 
ATOM     11  C   UNL     1     198.892 147.623 163.702  1.00  0.00     0.039 C 
ENDBRANCH   5   9
TORSDOF 1
ENDMDL
MODEL 5
REMARK VINA RESULT:    -3.592      2.776      4.942
REMARK INTER + INTRA:          -3.896
REMARK INTER:                  -3.802
REMARK INTRA:                  -0.093
REMARK UNBOUND:                -0.093
REMARK SMILES C=C(C)[C@@H]1CC=C(C)C(=O)C1
REMARK SMILES IDX 8 1 7 2 6 3 5 4 4 5 11 6 9 7 10 8 2 9 1 10 3 11
REMARK H PARENT
REMARK Flexibility Score: inf
ROOT
ATOM      1  C   UNL     1     198.108 148.854 163.924  1.00  0.00     0.048 C 
ATOM      2  C   UNL     1     198.874 150.119 164.195  1.00  0.00    -0.012 C 
ATOM      3  C   UNL     1     199.205 150.452 165.455  1.00  0.00    -0.019 C 
ATOM      4  C   UNL     1     200.040 151.666 165.768  1.00  0.00     0.036 C 
ATOM      5  C   UNL     1     199.815 152.780 164.727  1.00  0.00     0.025 C 
ATOM      6  C   UNL     1     200.071 152.246 163.306  1.00  0.00     0.089 C 
ATOM      7  C   UNL     1     199.286 150.986 163.063  1.00  0.00     0.158 C 
ATOM      8  O   UNL     1     199.017 150.649 161.879  1.00  0.00    -0.295 OA
ENDROOT
BRANCH   5   9
ATOM      9  C   UNL     1     200.657 154.009 165.027  1.00  0.00    -0.077 C 
ATOM     10  C   UNL     1     201.988 153.924 165.202  1.00  0.00     0.008 C 
ATOM     11  C   UNL     1     199.970 155.346 165.130  1.00  0.00     0.039 C 
ENDBRANCH   5   9
TORSDOF 1
ENDMDL
MODEL 6
REMARK VINA RESULT:    -3.564      1.187      4.547
REMARK INTER + INTRA:          -3.866
REMARK INTER:                  -3.772
REMARK INTRA:                  -0.094
REMARK UNBOUND:                -0.093
REMARK SMILES C=C(C)[C@@H]1CC=C(C)C(=O)C1
REMARK SMILES IDX 8 1 7 2 6 3 5 4 4 5 11 6 9 7 10 8 2 9 1 10 3 11
REMARK H PARENT
REMARK Flexibility Score: inf
ROOT
ATOM      1  C   UNL     1     197.734 150.098 160.321  1.00  0.00     0.048 C 
ATOM      2  C   UNL     1     198.250 150.233 161.727  1.00  0.00    -0.012 C 
ATOM      3  C   UNL     1     199.132 151.201 162.033  1.00  0.00    -0.019 C 
ATOM      4  C   UNL     1     199.615 151.426 163.442  1.00  0.00     0.036 C 
ATOM      5  C   UNL     1     199.633 150.109 164.241  1.00  0.00     0.025 C 
ATOM      6  C   UNL     1     198.248 149.437 164.200  1.00  0.00     0.089 C 
ATOM      7  C   UNL     1     197.763 149.309 162.781  1.00  0.00     0.158 C 
ATOM      8  O   UNL     1     196.900 148.433 162.504  1.00  0.00    -0.295 OA
ENDROOT
BRANCH   5   9
ATOM      9  C   UNL     1     200.112 150.322 165.668  1.00  0.00    -0.077 C 
ATOM     10  C   UNL     1     200.907 149.428 166.283  1.00  0.00     0.008 C 
ATOM     11  C   UNL     1     199.676 151.566 166.397  1.00  0.00     0.039 C 
ENDBRANCH   5   9
TORSDOF 1
ENDMDL
MODEL 7
REMARK VINA RESULT:    -3.554      5.343      6.935
REMARK INTER + INTRA:          -3.855
REMARK INTER:                  -3.753
REMARK INTRA:                  -0.102
REMARK UNBOUND:                -0.093
REMARK SMILES C=C(C)[C@@H]1CC=C(C)C(=O)C1
REMARK SMILES IDX 8 1 7 2 6 3 5 4 4 5 11 6 9 7 10 8 2 9 1 10 3 11
REMARK H PARENT
REMARK Flexibility Score: inf
ROOT
ATOM      1  C   UNL     1     199.581 152.144 165.850  1.00  0.00     0.048 C 
ATOM      2  C   UNL     1     200.116 153.503 165.492  1.00  0.00    -0.012 C 
ATOM      3  C   UNL     1     199.306 154.577 165.520  1.00  0.00    -0.019 C 
ATOM      4  C   UNL     1     199.814 155.968 165.249  1.00  0.00     0.036 C 
ATOM      5  C   UNL     1     201.004 155.946 164.269  1.00  0.00     0.025 C 
ATOM      6  C   UNL     1     202.111 155.012 164.792  1.00  0.00     0.089 C 
ATOM      7  C   UNL     1     201.547 153.660 165.133  1.00  0.00     0.158 C 
ATOM      8  O   UNL     1     202.316 152.661 165.154  1.00  0.00    -0.295 OA
ENDROOT
BRANCH   5   9
ATOM      9  C   UNL     1     201.531 157.344 163.992  1.00  0.00    -0.077 C 
ATOM     10  C   UNL     1     202.816 157.556 163.653  1.00  0.00     0.008 C 
ATOM     11  C   UNL     1     200.582 158.508 164.105  1.00  0.00     0.039 C 
ENDBRANCH   5   9
TORSDOF 1
ENDMDL
MODEL 8
REMARK VINA RESULT:    -3.467      7.228      9.619
REMARK INTER + INTRA:          -3.763
REMARK INTER:                  -3.668
REMARK INTRA:                  -0.095
REMARK UNBOUND:                -0.093
REMARK SMILES C=C(C)[C@@H]1CC=C(C)C(=O)C1
REMARK SMILES IDX 8 1 7 2 6 3 5 4 4 5 11 6 9 7 10 8 2 9 1 10 3 11
REMARK H PARENT
REMARK Flexibility Score: inf
ROOT
ATOM      1  C   UNL     1     202.258 142.993 171.038  1.00  0.00     0.048 C 
ATOM      2  C   UNL     1     202.177 144.301 170.300  1.00  0.00    -0.012 C 
ATOM      3  C   UNL     1     203.268 145.078 170.180  1.00  0.00    -0.019 C 
ATOM      4  C   UNL     1     203.256 146.356 169.383  1.00  0.00     0.036 C 
ATOM      5  C   UNL     1     201.861 147.011 169.401  1.00  0.00     0.025 C 
ATOM      6  C   UNL     1     200.793 146.011 168.919  1.00  0.00     0.089 C 
ATOM      7  C   UNL     1     200.894 144.718 169.681  1.00  0.00     0.158 C 
ATOM      8  O   UNL     1     199.885 143.967 169.752  1.00  0.00    -0.295 OA
ENDROOT
BRANCH   5   9
ATOM      9  C   UNL     1     201.832 148.298 168.593  1.00  0.00    -0.077 C 
ATOM     10  C   UNL     1     201.555 148.296 167.277  1.00  0.00     0.008 C 
ATOM     11  C   UNL     1     202.127 149.597 169.297  1.00  0.00     0.039 C 
ENDBRANCH   5   9
TORSDOF 1
ENDMDL
MODEL 9
REMARK VINA RESULT:    -3.428      6.962      9.637
REMARK INTER + INTRA:          -3.722
REMARK INTER:                  -3.629
REMARK INTRA:                  -0.093
REMARK UNBOUND:                -0.093
REMARK SMILES C=C(C)[C@@H]1CC=C(C)C(=O)C1
REMARK SMILES IDX 8 1 7 2 6 3 5 4 4 5 11 6 9 7 10 8 2 9 1 10 3 11
REMARK H PARENT
REMARK Flexibility Score: inf
ROOT
ATOM      1  C   UNL     1     202.572 143.208 170.476  1.00  0.00     0.048 C 
ATOM      2  C   UNL     1     202.320 144.632 170.063  1.00  0.00    -0.012 C 
ATOM      3  C   UNL     1     201.068 145.124 170.061  1.00  0.00    -0.019 C 
ATOM      4  C   UNL     1     200.776 146.564 169.733  1.00  0.00     0.036 C 
ATOM      5  C   UNL     1     201.810 147.131 168.742  1.00  0.00     0.025 C 
ATOM      6  C   UNL     1     203.238 146.934 169.285  1.00  0.00     0.089 C 
ATOM      7  C   UNL     1     203.461 145.500 169.682  1.00  0.00     0.158 C 
ATOM      8  O   UNL     1     204.639 145.053 169.730  1.00  0.00    -0.295 OA
ENDROOT
BRANCH   5   9
ATOM      9  C   UNL     1     201.532 148.587 168.407  1.00  0.00    -0.077 C 
ATOM     10  C   UNL     1     201.542 149.540 169.356  1.00  0.00     0.008 C 
ATOM     11  C   UNL     1     201.236 148.954 166.976  1.00  0.00     0.039 C 
ENDBRANCH   5   9
TORSDOF 1
ENDMDL
