MODEL 1
REMARK VINA RESULT:    -3.297      0.000      0.000
REMARK INTER + INTRA:          -3.529
REMARK INTER:                  -3.489
REMARK INTRA:                  -0.040
REMARK UNBOUND:                -0.040
REMARK SMILES COc1ccc2ccc(=O)oc2c1
REMARK SMILES IDX 3 1 13 2 12 3 6 4 5 5 4 6 7 7 8 8 9 9 10 10 11 11 2 12 1 13
REMARK H PARENT
REMARK Flexibility Score: inf
ROOT
ATOM      1  C   UNL     1      -9.898   6.362  -8.628  1.00  0.00     0.122 A 
ATOM      2  C   UNL     1      -9.829   4.955  -8.686  1.00  0.00     0.094 A 
ATOM      3  C   UNL     1      -9.905   4.196  -7.513  1.00  0.00     0.142 A 
ATOM      4  C   UNL     1     -10.052   4.842  -6.267  1.00  0.00     0.018 A 
ATOM      5  C   UNL     1     -10.121   6.240  -6.209  1.00  0.00     0.016 A 
ATOM      6  C   UNL     1     -10.044   6.991  -7.385  1.00  0.00     0.047 A 
ATOM      7  C   UNL     1     -10.125   4.056  -5.113  1.00  0.00     0.019 A 
ATOM      8  C   UNL     1     -10.052   2.668  -5.224  1.00  0.00     0.094 A 
ATOM      9  C   UNL     1      -9.906   2.097  -6.493  1.00  0.00     0.336 A 
ATOM     10  O   UNL     1      -9.838   0.846  -6.615  1.00  0.00    -0.246 OA
ATOM     11  O   UNL     1      -9.839   2.868  -7.576  1.00  0.00    -0.423 OA
ENDROOT
BRANCH   1  12
ATOM     12  O   UNL     1      -9.826   7.165  -9.776  1.00  0.00    -0.497 OA
ATOM     13  C   UNL     1     -10.096   8.563  -9.797  1.00  0.00     0.278 C 
ENDBRANCH   1  12
TORSDOF 1
ENDMDL
MODEL 2
REMARK VINA RESULT:    -3.276      9.420     10.392
REMARK INTER + INTRA:          -3.507
REMARK INTER:                  -3.474
REMARK INTRA:                  -0.033
REMARK UNBOUND:                -0.040
REMARK SMILES COc1ccc2ccc(=O)oc2c1
REMARK SMILES IDX 3 1 13 2 12 3 6 4 5 5 4 6 7 7 8 8 9 9 10 10 11 11 2 12 1 13
REMARK H PARENT
REMARK Flexibility Score: inf
ROOT
ATOM      1  C   UNL     1      -8.490   8.527   0.143  1.00  0.00     0.122 A 
ATOM      2  C   UNL     1      -7.942   7.715   1.157  1.00  0.00     0.094 A 
ATOM      3  C   UNL     1      -8.482   7.737   2.447  1.00  0.00     0.142 A 
ATOM      4  C   UNL     1      -9.580   8.576   2.736  1.00  0.00     0.018 A 
ATOM      5  C   UNL     1     -10.125   9.383   1.729  1.00  0.00     0.016 A 
ATOM      6  C   UNL     1      -9.580   9.355   0.442  1.00  0.00     0.047 A 
ATOM      7  C   UNL     1     -10.097   8.577   4.035  1.00  0.00     0.019 A 
ATOM      8  C   UNL     1      -9.519   7.754   5.002  1.00  0.00     0.094 A 
ATOM      9  C   UNL     1      -8.432   6.949   4.644  1.00  0.00     0.336 A 
ATOM     10  O   UNL     1      -7.895   6.199   5.501  1.00  0.00    -0.246 OA
ATOM     11  O   UNL     1      -7.959   6.968   3.399  1.00  0.00    -0.423 OA
ENDROOT
BRANCH   1  12
ATOM     12  O   UNL     1      -7.984   8.540  -1.165  1.00  0.00    -0.497 OA
ATOM     13  C   UNL     1      -6.787   9.204  -1.558  1.00  0.00     0.278 C 
ENDBRANCH   1  12
TORSDOF 1
ENDMDL
MODEL 3
REMARK VINA RESULT:    -3.230      7.652      9.206
REMARK INTER + INTRA:          -3.459
REMARK INTER:                  -3.421
REMARK INTRA:                  -0.038
REMARK UNBOUND:                -0.040
REMARK SMILES COc1ccc2ccc(=O)oc2c1
REMARK SMILES IDX 3 1 13 2 12 3 6 4 5 5 4 6 7 7 8 8 9 9 10 10 11 11 2 12 1 13
REMARK H PARENT
REMARK Flexibility Score: inf
ROOT
ATOM      1  C   UNL     1      -9.674   7.751   2.608  1.00  0.00     0.122 A 
ATOM      2  C   UNL     1      -9.734   6.634   1.751  1.00  0.00     0.094 A 
ATOM      3  C   UNL     1      -9.865   6.811   0.370  1.00  0.00     0.142 A 
ATOM      4  C   UNL     1      -9.938   8.113  -0.169  1.00  0.00     0.018 A 
ATOM      5  C   UNL     1      -9.877   9.224   0.682  1.00  0.00     0.016 A 
ATOM      6  C   UNL     1      -9.746   9.040   2.062  1.00  0.00     0.047 A 
ATOM      7  C   UNL     1     -10.069   8.257  -1.553  1.00  0.00     0.019 A 
ATOM      8  C   UNL     1     -10.123   7.119  -2.357  1.00  0.00     0.094 A 
ATOM      9  C   UNL     1     -10.046   5.859  -1.753  1.00  0.00     0.336 A 
ATOM     10  O   UNL     1     -10.094   4.819  -2.462  1.00  0.00    -0.246 OA
ATOM     11  O   UNL     1      -9.921   5.750  -0.433  1.00  0.00    -0.423 OA
ENDROOT
BRANCH   1  12
ATOM     12  O   UNL     1      -9.543   7.626   3.999  1.00  0.00    -0.497 OA
ATOM     13  C   UNL     1     -10.079   8.547   4.944  1.00  0.00     0.278 C 
ENDBRANCH   1  12
TORSDOF 1
ENDMDL
MODEL 4
REMARK VINA RESULT:    -3.171     22.185     22.796
REMARK INTER + INTRA:          -3.396
REMARK INTER:                  -3.356
REMARK INTRA:                  -0.040
REMARK UNBOUND:                -0.040
REMARK SMILES COc1ccc2ccc(=O)oc2c1
REMARK SMILES IDX 3 1 13 2 12 3 6 4 5 5 4 6 7 7 8 8 9 9 10 10 11 11 2 12 1 13
REMARK H PARENT
REMARK Flexibility Score: inf
ROOT
ATOM      1  C   UNL     1       0.815  -9.136   7.508  1.00  0.00     0.122 A 
ATOM      2  C   UNL     1      -0.532  -9.310   7.885  1.00  0.00     0.094 A 
ATOM      3  C   UNL     1      -1.187  -8.328   8.635  1.00  0.00     0.142 A 
ATOM      4  C   UNL     1      -0.497  -7.158   9.017  1.00  0.00     0.018 A 
ATOM      5  C   UNL     1       0.842  -6.983   8.643  1.00  0.00     0.016 A 
ATOM      6  C   UNL     1       1.490  -7.969   7.892  1.00  0.00     0.047 A 
ATOM      7  C   UNL     1      -1.179  -6.195   9.767  1.00  0.00     0.019 A 
ATOM      8  C   UNL     1      -2.511  -6.415  10.114  1.00  0.00     0.094 A 
ATOM      9  C   UNL     1      -3.131  -7.600   9.701  1.00  0.00     0.336 A 
ATOM     10  O   UNL     1      -4.334  -7.819  10.004  1.00  0.00    -0.246 OA
ATOM     11  O   UNL     1      -2.459  -8.500   8.988  1.00  0.00    -0.423 OA
ENDROOT
BRANCH   1  12
ATOM     12  O   UNL     1       1.515 -10.091   6.756  1.00  0.00    -0.497 OA
ATOM     13  C   UNL     1       2.925 -10.082   6.556  1.00  0.00     0.278 C 
ENDBRANCH   1  12
TORSDOF 1
ENDMDL
MODEL 5
REMARK VINA RESULT:    -3.122      6.830      7.945
REMARK INTER + INTRA:          -3.345
REMARK INTER:                  -3.313
REMARK INTRA:                  -0.032
REMARK UNBOUND:                -0.040
REMARK SMILES COc1ccc2ccc(=O)oc2c1
REMARK SMILES IDX 3 1 13 2 12 3 6 4 5 5 4 6 7 7 8 8 9 9 10 10 11 11 2 12 1 13
REMARK H PARENT
REMARK Flexibility Score: inf
ROOT
ATOM      1  C   UNL     1      -9.930   6.715  -2.502  1.00  0.00     0.122 A 
ATOM      2  C   UNL     1      -9.735   6.249  -1.186  1.00  0.00     0.094 A 
ATOM      3  C   UNL     1      -9.734   7.145  -0.112  1.00  0.00     0.142 A 
ATOM      4  C   UNL     1      -9.928   8.523  -0.346  1.00  0.00     0.018 A 
ATOM      5  C   UNL     1     -10.123   8.988  -1.653  1.00  0.00     0.016 A 
ATOM      6  C   UNL     1     -10.124   8.086  -2.721  1.00  0.00     0.047 A 
ATOM      7  C   UNL     1      -9.922   9.393   0.747  1.00  0.00     0.019 A 
ATOM      8  C   UNL     1      -9.724   8.880   2.029  1.00  0.00     0.094 A 
ATOM      9  C   UNL     1      -9.537   7.503   2.186  1.00  0.00     0.336 A 
ATOM     10  O   UNL     1      -9.357   7.019   3.335  1.00  0.00    -0.246 OA
ATOM     11  O   UNL     1      -9.548   6.696   1.127  1.00  0.00    -0.423 OA
ENDROOT
BRANCH   1  12
ATOM     12  O   UNL     1      -9.940   5.856  -3.611  1.00  0.00    -0.497 OA
ATOM     13  C   UNL     1      -8.951   5.855  -4.635  1.00  0.00     0.278 C 
ENDBRANCH   1  12
TORSDOF 1
ENDMDL
MODEL 6
REMARK VINA RESULT:    -3.100     21.137     22.845
REMARK INTER + INTRA:          -3.321
REMARK INTER:                  -3.288
REMARK INTRA:                  -0.033
REMARK UNBOUND:                -0.040
REMARK SMILES COc1ccc2ccc(=O)oc2c1
REMARK SMILES IDX 3 1 13 2 12 3 6 4 5 5 4 6 7 7 8 8 9 9 10 10 11 11 2 12 1 13
REMARK H PARENT
REMARK Flexibility Score: inf
ROOT
ATOM      1  C   UNL     1       0.843  -9.095   8.630  1.00  0.00     0.122 A 
ATOM      2  C   UNL     1       0.328  -7.831   8.982  1.00  0.00     0.094 A 
ATOM      3  C   UNL     1      -1.051  -7.599   8.952  1.00  0.00     0.142 A 
ATOM      4  C   UNL     1      -1.931  -8.633   8.568  1.00  0.00     0.018 A 
ATOM      5  C   UNL     1      -1.419  -9.890   8.219  1.00  0.00     0.016 A 
ATOM      6  C   UNL     1      -0.040 -10.115   8.251  1.00  0.00     0.047 A 
ATOM      7  C   UNL     1      -3.303  -8.370   8.548  1.00  0.00     0.019 A 
ATOM      8  C   UNL     1      -3.762  -7.102   8.905  1.00  0.00     0.094 A 
ATOM      9  C   UNL     1      -2.832  -6.125   9.275  1.00  0.00     0.336 A 
ATOM     10  O   UNL     1      -3.225  -4.974   9.601  1.00  0.00    -0.246 OA
ATOM     11  O   UNL     1      -1.530  -6.402   9.286  1.00  0.00    -0.423 OA
ENDROOT
BRANCH   1  12
ATOM     12  O   UNL     1       2.218  -9.377   8.644  1.00  0.00    -0.497 OA
ATOM     13  C   UNL     1       3.082  -9.221   7.524  1.00  0.00     0.278 C 
ENDBRANCH   1  12
TORSDOF 1
ENDMDL
MODEL 7
REMARK VINA RESULT:    -3.095      1.053      4.802
REMARK INTER + INTRA:          -3.316
REMARK INTER:                  -3.283
REMARK INTRA:                  -0.033
REMARK UNBOUND:                -0.040
REMARK SMILES COc1ccc2ccc(=O)oc2c1
REMARK SMILES IDX 3 1 13 2 12 3 6 4 5 5 4 6 7 7 8 8 9 9 10 10 11 11 2 12 1 13
REMARK H PARENT
REMARK Flexibility Score: inf
ROOT
ATOM      1  C   UNL     1      -9.741   2.122  -6.449  1.00  0.00     0.122 A 
ATOM      2  C   UNL     1      -9.747   2.901  -7.624  1.00  0.00     0.094 A 
ATOM      3  C   UNL     1      -9.874   4.292  -7.548  1.00  0.00     0.142 A 
ATOM      4  C   UNL     1      -9.999   4.919  -6.290  1.00  0.00     0.018 A 
ATOM      5  C   UNL     1      -9.992   4.146  -5.122  1.00  0.00     0.016 A 
ATOM      6  C   UNL     1      -9.864   2.756  -5.206  1.00  0.00     0.047 A 
ATOM      7  C   UNL     1     -10.125   6.310  -6.247  1.00  0.00     0.019 A 
ATOM      8  C   UNL     1     -10.125   7.035  -7.439  1.00  0.00     0.094 A 
ATOM      9  C   UNL     1      -9.998   6.345  -8.650  1.00  0.00     0.336 A 
ATOM     10  O   UNL     1      -9.996   6.981  -9.737  1.00  0.00    -0.246 OA
ATOM     11  O   UNL     1      -9.879   5.020  -8.663  1.00  0.00    -0.423 OA
ENDROOT
BRANCH   1  12
ATOM     12  O   UNL     1      -9.616   0.725  -6.474  1.00  0.00    -0.497 OA
ATOM     13  C   UNL     1      -8.413   0.031  -6.788  1.00  0.00     0.278 C 
ENDBRANCH   1  12
TORSDOF 1
ENDMDL
