MODEL 1
REMARK VINA RESULT:     7.604      0.000      0.000
REMARK INTER + INTRA:           7.920
REMARK INTER:                   8.270
REMARK INTRA:                  -0.351
REMARK UNBOUND:                -0.351
REMARK SMILES C[C@@H]1[C@H](C)CC[C@]2(C(=O)[O-])CC[C@]3(C)C(=CC[C@@H]4[C@]5(C)CC[C@H](O)C(C)(C)[C@@H]5CC[C@@]43C)[C@H]12
REMARK SMILES IDX 7 1 6 2 11 3 33 4 5 5 12 6 15 7 2 8 3 9 13 10 16 11 1 12
REMARK SMILES IDX 4 13 14 14 31 15 17 16 18 17 30 18 32 19 19 20 29 21 28 22
REMARK SMILES IDX 21 23 20 24 25 25 22 26 23 27 26 28 27 29 8 30 9 31 10 32
REMARK SMILES IDX 24 33
REMARK H PARENT 24 34
REMARK Flexibility Score: inf
ROOT
ATOM      1  C   UNL     1      99.379 -68.163   3.128  1.00  0.00     0.017 C 
ATOM      2  C   UNL     1      99.230 -67.626   4.591  1.00  0.00     0.014 C 
ATOM      3  C   UNL     1     100.900 -68.282   2.869  1.00  0.00     0.014 C 
ATOM      4  C   UNL     1      98.669 -67.198   2.075  1.00  0.00     0.030 C 
ATOM      5  C   UNL     1      97.779 -67.350   5.027  1.00  0.00     0.004 C 
ATOM      6  C   UNL     1     101.214 -68.509   1.393  1.00  0.00     0.013 C 
ATOM      7  C   UNL     1      99.574 -66.582   0.980  1.00  0.00    -0.063 C 
ATOM      8  C   UNL     1      97.683 -66.184   2.755  1.00  0.00    -0.003 C 
ATOM      9  C   UNL     1      96.881 -66.910   3.858  1.00  0.00    -0.011 C 
ATOM     10  C   UNL     1     100.889 -67.233   0.527  1.00  0.00    -0.006 C 
ATOM     11  C   UNL     1      99.106 -65.562   0.219  1.00  0.00    -0.027 C 
ATOM     12  C   UNL     1      98.364 -64.876   3.257  1.00  0.00     0.008 C 
ATOM     13  C   UNL     1      95.657 -66.108   4.324  1.00  0.00     0.008 C 
ATOM     14  C   UNL     1     102.061 -66.221   0.827  1.00  0.00     0.017 C 
ATOM     15  C   UNL     1     100.755 -67.542  -1.056  1.00  0.00    -0.020 C 
ATOM     16  C   UNL     1      99.859 -65.064  -0.970  1.00  0.00     0.032 C 
ATOM     17  C   UNL     1     100.408 -66.204  -1.898  1.00  0.00     0.006 C 
ATOM     18  C   UNL     1      99.654 -68.639  -1.347  1.00  0.00     0.008 C 
ATOM     19  C   UNL     1     102.125 -68.132  -1.525  1.00  0.00     0.012 C 
ATOM     20  C   UNL     1      99.551 -66.450  -3.249  1.00  0.00    -0.025 C 
ATOM     21  C   UNL     1      98.258 -68.106  -1.683  1.00  0.00     0.005 C 
ATOM     22  C   UNL     1      98.215 -67.262  -2.982  1.00  0.00     0.003 C 
ATOM     23  C   UNL     1      99.243 -65.120  -4.038  1.00  0.00     0.010 C 
ATOM     24  C   UNL     1     100.447 -67.272  -4.244  1.00  0.00     0.012 C 
ATOM     25  C   UNL     1      96.849 -66.480  -3.169  1.00  0.00    -0.006 C 
ATOM     26  C   UNL     1      98.165 -65.282  -5.124  1.00  0.00     0.033 C 
ATOM     27  C   UNL     1      96.812 -65.850  -4.608  1.00  0.00     0.120 C 
ATOM     28  C   UNL     1      95.677 -67.489  -3.073  1.00  0.00     0.014 C 
ATOM     29  C   UNL     1      96.558 -65.409  -2.082  1.00  0.00     0.014 C 
ENDROOT
BRANCH   1  30
ATOM     30  C   UNL     1      98.764 -69.569   3.065  1.00  0.00     0.048 C 
ATOM     31  O   UNL     1      98.941 -70.396   4.004  1.00  0.00    -0.550 OA
ATOM     32  O   UNL     1      97.988 -69.966   1.988  1.00  0.00    -0.550 OA
ENDBRANCH   1  30
BRANCH  27  33
ATOM     33  O   UNL     1      95.791 -64.877  -4.712  1.00  0.00    -0.393 OA
ATOM     34  H   UNL     1      96.232 -63.992  -4.822  1.00  0.00     0.210 HD
ENDBRANCH  27  33
TORSDOF 2
ENDMDL
