MODEL 1
REMARK VINA RESULT:    -4.335      0.000      0.000
REMARK INTER + INTRA:          -6.506
REMARK INTER:                  -5.982
REMARK INTRA:                  -0.523
REMARK UNBOUND:                -0.523
REMARK SMILES OC[C@@H](O)[C@H](O)[C@@H](O)CO
REMARK SMILES IDX 5 1 7 2 9 3 10 4 8 6 3 8 2 9 1 10 4 12 6 14
REMARK H PARENT 10 5 8 7 1 11 4 13 6 15
REMARK Flexibility Score: inf
ROOT
ATOM      1  C   UNL     1      -7.588   2.063  -5.065  1.00  0.00     0.176 C 
ENDROOT
BRANCH   1   2
ATOM      2  C   UNL     1      -7.228   3.057  -3.929  1.00  0.00     0.171 C 
BRANCH   2   3
ATOM      3  C   UNL     1      -8.177   2.944  -2.720  1.00  0.00     0.190 C 
BRANCH   3   4
ATOM      4  O   UNL     1      -7.760   1.944  -1.828  1.00  0.00    -0.394 OA
ATOM      5  H   UNL     1      -6.859   2.203  -1.505  1.00  0.00     0.210 HD
ENDBRANCH   3   4
ENDBRANCH   2   3
BRANCH   2   6
ATOM      6  O   UNL     1      -7.157   4.385  -4.388  1.00  0.00    -0.388 OA
ATOM      7  H   UNL     1      -7.389   4.390  -5.352  1.00  0.00     0.211 HD
ENDBRANCH   2   6
ENDBRANCH   1   2
BRANCH   1   8
ATOM      8  C   UNL     1      -6.516   0.954  -5.211  1.00  0.00     0.171 C 
BRANCH   8   9
ATOM      9  C   UNL     1      -5.338   1.399  -6.094  1.00  0.00     0.190 C 
BRANCH   9  10
ATOM     10  O   UNL     1      -5.660   1.274  -7.455  1.00  0.00    -0.394 OA
ATOM     11  H   UNL     1      -6.537   1.719  -7.587  1.00  0.00     0.210 HD
ENDBRANCH   9  10
ENDBRANCH   8   9
BRANCH   8  12
ATOM     12  O   UNL     1      -6.033   0.595  -3.940  1.00  0.00    -0.388 OA
ATOM     13  H   UNL     1      -5.386  -0.146  -4.077  1.00  0.00     0.211 HD
ENDBRANCH   8  12
ENDBRANCH   1   8
BRANCH   1  14
ATOM     14  O   UNL     1      -7.739   2.753  -6.283  1.00  0.00    -0.388 OA
ATOM     15  H   UNL     1      -8.684   3.050  -6.338  1.00  0.00     0.211 HD
ENDBRANCH   1  14
TORSDOF 9
ENDMDL
MODEL 2
REMARK VINA RESULT:    -4.314      0.630      4.125
REMARK INTER + INTRA:          -6.476
REMARK INTER:                  -6.008
REMARK INTRA:                  -0.468
REMARK UNBOUND:                -0.523
REMARK SMILES OC[C@@H](O)[C@H](O)[C@@H](O)CO
REMARK SMILES IDX 5 1 7 2 9 3 10 4 8 6 3 8 2 9 1 10 4 12 6 14
REMARK H PARENT 10 5 8 7 1 11 4 13 6 15
REMARK Flexibility Score: inf
ROOT
ATOM      1  C   UNL     1      -7.291   1.740  -4.298  1.00  0.00     0.176 C 
ENDROOT
BRANCH   1   2
ATOM      2  C   UNL     1      -7.167   1.579  -5.836  1.00  0.00     0.171 C 
BRANCH   2   3
ATOM      3  C   UNL     1      -5.728   1.260  -6.285  1.00  0.00     0.190 C 
BRANCH   3   4
ATOM      4  O   UNL     1      -5.591   1.341  -7.679  1.00  0.00    -0.394 OA
ATOM      5  H   UNL     1      -5.655   0.416  -8.030  1.00  0.00     0.210 HD
ENDBRANCH   3   4
ENDBRANCH   2   3
BRANCH   2   6
ATOM      6  O   UNL     1      -7.673   2.695  -6.529  1.00  0.00    -0.388 OA
ATOM      7  H   UNL     1      -7.646   3.474  -5.918  1.00  0.00     0.211 HD
ENDBRANCH   2   6
ENDBRANCH   1   2
BRANCH   1   8
ATOM      8  C   UNL     1      -7.758   3.165  -3.910  1.00  0.00     0.171 C 
BRANCH   8   9
ATOM      9  C   UNL     1      -7.916   3.329  -2.388  1.00  0.00     0.190 C 
BRANCH   9  10
ATOM     10  O   UNL     1      -7.927   2.079  -1.751  1.00  0.00    -0.394 OA
ATOM     11  H   UNL     1      -8.669   2.097  -1.091  1.00  0.00     0.210 HD
ENDBRANCH   9  10
ENDBRANCH   8   9
BRANCH   8  12
ATOM     12  O   UNL     1      -6.833   4.110  -4.385  1.00  0.00    -0.388 OA
ATOM     13  H   UNL     1      -6.899   4.107  -5.376  1.00  0.00     0.211 HD
ENDBRANCH   8  12
ENDBRANCH   1   8
BRANCH   1  14
ATOM     14  O   UNL     1      -6.060   1.449  -3.680  1.00  0.00    -0.388 OA
ATOM     15  H   UNL     1      -5.679   2.310  -3.364  1.00  0.00     0.211 HD
ENDBRANCH   1  14
TORSDOF 9
ENDMDL
MODEL 3
REMARK VINA RESULT:    -4.278      1.105      1.842
REMARK INTER + INTRA:          -6.426
REMARK INTER:                  -5.482
REMARK INTRA:                  -0.944
REMARK UNBOUND:                -0.523
REMARK SMILES OC[C@@H](O)[C@H](O)[C@@H](O)CO
REMARK SMILES IDX 5 1 7 2 9 3 10 4 8 6 3 8 2 9 1 10 4 12 6 14
REMARK H PARENT 10 5 8 7 1 11 4 13 6 15
REMARK Flexibility Score: inf
ROOT
ATOM      1  C   UNL     1      -7.460   1.941  -5.154  1.00  0.00     0.176 C 
ENDROOT
BRANCH   1   2
ATOM      2  C   UNL     1      -7.884   2.267  -3.697  1.00  0.00     0.171 C 
BRANCH   2   3
ATOM      3  C   UNL     1      -8.512   3.668  -3.562  1.00  0.00     0.190 C 
BRANCH   3   4
ATOM      4  O   UNL     1      -7.617   4.675  -3.952  1.00  0.00    -0.394 OA
ATOM      5  H   UNL     1      -6.919   4.242  -4.509  1.00  0.00     0.210 HD
ENDBRANCH   3   4
ENDBRANCH   2   3
BRANCH   2   6
ATOM      6  O   UNL     1      -6.826   2.102  -2.785  1.00  0.00    -0.388 OA
ATOM      7  H   UNL     1      -5.975   2.141  -3.292  1.00  0.00     0.211 HD
ENDBRANCH   2   6
ENDBRANCH   1   2
BRANCH   1   8
ATOM      8  C   UNL     1      -5.918   1.920  -5.305  1.00  0.00     0.171 C 
BRANCH   8   9
ATOM      9  C   UNL     1      -5.471   1.193  -6.586  1.00  0.00     0.190 C 
BRANCH   9  10
ATOM     10  O   UNL     1      -5.806   1.941  -7.725  1.00  0.00    -0.394 OA
ATOM     11  H   UNL     1      -6.077   2.843  -7.411  1.00  0.00     0.210 HD
ENDBRANCH   9  10
ENDBRANCH   8   9
BRANCH   8  12
ATOM     12  O   UNL     1      -5.428   3.237  -5.326  1.00  0.00    -0.388 OA
ATOM     13  H   UNL     1      -4.543   3.208  -5.775  1.00  0.00     0.211 HD
ENDBRANCH   8  12
ENDBRANCH   1   8
BRANCH   1  14
ATOM     14  O   UNL     1      -8.020   2.878  -6.043  1.00  0.00    -0.388 OA
ATOM     15  H   UNL     1      -8.787   2.435  -6.492  1.00  0.00     0.211 HD
ENDBRANCH   1  14
TORSDOF 9
ENDMDL
MODEL 4
REMARK VINA RESULT:    -4.221      1.000      3.872
REMARK INTER + INTRA:          -6.348
REMARK INTER:                  -5.659
REMARK INTRA:                  -0.689
REMARK UNBOUND:                -0.523
REMARK SMILES OC[C@@H](O)[C@H](O)[C@@H](O)CO
REMARK SMILES IDX 5 1 7 2 9 3 10 4 8 6 3 8 2 9 1 10 4 12 6 14
REMARK H PARENT 10 5 8 7 1 11 4 13 6 15
REMARK Flexibility Score: inf
ROOT
ATOM      1  C   UNL     1      -6.529   2.840  -4.599  1.00  0.00     0.176 C 
ENDROOT
BRANCH   1   2
ATOM      2  C   UNL     1      -5.605   1.643  -4.949  1.00  0.00     0.171 C 
BRANCH   2   3
ATOM      3  C   UNL     1      -6.102   0.849  -6.172  1.00  0.00     0.190 C 
BRANCH   3   4
ATOM      4  O   UNL     1      -5.624   1.395  -7.373  1.00  0.00    -0.394 OA
ATOM      5  H   UNL     1      -5.600   0.658  -8.036  1.00  0.00     0.210 HD
ENDBRANCH   3   4
ENDBRANCH   2   3
BRANCH   2   6
ATOM      6  O   UNL     1      -5.397   0.792  -3.848  1.00  0.00    -0.388 OA
ATOM      7  H   UNL     1      -5.126   1.351  -3.075  1.00  0.00     0.211 HD
ENDBRANCH   2   6
ENDBRANCH   1   2
BRANCH   1   8
ATOM      8  C   UNL     1      -7.190   2.660  -3.210  1.00  0.00     0.171 C 
BRANCH   8   9
ATOM      9  C   UNL     1      -8.047   3.876  -2.814  1.00  0.00     0.190 C 
BRANCH   9  10
ATOM     10  O   UNL     1      -7.815   4.953  -3.684  1.00  0.00    -0.394 OA
ATOM     11  H   UNL     1      -8.327   5.727  -3.330  1.00  0.00     0.210 HD
ENDBRANCH   9  10
ENDBRANCH   8   9
BRANCH   8  12
ATOM     12  O   UNL     1      -7.996   1.508  -3.216  1.00  0.00    -0.388 OA
ATOM     13  H   UNL     1      -8.027   1.184  -4.154  1.00  0.00     0.211 HD
ENDBRANCH   8  12
ENDBRANCH   1   8
BRANCH   1  14
ATOM     14  O   UNL     1      -7.518   2.993  -5.589  1.00  0.00    -0.388 OA
ATOM     15  H   UNL     1      -7.797   2.083  -5.870  1.00  0.00     0.211 HD
ENDBRANCH   1  14
TORSDOF 9
ENDMDL
MODEL 5
REMARK VINA RESULT:    -4.212      1.733      3.890
REMARK INTER + INTRA:          -6.336
REMARK INTER:                  -6.240
REMARK INTRA:                  -0.096
REMARK UNBOUND:                -0.523
REMARK SMILES OC[C@@H](O)[C@H](O)[C@@H](O)CO
REMARK SMILES IDX 5 1 7 2 9 3 10 4 8 6 3 8 2 9 1 10 4 12 6 14
REMARK H PARENT 10 5 8 7 1 11 4 13 6 15
REMARK Flexibility Score: inf
ROOT
ATOM      1  C   UNL     1      -6.920   1.398  -4.120  1.00  0.00     0.176 C 
ENDROOT
BRANCH   1   2
ATOM      2  C   UNL     1      -6.446   2.079  -5.432  1.00  0.00     0.171 C 
BRANCH   2   3
ATOM      3  C   UNL     1      -5.668   1.118  -6.351  1.00  0.00     0.190 C 
BRANCH   3   4
ATOM      4  O   UNL     1      -5.675   1.557  -7.683  1.00  0.00    -0.394 OA
ATOM      5  H   UNL     1      -5.177   0.882  -8.213  1.00  0.00     0.210 HD
ENDBRANCH   3   4
ENDBRANCH   2   3
BRANCH   2   6
ATOM      6  O   UNL     1      -5.703   3.249  -5.186  1.00  0.00    -0.388 OA
ATOM      7  H   UNL     1      -4.963   3.018  -4.568  1.00  0.00     0.211 HD
ENDBRANCH   2   6
ENDBRANCH   1   2
BRANCH   1   8
ATOM      8  C   UNL     1      -8.329   1.887  -3.703  1.00  0.00     0.171 C 
BRANCH   8   9
ATOM      9  C   UNL     1      -9.320   1.871  -4.880  1.00  0.00     0.190 C 
BRANCH   9  10
ATOM     10  O   UNL     1     -10.501   1.198  -4.527  1.00  0.00    -0.394 OA
ATOM     11  H   UNL     1     -10.622   0.461  -5.182  1.00  0.00     0.210 HD
ENDBRANCH   9  10
ENDBRANCH   8   9
BRANCH   8  12
ATOM     12  O   UNL     1      -8.824   1.073  -2.669  1.00  0.00    -0.388 OA
ATOM     13  H   UNL     1      -9.236   0.279  -3.100  1.00  0.00     0.211 HD
ENDBRANCH   8  12
ENDBRANCH   1   8
BRANCH   1  14
ATOM     14  O   UNL     1      -5.997   1.644  -3.086  1.00  0.00    -0.388 OA
ATOM     15  H   UNL     1      -5.290   2.236  -3.456  1.00  0.00     0.211 HD
ENDBRANCH   1  14
TORSDOF 9
ENDMDL
MODEL 6
REMARK VINA RESULT:    -4.100      1.680      3.667
REMARK INTER + INTRA:          -6.181
REMARK INTER:                  -5.510
REMARK INTRA:                  -0.671
REMARK UNBOUND:                -0.523
REMARK SMILES OC[C@@H](O)[C@H](O)[C@@H](O)CO
REMARK SMILES IDX 5 1 7 2 9 3 10 4 8 6 3 8 2 9 1 10 4 12 6 14
REMARK H PARENT 10 5 8 7 1 11 4 13 6 15
REMARK Flexibility Score: inf
ROOT
ATOM      1  C   UNL     1      -6.734   1.436  -4.213  1.00  0.00     0.176 C 
ENDROOT
BRANCH   1   2
ATOM      2  C   UNL     1      -5.376   1.737  -4.900  1.00  0.00     0.171 C 
BRANCH   2   3
ATOM      3  C   UNL     1      -4.179   1.140  -4.134  1.00  0.00     0.190 C 
BRANCH   3   4
ATOM      4  O   UNL     1      -3.144   0.765  -5.004  1.00  0.00    -0.394 OA
ATOM      5  H   UNL     1      -2.641   1.590  -5.227  1.00  0.00     0.210 HD
ENDBRANCH   3   4
ENDBRANCH   2   3
BRANCH   2   6
ATOM      6  O   UNL     1      -5.189   3.113  -5.129  1.00  0.00    -0.388 OA
ATOM      7  H   UNL     1      -4.628   3.473  -4.395  1.00  0.00     0.211 HD
ENDBRANCH   2   6
ENDBRANCH   1   2
BRANCH   1   8
ATOM      8  C   UNL     1      -7.920   2.030  -5.013  1.00  0.00     0.171 C 
BRANCH   8   9
ATOM      9  C   UNL     1      -8.515   3.275  -4.332  1.00  0.00     0.190 C 
BRANCH   9  10
ATOM     10  O   UNL     1      -7.646   4.371  -4.452  1.00  0.00    -0.394 OA
ATOM     11  H   UNL     1      -7.903   5.022  -3.748  1.00  0.00     0.210 HD
ENDBRANCH   9  10
ENDBRANCH   8   9
BRANCH   8  12
ATOM     12  O   UNL     1      -7.491   2.371  -6.308  1.00  0.00    -0.388 OA
ATOM     13  H   UNL     1      -7.887   3.257  -6.518  1.00  0.00     0.211 HD
ENDBRANCH   8  12
ENDBRANCH   1   8
BRANCH   1  14
ATOM     14  O   UNL     1      -6.736   1.943  -2.899  1.00  0.00    -0.388 OA
ATOM     15  H   UNL     1      -7.546   2.507  -2.802  1.00  0.00     0.211 HD
ENDBRANCH   1  14
TORSDOF 9
ENDMDL
MODEL 7
REMARK VINA RESULT:    -4.071      0.832      1.616
REMARK INTER + INTRA:          -6.141
REMARK INTER:                  -5.665
REMARK INTRA:                  -0.476
REMARK UNBOUND:                -0.523
REMARK SMILES OC[C@@H](O)[C@H](O)[C@@H](O)CO
REMARK SMILES IDX 5 1 7 2 9 3 10 4 8 6 3 8 2 9 1 10 4 12 6 14
REMARK H PARENT 10 5 8 7 1 11 4 13 6 15
REMARK Flexibility Score: inf
ROOT
ATOM      1  C   UNL     1      -6.441   2.125  -4.102  1.00  0.00     0.176 C 
ENDROOT
BRANCH   1   2
ATOM      2  C   UNL     1      -7.194   3.281  -3.391  1.00  0.00     0.171 C 
BRANCH   2   3
ATOM      3  C   UNL     1      -8.477   2.805  -2.683  1.00  0.00     0.190 C 
BRANCH   3   4
ATOM      4  O   UNL     1      -8.186   2.101  -1.505  1.00  0.00    -0.394 OA
ATOM      5  H   UNL     1      -8.664   2.562  -0.768  1.00  0.00     0.210 HD
ENDBRANCH   3   4
ENDBRANCH   2   3
BRANCH   2   6
ATOM      6  O   UNL     1      -7.469   4.351  -4.262  1.00  0.00    -0.388 OA
ATOM      7  H   UNL     1      -7.205   4.078  -5.178  1.00  0.00     0.211 HD
ENDBRANCH   2   6
ENDBRANCH   1   2
BRANCH   1   8
ATOM      8  C   UNL     1      -6.269   2.406  -5.616  1.00  0.00     0.171 C 
BRANCH   8   9
ATOM      9  C   UNL     1      -5.454   1.306  -6.320  1.00  0.00     0.190 C 
BRANCH   9  10
ATOM     10  O   UNL     1      -5.639   1.363  -7.711  1.00  0.00    -0.394 OA
ATOM     11  H   UNL     1      -6.271   2.108  -7.889  1.00  0.00     0.210 HD
ENDBRANCH   9  10
ENDBRANCH   8   9
BRANCH   8  12
ATOM     12  O   UNL     1      -7.532   2.507  -6.224  1.00  0.00    -0.388 OA
ATOM     13  H   UNL     1      -7.680   1.661  -6.724  1.00  0.00     0.211 HD
ENDBRANCH   8  12
ENDBRANCH   1   8
BRANCH   1  14
ATOM     14  O   UNL     1      -7.125   0.910  -3.910  1.00  0.00    -0.388 OA
ATOM     15  H   UNL     1      -6.559   0.190  -4.292  1.00  0.00     0.211 HD
ENDBRANCH   1  14
TORSDOF 9
ENDMDL
MODEL 8
REMARK VINA RESULT:    -4.030      9.433     10.924
REMARK INTER + INTRA:          -6.085
REMARK INTER:                  -5.399
REMARK INTRA:                  -0.686
REMARK UNBOUND:                -0.523
REMARK SMILES OC[C@@H](O)[C@H](O)[C@@H](O)CO
REMARK SMILES IDX 5 1 7 2 9 3 10 4 8 6 3 8 2 9 1 10 4 12 6 14
REMARK H PARENT 10 5 8 7 1 11 4 13 6 15
REMARK Flexibility Score: inf
ROOT
ATOM      1  C   UNL     1       0.087  -3.845 -10.711  1.00  0.00     0.176 C 
ENDROOT
BRANCH   1   2
ATOM      2  C   UNL     1      -1.279  -3.531 -10.046  1.00  0.00     0.171 C 
BRANCH   2   3
ATOM      3  C   UNL     1      -2.424  -4.400 -10.604  1.00  0.00     0.190 C 
BRANCH   3   4
ATOM      4  O   UNL     1      -1.976  -5.249 -11.627  1.00  0.00    -0.394 OA
ATOM      5  H   UNL     1      -2.589  -6.029 -11.643  1.00  0.00     0.210 HD
ENDBRANCH   3   4
ENDBRANCH   2   3
BRANCH   2   6
ATOM      6  O   UNL     1      -1.605  -2.164 -10.120  1.00  0.00    -0.388 OA
ATOM      7  H   UNL     1      -1.910  -1.970 -11.043  1.00  0.00     0.211 HD
ENDBRANCH   2   6
ENDBRANCH   1   2
BRANCH   1   8
ATOM      8  C   UNL     1       1.267  -3.562  -9.748  1.00  0.00     0.171 C 
BRANCH   8   9
ATOM      9  C   UNL     1       2.600  -3.394 -10.498  1.00  0.00     0.190 C 
BRANCH   9  10
ATOM     10  O   UNL     1       2.835  -2.044 -10.801  1.00  0.00    -0.394 OA
ATOM     11  H   UNL     1       3.101  -1.599  -9.954  1.00  0.00     0.210 HD
ENDBRANCH   9  10
ENDBRANCH   8   9
BRANCH   8  12
ATOM     12  O   UNL     1       1.002  -2.396  -9.008  1.00  0.00    -0.388 OA
ATOM     13  H   UNL     1       1.807  -2.217  -8.455  1.00  0.00     0.211 HD
ENDBRANCH   8  12
ENDBRANCH   1   8
BRANCH   1  14
ATOM     14  O   UNL     1       0.235  -3.093 -11.892  1.00  0.00    -0.388 OA
ATOM     15  H   UNL     1      -0.668  -2.773 -12.152  1.00  0.00     0.211 HD
ENDBRANCH   1  14
TORSDOF 9
ENDMDL
MODEL 9
REMARK VINA RESULT:    -3.957      1.451      2.254
REMARK INTER + INTRA:          -5.984
REMARK INTER:                  -5.315
REMARK INTRA:                  -0.668
REMARK UNBOUND:                -0.523
REMARK SMILES OC[C@@H](O)[C@H](O)[C@@H](O)CO
REMARK SMILES IDX 5 1 7 2 9 3 10 4 8 6 3 8 2 9 1 10 4 12 6 14
REMARK H PARENT 10 5 8 7 1 11 4 13 6 15
REMARK Flexibility Score: inf
ROOT
ATOM      1  C   UNL     1      -7.464   2.016  -5.296  1.00  0.00     0.176 C 
ENDROOT
BRANCH   1   2
ATOM      2  C   UNL     1      -8.173   3.224  -4.628  1.00  0.00     0.171 C 
BRANCH   2   3
ATOM      3  C   UNL     1      -9.424   3.679  -5.404  1.00  0.00     0.190 C 
BRANCH   3   4
ATOM      4  O   UNL     1      -9.140   3.902  -6.760  1.00  0.00    -0.394 OA
ATOM      5  H   UNL     1      -9.719   4.650  -7.057  1.00  0.00     0.210 HD
ENDBRANCH   3   4
ENDBRANCH   2   3
BRANCH   2   6
ATOM      6  O   UNL     1      -7.296   4.303  -4.413  1.00  0.00    -0.388 OA
ATOM      7  H   UNL     1      -7.315   4.526  -3.447  1.00  0.00     0.211 HD
ENDBRANCH   2   6
ENDBRANCH   1   2
BRANCH   1   8
ATOM      8  C   UNL     1      -6.420   1.375  -4.349  1.00  0.00     0.171 C 
BRANCH   8   9
ATOM      9  C   UNL     1      -4.976   1.681  -4.785  1.00  0.00     0.190 C 
BRANCH   9  10
ATOM     10  O   UNL     1      -4.642   0.961  -5.943  1.00  0.00    -0.394 OA
ATOM     11  H   UNL     1      -4.834   0.005  -5.755  1.00  0.00     0.210 HD
ENDBRANCH   9  10
ENDBRANCH   8   9
BRANCH   8  12
ATOM     12  O   UNL     1      -6.618   1.848  -3.039  1.00  0.00    -0.388 OA
ATOM     13  H   UNL     1      -7.496   2.311  -3.030  1.00  0.00     0.211 HD
ENDBRANCH   8  12
ENDBRANCH   1   8
BRANCH   1  14
ATOM     14  O   UNL     1      -6.846   2.419  -6.495  1.00  0.00    -0.388 OA
ATOM     15  H   UNL     1      -6.155   1.741  -6.713  1.00  0.00     0.211 HD
ENDBRANCH   1  14
TORSDOF 9
ENDMDL
