MODEL 1
REMARK VINA RESULT:    -7.825      0.000      0.000
REMARK INTER + INTRA:          -8.718
REMARK INTER:                  -8.511
REMARK INTRA:                  -0.207
REMARK UNBOUND:                -0.207
REMARK SMILES CC1(C)CC[C@]2(C(=O)[O-])CC[C@@]3(C)C(=CC[C@H]4[C@]5(C)CC[C@@H](O)C(C)(C)[C@@H]5CC[C@]43C)[C@@H]2C1
REMARK SMILES IDX 6 1 5 2 10 3 32 4 4 5 11 6 14 7 33 8 2 9 12 10 15 11 1 12
REMARK SMILES IDX 3 13 13 14 30 15 16 16 17 17 29 18 31 19 18 20 28 21 27 22
REMARK SMILES IDX 20 23 19 24 24 25 21 26 22 27 25 28 26 29 7 30 8 31 9 32
REMARK SMILES IDX 23 33
REMARK H PARENT 23 34
REMARK Flexibility Score: inf
ROOT
ATOM      1  C   UNL     1     -37.412  37.772  46.718  1.00  0.00     0.017 C 
ATOM      2  C   UNL     1     -38.150  36.442  46.388  1.00  0.00     0.014 C 
ATOM      3  C   UNL     1     -38.462  38.944  46.627  1.00  0.00     0.014 C 
ATOM      4  C   UNL     1     -36.177  37.935  45.707  1.00  0.00     0.028 C 
ATOM      5  C   UNL     1     -37.149  35.315  46.027  1.00  0.00     0.007 C 
ATOM      6  C   UNL     1     -38.288  39.776  45.323  1.00  0.00     0.013 C 
ATOM      7  C   UNL     1     -35.804  39.371  45.341  1.00  0.00    -0.064 C 
ATOM      8  C   UNL     1     -36.346  37.065  44.393  1.00  0.00     0.015 C 
ATOM      9  C   UNL     1     -36.271  35.551  44.692  1.00  0.00    -0.035 C 
ATOM     10  C   UNL     1     -36.891  40.444  45.180  1.00  0.00    -0.006 C 
ATOM     11  C   UNL     1     -34.585  39.607  44.937  1.00  0.00    -0.027 C 
ATOM     12  C   UNL     1     -36.939  34.597  43.662  1.00  0.00     0.011 C 
ATOM     13  C   UNL     1     -34.782  35.272  44.701  1.00  0.00     0.011 C 
ATOM     14  C   UNL     1     -36.713  41.468  46.347  1.00  0.00     0.017 C 
ATOM     15  C   UNL     1     -36.659  41.173  43.740  1.00  0.00    -0.020 C 
ATOM     16  C   UNL     1     -34.165  41.011  44.543  1.00  0.00     0.032 C 
ATOM     17  C   UNL     1     -35.210  41.755  43.628  1.00  0.00     0.006 C 
ATOM     18  C   UNL     1     -36.950  40.109  42.614  1.00  0.00     0.008 C 
ATOM     19  C   UNL     1     -37.733  42.343  43.598  1.00  0.00     0.012 C 
ATOM     20  C   UNL     1     -34.633  41.998  42.151  1.00  0.00    -0.025 C 
ATOM     21  C   UNL     1     -36.009  39.977  41.386  1.00  0.00     0.005 C 
ATOM     22  C   UNL     1     -34.580  40.619  41.467  1.00  0.00     0.003 C 
ATOM     23  C   UNL     1     -35.554  42.912  41.264  1.00  0.00     0.010 C 
ATOM     24  C   UNL     1     -33.270  42.748  42.322  1.00  0.00     0.012 C 
ATOM     25  C   UNL     1     -33.934  40.625  39.999  1.00  0.00    -0.006 C 
ATOM     26  C   UNL     1     -35.031  43.026  39.814  1.00  0.00     0.033 C 
ATOM     27  C   UNL     1     -34.671  41.695  39.090  1.00  0.00     0.120 C 
ATOM     28  C   UNL     1     -34.079  39.219  39.383  1.00  0.00     0.014 C 
ATOM     29  C   UNL     1     -32.404  40.910  40.052  1.00  0.00     0.014 C 
ENDROOT
BRANCH   1  30
ATOM     30  C   UNL     1     -36.780  37.713  48.143  1.00  0.00     0.048 C 
ATOM     31  O   UNL     1     -35.499  37.657  48.265  1.00  0.00    -0.550 OA
ATOM     32  O   UNL     1     -37.542  38.034  49.249  1.00  0.00    -0.550 OA
ENDBRANCH   1  30
BRANCH  27  33
ATOM     33  O   UNL     1     -33.963  42.001  37.941  1.00  0.00    -0.393 OA
ATOM     34  H   UNL     1     -33.195  41.347  37.845  1.00  0.00     0.210 HD
ENDBRANCH  27  33
TORSDOF 2
ENDMDL
MODEL 2
REMARK VINA RESULT:    -7.740      1.537      7.402
REMARK INTER + INTRA:          -8.626
REMARK INTER:                  -8.433
REMARK INTRA:                  -0.192
REMARK UNBOUND:                -0.207
REMARK SMILES CC1(C)CC[C@]2(C(=O)[O-])CC[C@@]3(C)C(=CC[C@H]4[C@]5(C)CC[C@@H](O)C(C)(C)[C@@H]5CC[C@]43C)[C@@H]2C1
REMARK SMILES IDX 6 1 5 2 10 3 32 4 4 5 11 6 14 7 33 8 2 9 12 10 15 11 1 12
REMARK SMILES IDX 3 13 13 14 30 15 16 16 17 17 29 18 31 19 18 20 28 21 27 22
REMARK SMILES IDX 20 23 19 24 24 25 21 26 22 27 25 28 26 29 7 30 8 31 9 32
REMARK SMILES IDX 23 33
REMARK H PARENT 23 34
REMARK Flexibility Score: inf
ROOT
ATOM      1  C   UNL     1     -33.830  41.884  40.406  1.00  0.00     0.017 C 
ATOM      2  C   UNL     1     -32.582  42.761  40.713  1.00  0.00     0.014 C 
ATOM      3  C   UNL     1     -35.110  42.793  40.550  1.00  0.00     0.014 C 
ATOM      4  C   UNL     1     -33.825  40.622  41.397  1.00  0.00     0.028 C 
ATOM      5  C   UNL     1     -31.340  41.887  41.022  1.00  0.00     0.007 C 
ATOM      6  C   UNL     1     -35.878  42.507  41.873  1.00  0.00     0.013 C 
ATOM      7  C   UNL     1     -35.198  40.084  41.796  1.00  0.00    -0.064 C 
ATOM      8  C   UNL     1     -32.939  40.867  42.689  1.00  0.00     0.015 C 
ATOM      9  C   UNL     1     -31.437  40.967  42.346  1.00  0.00    -0.035 C 
ATOM     10  C   UNL     1     -36.381  41.042  42.008  1.00  0.00    -0.006 C 
ATOM     11  C   UNL     1     -35.284  38.840  42.183  1.00  0.00    -0.027 C 
ATOM     12  C   UNL     1     -30.533  41.721  43.362  1.00  0.00     0.011 C 
ATOM     13  C   UNL     1     -30.994  39.519  42.301  1.00  0.00     0.011 C 
ATOM     14  C   UNL     1     -37.412  40.768  40.866  1.00  0.00     0.017 C 
ATOM     15  C   UNL     1     -37.035  40.706  43.463  1.00  0.00    -0.020 C 
ATOM     16  C   UNL     1     -36.619  38.259  42.608  1.00  0.00     0.032 C 
ATOM     17  C   UNL     1     -37.449  39.199  43.563  1.00  0.00     0.006 C 
ATOM     18  C   UNL     1     -35.977  41.096  44.564  1.00  0.00     0.008 C 
ATOM     19  C   UNL     1     -38.313  41.639  43.659  1.00  0.00     0.012 C 
ATOM     20  C   UNL     1     -37.580  38.575  45.035  1.00  0.00    -0.025 C 
ATOM     21  C   UNL     1     -35.704  40.156  45.769  1.00  0.00     0.005 C 
ATOM     22  C   UNL     1     -36.184  38.666  45.679  1.00  0.00     0.003 C 
ATOM     23  C   UNL     1     -38.565  39.373  45.965  1.00  0.00     0.010 C 
ATOM     24  C   UNL     1     -38.179  37.139  44.859  1.00  0.00     0.012 C 
ATOM     25  C   UNL     1     -36.074  38.000  47.134  1.00  0.00    -0.006 C 
ATOM     26  C   UNL     1     -38.577  38.818  47.407  1.00  0.00     0.033 C 
ATOM     27  C   UNL     1     -37.192  38.598  48.086  1.00  0.00     0.120 C 
ATOM     28  C   UNL     1     -34.675  38.292  47.712  1.00  0.00     0.014 C 
ATOM     29  C   UNL     1     -36.188  36.449  47.059  1.00  0.00     0.014 C 
ENDROOT
BRANCH   1  30
ATOM     30  C   UNL     1     -33.745  41.285  38.968  1.00  0.00     0.048 C 
ATOM     31  O   UNL     1     -33.629  40.011  38.819  1.00  0.00    -0.550 OA
ATOM     32  O   UNL     1     -34.102  42.054  37.878  1.00  0.00    -0.550 OA
ENDBRANCH   1  30
BRANCH  27  33
ATOM     33  O   UNL     1     -37.382  37.841  49.230  1.00  0.00    -0.393 OA
ATOM     34  H   UNL     1     -36.747  37.052  49.210  1.00  0.00     0.210 HD
ENDBRANCH  27  33
TORSDOF 2
ENDMDL
MODEL 3
REMARK VINA RESULT:    -7.384      2.007      3.061
REMARK INTER + INTRA:          -8.238
REMARK INTER:                  -8.096
REMARK INTRA:                  -0.142
REMARK UNBOUND:                -0.207
REMARK SMILES CC1(C)CC[C@]2(C(=O)[O-])CC[C@@]3(C)C(=CC[C@H]4[C@]5(C)CC[C@@H](O)C(C)(C)[C@@H]5CC[C@]43C)[C@@H]2C1
REMARK SMILES IDX 6 1 5 2 10 3 32 4 4 5 11 6 14 7 33 8 2 9 12 10 15 11 1 12
REMARK SMILES IDX 3 13 13 14 30 15 16 16 17 17 29 18 31 19 18 20 28 21 27 22
REMARK SMILES IDX 20 23 19 24 24 25 21 26 22 27 25 28 26 29 7 30 8 31 9 32
REMARK SMILES IDX 23 33
REMARK H PARENT 23 34
REMARK Flexibility Score: inf
ROOT
ATOM      1  C   UNL     1     -36.586  35.286  44.872  1.00  0.00     0.017 C 
ATOM      2  C   UNL     1     -36.147  33.868  44.404  1.00  0.00     0.014 C 
ATOM      3  C   UNL     1     -37.647  35.830  43.840  1.00  0.00     0.014 C 
ATOM      4  C   UNL     1     -35.280  36.209  44.996  1.00  0.00     0.028 C 
ATOM      5  C   UNL     1     -34.822  33.435  45.080  1.00  0.00     0.007 C 
ATOM      6  C   UNL     1     -37.035  36.899  42.889  1.00  0.00     0.013 C 
ATOM      7  C   UNL     1     -35.486  37.695  44.707  1.00  0.00    -0.064 C 
ATOM      8  C   UNL     1     -34.059  35.655  44.149  1.00  0.00     0.015 C 
ATOM      9  C   UNL     1     -33.523  34.323  44.717  1.00  0.00    -0.035 C 
ATOM     10  C   UNL     1     -36.475  38.151  43.623  1.00  0.00    -0.006 C 
ATOM     11  C   UNL     1     -34.643  38.547  45.225  1.00  0.00    -0.027 C 
ATOM     12  C   UNL     1     -32.735  33.407  43.738  1.00  0.00     0.011 C 
ATOM     13  C   UNL     1     -32.576  34.770  45.813  1.00  0.00     0.011 C 
ATOM     14  C   UNL     1     -37.659  38.871  44.343  1.00  0.00     0.017 C 
ATOM     15  C   UNL     1     -35.688  39.186  42.639  1.00  0.00    -0.020 C 
ATOM     16  C   UNL     1     -34.790  40.032  44.957  1.00  0.00     0.032 C 
ATOM     17  C   UNL     1     -35.080  40.382  43.448  1.00  0.00     0.006 C 
ATOM     18  C   UNL     1     -34.574  38.370  41.878  1.00  0.00     0.008 C 
ATOM     19  C   UNL     1     -36.726  39.728  41.557  1.00  0.00     0.012 C 
ATOM     20  C   UNL     1     -33.851  41.166  42.778  1.00  0.00    -0.025 C 
ATOM     21  C   UNL     1     -33.144  38.949  41.709  1.00  0.00     0.005 C 
ATOM     22  C   UNL     1     -32.708  40.145  42.625  1.00  0.00     0.003 C 
ATOM     23  C   UNL     1     -34.171  41.713  41.339  1.00  0.00     0.010 C 
ATOM     24  C   UNL     1     -33.565  42.408  43.688  1.00  0.00     0.012 C 
ATOM     25  C   UNL     1     -31.338  40.756  42.057  1.00  0.00    -0.006 C 
ATOM     26  C   UNL     1     -32.932  42.356  40.677  1.00  0.00     0.033 C 
ATOM     27  C   UNL     1     -31.613  41.527  40.699  1.00  0.00     0.120 C 
ATOM     28  C   UNL     1     -30.339  39.606  41.819  1.00  0.00     0.014 C 
ATOM     29  C   UNL     1     -30.662  41.698  43.096  1.00  0.00     0.014 C 
ENDROOT
BRANCH   1  30
ATOM     30  C   UNL     1     -37.196  35.230  46.306  1.00  0.00     0.048 C 
ATOM     31  O   UNL     1     -37.478  36.328  46.916  1.00  0.00    -0.550 OA
ATOM     32  O   UNL     1     -37.717  34.046  46.788  1.00  0.00    -0.550 OA
ENDBRANCH   1  30
BRANCH  27  33
ATOM     33  O   UNL     1     -30.568  42.358  40.333  1.00  0.00    -0.393 OA
ATOM     34  H   UNL     1     -30.924  43.299  40.214  1.00  0.00     0.210 HD
ENDBRANCH  27  33
TORSDOF 2
ENDMDL
MODEL 4
REMARK VINA RESULT:    -7.128      2.448      7.297
REMARK INTER + INTRA:          -7.960
REMARK INTER:                  -7.812
REMARK INTRA:                  -0.149
REMARK UNBOUND:                -0.207
REMARK SMILES CC1(C)CC[C@]2(C(=O)[O-])CC[C@@]3(C)C(=CC[C@H]4[C@]5(C)CC[C@@H](O)C(C)(C)[C@@H]5CC[C@]43C)[C@@H]2C1
REMARK SMILES IDX 6 1 5 2 10 3 32 4 4 5 11 6 14 7 33 8 2 9 12 10 15 11 1 12
REMARK SMILES IDX 3 13 13 14 30 15 16 16 17 17 29 18 31 19 18 20 28 21 27 22
REMARK SMILES IDX 20 23 19 24 24 25 21 26 22 27 25 28 26 29 7 30 8 31 9 32
REMARK SMILES IDX 23 33
REMARK H PARENT 23 34
REMARK Flexibility Score: inf
ROOT
ATOM      1  C   UNL     1     -31.185  41.304  42.063  1.00  0.00     0.017 C 
ATOM      2  C   UNL     1     -29.725  41.024  42.521  1.00  0.00     0.014 C 
ATOM      3  C   UNL     1     -31.835  42.301  43.098  1.00  0.00     0.014 C 
ATOM      4  C   UNL     1     -31.961  39.905  41.946  1.00  0.00     0.028 C 
ATOM      5  C   UNL     1     -29.154  39.753  41.843  1.00  0.00     0.007 C 
ATOM      6  C   UNL     1     -32.824  41.577  44.057  1.00  0.00     0.013 C 
ATOM      7  C   UNL     1     -33.459  39.948  42.245  1.00  0.00    -0.064 C 
ATOM      8  C   UNL     1     -31.271  38.753  42.790  1.00  0.00     0.015 C 
ATOM      9  C   UNL     1     -29.892  38.365  42.212  1.00  0.00    -0.035 C 
ATOM     10  C   UNL     1     -34.012  40.882  43.333  1.00  0.00    -0.006 C 
ATOM     11  C   UNL     1     -34.217  39.016  41.734  1.00  0.00    -0.027 C 
ATOM     12  C   UNL     1     -28.889  37.683  43.185  1.00  0.00     0.011 C 
ATOM     13  C   UNL     1     -30.240  37.374  41.120  1.00  0.00     0.011 C 
ATOM     14  C   UNL     1     -34.863  41.980  42.617  1.00  0.00     0.017 C 
ATOM     15  C   UNL     1     -34.948  39.988  44.324  1.00  0.00    -0.020 C 
ATOM     16  C   UNL     1     -35.708  39.000  42.013  1.00  0.00     0.032 C 
ATOM     17  C   UNL     1     -36.076  39.252  43.524  1.00  0.00     0.006 C 
ATOM     18  C   UNL     1     -34.010  38.971  45.080  1.00  0.00     0.008 C 
ATOM     19  C   UNL     1     -35.593  40.961  45.409  1.00  0.00     0.012 C 
ATOM     20  C   UNL     1     -36.716  37.945  44.200  1.00  0.00    -0.025 C 
ATOM     21  C   UNL     1     -34.427  37.486  45.253  1.00  0.00     0.005 C 
ATOM     22  C   UNL     1     -35.575  36.921  44.347  1.00  0.00     0.003 C 
ATOM     23  C   UNL     1     -37.285  38.205  45.643  1.00  0.00     0.010 C 
ATOM     24  C   UNL     1     -37.925  37.524  43.299  1.00  0.00     0.012 C 
ATOM     25  C   UNL     1     -36.029  35.493  44.919  1.00  0.00    -0.006 C 
ATOM     26  C   UNL     1     -37.784  36.904  46.310  1.00  0.00     0.033 C 
ATOM     27  C   UNL     1     -36.815  35.684  46.283  1.00  0.00     0.120 C 
ATOM     28  C   UNL     1     -34.775  34.626  45.149  1.00  0.00     0.014 C 
ATOM     29  C   UNL     1     -36.898  34.716  43.887  1.00  0.00     0.014 C 
ENDROOT
BRANCH   1  30
ATOM     30  C   UNL     1     -31.207  41.915  40.628  1.00  0.00     0.048 C 
ATOM     31  O   UNL     1     -32.325  42.003  39.995  1.00  0.00    -0.550 OA
ATOM     32  O   UNL     1     -30.121  42.633  40.168  1.00  0.00    -0.550 OA
ENDBRANCH   1  30
BRANCH  27  33
ATOM     33  O   UNL     1     -37.525  34.554  46.655  1.00  0.00    -0.393 OA
ATOM     34  H   UNL     1     -38.028  34.203  45.849  1.00  0.00     0.210 HD
ENDBRANCH  27  33
TORSDOF 2
ENDMDL
MODEL 5
REMARK VINA RESULT:    -6.858      1.492      1.747
REMARK INTER + INTRA:          -7.666
REMARK INTER:                  -7.514
REMARK INTRA:                  -0.152
REMARK UNBOUND:                -0.207
REMARK SMILES CC1(C)CC[C@]2(C(=O)[O-])CC[C@@]3(C)C(=CC[C@H]4[C@]5(C)CC[C@@H](O)C(C)(C)[C@@H]5CC[C@]43C)[C@@H]2C1
REMARK SMILES IDX 6 1 5 2 10 3 32 4 4 5 11 6 14 7 33 8 2 9 12 10 15 11 1 12
REMARK SMILES IDX 3 13 13 14 30 15 16 16 17 17 29 18 31 19 18 20 28 21 27 22
REMARK SMILES IDX 20 23 19 24 24 25 21 26 22 27 25 28 26 29 7 30 8 31 9 32
REMARK SMILES IDX 23 33
REMARK H PARENT 23 34
REMARK Flexibility Score: inf
ROOT
ATOM      1  C   UNL     1     -38.381  37.735  47.011  1.00  0.00     0.017 C 
ATOM      2  C   UNL     1     -39.014  36.398  46.528  1.00  0.00     0.014 C 
ATOM      3  C   UNL     1     -39.235  38.919  46.415  1.00  0.00     0.014 C 
ATOM      4  C   UNL     1     -36.842  37.764  46.560  1.00  0.00     0.028 C 
ATOM      5  C   UNL     1     -38.025  35.215  46.687  1.00  0.00     0.007 C 
ATOM      6  C   UNL     1     -38.514  39.610  45.221  1.00  0.00     0.013 C 
ATOM      7  C   UNL     1     -36.265  39.145  46.253  1.00  0.00    -0.064 C 
ATOM      8  C   UNL     1     -36.538  36.769  45.364  1.00  0.00     0.015 C 
ATOM      9  C   UNL     1     -36.683  35.293  45.792  1.00  0.00    -0.035 C 
ATOM     10  C   UNL     1     -37.133  40.224  45.587  1.00  0.00    -0.006 C 
ATOM     11  C   UNL     1     -34.973  39.309  46.345  1.00  0.00    -0.027 C 
ATOM     12  C   UNL     1     -36.953  34.256  44.665  1.00  0.00     0.011 C 
ATOM     13  C   UNL     1     -35.336  34.978  46.412  1.00  0.00     0.011 C 
ATOM     14  C   UNL     1     -37.360  41.356  46.640  1.00  0.00     0.017 C 
ATOM     15  C   UNL     1     -36.311  40.797  44.300  1.00  0.00    -0.020 C 
ATOM     16  C   UNL     1     -34.345  40.653  46.034  1.00  0.00     0.032 C 
ATOM     17  C   UNL     1     -34.899  41.328  44.723  1.00  0.00     0.006 C 
ATOM     18  C   UNL     1     -36.205  39.632  43.244  1.00  0.00     0.008 C 
ATOM     19  C   UNL     1     -37.167  41.973  43.649  1.00  0.00     0.012 C 
ATOM     20  C   UNL     1     -33.777  41.404  43.579  1.00  0.00    -0.025 C 
ATOM     21  C   UNL     1     -34.869  39.352  42.503  1.00  0.00     0.005 C 
ATOM     22  C   UNL     1     -33.548  39.962  43.089  1.00  0.00     0.003 C 
ATOM     23  C   UNL     1     -34.218  42.248  42.327  1.00  0.00     0.010 C 
ATOM     24  C   UNL     1     -32.544  42.134  44.211  1.00  0.00     0.012 C 
ATOM     25  C   UNL     1     -32.381  39.803  42.000  1.00  0.00    -0.006 C 
ATOM     26  C   UNL     1     -33.164  42.201  41.198  1.00  0.00     0.033 C 
ATOM     27  C   UNL     1     -32.635  40.794  40.789  1.00  0.00     0.120 C 
ATOM     28  C   UNL     1     -32.362  38.346  41.497  1.00  0.00     0.014 C 
ATOM     29  C   UNL     1     -30.979  40.053  42.629  1.00  0.00     0.014 C 
ENDROOT
BRANCH   1  30
ATOM     30  C   UNL     1     -38.361  37.806  48.568  1.00  0.00     0.048 C 
ATOM     31  O   UNL     1     -37.254  38.058  49.176  1.00  0.00    -0.550 OA
ATOM     32  O   UNL     1     -39.546  37.913  49.269  1.00  0.00    -0.550 OA
ENDBRANCH   1  30
BRANCH  27  33
ATOM     33  O   UNL     1     -31.516  40.964  39.991  1.00  0.00    -0.393 OA
ATOM     34  H   UNL     1     -31.490  41.921  39.662  1.00  0.00     0.210 HD
ENDBRANCH  27  33
TORSDOF 2
ENDMDL
MODEL 6
REMARK VINA RESULT:    -6.046      2.101      7.244
REMARK INTER + INTRA:          -6.784
REMARK INTER:                  -6.635
REMARK INTRA:                  -0.149
REMARK UNBOUND:                -0.207
REMARK SMILES CC1(C)CC[C@]2(C(=O)[O-])CC[C@@]3(C)C(=CC[C@H]4[C@]5(C)CC[C@@H](O)C(C)(C)[C@@H]5CC[C@]43C)[C@@H]2C1
REMARK SMILES IDX 6 1 5 2 10 3 32 4 4 5 11 6 14 7 33 8 2 9 12 10 15 11 1 12
REMARK SMILES IDX 3 13 13 14 30 15 16 16 17 17 29 18 31 19 18 20 28 21 27 22
REMARK SMILES IDX 20 23 19 24 24 25 21 26 22 27 25 28 26 29 7 30 8 31 9 32
REMARK SMILES IDX 23 33
REMARK H PARENT 23 34
REMARK Flexibility Score: inf
ROOT
ATOM      1  C   UNL     1     -34.913  41.944  42.142  1.00  0.00     0.017 C 
ATOM      2  C   UNL     1     -33.590  42.699  42.459  1.00  0.00     0.014 C 
ATOM      3  C   UNL     1     -35.930  42.234  43.312  1.00  0.00     0.014 C 
ATOM      4  C   UNL     1     -34.579  40.386  41.955  1.00  0.00     0.028 C 
ATOM      5  C   UNL     1     -32.409  42.145  41.624  1.00  0.00     0.007 C 
ATOM      6  C   UNL     1     -36.072  41.017  44.272  1.00  0.00     0.013 C 
ATOM      7  C   UNL     1     -35.683  39.414  42.370  1.00  0.00    -0.064 C 
ATOM      8  C   UNL     1     -33.207  39.971  42.632  1.00  0.00     0.015 C 
ATOM      9  C   UNL     1     -31.996  40.611  41.918  1.00  0.00    -0.035 C 
ATOM     10  C   UNL     1     -36.580  39.722  43.579  1.00  0.00    -0.006 C 
ATOM     11  C   UNL     1     -35.691  38.224  41.833  1.00  0.00    -0.027 C 
ATOM     12  C   UNL     1     -30.687  40.753  42.744  1.00  0.00     0.011 C 
ATOM     13  C   UNL     1     -31.731  39.661  40.768  1.00  0.00     0.011 C 
ATOM     14  C   UNL     1     -38.021  39.986  43.035  1.00  0.00     0.017 C 
ATOM     15  C   UNL     1     -36.567  38.412  44.551  1.00  0.00    -0.020 C 
ATOM     16  C   UNL     1     -36.753  37.214  42.222  1.00  0.00     0.032 C 
ATOM     17  C   UNL     1     -37.013  37.127  43.774  1.00  0.00     0.006 C 
ATOM     18  C   UNL     1     -35.111  38.265  45.135  1.00  0.00     0.008 C 
ATOM     19  C   UNL     1     -37.559  38.688  45.768  1.00  0.00     0.012 C 
ATOM     20  C   UNL     1     -36.546  35.714  44.372  1.00  0.00    -0.025 C 
ATOM     21  C   UNL     1     -34.419  36.877  45.201  1.00  0.00     0.005 C 
ATOM     22  C   UNL     1     -35.006  35.708  44.335  1.00  0.00     0.003 C 
ATOM     23  C   UNL     1     -36.967  35.502  45.872  1.00  0.00     0.010 C 
ATOM     24  C   UNL     1     -37.271  34.611  43.531  1.00  0.00     0.012 C 
ATOM     25  C   UNL     1     -34.331  34.331  44.805  1.00  0.00    -0.006 C 
ATOM     26  C   UNL     1     -36.399  34.187  46.451  1.00  0.00     0.033 C 
ATOM     27  C   UNL     1     -34.879  33.924  46.237  1.00  0.00     0.120 C 
ATOM     28  C   UNL     1     -32.802  34.516  44.857  1.00  0.00     0.014 C 
ATOM     29  C   UNL     1     -34.586  33.192  43.775  1.00  0.00     0.014 C 
ENDROOT
BRANCH   1  30
ATOM     30  C   UNL     1     -35.503  42.411  40.776  1.00  0.00     0.048 C 
ATOM     31  O   UNL     1     -36.452  41.733  40.232  1.00  0.00    -0.550 OA
ATOM     32  O   UNL     1     -35.243  43.686  40.313  1.00  0.00    -0.550 OA
ENDBRANCH   1  30
BRANCH  27  33
ATOM     33  O   UNL     1     -34.615  32.602  46.555  1.00  0.00    -0.393 OA
ATOM     34  H   UNL     1     -35.418  32.214  47.035  1.00  0.00     0.210 HD
ENDBRANCH  27  33
TORSDOF 2
ENDMDL
MODEL 7
REMARK VINA RESULT:    -5.745      2.445      3.269
REMARK INTER + INTRA:          -6.456
REMARK INTER:                  -6.308
REMARK INTRA:                  -0.148
REMARK UNBOUND:                -0.207
REMARK SMILES CC1(C)CC[C@]2(C(=O)[O-])CC[C@@]3(C)C(=CC[C@H]4[C@]5(C)CC[C@@H](O)C(C)(C)[C@@H]5CC[C@]43C)[C@@H]2C1
REMARK SMILES IDX 6 1 5 2 10 3 32 4 4 5 11 6 14 7 33 8 2 9 12 10 15 11 1 12
REMARK SMILES IDX 3 13 13 14 30 15 16 16 17 17 29 18 31 19 18 20 28 21 27 22
REMARK SMILES IDX 20 23 19 24 24 25 21 26 22 27 25 28 26 29 7 30 8 31 9 32
REMARK SMILES IDX 23 33
REMARK H PARENT 23 34
REMARK Flexibility Score: inf
ROOT
ATOM      1  C   UNL     1     -37.654  38.976  45.042  1.00  0.00     0.017 C 
ATOM      2  C   UNL     1     -38.290  37.584  44.759  1.00  0.00     0.014 C 
ATOM      3  C   UNL     1     -38.063  39.945  43.868  1.00  0.00     0.014 C 
ATOM      4  C   UNL     1     -36.068  38.790  45.197  1.00  0.00     0.028 C 
ATOM      5  C   UNL     1     -37.610  36.471  45.595  1.00  0.00     0.007 C 
ATOM      6  C   UNL     1     -36.886  40.185  42.878  1.00  0.00     0.013 C 
ATOM      7  C   UNL     1     -35.212  39.973  44.747  1.00  0.00    -0.064 C 
ATOM      8  C   UNL     1     -35.543  37.452  44.527  1.00  0.00     0.015 C 
ATOM      9  C   UNL     1     -36.052  36.198  45.271  1.00  0.00    -0.035 C 
ATOM     10  C   UNL     1     -35.628  40.821  43.535  1.00  0.00    -0.006 C 
ATOM     11  C   UNL     1     -34.016  40.098  45.255  1.00  0.00    -0.027 C 
ATOM     12  C   UNL     1     -36.090  34.869  44.464  1.00  0.00     0.011 C 
ATOM     13  C   UNL     1     -35.056  36.037  46.402  1.00  0.00     0.011 C 
ATOM     14  C   UNL     1     -36.013  42.239  44.067  1.00  0.00     0.017 C 
ATOM     15  C   UNL     1     -34.345  40.915  42.533  1.00  0.00    -0.020 C 
ATOM     16  C   UNL     1     -33.118  41.244  44.830  1.00  0.00     0.032 C 
ATOM     17  C   UNL     1     -33.090  41.489  43.274  1.00  0.00     0.006 C 
ATOM     18  C   UNL     1     -34.077  39.470  41.963  1.00  0.00     0.008 C 
ATOM     19  C   UNL     1     -34.739  41.860  41.311  1.00  0.00     0.012 C 
ATOM     20  C   UNL     1     -31.654  41.145  42.649  1.00  0.00    -0.025 C 
ATOM     21  C   UNL     1     -32.632  38.909  41.873  1.00  0.00     0.005 C 
ATOM     22  C   UNL     1     -31.504  39.613  42.704  1.00  0.00     0.003 C 
ATOM     23  C   UNL     1     -31.514  41.564  41.139  1.00  0.00     0.010 C 
ATOM     24  C   UNL     1     -30.604  41.982  43.455  1.00  0.00     0.012 C 
ATOM     25  C   UNL     1     -30.080  39.063  42.210  1.00  0.00    -0.006 C 
ATOM     26  C   UNL     1     -30.165  41.111  40.536  1.00  0.00     0.033 C 
ATOM     27  C   UNL     1     -29.758  39.625  40.763  1.00  0.00     0.120 C 
ATOM     28  C   UNL     1     -30.124  37.522  42.180  1.00  0.00     0.014 C 
ATOM     29  C   UNL     1     -28.948  39.436  43.210  1.00  0.00     0.014 C 
ENDROOT
BRANCH   1  30
ATOM     30  C   UNL     1     -38.143  39.539  46.412  1.00  0.00     0.048 C 
ATOM     31  O   UNL     1     -37.548  40.558  46.926  1.00  0.00    -0.550 OA
ATOM     32  O   UNL     1     -39.376  39.165  46.910  1.00  0.00    -0.550 OA
ENDBRANCH   1  30
BRANCH  27  33
ATOM     33  O   UNL     1     -28.424  39.481  40.417  1.00  0.00    -0.393 OA
ATOM     34  H   UNL     1     -28.185  38.497  40.439  1.00  0.00     0.210 HD
ENDBRANCH  27  33
TORSDOF 2
ENDMDL
