MODEL 1
REMARK VINA RESULT:    -4.188      0.000      0.000
REMARK INTER + INTRA:         -17.244
REMARK INTER:                 -11.044
REMARK INTRA:                  -6.200
REMARK UNBOUND:                -6.200
REMARK SMILES CCCCCCCCCCCCCCCCCCCCCCCCCCCCCC(=O)[O-]
REMARK SMILES IDX 16 1 17 2 18 3 19 4 20 5 21 6 22 7 23 8 24 9 25 10 26 11
REMARK SMILES IDX 27 12 28 13 29 14 30 15 31 16 32 17 15 18 14 19 13 20 12 21
REMARK SMILES IDX 11 22 10 23 9 24 8 25 7 26 6 27 5 28 4 29 3 30 2 31 1 32
REMARK H PARENT
REMARK Flexibility Score: inf
ROOT
ATOM      1  C   UNL     1      55.275  38.469  49.614  1.00  0.00     0.000 C 
ENDROOT
BRANCH   1   2
ATOM      2  C   UNL     1      54.112  38.627  50.612  1.00  0.00     0.000 C 
BRANCH   2   3
ATOM      3  C   UNL     1      53.803  40.094  50.949  1.00  0.00     0.000 C 
BRANCH   3   4
ATOM      4  C   UNL     1      52.313  40.283  51.278  1.00  0.00     0.000 C 
BRANCH   4   5
ATOM      5  C   UNL     1      52.044  41.542  52.121  1.00  0.00     0.000 C 
BRANCH   5   6
ATOM      6  C   UNL     1      52.820  42.794  51.677  1.00  0.00     0.000 C 
BRANCH   6   7
ATOM      7  C   UNL     1      53.889  43.219  52.697  1.00  0.00     0.000 C 
BRANCH   7   8
ATOM      8  C   UNL     1      54.000  42.246  53.881  1.00  0.00     0.000 C 
BRANCH   8   9
ATOM      9  C   UNL     1      55.411  41.652  54.034  1.00  0.00     0.000 C 
BRANCH   9  10
ATOM     10  C   UNL     1      55.401  40.134  54.286  1.00  0.00     0.000 C 
BRANCH  10  11
ATOM     11  C   UNL     1      56.421  39.332  53.457  1.00  0.00     0.000 C 
BRANCH  11  12
ATOM     12  C   UNL     1      57.586  38.730  54.265  1.00  0.00     0.000 C 
BRANCH  12  13
ATOM     13  C   UNL     1      58.239  37.502  53.592  1.00  0.00     0.006 C 
BRANCH  13  14
ATOM     14  C   UNL     1      57.876  37.390  52.105  1.00  0.00     0.053 C 
BRANCH  14  15
ATOM     15  C   UNL     1      58.822  36.466  51.404  1.00  0.00     0.041 C 
ATOM     16  O   UNL     1      59.260  35.442  51.991  1.00  0.00    -0.550 OA
ATOM     17  O   UNL     1      59.253  36.759  50.115  1.00  0.00    -0.550 OA
ENDBRANCH  14  15
ENDBRANCH  13  14
ENDBRANCH  12  13
ENDBRANCH  11  12
ENDBRANCH  10  11
ENDBRANCH   9  10
ENDBRANCH   8   9
ENDBRANCH   7   8
ENDBRANCH   6   7
ENDBRANCH   5   6
ENDBRANCH   4   5
ENDBRANCH   3   4
ENDBRANCH   2   3
ENDBRANCH   1   2
BRANCH   1  18
ATOM     18  C   UNL     1      55.308  39.511  48.480  1.00  0.00     0.000 C 
BRANCH  18  19
ATOM     19  C   UNL     1      54.512  39.070  47.238  1.00  0.00     0.000 C 
BRANCH  19  20
ATOM     20  C   UNL     1      53.536  40.150  46.746  1.00  0.00     0.000 C 
BRANCH  20  21
ATOM     21  C   UNL     1      52.311  40.305  47.667  1.00  0.00     0.000 C 
BRANCH  21  22
ATOM     22  C   UNL     1      51.938  41.778  47.937  1.00  0.00     0.000 C 
BRANCH  22  23
ATOM     23  C   UNL     1      52.325  42.747  46.803  1.00  0.00     0.000 C 
BRANCH  23  24
ATOM     24  C   UNL     1      52.358  44.239  47.186  1.00  0.00    -0.000 C 
BRANCH  24  25
ATOM     25  C   UNL     1      53.490  44.643  48.149  1.00  0.00    -0.000 C 
BRANCH  25  26
ATOM     26  C   UNL     1      54.810  43.915  47.862  1.00  0.00    -0.000 C 
BRANCH  26  27
ATOM     27  C   UNL     1      55.285  43.132  49.092  1.00  0.00    -0.000 C 
BRANCH  27  28
ATOM     28  C   UNL     1      56.125  44.022  50.021  1.00  0.00    -0.000 C 
BRANCH  28  29
ATOM     29  C   UNL     1      57.219  43.244  50.772  1.00  0.00    -0.000 C 
BRANCH  29  30
ATOM     30  C   UNL     1      57.084  41.711  50.712  1.00  0.00    -0.000 C 
BRANCH  30  31
ATOM     31  C   UNL     1      58.427  40.986  50.890  1.00  0.00    -0.003 C 
ATOM     32  C   UNL     1      58.796  40.197  49.637  1.00  0.00     0.004 C 
ENDBRANCH  30  31
ENDBRANCH  29  30
ENDBRANCH  28  29
ENDBRANCH  27  28
ENDBRANCH  26  27
ENDBRANCH  25  26
ENDBRANCH  24  25
ENDBRANCH  23  24
ENDBRANCH  22  23
ENDBRANCH  21  22
ENDBRANCH  20  21
ENDBRANCH  19  20
ENDBRANCH  18  19
ENDBRANCH   1  18
TORSDOF 28
ENDMDL
MODEL 2
REMARK VINA RESULT:    -4.080      2.899      4.433
REMARK INTER + INTRA:         -16.958
REMARK INTER:                 -11.224
REMARK INTRA:                  -5.734
REMARK UNBOUND:                -6.200
REMARK SMILES CCCCCCCCCCCCCCCCCCCCCCCCCCCCCC(=O)[O-]
REMARK SMILES IDX 16 1 17 2 18 3 19 4 20 5 21 6 22 7 23 8 24 9 25 10 26 11
REMARK SMILES IDX 27 12 28 13 29 14 30 15 31 16 32 17 15 18 14 19 13 20 12 21
REMARK SMILES IDX 11 22 10 23 9 24 8 25 7 26 6 27 5 28 4 29 3 30 2 31 1 32
REMARK H PARENT
REMARK Flexibility Score: inf
ROOT
ATOM      1  C   UNL     1      55.933  39.049  50.894  1.00  0.00     0.000 C 
ENDROOT
BRANCH   1   2
ATOM      2  C   UNL     1      54.788  38.102  50.488  1.00  0.00     0.000 C 
BRANCH   2   3
ATOM      3  C   UNL     1      53.396  38.661  50.820  1.00  0.00     0.000 C 
BRANCH   3   4
ATOM      4  C   UNL     1      53.503  39.967  51.623  1.00  0.00     0.000 C 
BRANCH   4   5
ATOM      5  C   UNL     1      52.143  40.659  51.819  1.00  0.00     0.000 C 
BRANCH   5   6
ATOM      6  C   UNL     1      52.215  42.187  51.986  1.00  0.00     0.000 C 
BRANCH   6   7
ATOM      7  C   UNL     1      53.471  42.794  51.338  1.00  0.00     0.000 C 
BRANCH   7   8
ATOM      8  C   UNL     1      54.373  43.514  52.353  1.00  0.00     0.000 C 
BRANCH   8   9
ATOM      9  C   UNL     1      55.746  42.838  52.514  1.00  0.00     0.000 C 
BRANCH   9  10
ATOM     10  C   UNL     1      55.987  42.298  53.935  1.00  0.00     0.000 C 
BRANCH  10  11
ATOM     11  C   UNL     1      56.419  40.821  54.003  1.00  0.00     0.000 C 
BRANCH  11  12
ATOM     12  C   UNL     1      55.393  39.873  54.649  1.00  0.00     0.000 C 
BRANCH  12  13
ATOM     13  C   UNL     1      55.098  40.194  56.131  1.00  0.00     0.006 C 
BRANCH  13  14
ATOM     14  C   UNL     1      53.622  40.541  56.371  1.00  0.00     0.053 C 
BRANCH  14  15
ATOM     15  C   UNL     1      53.179  40.044  57.711  1.00  0.00     0.041 C 
ATOM     16  O   UNL     1      53.936  39.309  58.397  1.00  0.00    -0.550 OA
ATOM     17  O   UNL     1      51.911  40.360  58.185  1.00  0.00    -0.550 OA
ENDBRANCH  14  15
ENDBRANCH  13  14
ENDBRANCH  12  13
ENDBRANCH  11  12
ENDBRANCH  10  11
ENDBRANCH   9  10
ENDBRANCH   8   9
ENDBRANCH   7   8
ENDBRANCH   6   7
ENDBRANCH   5   6
ENDBRANCH   4   5
ENDBRANCH   3   4
ENDBRANCH   2   3
ENDBRANCH   1   2
BRANCH   1  18
ATOM     18  C   UNL     1      57.037  39.229  49.836  1.00  0.00     0.000 C 
BRANCH  18  19
ATOM     19  C   UNL     1      57.099  40.660  49.272  1.00  0.00     0.000 C 
BRANCH  19  20
ATOM     20  C   UNL     1      55.714  41.205  48.885  1.00  0.00     0.000 C 
BRANCH  20  21
ATOM     21  C   UNL     1      55.356  40.918  47.414  1.00  0.00     0.000 C 
BRANCH  21  22
ATOM     22  C   UNL     1      54.521  39.634  47.234  1.00  0.00     0.000 C 
BRANCH  22  23
ATOM     23  C   UNL     1      53.057  39.883  46.819  1.00  0.00     0.000 C 
BRANCH  23  24
ATOM     24  C   UNL     1      52.128  40.399  47.936  1.00  0.00    -0.000 C 
BRANCH  24  25
ATOM     25  C   UNL     1      52.141  41.924  48.147  1.00  0.00    -0.000 C 
BRANCH  25  26
ATOM     26  C   UNL     1      51.948  42.711  46.844  1.00  0.00    -0.000 C 
BRANCH  26  27
ATOM     27  C   UNL     1      52.313  44.188  47.034  1.00  0.00    -0.000 C 
BRANCH  27  28
ATOM     28  C   UNL     1      53.837  44.375  47.093  1.00  0.00    -0.000 C 
BRANCH  28  29
ATOM     29  C   UNL     1      54.325  44.903  48.453  1.00  0.00    -0.000 C 
BRANCH  29  30
ATOM     30  C   UNL     1      55.823  44.682  48.736  1.00  0.00    -0.000 C 
BRANCH  30  31
ATOM     31  C   UNL     1      56.528  45.949  49.243  1.00  0.00    -0.003 C 
ATOM     32  C   UNL     1      56.412  46.072  50.761  1.00  0.00     0.004 C 
ENDBRANCH  30  31
ENDBRANCH  29  30
ENDBRANCH  28  29
ENDBRANCH  27  28
ENDBRANCH  26  27
ENDBRANCH  25  26
ENDBRANCH  24  25
ENDBRANCH  23  24
ENDBRANCH  22  23
ENDBRANCH  21  22
ENDBRANCH  20  21
ENDBRANCH  19  20
ENDBRANCH  18  19
ENDBRANCH   1  18
TORSDOF 28
ENDMDL
MODEL 3
REMARK VINA RESULT:    -4.072      1.283      1.848
REMARK INTER + INTRA:         -16.938
REMARK INTER:                 -11.024
REMARK INTRA:                  -5.913
REMARK UNBOUND:                -6.200
REMARK SMILES CCCCCCCCCCCCCCCCCCCCCCCCCCCCCC(=O)[O-]
REMARK SMILES IDX 16 1 17 2 18 3 19 4 20 5 21 6 22 7 23 8 24 9 25 10 26 11
REMARK SMILES IDX 27 12 28 13 29 14 30 15 31 16 32 17 15 18 14 19 13 20 12 21
REMARK SMILES IDX 11 22 10 23 9 24 8 25 7 26 6 27 5 28 4 29 3 30 2 31 1 32
REMARK H PARENT
REMARK Flexibility Score: inf
ROOT
ATOM      1  C   UNL     1      55.206  39.229  49.339  1.00  0.00     0.000 C 
ENDROOT
BRANCH   1   2
ATOM      2  C   UNL     1      54.586  38.264  50.368  1.00  0.00     0.000 C 
BRANCH   2   3
ATOM      3  C   UNL     1      53.343  38.840  51.064  1.00  0.00     0.000 C 
BRANCH   3   4
ATOM      4  C   UNL     1      53.292  40.370  50.924  1.00  0.00     0.000 C 
BRANCH   4   5
ATOM      5  C   UNL     1      51.978  40.973  51.448  1.00  0.00     0.000 C 
BRANCH   5   6
ATOM      6  C   UNL     1      52.143  41.973  52.606  1.00  0.00     0.000 C 
BRANCH   6   7
ATOM      7  C   UNL     1      53.613  42.166  53.015  1.00  0.00     0.000 C 
BRANCH   7   8
ATOM      8  C   UNL     1      54.002  41.326  54.242  1.00  0.00     0.000 C 
BRANCH   8   9
ATOM      9  C   UNL     1      55.156  40.350  53.954  1.00  0.00     0.000 C 
BRANCH   9  10
ATOM     10  C   UNL     1      56.287  40.983  53.123  1.00  0.00     0.000 C 
BRANCH  10  11
ATOM     11  C   UNL     1      57.176  39.980  52.367  1.00  0.00     0.000 C 
BRANCH  11  12
ATOM     12  C   UNL     1      57.240  38.572  52.988  1.00  0.00     0.000 C 
BRANCH  12  13
ATOM     13  C   UNL     1      57.977  37.538  52.108  1.00  0.00     0.006 C 
BRANCH  13  14
ATOM     14  C   UNL     1      58.880  36.609  52.931  1.00  0.00     0.053 C 
BRANCH  14  15
ATOM     15  C   UNL     1      59.371  35.475  52.087  1.00  0.00     0.041 C 
ATOM     16  O   UNL     1      59.811  34.427  52.628  1.00  0.00    -0.550 OA
ATOM     17  O   UNL     1      59.379  35.591  50.702  1.00  0.00    -0.550 OA
ENDBRANCH  14  15
ENDBRANCH  13  14
ENDBRANCH  12  13
ENDBRANCH  11  12
ENDBRANCH  10  11
ENDBRANCH   9  10
ENDBRANCH   8   9
ENDBRANCH   7   8
ENDBRANCH   6   7
ENDBRANCH   5   6
ENDBRANCH   4   5
ENDBRANCH   3   4
ENDBRANCH   2   3
ENDBRANCH   1   2
BRANCH   1  18
ATOM     18  C   UNL     1      54.875  38.914  47.869  1.00  0.00     0.000 C 
BRANCH  18  19
ATOM     19  C   UNL     1      54.093  40.045  47.175  1.00  0.00     0.000 C 
BRANCH  19  20
ATOM     20  C   UNL     1      52.591  40.013  47.500  1.00  0.00     0.000 C 
BRANCH  20  21
ATOM     21  C   UNL     1      51.979  41.422  47.611  1.00  0.00     0.000 C 
BRANCH  21  22
ATOM     22  C   UNL     1      52.772  42.490  46.829  1.00  0.00     0.000 C 
BRANCH  22  23
ATOM     23  C   UNL     1      52.270  43.932  47.041  1.00  0.00     0.000 C 
BRANCH  23  24
ATOM     24  C   UNL     1      53.034  44.753  48.097  1.00  0.00    -0.000 C 
BRANCH  24  25
ATOM     25  C   UNL     1      53.166  44.083  49.478  1.00  0.00    -0.000 C 
BRANCH  25  26
ATOM     26  C   UNL     1      54.585  44.174  50.056  1.00  0.00    -0.000 C 
BRANCH  26  27
ATOM     27  C   UNL     1      55.369  42.883  49.792  1.00  0.00    -0.000 C 
BRANCH  27  28
ATOM     28  C   UNL     1      56.871  43.171  49.647  1.00  0.00    -0.000 C 
BRANCH  28  29
ATOM     29  C   UNL     1      57.675  41.949  49.169  1.00  0.00    -0.000 C 
BRANCH  29  30
ATOM     30  C   UNL     1      57.955  41.907  47.656  1.00  0.00    -0.000 C 
BRANCH  30  31
ATOM     31  C   UNL     1      57.430  43.148  46.917  1.00  0.00    -0.003 C 
ATOM     32  C   UNL     1      56.332  42.773  45.925  1.00  0.00     0.004 C 
ENDBRANCH  30  31
ENDBRANCH  29  30
ENDBRANCH  28  29
ENDBRANCH  27  28
ENDBRANCH  26  27
ENDBRANCH  25  26
ENDBRANCH  24  25
ENDBRANCH  23  24
ENDBRANCH  22  23
ENDBRANCH  21  22
ENDBRANCH  20  21
ENDBRANCH  19  20
ENDBRANCH  18  19
ENDBRANCH   1  18
TORSDOF 28
ENDMDL
MODEL 4
REMARK VINA RESULT:    -4.018      2.283      5.456
REMARK INTER + INTRA:         -16.795
REMARK INTER:                 -10.694
REMARK INTRA:                  -6.101
REMARK UNBOUND:                -6.200
REMARK SMILES CCCCCCCCCCCCCCCCCCCCCCCCCCCCCC(=O)[O-]
REMARK SMILES IDX 16 1 17 2 18 3 19 4 20 5 21 6 22 7 23 8 24 9 25 10 26 11
REMARK SMILES IDX 27 12 28 13 29 14 30 15 31 16 32 17 15 18 14 19 13 20 12 21
REMARK SMILES IDX 11 22 10 23 9 24 8 25 7 26 6 27 5 28 4 29 3 30 2 31 1 32
REMARK H PARENT
REMARK Flexibility Score: inf
ROOT
ATOM      1  C   UNL     1      56.421  43.297  50.592  1.00  0.00     0.000 C 
ENDROOT
BRANCH   1   2
ATOM      2  C   UNL     1      56.628  42.275  51.726  1.00  0.00     0.000 C 
BRANCH   2   3
ATOM      3  C   UNL     1      57.285  40.971  51.250  1.00  0.00     0.000 C 
BRANCH   3   4
ATOM      4  C   UNL     1      58.018  41.177  49.915  1.00  0.00     0.000 C 
BRANCH   4   5
ATOM      5  C   UNL     1      58.654  39.882  49.378  1.00  0.00     0.000 C 
BRANCH   5   6
ATOM      6  C   UNL     1      60.054  39.571  49.937  1.00  0.00     0.000 C 
BRANCH   6   7
ATOM      7  C   UNL     1      60.107  38.227  50.682  1.00  0.00     0.000 C 
BRANCH   7   8
ATOM      8  C   UNL     1      58.887  37.340  50.392  1.00  0.00     0.000 C 
BRANCH   8   9
ATOM      9  C   UNL     1      57.999  37.126  51.631  1.00  0.00     0.000 C 
BRANCH   9  10
ATOM     10  C   UNL     1      58.495  37.899  52.867  1.00  0.00     0.000 C 
BRANCH  10  11
ATOM     11  C   UNL     1      58.172  37.236  54.219  1.00  0.00     0.000 C 
BRANCH  11  12
ATOM     12  C   UNL     1      57.437  38.140  55.226  1.00  0.00     0.000 C 
BRANCH  12  13
ATOM     13  C   UNL     1      57.096  39.540  54.669  1.00  0.00     0.006 C 
BRANCH  13  14
ATOM     14  C   UNL     1      55.595  39.709  54.394  1.00  0.00     0.053 C 
BRANCH  14  15
ATOM     15  C   UNL     1      55.040  40.843  55.197  1.00  0.00     0.041 C 
ATOM     16  O   UNL     1      55.786  41.496  55.972  1.00  0.00    -0.550 OA
ATOM     17  O   UNL     1      53.687  41.154  55.119  1.00  0.00    -0.550 OA
ENDBRANCH  14  15
ENDBRANCH  13  14
ENDBRANCH  12  13
ENDBRANCH  11  12
ENDBRANCH  10  11
ENDBRANCH   9  10
ENDBRANCH   8   9
ENDBRANCH   7   8
ENDBRANCH   6   7
ENDBRANCH   5   6
ENDBRANCH   4   5
ENDBRANCH   3   4
ENDBRANCH   2   3
ENDBRANCH   1   2
BRANCH   1  18
ATOM     18  C   UNL     1      54.990  43.361  50.026  1.00  0.00     0.000 C 
BRANCH  18  19
ATOM     19  C   UNL     1      54.917  44.072  48.663  1.00  0.00     0.000 C 
BRANCH  19  20
ATOM     20  C   UNL     1      53.943  43.388  47.689  1.00  0.00     0.000 C 
BRANCH  20  21
ATOM     21  C   UNL     1      52.657  42.901  48.383  1.00  0.00     0.000 C 
BRANCH  21  22
ATOM     22  C   UNL     1      51.859  41.887  47.538  1.00  0.00     0.000 C 
BRANCH  22  23
ATOM     23  C   UNL     1      52.238  40.414  47.792  1.00  0.00     0.000 C 
BRANCH  23  24
ATOM     24  C   UNL     1      53.117  39.758  46.710  1.00  0.00    -0.000 C 
BRANCH  24  25
ATOM     25  C   UNL     1      54.595  39.563  47.096  1.00  0.00    -0.000 C 
BRANCH  25  26
ATOM     26  C   UNL     1      54.857  39.781  48.592  1.00  0.00    -0.000 C 
BRANCH  26  27
ATOM     27  C   UNL     1      55.193  38.457  49.290  1.00  0.00    -0.000 C 
BRANCH  27  28
ATOM     28  C   UNL     1      54.750  38.481  50.760  1.00  0.00    -0.000 C 
BRANCH  28  29
ATOM     29  C   UNL     1      53.338  39.060  50.954  1.00  0.00    -0.000 C 
BRANCH  29  30
ATOM     30  C   UNL     1      53.285  40.409  51.696  1.00  0.00    -0.000 C 
BRANCH  30  31
ATOM     31  C   UNL     1      51.944  41.136  51.517  1.00  0.00    -0.003 C 
ATOM     32  C   UNL     1      52.005  42.551  52.086  1.00  0.00     0.004 C 
ENDBRANCH  30  31
ENDBRANCH  29  30
ENDBRANCH  28  29
ENDBRANCH  27  28
ENDBRANCH  26  27
ENDBRANCH  25  26
ENDBRANCH  24  25
ENDBRANCH  23  24
ENDBRANCH  22  23
ENDBRANCH  21  22
ENDBRANCH  20  21
ENDBRANCH  19  20
ENDBRANCH  18  19
ENDBRANCH   1  18
TORSDOF 28
ENDMDL
MODEL 5
REMARK VINA RESULT:    -4.002      1.514      3.069
REMARK INTER + INTRA:         -16.753
REMARK INTER:                 -10.736
REMARK INTRA:                  -6.017
REMARK UNBOUND:                -6.200
REMARK SMILES CCCCCCCCCCCCCCCCCCCCCCCCCCCCCC(=O)[O-]
REMARK SMILES IDX 16 1 17 2 18 3 19 4 20 5 21 6 22 7 23 8 24 9 25 10 26 11
REMARK SMILES IDX 27 12 28 13 29 14 30 15 31 16 32 17 15 18 14 19 13 20 12 21
REMARK SMILES IDX 11 22 10 23 9 24 8 25 7 26 6 27 5 28 4 29 3 30 2 31 1 32
REMARK H PARENT
REMARK Flexibility Score: inf
ROOT
ATOM      1  C   UNL     1      55.881  39.169  50.965  1.00  0.00     0.000 C 
ENDROOT
BRANCH   1   2
ATOM      2  C   UNL     1      54.778  38.173  50.558  1.00  0.00     0.000 C 
BRANCH   2   3
ATOM      3  C   UNL     1      53.362  38.676  50.880  1.00  0.00     0.000 C 
BRANCH   3   4
ATOM      4  C   UNL     1      53.411  39.980  51.693  1.00  0.00     0.000 C 
BRANCH   4   5
ATOM      5  C   UNL     1      52.060  40.715  51.723  1.00  0.00     0.000 C 
BRANCH   5   6
ATOM      6  C   UNL     1      52.155  42.229  51.979  1.00  0.00     0.000 C 
BRANCH   6   7
ATOM      7  C   UNL     1      53.451  42.843  51.422  1.00  0.00     0.000 C 
BRANCH   7   8
ATOM      8  C   UNL     1      54.395  43.339  52.528  1.00  0.00     0.000 C 
BRANCH   8   9
ATOM      9  C   UNL     1      55.782  42.675  52.468  1.00  0.00     0.000 C 
BRANCH   9  10
ATOM     10  C   UNL     1      56.361  42.362  53.860  1.00  0.00     0.000 C 
BRANCH  10  11
ATOM     11  C   UNL     1      56.796  40.899  54.068  1.00  0.00     0.000 C 
BRANCH  11  12
ATOM     12  C   UNL     1      55.716  39.980  54.667  1.00  0.00     0.000 C 
BRANCH  12  13
ATOM     13  C   UNL     1      56.289  38.800  55.483  1.00  0.00     0.006 C 
BRANCH  13  14
ATOM     14  C   UNL     1      57.817  38.704  55.377  1.00  0.00     0.053 C 
BRANCH  14  15
ATOM     15  C   UNL     1      58.210  37.509  54.566  1.00  0.00     0.041 C 
ATOM     16  O   UNL     1      58.862  36.571  55.094  1.00  0.00    -0.550 OA
ATOM     17  O   UNL     1      57.891  37.450  53.214  1.00  0.00    -0.550 OA
ENDBRANCH  14  15
ENDBRANCH  13  14
ENDBRANCH  12  13
ENDBRANCH  11  12
ENDBRANCH  10  11
ENDBRANCH   9  10
ENDBRANCH   8   9
ENDBRANCH   7   8
ENDBRANCH   6   7
ENDBRANCH   5   6
ENDBRANCH   4   5
ENDBRANCH   3   4
ENDBRANCH   2   3
ENDBRANCH   1   2
BRANCH   1  18
ATOM     18  C   UNL     1      57.061  39.273  49.981  1.00  0.00     0.000 C 
BRANCH  18  19
ATOM     19  C   UNL     1      57.150  40.649  49.297  1.00  0.00     0.000 C 
BRANCH  19  20
ATOM     20  C   UNL     1      55.768  41.245  48.982  1.00  0.00     0.000 C 
BRANCH  20  21
ATOM     21  C   UNL     1      55.355  41.036  47.512  1.00  0.00     0.000 C 
BRANCH  21  22
ATOM     22  C   UNL     1      54.601  39.711  47.277  1.00  0.00     0.000 C 
BRANCH  22  23
ATOM     23  C   UNL     1      53.128  39.887  46.856  1.00  0.00     0.000 C 
BRANCH  23  24
ATOM     24  C   UNL     1      52.182  40.415  47.951  1.00  0.00    -0.000 C 
BRANCH  24  25
ATOM     25  C   UNL     1      52.167  41.946  48.122  1.00  0.00    -0.000 C 
BRANCH  25  26
ATOM     26  C   UNL     1      51.857  42.692  46.817  1.00  0.00    -0.000 C 
BRANCH  26  27
ATOM     27  C   UNL     1      52.242  44.172  46.926  1.00  0.00    -0.000 C 
BRANCH  27  28
ATOM     28  C   UNL     1      53.409  44.368  47.905  1.00  0.00    -0.000 C 
BRANCH  28  29
ATOM     29  C   UNL     1      54.746  44.650  47.199  1.00  0.00    -0.000 C 
BRANCH  29  30
ATOM     30  C   UNL     1      55.766  45.446  48.034  1.00  0.00    -0.000 C 
BRANCH  30  31
ATOM     31  C   UNL     1      55.835  44.978  49.496  1.00  0.00    -0.003 C 
ATOM     32  C   UNL     1      57.270  44.649  49.901  1.00  0.00     0.004 C 
ENDBRANCH  30  31
ENDBRANCH  29  30
ENDBRANCH  28  29
ENDBRANCH  27  28
ENDBRANCH  26  27
ENDBRANCH  25  26
ENDBRANCH  24  25
ENDBRANCH  23  24
ENDBRANCH  22  23
ENDBRANCH  21  22
ENDBRANCH  20  21
ENDBRANCH  19  20
ENDBRANCH  18  19
ENDBRANCH   1  18
TORSDOF 28
ENDMDL
MODEL 6
REMARK VINA RESULT:    -3.999      1.261      2.388
REMARK INTER + INTRA:         -16.744
REMARK INTER:                 -10.173
REMARK INTRA:                  -6.571
REMARK UNBOUND:                -6.200
REMARK SMILES CCCCCCCCCCCCCCCCCCCCCCCCCCCCCC(=O)[O-]
REMARK SMILES IDX 16 1 17 2 18 3 19 4 20 5 21 6 22 7 23 8 24 9 25 10 26 11
REMARK SMILES IDX 27 12 28 13 29 14 30 15 31 16 32 17 15 18 14 19 13 20 12 21
REMARK SMILES IDX 11 22 10 23 9 24 8 25 7 26 6 27 5 28 4 29 3 30 2 31 1 32
REMARK H PARENT
REMARK Flexibility Score: inf
ROOT
ATOM      1  C   UNL     1      55.248  39.076  48.177  1.00  0.00     0.000 C 
ENDROOT
BRANCH   1   2
ATOM      2  C   UNL     1      55.308  39.249  49.707  1.00  0.00     0.000 C 
BRANCH   2   3
ATOM      3  C   UNL     1      54.522  38.169  50.467  1.00  0.00     0.000 C 
BRANCH   3   4
ATOM      4  C   UNL     1      53.284  38.767  51.153  1.00  0.00     0.000 C 
BRANCH   4   5
ATOM      5  C   UNL     1      53.328  40.303  51.229  1.00  0.00     0.000 C 
BRANCH   5   6
ATOM      6  C   UNL     1      52.044  40.960  51.767  1.00  0.00     0.000 C 
BRANCH   6   7
ATOM      7  C   UNL     1      52.169  42.487  51.890  1.00  0.00     0.000 C 
BRANCH   7   8
ATOM      8  C   UNL     1      53.621  42.975  51.776  1.00  0.00     0.000 C 
BRANCH   8   9
ATOM      9  C   UNL     1      54.212  43.411  53.129  1.00  0.00     0.000 C 
BRANCH   9  10
ATOM     10  C   UNL     1      55.223  42.399  53.697  1.00  0.00     0.000 C 
BRANCH  10  11
ATOM     11  C   UNL     1      54.613  41.303  54.590  1.00  0.00     0.000 C 
BRANCH  11  12
ATOM     12  C   UNL     1      55.354  39.954  54.563  1.00  0.00     0.000 C 
BRANCH  12  13
ATOM     13  C   UNL     1      56.314  39.798  53.363  1.00  0.00     0.006 C 
BRANCH  13  14
ATOM     14  C   UNL     1      57.121  38.495  53.427  1.00  0.00     0.053 C 
BRANCH  14  15
ATOM     15  C   UNL     1      57.966  38.341  52.201  1.00  0.00     0.041 C 
ATOM     16  O   UNL     1      57.855  37.317  51.478  1.00  0.00    -0.550 OA
ATOM     17  O   UNL     1      58.905  39.314  51.878  1.00  0.00    -0.550 OA
ENDBRANCH  14  15
ENDBRANCH  13  14
ENDBRANCH  12  13
ENDBRANCH  11  12
ENDBRANCH  10  11
ENDBRANCH   9  10
ENDBRANCH   8   9
ENDBRANCH   7   8
ENDBRANCH   6   7
ENDBRANCH   5   6
ENDBRANCH   4   5
ENDBRANCH   3   4
ENDBRANCH   2   3
ENDBRANCH   1   2
BRANCH   1  18
ATOM     18  C   UNL     1      54.506  40.195  47.423  1.00  0.00     0.000 C 
BRANCH  18  19
ATOM     19  C   UNL     1      53.100  39.774  46.959  1.00  0.00     0.000 C 
BRANCH  19  20
ATOM     20  C   UNL     1      51.983  40.406  47.806  1.00  0.00     0.000 C 
BRANCH  20  21
ATOM     21  C   UNL     1      52.286  41.866  48.191  1.00  0.00     0.000 C 
BRANCH  21  22
ATOM     22  C   UNL     1      51.911  42.874  47.086  1.00  0.00     0.000 C 
BRANCH  22  23
ATOM     23  C   UNL     1      52.677  44.210  47.160  1.00  0.00     0.000 C 
BRANCH  23  24
ATOM     24  C   UNL     1      54.041  44.155  47.874  1.00  0.00    -0.000 C 
BRANCH  24  25
ATOM     25  C   UNL     1      55.004  45.310  47.540  1.00  0.00    -0.000 C 
BRANCH  25  26
ATOM     26  C   UNL     1      56.254  44.847  46.780  1.00  0.00    -0.000 C 
BRANCH  26  27
ATOM     27  C   UNL     1      56.505  43.350  46.995  1.00  0.00    -0.000 C 
BRANCH  27  28
ATOM     28  C   UNL     1      57.594  43.120  48.053  1.00  0.00    -0.000 C 
BRANCH  28  29
ATOM     29  C   UNL     1      57.090  42.332  49.274  1.00  0.00    -0.000 C 
BRANCH  29  30
ATOM     30  C   UNL     1      57.127  43.105  50.606  1.00  0.00    -0.000 C 
BRANCH  30  31
ATOM     31  C   UNL     1      57.468  44.592  50.423  1.00  0.00    -0.003 C 
ATOM     32  C   UNL     1      56.336  45.482  50.931  1.00  0.00     0.004 C 
ENDBRANCH  30  31
ENDBRANCH  29  30
ENDBRANCH  28  29
ENDBRANCH  27  28
ENDBRANCH  26  27
ENDBRANCH  25  26
ENDBRANCH  24  25
ENDBRANCH  23  24
ENDBRANCH  22  23
ENDBRANCH  21  22
ENDBRANCH  20  21
ENDBRANCH  19  20
ENDBRANCH  18  19
ENDBRANCH   1  18
TORSDOF 28
ENDMDL
MODEL 7
REMARK VINA RESULT:    -3.988      1.125      2.086
REMARK INTER + INTRA:         -16.717
REMARK INTER:                 -10.534
REMARK INTRA:                  -6.183
REMARK UNBOUND:                -6.200
REMARK SMILES CCCCCCCCCCCCCCCCCCCCCCCCCCCCCC(=O)[O-]
REMARK SMILES IDX 16 1 17 2 18 3 19 4 20 5 21 6 22 7 23 8 24 9 25 10 26 11
REMARK SMILES IDX 27 12 28 13 29 14 30 15 31 16 32 17 15 18 14 19 13 20 12 21
REMARK SMILES IDX 11 22 10 23 9 24 8 25 7 26 6 27 5 28 4 29 3 30 2 31 1 32
REMARK H PARENT
REMARK Flexibility Score: inf
ROOT
ATOM      1  C   UNL     1      54.300  39.712  49.954  1.00  0.00     0.000 C 
ENDROOT
BRANCH   1   2
ATOM      2  C   UNL     1      52.972  39.272  50.599  1.00  0.00     0.000 C 
BRANCH   2   3
ATOM      3  C   UNL     1      51.915  40.386  50.621  1.00  0.00     0.000 C 
BRANCH   3   4
ATOM      4  C   UNL     1      52.573  41.773  50.551  1.00  0.00     0.000 C 
BRANCH   4   5
ATOM      5  C   UNL     1      52.291  42.630  51.798  1.00  0.00     0.000 C 
BRANCH   5   6
ATOM      6  C   UNL     1      53.441  42.680  52.819  1.00  0.00     0.000 C 
BRANCH   6   7
ATOM      7  C   UNL     1      53.388  41.518  53.825  1.00  0.00     0.000 C 
BRANCH   7   8
ATOM      8  C   UNL     1      54.543  40.520  53.641  1.00  0.00     0.000 C 
BRANCH   8   9
ATOM      9  C   UNL     1      55.806  41.175  53.053  1.00  0.00     0.000 C 
BRANCH   9  10
ATOM     10  C   UNL     1      56.973  40.184  52.883  1.00  0.00     0.000 C 
BRANCH  10  11
ATOM     11  C   UNL     1      57.674  40.239  51.513  1.00  0.00     0.000 C 
BRANCH  11  12
ATOM     12  C   UNL     1      57.949  38.868  50.869  1.00  0.00     0.000 C 
BRANCH  12  13
ATOM     13  C   UNL     1      57.464  37.674  51.720  1.00  0.00     0.006 C 
BRANCH  13  14
ATOM     14  C   UNL     1      58.606  37.012  52.503  1.00  0.00     0.053 C 
BRANCH  14  15
ATOM     15  C   UNL     1      59.552  36.326  51.568  1.00  0.00     0.041 C 
ATOM     16  O   UNL     1      59.350  35.131  51.227  1.00  0.00    -0.550 OA
ATOM     17  O   UNL     1      60.679  36.994  51.105  1.00  0.00    -0.550 OA
ENDBRANCH  14  15
ENDBRANCH  13  14
ENDBRANCH  12  13
ENDBRANCH  11  12
ENDBRANCH  10  11
ENDBRANCH   9  10
ENDBRANCH   8   9
ENDBRANCH   7   8
ENDBRANCH   6   7
ENDBRANCH   5   6
ENDBRANCH   4   5
ENDBRANCH   3   4
ENDBRANCH   2   3
ENDBRANCH   1   2
BRANCH   1  18
ATOM     18  C   UNL     1      54.842  38.767  48.865  1.00  0.00     0.000 C 
BRANCH  18  19
ATOM     19  C   UNL     1      54.782  39.381  47.455  1.00  0.00     0.000 C 
BRANCH  19  20
ATOM     20  C   UNL     1      53.359  39.803  47.053  1.00  0.00     0.000 C 
BRANCH  20  21
ATOM     21  C   UNL     1      53.294  41.257  46.548  1.00  0.00     0.000 C 
BRANCH  21  22
ATOM     22  C   UNL     1      52.126  42.058  47.158  1.00  0.00     0.000 C 
BRANCH  22  23
ATOM     23  C   UNL     1      51.768  43.344  46.386  1.00  0.00     0.000 C 
BRANCH  23  24
ATOM     24  C   UNL     1      52.671  44.561  46.667  1.00  0.00    -0.000 C 
BRANCH  24  25
ATOM     25  C   UNL     1      52.657  45.065  48.121  1.00  0.00    -0.000 C 
BRANCH  25  26
ATOM     26  C   UNL     1      53.973  44.792  48.863  1.00  0.00    -0.000 C 
BRANCH  26  27
ATOM     27  C   UNL     1      55.105  44.480  47.877  1.00  0.00    -0.000 C 
BRANCH  27  28
ATOM     28  C   UNL     1      55.841  43.192  48.275  1.00  0.00    -0.000 C 
BRANCH  28  29
ATOM     29  C   UNL     1      55.881  42.967  49.796  1.00  0.00    -0.000 C 
BRANCH  29  30
ATOM     30  C   UNL     1      56.989  43.737  50.538  1.00  0.00    -0.000 C 
BRANCH  30  31
ATOM     31  C   UNL     1      56.443  44.635  51.659  1.00  0.00    -0.003 C 
ATOM     32  C   UNL     1      56.539  46.110  51.277  1.00  0.00     0.004 C 
ENDBRANCH  30  31
ENDBRANCH  29  30
ENDBRANCH  28  29
ENDBRANCH  27  28
ENDBRANCH  26  27
ENDBRANCH  25  26
ENDBRANCH  24  25
ENDBRANCH  23  24
ENDBRANCH  22  23
ENDBRANCH  21  22
ENDBRANCH  20  21
ENDBRANCH  19  20
ENDBRANCH  18  19
ENDBRANCH   1  18
TORSDOF 28
ENDMDL
MODEL 8
REMARK VINA RESULT:    -3.970      1.520      3.402
REMARK INTER + INTRA:         -16.669
REMARK INTER:                 -10.624
REMARK INTRA:                  -6.045
REMARK UNBOUND:                -6.200
REMARK SMILES CCCCCCCCCCCCCCCCCCCCCCCCCCCCCC(=O)[O-]
REMARK SMILES IDX 16 1 17 2 18 3 19 4 20 5 21 6 22 7 23 8 24 9 25 10 26 11
REMARK SMILES IDX 27 12 28 13 29 14 30 15 31 16 32 17 15 18 14 19 13 20 12 21
REMARK SMILES IDX 11 22 10 23 9 24 8 25 7 26 6 27 5 28 4 29 3 30 2 31 1 32
REMARK H PARENT
REMARK Flexibility Score: inf
ROOT
ATOM      1  C   UNL     1      55.321  39.499  48.614  1.00  0.00     0.000 C 
ENDROOT
BRANCH   1   2
ATOM      2  C   UNL     1      54.902  38.946  49.989  1.00  0.00     0.000 C 
BRANCH   2   3
ATOM      3  C   UNL     1      55.982  38.068  50.640  1.00  0.00     0.000 C 
BRANCH   3   4
ATOM      4  C   UNL     1      56.320  38.566  52.055  1.00  0.00     0.000 C 
BRANCH   4   5
ATOM      5  C   UNL     1      55.373  39.678  52.537  1.00  0.00     0.000 C 
BRANCH   5   6
ATOM      6  C   UNL     1      55.749  40.303  53.892  1.00  0.00     0.000 C 
BRANCH   6   7
ATOM      7  C   UNL     1      55.208  41.733  54.055  1.00  0.00     0.000 C 
BRANCH   7   8
ATOM      8  C   UNL     1      56.327  42.781  54.161  1.00  0.00     0.000 C 
BRANCH   8   9
ATOM      9  C   UNL     1      56.665  43.430  52.807  1.00  0.00     0.000 C 
BRANCH   9  10
ATOM     10  C   UNL     1      57.979  42.905  52.200  1.00  0.00     0.000 C 
BRANCH  10  11
ATOM     11  C   UNL     1      57.806  41.971  50.988  1.00  0.00     0.000 C 
BRANCH  11  12
ATOM     12  C   UNL     1      58.752  40.757  50.964  1.00  0.00     0.000 C 
BRANCH  12  13
ATOM     13  C   UNL     1      59.016  40.204  49.545  1.00  0.00     0.006 C 
BRANCH  13  14
ATOM     14  C   UNL     1      59.403  38.719  49.560  1.00  0.00     0.053 C 
BRANCH  14  15
ATOM     15  C   UNL     1      60.656  38.497  48.773  1.00  0.00     0.041 C 
ATOM     16  O   UNL     1      61.154  39.434  48.096  1.00  0.00    -0.550 OA
ATOM     17  O   UNL     1      61.252  37.241  48.754  1.00  0.00    -0.550 OA
ENDBRANCH  14  15
ENDBRANCH  13  14
ENDBRANCH  12  13
ENDBRANCH  11  12
ENDBRANCH  10  11
ENDBRANCH   9  10
ENDBRANCH   8   9
ENDBRANCH   7   8
ENDBRANCH   6   7
ENDBRANCH   5   6
ENDBRANCH   4   5
ENDBRANCH   3   4
ENDBRANCH   2   3
ENDBRANCH   1   2
BRANCH   1  18
ATOM     18  C   UNL     1      54.495  38.978  47.423  1.00  0.00     0.000 C 
BRANCH  18  19
ATOM     19  C   UNL     1      53.525  40.032  46.860  1.00  0.00     0.000 C 
BRANCH  19  20
ATOM     20  C   UNL     1      52.319  40.279  47.781  1.00  0.00     0.000 C 
BRANCH  20  21
ATOM     21  C   UNL     1      51.856  41.748  47.770  1.00  0.00     0.000 C 
BRANCH  21  22
ATOM     22  C   UNL     1      52.499  42.577  46.639  1.00  0.00     0.000 C 
BRANCH  22  23
ATOM     23  C   UNL     1      51.700  43.834  46.242  1.00  0.00     0.000 C 
BRANCH  23  24
ATOM     24  C   UNL     1      52.394  45.180  46.530  1.00  0.00    -0.000 C 
BRANCH  24  25
ATOM     25  C   UNL     1      52.908  45.357  47.971  1.00  0.00    -0.000 C 
BRANCH  25  26
ATOM     26  C   UNL     1      54.437  45.282  48.075  1.00  0.00    -0.000 C 
BRANCH  26  27
ATOM     27  C   UNL     1      54.867  44.658  49.408  1.00  0.00    -0.000 C 
BRANCH  27  28
ATOM     28  C   UNL     1      54.879  43.125  49.321  1.00  0.00    -0.000 C 
BRANCH  28  29
ATOM     29  C   UNL     1      54.185  42.448  50.516  1.00  0.00    -0.000 C 
BRANCH  29  30
ATOM     30  C   UNL     1      52.870  43.111  50.964  1.00  0.00    -0.000 C 
BRANCH  30  31
ATOM     31  C   UNL     1      52.094  42.266  51.986  1.00  0.00    -0.003 C 
ATOM     32  C   UNL     1      51.968  40.818  51.519  1.00  0.00     0.004 C 
ENDBRANCH  30  31
ENDBRANCH  29  30
ENDBRANCH  28  29
ENDBRANCH  27  28
ENDBRANCH  26  27
ENDBRANCH  25  26
ENDBRANCH  24  25
ENDBRANCH  23  24
ENDBRANCH  22  23
ENDBRANCH  21  22
ENDBRANCH  20  21
ENDBRANCH  19  20
ENDBRANCH  18  19
ENDBRANCH   1  18
TORSDOF 28
ENDMDL
MODEL 9
REMARK VINA RESULT:    -3.962      2.597      5.976
REMARK INTER + INTRA:         -16.647
REMARK INTER:                 -10.430
REMARK INTRA:                  -6.216
REMARK UNBOUND:                -6.200
REMARK SMILES CCCCCCCCCCCCCCCCCCCCCCCCCCCCCC(=O)[O-]
REMARK SMILES IDX 16 1 17 2 18 3 19 4 20 5 21 6 22 7 23 8 24 9 25 10 26 11
REMARK SMILES IDX 27 12 28 13 29 14 30 15 31 16 32 17 15 18 14 19 13 20 12 21
REMARK SMILES IDX 11 22 10 23 9 24 8 25 7 26 6 27 5 28 4 29 3 30 2 31 1 32
REMARK H PARENT
REMARK Flexibility Score: inf
ROOT
ATOM      1  C   UNL     1      55.210  39.910  49.795  1.00  0.00     0.000 C 
ENDROOT
BRANCH   1   2
ATOM      2  C   UNL     1      55.370  40.229  48.297  1.00  0.00     0.000 C 
BRANCH   2   3
ATOM      3  C   UNL     1      54.489  39.350  47.395  1.00  0.00     0.000 C 
BRANCH   3   4
ATOM      4  C   UNL     1      53.465  40.200  46.627  1.00  0.00     0.000 C 
BRANCH   4   5
ATOM      5  C   UNL     1      52.285  40.650  47.506  1.00  0.00     0.000 C 
BRANCH   5   6
ATOM      6  C   UNL     1      52.178  42.171  47.713  1.00  0.00     0.000 C 
BRANCH   6   7
ATOM      7  C   UNL     1      51.812  42.920  46.421  1.00  0.00     0.000 C 
BRANCH   7   8
ATOM      8  C   UNL     1      51.905  44.446  46.574  1.00  0.00     0.000 C 
BRANCH   8   9
ATOM      9  C   UNL     1      52.868  44.874  47.695  1.00  0.00     0.000 C 
BRANCH   9  10
ATOM     10  C   UNL     1      54.038  45.736  47.185  1.00  0.00     0.000 C 
BRANCH  10  11
ATOM     11  C   UNL     1      55.054  44.992  46.300  1.00  0.00     0.000 C 
BRANCH  11  12
ATOM     12  C   UNL     1      55.518  43.630  46.847  1.00  0.00     0.000 C 
BRANCH  12  13
ATOM     13  C   UNL     1      57.002  43.605  47.275  1.00  0.00     0.006 C 
BRANCH  13  14
ATOM     14  C   UNL     1      57.169  43.444  48.792  1.00  0.00     0.053 C 
BRANCH  14  15
ATOM     15  C   UNL     1      57.572  44.744  49.415  1.00  0.00     0.041 C 
ATOM     16  O   UNL     1      58.744  44.906  49.844  1.00  0.00    -0.550 OA
ATOM     17  O   UNL     1      56.639  45.765  49.558  1.00  0.00    -0.550 OA
ENDBRANCH  14  15
ENDBRANCH  13  14
ENDBRANCH  12  13
ENDBRANCH  11  12
ENDBRANCH  10  11
ENDBRANCH   9  10
ENDBRANCH   8   9
ENDBRANCH   7   8
ENDBRANCH   6   7
ENDBRANCH   5   6
ENDBRANCH   4   5
ENDBRANCH   3   4
ENDBRANCH   2   3
ENDBRANCH   1   2
BRANCH   1  18
ATOM     18  C   UNL     1      54.457  38.603  50.107  1.00  0.00     0.000 C 
BRANCH  18  19
ATOM     19  C   UNL     1      53.327  38.792  51.134  1.00  0.00     0.000 C 
BRANCH  19  20
ATOM     20  C   UNL     1      52.507  40.068  50.884  1.00  0.00     0.000 C 
BRANCH  20  21
ATOM     21  C   UNL     1      52.163  40.815  52.187  1.00  0.00     0.000 C 
BRANCH  21  22
ATOM     22  C   UNL     1      52.182  42.350  52.029  1.00  0.00     0.000 C 
BRANCH  22  23
ATOM     23  C   UNL     1      52.894  42.846  50.755  1.00  0.00     0.000 C 
BRANCH  23  24
ATOM     24  C   UNL     1      54.276  43.491  50.974  1.00  0.00    -0.000 C 
BRANCH  24  25
ATOM     25  C   UNL     1      54.844  43.356  52.399  1.00  0.00    -0.000 C 
BRANCH  25  26
ATOM     26  C   UNL     1      56.305  42.889  52.421  1.00  0.00    -0.000 C 
BRANCH  26  27
ATOM     27  C   UNL     1      56.526  41.821  53.499  1.00  0.00    -0.000 C 
BRANCH  27  28
ATOM     28  C   UNL     1      55.571  40.634  53.302  1.00  0.00    -0.000 C 
BRANCH  28  29
ATOM     29  C   UNL     1      56.272  39.270  53.431  1.00  0.00    -0.000 C 
BRANCH  29  30
ATOM     30  C   UNL     1      57.626  39.165  52.705  1.00  0.00    -0.000 C 
BRANCH  30  31
ATOM     31  C   UNL     1      57.918  37.746  52.191  1.00  0.00    -0.003 C 
ATOM     32  C   UNL     1      58.070  37.732  50.672  1.00  0.00     0.004 C 
ENDBRANCH  30  31
ENDBRANCH  29  30
ENDBRANCH  28  29
ENDBRANCH  27  28
ENDBRANCH  26  27
ENDBRANCH  25  26
ENDBRANCH  24  25
ENDBRANCH  23  24
ENDBRANCH  22  23
ENDBRANCH  21  22
ENDBRANCH  20  21
ENDBRANCH  19  20
ENDBRANCH  18  19
ENDBRANCH   1  18
TORSDOF 28
ENDMDL
