MODEL 1
REMARK VINA RESULT:    -4.468      0.000      0.000
REMARK INTER + INTRA:          -7.249
REMARK INTER:                  -6.558
REMARK INTRA:                  -0.691
REMARK UNBOUND:                -0.691
REMARK SMILES O=C([O-])CCCCCCCC(=O)[O-]
REMARK SMILES IDX 7 1 6 2 5 3 4 4 2 5 1 6 3 7 8 8 9 9 10 10 11 11 12 12 13 13
REMARK H PARENT
REMARK Flexibility Score: inf
ROOT
ATOM      1  C   UNL     1      61.081  28.168  24.655  1.00  0.00     0.000 C 
ENDROOT
BRANCH   1   2
ATOM      2  C   UNL     1      60.843  27.123  25.752  1.00  0.00     0.000 C 
BRANCH   2   3
ATOM      3  C   UNL     1      62.104  26.927  26.608  1.00  0.00     0.006 C 
BRANCH   3   4
ATOM      4  C   UNL     1      61.859  27.257  28.086  1.00  0.00     0.053 C 
BRANCH   4   5
ATOM      5  C   UNL     1      61.396  28.670  28.270  1.00  0.00     0.041 C 
ATOM      6  O   UNL     1      60.358  28.916  28.939  1.00  0.00    -0.550 OA
ATOM      7  O   UNL     1      62.130  29.718  27.728  1.00  0.00    -0.550 OA
ENDBRANCH   4   5
ENDBRANCH   3   4
ENDBRANCH   2   3
ENDBRANCH   1   2
BRANCH   1   8
ATOM      8  C   UNL     1      62.578  28.348  24.382  1.00  0.00     0.000 C 
BRANCH   8   9
ATOM      9  C   UNL     1      62.900  28.114  22.901  1.00  0.00     0.006 C 
BRANCH   9  10
ATOM     10  C   UNL     1      64.144  27.235  22.741  1.00  0.00     0.053 C 
BRANCH  10  11
ATOM     11  C   UNL     1      64.078  26.061  23.665  1.00  0.00     0.041 C 
ATOM     12  O   UNL     1      63.225  25.154  23.478  1.00  0.00    -0.550 OA
ATOM     13  O   UNL     1      64.992  25.942  24.704  1.00  0.00    -0.550 OA
ENDBRANCH  10  11
ENDBRANCH   9  10
ENDBRANCH   8   9
ENDBRANCH   1   8
TORSDOF 8
ENDMDL
MODEL 2
REMARK VINA RESULT:    -4.370      1.596      2.305
REMARK INTER + INTRA:          -7.105
REMARK INTER:                  -6.374
REMARK INTRA:                  -0.731
REMARK UNBOUND:                -0.691
REMARK SMILES O=C([O-])CCCCCCCC(=O)[O-]
REMARK SMILES IDX 7 1 6 2 5 3 4 4 2 5 1 6 3 7 8 8 9 9 10 10 11 11 12 12 13 13
REMARK H PARENT
REMARK Flexibility Score: inf
ROOT
ATOM      1  C   UNL     1      63.408  29.437  24.267  1.00  0.00     0.000 C 
ENDROOT
BRANCH   1   2
ATOM      2  C   UNL     1      61.923  29.404  24.651  1.00  0.00     0.000 C 
BRANCH   2   3
ATOM      3  C   UNL     1      61.344  27.990  24.490  1.00  0.00     0.006 C 
BRANCH   3   4
ATOM      4  C   UNL     1      60.429  27.601  25.657  1.00  0.00     0.053 C 
BRANCH   4   5
ATOM      5  C   UNL     1      61.165  27.595  26.962  1.00  0.00     0.041 C 
ATOM      6  O   UNL     1      61.984  26.675  27.224  1.00  0.00    -0.550 OA
ATOM      7  O   UNL     1      60.969  28.623  27.875  1.00  0.00    -0.550 OA
ENDBRANCH   4   5
ENDBRANCH   3   4
ENDBRANCH   2   3
ENDBRANCH   1   2
BRANCH   1   8
ATOM      8  C   UNL     1      64.277  28.838  25.378  1.00  0.00     0.000 C 
BRANCH   8   9
ATOM      9  C   UNL     1      65.244  27.789  24.815  1.00  0.00     0.006 C 
BRANCH   9  10
ATOM     10  C   UNL     1      64.691  26.374  25.006  1.00  0.00     0.053 C 
BRANCH  10  11
ATOM     11  C   UNL     1      64.432  25.729  23.681  1.00  0.00     0.041 C 
ATOM     12  O   UNL     1      63.277  25.318  23.392  1.00  0.00    -0.550 OA
ATOM     13  O   UNL     1      65.453  25.627  22.746  1.00  0.00    -0.550 OA
ENDBRANCH  10  11
ENDBRANCH   9  10
ENDBRANCH   8   9
ENDBRANCH   1   8
TORSDOF 8
ENDMDL
MODEL 3
REMARK VINA RESULT:    -4.308     12.187     13.979
REMARK INTER + INTRA:          -7.014
REMARK INTER:                  -6.295
REMARK INTRA:                  -0.719
REMARK UNBOUND:                -0.691
REMARK SMILES O=C([O-])CCCCCCCC(=O)[O-]
REMARK SMILES IDX 7 1 6 2 5 3 4 4 2 5 1 6 3 7 8 8 9 9 10 10 11 11 12 12 13 13
REMARK H PARENT
REMARK Flexibility Score: inf
ROOT
ATOM      1  C   UNL     1      63.285  30.302  13.382  1.00  0.00     0.000 C 
ENDROOT
BRANCH   1   2
ATOM      2  C   UNL     1      62.570  28.979  13.081  1.00  0.00     0.000 C 
BRANCH   2   3
ATOM      3  C   UNL     1      61.065  29.088  13.371  1.00  0.00     0.006 C 
BRANCH   3   4
ATOM      4  C   UNL     1      60.216  28.392  12.301  1.00  0.00     0.053 C 
BRANCH   4   5
ATOM      5  C   UNL     1      60.474  28.953  10.936  1.00  0.00     0.041 C 
ATOM      6  O   UNL     1      60.080  30.111  10.640  1.00  0.00    -0.550 OA
ATOM      7  O   UNL     1      61.181  28.207  10.000  1.00  0.00    -0.550 OA
ENDBRANCH   4   5
ENDBRANCH   3   4
ENDBRANCH   2   3
ENDBRANCH   1   2
BRANCH   1   8
ATOM      8  C   UNL     1      62.942  31.364  12.332  1.00  0.00     0.000 C 
BRANCH   8   9
ATOM      9  C   UNL     1      62.661  32.720  12.992  1.00  0.00     0.006 C 
BRANCH   9  10
ATOM     10  C   UNL     1      61.158  32.933  13.192  1.00  0.00     0.053 C 
BRANCH  10  11
ATOM     11  C   UNL     1      60.841  33.093  14.646  1.00  0.00     0.041 C 
ATOM     12  O   UNL     1      60.759  34.243  15.153  1.00  0.00    -0.550 OA
ATOM     13  O   UNL     1      60.585  31.975  15.428  1.00  0.00    -0.550 OA
ENDBRANCH  10  11
ENDBRANCH   9  10
ENDBRANCH   8   9
ENDBRANCH   1   8
TORSDOF 8
ENDMDL
MODEL 4
REMARK VINA RESULT:    -4.305      1.194      5.365
REMARK INTER + INTRA:          -7.010
REMARK INTER:                  -6.337
REMARK INTRA:                  -0.673
REMARK UNBOUND:                -0.691
REMARK SMILES O=C([O-])CCCCCCCC(=O)[O-]
REMARK SMILES IDX 7 1 6 2 5 3 4 4 2 5 1 6 3 7 8 8 9 9 10 10 11 11 12 12 13 13
REMARK H PARENT
REMARK Flexibility Score: inf
ROOT
ATOM      1  C   UNL     1      62.571  29.276  24.274  1.00  0.00     0.000 C 
ENDROOT
BRANCH   1   2
ATOM      2  C   UNL     1      63.669  28.679  23.385  1.00  0.00     0.000 C 
BRANCH   2   3
ATOM      3  C   UNL     1      64.904  28.297  24.216  1.00  0.00     0.006 C 
BRANCH   3   4
ATOM      4  C   UNL     1      64.793  26.884  24.803  1.00  0.00     0.053 C 
BRANCH   4   5
ATOM      5  C   UNL     1      64.527  25.862  23.741  1.00  0.00     0.041 C 
ATOM      6  O   UNL     1      65.438  25.526  22.939  1.00  0.00    -0.550 OA
ATOM      7  O   UNL     1      63.280  25.254  23.659  1.00  0.00    -0.550 OA
ENDBRANCH   4   5
ENDBRANCH   3   4
ENDBRANCH   2   3
ENDBRANCH   1   2
BRANCH   1   8
ATOM      8  C   UNL     1      61.459  28.253  24.535  1.00  0.00     0.000 C 
BRANCH   8   9
ATOM      9  C   UNL     1      61.146  28.152  26.033  1.00  0.00     0.006 C 
BRANCH   9  10
ATOM     10  C   UNL     1      62.281  28.743  26.873  1.00  0.00     0.053 C 
BRANCH  10  11
ATOM     11  C   UNL     1      61.759  29.243  28.183  1.00  0.00     0.041 C 
ATOM     12  O   UNL     1      62.385  30.133  28.817  1.00  0.00    -0.550 OA
ATOM     13  O   UNL     1      60.556  28.761  28.681  1.00  0.00    -0.550 OA
ENDBRANCH  10  11
ENDBRANCH   9  10
ENDBRANCH   8   9
ENDBRANCH   1   8
TORSDOF 8
ENDMDL
MODEL 5
REMARK VINA RESULT:    -4.293      2.369      3.318
REMARK INTER + INTRA:          -6.993
REMARK INTER:                  -6.249
REMARK INTRA:                  -0.743
REMARK UNBOUND:                -0.691
REMARK SMILES O=C([O-])CCCCCCCC(=O)[O-]
REMARK SMILES IDX 7 1 6 2 5 3 4 4 2 5 1 6 3 7 8 8 9 9 10 10 11 11 12 12 13 13
REMARK H PARENT
REMARK Flexibility Score: inf
ROOT
ATOM      1  C   UNL     1      63.955  29.839  27.221  1.00  0.00     0.000 C 
ENDROOT
BRANCH   1   2
ATOM      2  C   UNL     1      62.832  30.311  28.153  1.00  0.00     0.000 C 
BRANCH   2   3
ATOM      3  C   UNL     1      62.381  29.178  29.089  1.00  0.00     0.006 C 
BRANCH   3   4
ATOM      4  C   UNL     1      60.945  28.726  28.803  1.00  0.00     0.053 C 
BRANCH   4   5
ATOM      5  C   UNL     1      60.769  27.256  29.032  1.00  0.00     0.041 C 
ATOM      6  O   UNL     1      59.615  26.760  29.125  1.00  0.00    -0.550 OA
ATOM      7  O   UNL     1      61.882  26.427  29.112  1.00  0.00    -0.550 OA
ENDBRANCH   4   5
ENDBRANCH   3   4
ENDBRANCH   2   3
ENDBRANCH   1   2
BRANCH   1   8
ATOM      8  C   UNL     1      63.770  30.404  25.808  1.00  0.00     0.000 C 
BRANCH   8   9
ATOM      9  C   UNL     1      63.382  29.297  24.820  1.00  0.00     0.006 C 
BRANCH   9  10
ATOM     10  C   UNL     1      61.867  29.260  24.602  1.00  0.00     0.053 C 
BRANCH  10  11
ATOM     11  C   UNL     1      61.286  28.003  25.167  1.00  0.00     0.041 C 
ATOM     12  O   UNL     1      60.046  27.791  25.099  1.00  0.00    -0.550 OA
ATOM     13  O   UNL     1      62.119  27.041  25.723  1.00  0.00    -0.550 OA
ENDBRANCH  10  11
ENDBRANCH   9  10
ENDBRANCH   8   9
ENDBRANCH   1   8
TORSDOF 8
ENDMDL
MODEL 6
REMARK VINA RESULT:    -4.275      2.333      4.826
REMARK INTER + INTRA:          -6.966
REMARK INTER:                  -6.127
REMARK INTRA:                  -0.839
REMARK UNBOUND:                -0.691
REMARK SMILES O=C([O-])CCCCCCCC(=O)[O-]
REMARK SMILES IDX 7 1 6 2 5 3 4 4 2 5 1 6 3 7 8 8 9 9 10 10 11 11 12 12 13 13
REMARK H PARENT
REMARK Flexibility Score: inf
ROOT
ATOM      1  C   UNL     1      62.939  30.506  28.087  1.00  0.00     0.000 C 
ENDROOT
BRANCH   1   2
ATOM      2  C   UNL     1      63.719  29.831  26.953  1.00  0.00     0.000 C 
BRANCH   2   3
ATOM      3  C   UNL     1      63.446  30.524  25.608  1.00  0.00     0.006 C 
BRANCH   3   4
ATOM      4  C   UNL     1      62.441  29.748  24.749  1.00  0.00     0.053 C 
BRANCH   4   5
ATOM      5  C   UNL     1      63.128  28.871  23.747  1.00  0.00     0.041 C 
ATOM      6  O   UNL     1      62.491  27.955  23.162  1.00  0.00    -0.550 OA
ATOM      7  O   UNL     1      64.464  29.087  23.436  1.00  0.00    -0.550 OA
ENDBRANCH   4   5
ENDBRANCH   3   4
ENDBRANCH   2   3
ENDBRANCH   1   2
BRANCH   1   8
ATOM      8  C   UNL     1      62.230  29.466  28.962  1.00  0.00     0.000 C 
BRANCH   8   9
ATOM      9  C   UNL     1      61.018  28.871  28.235  1.00  0.00     0.006 C 
BRANCH   9  10
ATOM     10  C   UNL     1      61.122  27.346  28.150  1.00  0.00     0.053 C 
BRANCH  10  11
ATOM     11  C   UNL     1      61.403  26.916  26.745  1.00  0.00     0.041 C 
ATOM     12  O   UNL     1      62.553  26.517  26.422  1.00  0.00    -0.550 OA
ATOM     13  O   UNL     1      60.382  26.909  25.804  1.00  0.00    -0.550 OA
ENDBRANCH  10  11
ENDBRANCH   9  10
ENDBRANCH   8   9
ENDBRANCH   1   8
TORSDOF 8
ENDMDL
MODEL 7
REMARK VINA RESULT:    -4.274     12.219     13.470
REMARK INTER + INTRA:          -6.965
REMARK INTER:                  -6.244
REMARK INTRA:                  -0.720
REMARK UNBOUND:                -0.691
REMARK SMILES O=C([O-])CCCCCCCC(=O)[O-]
REMARK SMILES IDX 7 1 6 2 5 3 4 4 2 5 1 6 3 7 8 8 9 9 10 10 11 11 12 12 13 13
REMARK H PARENT
REMARK Flexibility Score: inf
ROOT
ATOM      1  C   UNL     1      63.383  30.324  13.431  1.00  0.00     0.000 C 
ENDROOT
BRANCH   1   2
ATOM      2  C   UNL     1      63.043  31.354  12.347  1.00  0.00     0.000 C 
BRANCH   2   3
ATOM      3  C   UNL     1      62.698  32.716  12.969  1.00  0.00     0.006 C 
BRANCH   3   4
ATOM      4  C   UNL     1      61.188  32.906  13.152  1.00  0.00     0.053 C 
BRANCH   4   5
ATOM      5  C   UNL     1      60.823  33.103  14.591  1.00  0.00     0.041 C 
ATOM      6  O   UNL     1      60.824  34.257  15.095  1.00  0.00    -0.550 OA
ATOM      7  O   UNL     1      60.451  32.014  15.369  1.00  0.00    -0.550 OA
ENDBRANCH   4   5
ENDBRANCH   3   4
ENDBRANCH   2   3
ENDBRANCH   1   2
BRANCH   1   8
ATOM      8  C   UNL     1      62.673  28.992  13.166  1.00  0.00     0.000 C 
BRANCH   8   9
ATOM      9  C   UNL     1      61.161  29.119  13.388  1.00  0.00     0.006 C 
BRANCH   9  10
ATOM     10  C   UNL     1      60.383  28.317  12.341  1.00  0.00     0.053 C 
BRANCH  10  11
ATOM     11  C   UNL     1      60.595  28.890  10.976  1.00  0.00     0.041 C 
ATOM     12  O   UNL     1      61.184  28.216  10.090  1.00  0.00    -0.550 OA
ATOM     13  O   UNL     1      60.098  30.149  10.666  1.00  0.00    -0.550 OA
ENDBRANCH  10  11
ENDBRANCH   9  10
ENDBRANCH   8   9
ENDBRANCH   1   8
TORSDOF 8
ENDMDL
MODEL 8
REMARK VINA RESULT:    -4.262      2.272      4.743
REMARK INTER + INTRA:          -6.946
REMARK INTER:                  -6.114
REMARK INTRA:                  -0.832
REMARK UNBOUND:                -0.691
REMARK SMILES O=C([O-])CCCCCCCC(=O)[O-]
REMARK SMILES IDX 7 1 6 2 5 3 4 4 2 5 1 6 3 7 8 8 9 9 10 10 11 11 12 12 13 13
REMARK H PARENT
REMARK Flexibility Score: inf
ROOT
ATOM      1  C   UNL     1      64.507  29.784  24.497  1.00  0.00     0.000 C 
ENDROOT
BRANCH   1   2
ATOM      2  C   UNL     1      65.309  28.700  25.227  1.00  0.00     0.000 C 
BRANCH   2   3
ATOM      3  C   UNL     1      65.603  27.512  24.298  1.00  0.00     0.006 C 
BRANCH   3   4
ATOM      4  C   UNL     1      64.712  26.302  24.603  1.00  0.00     0.053 C 
BRANCH   4   5
ATOM      5  C   UNL     1      63.751  26.024  23.488  1.00  0.00     0.041 C 
ATOM      6  O   UNL     1      62.989  25.023  23.540  1.00  0.00    -0.550 OA
ATOM      7  O   UNL     1      63.675  26.890  22.404  1.00  0.00    -0.550 OA
ENDBRANCH   4   5
ENDBRANCH   3   4
ENDBRANCH   2   3
ENDBRANCH   1   2
BRANCH   1   8
ATOM      8  C   UNL     1      63.522  30.474  25.448  1.00  0.00     0.000 C 
BRANCH   8   9
ATOM      9  C   UNL     1      62.475  29.483  25.969  1.00  0.00     0.006 C 
BRANCH   9  10
ATOM     10  C   UNL     1      61.664  28.883  24.817  1.00  0.00     0.053 C 
BRANCH  10  11
ATOM     11  C   UNL     1      60.908  27.678  25.279  1.00  0.00     0.041 C 
ATOM     12  O   UNL     1      61.432  26.876  26.096  1.00  0.00    -0.550 OA
ATOM     13  O   UNL     1      59.605  27.467  24.847  1.00  0.00    -0.550 OA
ENDBRANCH  10  11
ENDBRANCH   9  10
ENDBRANCH   8   9
ENDBRANCH   1   8
TORSDOF 8
ENDMDL
MODEL 9
REMARK VINA RESULT:    -2.299     12.238     14.144
REMARK INTER + INTRA:          -4.066
REMARK INTER:                  -3.365
REMARK INTRA:                  -0.701
REMARK UNBOUND:                -0.691
REMARK SMILES O=C([O-])CCCCCCCC(=O)[O-]
REMARK SMILES IDX 7 1 6 2 5 3 4 4 2 5 1 6 3 7 8 8 9 9 10 10 11 11 12 12 13 13
REMARK H PARENT
REMARK Flexibility Score: inf
ROOT
ATOM      1  C   UNL     1      63.660  29.644  12.804  1.00  0.00     0.000 C 
ENDROOT
BRANCH   1   2
ATOM      2  C   UNL     1      62.527  28.620  12.951  1.00  0.00     0.000 C 
BRANCH   2   3
ATOM      3  C   UNL     1      61.245  29.288  13.472  1.00  0.00     0.006 C 
BRANCH   3   4
ATOM      4  C   UNL     1      61.532  30.604  14.206  1.00  0.00     0.053 C 
BRANCH   4   5
ATOM      5  C   UNL     1      60.635  31.708  13.737  1.00  0.00     0.041 C 
ATOM      6  O   UNL     1      60.604  32.029  12.519  1.00  0.00    -0.550 OA
ATOM      7  O   UNL     1      59.807  32.362  14.641  1.00  0.00    -0.550 OA
ENDBRANCH   4   5
ENDBRANCH   3   4
ENDBRANCH   2   3
ENDBRANCH   1   2
BRANCH   1   8
ATOM      8  C   UNL     1      63.792  30.113  11.351  1.00  0.00     0.000 C 
BRANCH   8   9
ATOM      9  C   UNL     1      63.307  29.032  10.377  1.00  0.00     0.006 C 
BRANCH   9  10
ATOM     10  C   UNL     1      62.349  29.619   9.337  1.00  0.00     0.053 C 
BRANCH  10  11
ATOM     11  C   UNL     1      61.000  28.982   9.447  1.00  0.00     0.041 C 
ATOM     12  O   UNL     1      60.769  27.883   8.875  1.00  0.00    -0.550 OA
ATOM     13  O   UNL     1      60.013  29.575  10.222  1.00  0.00    -0.550 OA
ENDBRANCH  10  11
ENDBRANCH   9  10
ENDBRANCH   8   9
ENDBRANCH   1   8
TORSDOF 8
ENDMDL
