MODEL 1
REMARK VINA RESULT:    -5.535      0.000      0.000
REMARK INTER + INTRA:          -7.911
REMARK INTER:                  -7.477
REMARK INTRA:                  -0.434
REMARK UNBOUND:                -0.434
REMARK SMILES CCCCCCC=CC(=O)[O-]
REMARK SMILES IDX 5 1 6 2 7 3 8 4 9 5 10 6 11 7 4 8 3 9 2 10 1 11
REMARK H PARENT
REMARK Flexibility Score: inf
ROOT
ATOM      1  C   UNL     1      51.928  49.332   3.877  1.00  0.00     0.004 C 
ENDROOT
BRANCH   1   2
ATOM      2  C   UNL     1      50.522  48.708   3.841  1.00  0.00     0.027 C 
BRANCH   2   3
ATOM      3  C   UNL     1      49.704  49.206   2.678  1.00  0.00    -0.025 C 
ATOM      4  C   UNL     1      48.980  50.338   2.634  1.00  0.00     0.020 C 
BRANCH   4   5
ATOM      5  C   UNL     1      48.727  51.275   3.746  1.00  0.00     0.064 C 
ATOM      6  O   UNL     1      49.257  52.415   3.791  1.00  0.00    -0.545 OA
ATOM      7  O   UNL     1      47.938  50.857   4.810  1.00  0.00    -0.545 OA
ENDBRANCH   4   5
ENDBRANCH   2   3
ENDBRANCH   1   2
BRANCH   1   8
ATOM      8  C   UNL     1      52.093  50.441   4.934  1.00  0.00     0.000 C 
BRANCH   8   9
ATOM      9  C   UNL     1      53.452  51.157   4.838  1.00  0.00    -0.000 C 
BRANCH   9  10
ATOM     10  C   UNL     1      54.518  50.302   4.137  1.00  0.00    -0.003 C 
ATOM     11  C   UNL     1      55.823  51.063   3.907  1.00  0.00     0.004 C 
ENDBRANCH   9  10
ENDBRANCH   8   9
ENDBRANCH   1   8
TORSDOF 6
ENDMDL
MODEL 2
REMARK VINA RESULT:    -5.431      2.264      3.312
REMARK INTER + INTRA:          -7.770
REMARK INTER:                  -7.140
REMARK INTRA:                  -0.630
REMARK UNBOUND:                -0.434
REMARK SMILES CCCCCCC=CC(=O)[O-]
REMARK SMILES IDX 5 1 6 2 7 3 8 4 9 5 10 6 11 7 4 8 3 9 2 10 1 11
REMARK H PARENT
REMARK Flexibility Score: inf
ROOT
ATOM      1  C   UNL     1      54.475  50.411   4.197  1.00  0.00     0.004 C 
ENDROOT
BRANCH   1   2
ATOM      2  C   UNL     1      53.227  49.514   4.165  1.00  0.00     0.027 C 
BRANCH   2   3
ATOM      3  C   UNL     1      52.005  50.211   4.705  1.00  0.00    -0.025 C 
ATOM      4  C   UNL     1      50.724  49.895   4.452  1.00  0.00     0.020 C 
BRANCH   4   5
ATOM      5  C   UNL     1      50.231  48.881   3.499  1.00  0.00     0.064 C 
ATOM      6  O   UNL     1      50.327  47.648   3.729  1.00  0.00    -0.545 OA
ATOM      7  O   UNL     1      49.712  49.299   2.281  1.00  0.00    -0.545 OA
ENDBRANCH   4   5
ENDBRANCH   2   3
ENDBRANCH   1   2
BRANCH   1   8
ATOM      8  C   UNL     1      54.231  51.800   4.818  1.00  0.00     0.000 C 
BRANCH   8   9
ATOM      9  C   UNL     1      54.985  52.000   6.145  1.00  0.00    -0.000 C 
BRANCH   9  10
ATOM     10  C   UNL     1      54.064  51.873   7.368  1.00  0.00    -0.003 C 
ATOM     11  C   UNL     1      53.989  50.443   7.901  1.00  0.00     0.004 C 
ENDBRANCH   9  10
ENDBRANCH   8   9
ENDBRANCH   1   8
TORSDOF 6
ENDMDL
MODEL 3
REMARK VINA RESULT:    -5.403      2.651      5.358
REMARK INTER + INTRA:          -7.733
REMARK INTER:                  -7.532
REMARK INTRA:                  -0.201
REMARK UNBOUND:                -0.434
REMARK SMILES CCCCCCC=CC(=O)[O-]
REMARK SMILES IDX 5 1 6 2 7 3 8 4 9 5 10 6 11 7 4 8 3 9 2 10 1 11
REMARK H PARENT
REMARK Flexibility Score: inf
ROOT
ATOM      1  C   UNL     1      52.196  50.063   4.621  1.00  0.00     0.004 C 
ENDROOT
BRANCH   1   2
ATOM      2  C   UNL     1      53.705  49.766   4.652  1.00  0.00     0.027 C 
BRANCH   2   3
ATOM      3  C   UNL     1      54.531  50.947   4.212  1.00  0.00    -0.025 C 
ATOM      4  C   UNL     1      54.792  52.054   4.928  1.00  0.00     0.020 C 
BRANCH   4   5
ATOM      5  C   UNL     1      54.231  52.412   6.245  1.00  0.00     0.064 C 
ATOM      6  O   UNL     1      54.763  52.036   7.321  1.00  0.00    -0.545 OA
ATOM      7  O   UNL     1      53.040  53.125   6.297  1.00  0.00    -0.545 OA
ENDBRANCH   4   5
ENDBRANCH   2   3
ENDBRANCH   1   2
BRANCH   1   8
ATOM      8  C   UNL     1      51.373  49.038   3.819  1.00  0.00     0.000 C 
BRANCH   8   9
ATOM      9  C   UNL     1      49.876  49.389   3.760  1.00  0.00    -0.000 C 
BRANCH   9  10
ATOM     10  C   UNL     1      49.381  49.608   2.323  1.00  0.00    -0.003 C 
ATOM     11  C   UNL     1      48.260  48.644   1.934  1.00  0.00     0.004 C 
ENDBRANCH   9  10
ENDBRANCH   8   9
ENDBRANCH   1   8
TORSDOF 6
ENDMDL
MODEL 4
REMARK VINA RESULT:    -5.325      1.382      2.154
REMARK INTER + INTRA:          -7.628
REMARK INTER:                  -7.289
REMARK INTRA:                  -0.339
REMARK UNBOUND:                -0.434
REMARK SMILES CCCCCCC=CC(=O)[O-]
REMARK SMILES IDX 5 1 6 2 7 3 8 4 9 5 10 6 11 7 4 8 3 9 2 10 1 11
REMARK H PARENT
REMARK Flexibility Score: inf
ROOT
ATOM      1  C   UNL     1      53.230  50.103   5.267  1.00  0.00     0.004 C 
ENDROOT
BRANCH   1   2
ATOM      2  C   UNL     1      51.777  50.248   4.785  1.00  0.00     0.027 C 
BRANCH   2   3
ATOM      3  C   UNL     1      51.383  49.162   3.818  1.00  0.00    -0.025 C 
ATOM      4  C   UNL     1      50.204  49.041   3.185  1.00  0.00     0.020 C 
BRANCH   4   5
ATOM      5  C   UNL     1      48.998  49.868   3.388  1.00  0.00     0.064 C 
ATOM      6  O   UNL     1      48.819  50.949   2.770  1.00  0.00    -0.545 OA
ATOM      7  O   UNL     1      48.068  49.477   4.343  1.00  0.00    -0.545 OA
ENDBRANCH   4   5
ENDBRANCH   2   3
ENDBRANCH   1   2
BRANCH   1   8
ATOM      8  C   UNL     1      54.280  50.310   4.159  1.00  0.00     0.000 C 
BRANCH   8   9
ATOM      9  C   UNL     1      55.178  51.535   4.410  1.00  0.00    -0.000 C 
BRANCH   9  10
ATOM     10  C   UNL     1      54.389  52.743   4.938  1.00  0.00    -0.003 C 
ATOM     11  C   UNL     1      54.782  53.124   6.365  1.00  0.00     0.004 C 
ENDBRANCH   9  10
ENDBRANCH   8   9
ENDBRANCH   1   8
TORSDOF 6
ENDMDL
MODEL 5
REMARK VINA RESULT:    -5.297      1.301      1.917
REMARK INTER + INTRA:          -7.589
REMARK INTER:                  -7.319
REMARK INTRA:                  -0.270
REMARK UNBOUND:                -0.434
REMARK SMILES CCCCCCC=CC(=O)[O-]
REMARK SMILES IDX 5 1 6 2 7 3 8 4 9 5 10 6 11 7 4 8 3 9 2 10 1 11
REMARK H PARENT
REMARK Flexibility Score: inf
ROOT
ATOM      1  C   UNL     1      52.540  50.523   5.574  1.00  0.00     0.004 C 
ENDROOT
BRANCH   1   2
ATOM      2  C   UNL     1      51.167  50.309   4.914  1.00  0.00     0.027 C 
BRANCH   2   3
ATOM      3  C   UNL     1      51.206  49.256   3.838  1.00  0.00    -0.025 C 
ATOM      4  C   UNL     1      50.236  48.981   2.949  1.00  0.00     0.020 C 
BRANCH   4   5
ATOM      5  C   UNL     1      48.880  49.562   2.907  1.00  0.00     0.064 C 
ATOM      6  O   UNL     1      48.683  50.780   2.663  1.00  0.00    -0.545 OA
ATOM      7  O   UNL     1      47.793  48.754   3.218  1.00  0.00    -0.545 OA
ENDBRANCH   4   5
ENDBRANCH   2   3
ENDBRANCH   1   2
BRANCH   1   8
ATOM      8  C   UNL     1      53.727  50.410   4.599  1.00  0.00     0.000 C 
BRANCH   8   9
ATOM      9  C   UNL     1      54.708  51.590   4.715  1.00  0.00    -0.000 C 
BRANCH   9  10
ATOM     10  C   UNL     1      56.038  51.320   3.996  1.00  0.00    -0.003 C 
ATOM     11  C   UNL     1      56.123  49.903   3.430  1.00  0.00     0.004 C 
ENDBRANCH   9  10
ENDBRANCH   8   9
ENDBRANCH   1   8
TORSDOF 6
ENDMDL
MODEL 6
REMARK VINA RESULT:    -5.289      2.505      4.923
REMARK INTER + INTRA:          -7.578
REMARK INTER:                  -7.194
REMARK INTRA:                  -0.385
REMARK UNBOUND:                -0.434
REMARK SMILES CCCCCCC=CC(=O)[O-]
REMARK SMILES IDX 5 1 6 2 7 3 8 4 9 5 10 6 11 7 4 8 3 9 2 10 1 11
REMARK H PARENT
REMARK Flexibility Score: inf
ROOT
ATOM      1  C   UNL     1      51.132  48.924   3.796  1.00  0.00     0.004 C 
ENDROOT
BRANCH   1   2
ATOM      2  C   UNL     1      51.972  49.955   4.568  1.00  0.00     0.027 C 
BRANCH   2   3
ATOM      3  C   UNL     1      53.423  49.933   4.161  1.00  0.00    -0.025 C 
ATOM      4  C   UNL     1      54.382  50.784   4.563  1.00  0.00     0.020 C 
BRANCH   4   5
ATOM      5  C   UNL     1      54.204  51.996   5.388  1.00  0.00     0.064 C 
ATOM      6  O   UNL     1      53.516  52.974   4.998  1.00  0.00    -0.545 OA
ATOM      7  O   UNL     1      54.876  52.087   6.600  1.00  0.00    -0.545 OA
ENDBRANCH   4   5
ENDBRANCH   2   3
ENDBRANCH   1   2
BRANCH   1   8
ATOM      8  C   UNL     1      49.921  49.528   3.061  1.00  0.00     0.000 C 
BRANCH   8   9
ATOM      9  C   UNL     1      49.059  50.423   3.969  1.00  0.00    -0.000 C 
BRANCH   9  10
ATOM     10  C   UNL     1      48.938  51.858   3.433  1.00  0.00    -0.003 C 
ATOM     11  C   UNL     1      49.601  52.886   4.350  1.00  0.00     0.004 C 
ENDBRANCH   9  10
ENDBRANCH   8   9
ENDBRANCH   1   8
TORSDOF 6
ENDMDL
MODEL 7
REMARK VINA RESULT:    -5.204      1.930      2.586
REMARK INTER + INTRA:          -7.464
REMARK INTER:                  -6.966
REMARK INTRA:                  -0.497
REMARK UNBOUND:                -0.434
REMARK SMILES CCCCCCC=CC(=O)[O-]
REMARK SMILES IDX 5 1 6 2 7 3 8 4 9 5 10 6 11 7 4 8 3 9 2 10 1 11
REMARK H PARENT
REMARK Flexibility Score: inf
ROOT
ATOM      1  C   UNL     1      52.071  50.704   6.325  1.00  0.00     0.004 C 
ENDROOT
BRANCH   1   2
ATOM      2  C   UNL     1      50.590  51.121   6.351  1.00  0.00     0.027 C 
BRANCH   2   3
ATOM      3  C   UNL     1      49.663  49.937   6.428  1.00  0.00    -0.025 C 
ATOM      4  C   UNL     1      49.318  49.120   5.417  1.00  0.00     0.020 C 
BRANCH   4   5
ATOM      5  C   UNL     1      49.672  49.274   3.992  1.00  0.00     0.064 C 
ATOM      6  O   UNL     1      50.502  48.518   3.426  1.00  0.00    -0.545 OA
ATOM      7  O   UNL     1      49.125  50.330   3.275  1.00  0.00    -0.545 OA
ENDBRANCH   4   5
ENDBRANCH   2   3
ENDBRANCH   1   2
BRANCH   1   8
ATOM      8  C   UNL     1      52.800  51.068   5.018  1.00  0.00     0.000 C 
BRANCH   8   9
ATOM      9  C   UNL     1      53.532  49.868   4.391  1.00  0.00    -0.000 C 
BRANCH   9  10
ATOM     10  C   UNL     1      54.959  50.220   3.942  1.00  0.00    -0.003 C 
ATOM     11  C   UNL     1      55.367  51.638   4.341  1.00  0.00     0.004 C 
ENDBRANCH   9  10
ENDBRANCH   8   9
ENDBRANCH   1   8
TORSDOF 6
ENDMDL
MODEL 8
REMARK VINA RESULT:    -5.171      2.311      2.984
REMARK INTER + INTRA:          -7.419
REMARK INTER:                  -7.076
REMARK INTRA:                  -0.343
REMARK UNBOUND:                -0.434
REMARK SMILES CCCCCCC=CC(=O)[O-]
REMARK SMILES IDX 5 1 6 2 7 3 8 4 9 5 10 6 11 7 4 8 3 9 2 10 1 11
REMARK H PARENT
REMARK Flexibility Score: inf
ROOT
ATOM      1  C   UNL     1      52.517  52.751   5.364  1.00  0.00     0.004 C 
ENDROOT
BRANCH   1   2
ATOM      2  C   UNL     1      51.379  51.720   5.275  1.00  0.00     0.027 C 
BRANCH   2   3
ATOM      3  C   UNL     1      50.831  51.353   6.630  1.00  0.00    -0.025 C 
ATOM      4  C   UNL     1      49.814  50.512   6.883  1.00  0.00     0.020 C 
BRANCH   4   5
ATOM      5  C   UNL     1      48.933  49.861   5.893  1.00  0.00     0.064 C 
ATOM      6  O   UNL     1      47.735  50.209   5.735  1.00  0.00    -0.545 OA
ATOM      7  O   UNL     1      49.422  48.784   5.164  1.00  0.00    -0.545 OA
ENDBRANCH   4   5
ENDBRANCH   2   3
ENDBRANCH   1   2
BRANCH   1   8
ATOM      8  C   UNL     1      53.899  52.192   4.978  1.00  0.00     0.000 C 
BRANCH   8   9
ATOM      9  C   UNL     1      53.873  50.679   4.700  1.00  0.00    -0.000 C 
BRANCH   9  10
ATOM     10  C   UNL     1      55.059  50.221   3.838  1.00  0.00    -0.003 C 
ATOM     11  C   UNL     1      56.236  51.194   3.892  1.00  0.00     0.004 C 
ENDBRANCH   9  10
ENDBRANCH   8   9
ENDBRANCH   1   8
TORSDOF 6
ENDMDL
MODEL 9
REMARK VINA RESULT:    -3.870      2.566      5.134
REMARK INTER + INTRA:          -5.662
REMARK INTER:                  -5.270
REMARK INTRA:                  -0.392
REMARK UNBOUND:                -0.434
REMARK SMILES CCCCCCC=CC(=O)[O-]
REMARK SMILES IDX 5 1 6 2 7 3 8 4 9 5 10 6 11 7 4 8 3 9 2 10 1 11
REMARK H PARENT
REMARK Flexibility Score: inf
ROOT
ATOM      1  C   UNL     1      52.257  49.575   4.181  1.00  0.00     0.004 C 
ENDROOT
BRANCH   1   2
ATOM      2  C   UNL     1      53.587  49.752   4.933  1.00  0.00     0.027 C 
BRANCH   2   3
ATOM      3  C   UNL     1      54.513  50.716   4.239  1.00  0.00    -0.025 C 
ATOM      4  C   UNL     1      54.786  51.977   4.614  1.00  0.00     0.020 C 
BRANCH   4   5
ATOM      5  C   UNL     1      54.150  52.734   5.711  1.00  0.00     0.064 C 
ATOM      6  O   UNL     1      52.956  53.125   5.647  1.00  0.00    -0.545 OA
ATOM      7  O   UNL     1      54.915  53.086   6.816  1.00  0.00    -0.545 OA
ENDBRANCH   4   5
ENDBRANCH   2   3
ENDBRANCH   1   2
BRANCH   1   8
ATOM      8  C   UNL     1      51.110  50.446   4.726  1.00  0.00     0.000 C 
BRANCH   8   9
ATOM      9  C   UNL     1      49.827  50.338   3.884  1.00  0.00    -0.000 C 
BRANCH   9  10
ATOM     10  C   UNL     1      49.953  49.308   2.751  1.00  0.00    -0.003 C 
ATOM     11  C   UNL     1      48.608  48.975   2.106  1.00  0.00     0.004 C 
ENDBRANCH   9  10
ENDBRANCH   8   9
ENDBRANCH   1   8
TORSDOF 6
ENDMDL
