MODEL 1
REMARK VINA RESULT:    -3.619      0.000      0.000
REMARK INTER + INTRA:          -5.051
REMARK INTER:                  -4.676
REMARK INTRA:                  -0.375
REMARK UNBOUND:                -0.375
REMARK SMILES CCCCCCC(=O)[O-]
REMARK SMILES IDX 5 1 6 2 7 3 8 4 9 5 4 6 3 7 2 8 1 9
REMARK H PARENT
REMARK Flexibility Score: inf
ROOT
ATOM      1  C   UNL     1      59.563  -2.792  81.985  1.00  0.00     0.006 C 
ENDROOT
BRANCH   1   2
ATOM      2  C   UNL     1      59.260  -3.704  83.182  1.00  0.00     0.053 C 
BRANCH   2   3
ATOM      3  C   UNL     1      57.799  -4.018  83.284  1.00  0.00     0.041 C 
ATOM      4  O   UNL     1      56.961  -3.370  82.602  1.00  0.00    -0.550 OA
ATOM      5  O   UNL     1      57.359  -5.004  84.157  1.00  0.00    -0.550 OA
ENDBRANCH   2   3
ENDBRANCH   1   2
BRANCH   1   6
ATOM      6  C   UNL     1      59.838  -1.342  82.415  1.00  0.00     0.000 C 
BRANCH   6   7
ATOM      7  C   UNL     1      60.135  -1.217  83.918  1.00  0.00    -0.000 C 
BRANCH   7   8
ATOM      8  C   UNL     1      59.272  -0.148  84.604  1.00  0.00    -0.003 C 
ATOM      9  C   UNL     1      57.797  -0.538  84.586  1.00  0.00     0.004 C 
ENDBRANCH   7   8
ENDBRANCH   6   7
ENDBRANCH   1   6
TORSDOF 5
ENDMDL
MODEL 2
REMARK VINA RESULT:    -3.586      1.297      1.721
REMARK INTER + INTRA:          -5.009
REMARK INTER:                  -4.753
REMARK INTRA:                  -0.256
REMARK UNBOUND:                -0.375
REMARK SMILES CCCCCCC(=O)[O-]
REMARK SMILES IDX 5 1 6 2 7 3 8 4 9 5 4 6 3 7 2 8 1 9
REMARK H PARENT
REMARK Flexibility Score: inf
ROOT
ATOM      1  C   UNL     1      60.450  -2.269  83.538  1.00  0.00     0.006 C 
ENDROOT
BRANCH   1   2
ATOM      2  C   UNL     1      60.102  -3.518  82.717  1.00  0.00     0.053 C 
BRANCH   2   3
ATOM      3  C   UNL     1      59.437  -4.565  83.557  1.00  0.00     0.041 C 
ATOM      4  O   UNL     1      58.188  -4.720  83.506  1.00  0.00    -0.550 OA
ATOM      5  O   UNL     1      60.192  -5.347  84.421  1.00  0.00    -0.550 OA
ENDBRANCH   2   3
ENDBRANCH   1   2
BRANCH   1   6
ATOM      6  C   UNL     1      59.474  -1.110  83.274  1.00  0.00     0.000 C 
BRANCH   6   7
ATOM      7  C   UNL     1      59.239  -0.240  84.518  1.00  0.00    -0.000 C 
BRANCH   7   8
ATOM      8  C   UNL     1      57.772  -0.242  84.972  1.00  0.00    -0.003 C 
ATOM      9  C   UNL     1      56.925  -1.156  84.092  1.00  0.00     0.004 C 
ENDBRANCH   7   8
ENDBRANCH   6   7
ENDBRANCH   1   6
TORSDOF 5
ENDMDL
MODEL 3
REMARK VINA RESULT:    -3.534      2.351      3.578
REMARK INTER + INTRA:          -4.941
REMARK INTER:                  -4.674
REMARK INTRA:                  -0.267
REMARK UNBOUND:                -0.375
REMARK SMILES CCCCCCC(=O)[O-]
REMARK SMILES IDX 5 1 6 2 7 3 8 4 9 5 4 6 3 7 2 8 1 9
REMARK H PARENT
REMARK Flexibility Score: inf
ROOT
ATOM      1  C   UNL     1      59.375  -0.121  84.262  1.00  0.00     0.006 C 
ENDROOT
BRANCH   1   2
ATOM      2  C   UNL     1      60.369  -1.286  84.155  1.00  0.00     0.053 C 
BRANCH   2   3
ATOM      3  C   UNL     1      60.530  -1.748  82.739  1.00  0.00     0.041 C 
ATOM      4  O   UNL     1      59.922  -1.160  81.806  1.00  0.00    -0.550 OA
ATOM      5  O   UNL     1      61.325  -2.850  82.454  1.00  0.00    -0.550 OA
ENDBRANCH   2   3
ENDBRANCH   1   2
BRANCH   1   6
ATOM      6  C   UNL     1      58.055  -0.544  84.929  1.00  0.00     0.000 C 
BRANCH   6   7
ATOM      7  C   UNL     1      57.042  -1.117  83.925  1.00  0.00    -0.000 C 
BRANCH   7   8
ATOM      8  C   UNL     1      57.050  -2.651  83.889  1.00  0.00    -0.003 C 
ATOM      9  C   UNL     1      56.207  -3.178  82.731  1.00  0.00     0.004 C 
ENDBRANCH   7   8
ENDBRANCH   6   7
ENDBRANCH   1   6
TORSDOF 5
ENDMDL
MODEL 4
REMARK VINA RESULT:    -3.522     12.964     13.929
REMARK INTER + INTRA:          -4.926
REMARK INTER:                  -4.653
REMARK INTRA:                  -0.272
REMARK UNBOUND:                -0.375
REMARK SMILES CCCCCCC(=O)[O-]
REMARK SMILES IDX 5 1 6 2 7 3 8 4 9 5 4 6 3 7 2 8 1 9
REMARK H PARENT
REMARK Flexibility Score: inf
ROOT
ATOM      1  C   UNL     1      51.818  -1.425  73.149  1.00  0.00     0.006 C 
ENDROOT
BRANCH   1   2
ATOM      2  C   UNL     1      53.147  -1.229  72.407  1.00  0.00     0.053 C 
BRANCH   2   3
ATOM      3  C   UNL     1      53.271   0.156  71.849  1.00  0.00     0.041 C 
ATOM      4  O   UNL     1      54.400   0.614  71.532  1.00  0.00    -0.550 OA
ATOM      5  O   UNL     1      52.142   0.953  71.710  1.00  0.00    -0.550 OA
ENDBRANCH   2   3
ENDBRANCH   1   2
BRANCH   1   6
ATOM      6  C   UNL     1      50.977  -2.561  72.541  1.00  0.00     0.000 C 
BRANCH   6   7
ATOM      7  C   UNL     1      49.475  -2.237  72.518  1.00  0.00    -0.000 C 
BRANCH   7   8
ATOM      8  C   UNL     1      49.169  -0.905  71.818  1.00  0.00    -0.003 C 
ATOM      9  C   UNL     1      48.468   0.065  72.764  1.00  0.00     0.004 C 
ENDBRANCH   7   8
ENDBRANCH   6   7
ENDBRANCH   1   6
TORSDOF 5
ENDMDL
MODEL 5
REMARK VINA RESULT:    -3.521      1.765      2.069
REMARK INTER + INTRA:          -4.925
REMARK INTER:                  -4.703
REMARK INTRA:                  -0.222
REMARK UNBOUND:                -0.375
REMARK SMILES CCCCCCC(=O)[O-]
REMARK SMILES IDX 5 1 6 2 7 3 8 4 9 5 4 6 3 7 2 8 1 9
REMARK H PARENT
REMARK Flexibility Score: inf
ROOT
ATOM      1  C   UNL     1      57.279  -3.285  82.917  1.00  0.00     0.006 C 
ENDROOT
BRANCH   1   2
ATOM      2  C   UNL     1      57.520  -4.493  83.832  1.00  0.00     0.053 C 
BRANCH   2   3
ATOM      3  C   UNL     1      58.943  -4.955  83.776  1.00  0.00     0.041 C 
ATOM      4  O   UNL     1      59.708  -4.547  82.863  1.00  0.00    -0.550 OA
ATOM      5  O   UNL     1      59.417  -5.863  84.714  1.00  0.00    -0.550 OA
ENDBRANCH   2   3
ENDBRANCH   1   2
BRANCH   1   6
ATOM      6  C   UNL     1      57.366  -1.953  83.680  1.00  0.00     0.000 C 
BRANCH   6   7
ATOM      7  C   UNL     1      58.722  -1.253  83.497  1.00  0.00    -0.000 C 
BRANCH   7   8
ATOM      8  C   UNL     1      59.051  -0.291  84.646  1.00  0.00    -0.003 C 
ATOM      9  C   UNL     1      57.801   0.052  85.451  1.00  0.00     0.004 C 
ENDBRANCH   7   8
ENDBRANCH   6   7
ENDBRANCH   1   6
TORSDOF 5
ENDMDL
MODEL 6
REMARK VINA RESULT:    -3.480      2.520      4.023
REMARK INTER + INTRA:          -4.872
REMARK INTER:                  -4.525
REMARK INTRA:                  -0.347
REMARK UNBOUND:                -0.375
REMARK SMILES CCCCCCC(=O)[O-]
REMARK SMILES IDX 5 1 6 2 7 3 8 4 9 5 4 6 3 7 2 8 1 9
REMARK H PARENT
REMARK Flexibility Score: inf
ROOT
ATOM      1  C   UNL     1      59.034  -1.281  83.189  1.00  0.00     0.006 C 
ENDROOT
BRANCH   1   2
ATOM      2  C   UNL     1      60.336  -2.008  83.552  1.00  0.00     0.053 C 
BRANCH   2   3
ATOM      3  C   UNL     1      61.081  -2.455  82.332  1.00  0.00     0.041 C 
ATOM      4  O   UNL     1      61.321  -3.677  82.147  1.00  0.00    -0.550 OA
ATOM      5  O   UNL     1      61.539  -1.518  81.416  1.00  0.00    -0.550 OA
ENDBRANCH   2   3
ENDBRANCH   1   2
BRANCH   1   6
ATOM      6  C   UNL     1      57.789  -2.039  83.679  1.00  0.00     0.000 C 
BRANCH   6   7
ATOM      7  C   UNL     1      57.547  -3.343  82.902  1.00  0.00    -0.000 C 
BRANCH   7   8
ATOM      8  C   UNL     1      57.416  -4.563  83.823  1.00  0.00    -0.003 C 
ATOM      9  C   UNL     1      58.703  -5.383  83.837  1.00  0.00     0.004 C 
ENDBRANCH   7   8
ENDBRANCH   6   7
ENDBRANCH   1   6
TORSDOF 5
ENDMDL
MODEL 7
REMARK VINA RESULT:    -3.464      2.494      3.052
REMARK INTER + INTRA:          -4.851
REMARK INTER:                  -4.538
REMARK INTRA:                  -0.313
REMARK UNBOUND:                -0.375
REMARK SMILES CCCCCCC(=O)[O-]
REMARK SMILES IDX 5 1 6 2 7 3 8 4 9 5 4 6 3 7 2 8 1 9
REMARK H PARENT
REMARK Flexibility Score: inf
ROOT
ATOM      1  C   UNL     1      58.700  -3.641  83.026  1.00  0.00     0.006 C 
ENDROOT
BRANCH   1   2
ATOM      2  C   UNL     1      60.207  -3.694  83.311  1.00  0.00     0.053 C 
BRANCH   2   3
ATOM      3  C   UNL     1      60.985  -2.864  82.337  1.00  0.00     0.041 C 
ATOM      4  O   UNL     1      61.564  -1.812  82.718  1.00  0.00    -0.550 OA
ATOM      5  O   UNL     1      61.042  -3.233  80.999  1.00  0.00    -0.550 OA
ENDBRANCH   2   3
ENDBRANCH   1   2
BRANCH   1   6
ATOM      6  C   UNL     1      58.187  -2.198  82.879  1.00  0.00     0.000 C 
BRANCH   6   7
ATOM      7  C   UNL     1      57.156  -1.825  83.956  1.00  0.00    -0.000 C 
BRANCH   7   8
ATOM      8  C   UNL     1      57.503  -0.516  84.678  1.00  0.00    -0.003 C 
ATOM      9  C   UNL     1      58.994  -0.210  84.574  1.00  0.00     0.004 C 
ENDBRANCH   7   8
ENDBRANCH   6   7
ENDBRANCH   1   6
TORSDOF 5
ENDMDL
MODEL 8
REMARK VINA RESULT:    -3.409      2.016      3.749
REMARK INTER + INTRA:          -4.780
REMARK INTER:                  -4.551
REMARK INTRA:                  -0.229
REMARK UNBOUND:                -0.375
REMARK SMILES CCCCCCC(=O)[O-]
REMARK SMILES IDX 5 1 6 2 7 3 8 4 9 5 4 6 3 7 2 8 1 9
REMARK H PARENT
REMARK Flexibility Score: inf
ROOT
ATOM      1  C   UNL     1      59.531  -1.243  83.110  1.00  0.00     0.006 C 
ENDROOT
BRANCH   1   2
ATOM      2  C   UNL     1      59.135  -0.423  84.345  1.00  0.00     0.053 C 
BRANCH   2   3
ATOM      3  C   UNL     1      57.662  -0.495  84.610  1.00  0.00     0.041 C 
ATOM      4  O   UNL     1      57.148   0.194  85.530  1.00  0.00    -0.550 OA
ATOM      5  O   UNL     1      56.863  -1.348  83.861  1.00  0.00    -0.550 OA
ENDBRANCH   2   3
ENDBRANCH   1   2
BRANCH   1   6
ATOM      6  C   UNL     1      60.206  -2.572  83.489  1.00  0.00     0.000 C 
BRANCH   6   7
ATOM      7  C   UNL     1      59.630  -3.769  82.715  1.00  0.00    -0.000 C 
BRANCH   7   8
ATOM      8  C   UNL     1      58.656  -4.604  83.558  1.00  0.00    -0.003 C 
ATOM      9  C   UNL     1      59.393  -5.690  84.336  1.00  0.00     0.004 C 
ENDBRANCH   7   8
ENDBRANCH   6   7
ENDBRANCH   1   6
TORSDOF 5
ENDMDL
MODEL 9
REMARK VINA RESULT:    -3.405      1.772      2.832
REMARK INTER + INTRA:          -4.776
REMARK INTER:                  -4.470
REMARK INTRA:                  -0.305
REMARK UNBOUND:                -0.375
REMARK SMILES CCCCCCC(=O)[O-]
REMARK SMILES IDX 5 1 6 2 7 3 8 4 9 5 4 6 3 7 2 8 1 9
REMARK H PARENT
REMARK Flexibility Score: inf
ROOT
ATOM      1  C   UNL     1      57.851  -3.126  82.717  1.00  0.00     0.006 C 
ENDROOT
BRANCH   1   2
ATOM      2  C   UNL     1      57.588  -4.290  83.683  1.00  0.00     0.053 C 
BRANCH   2   3
ATOM      3  C   UNL     1      58.797  -5.157  83.848  1.00  0.00     0.041 C 
ATOM      4  O   UNL     1      58.804  -6.081  84.703  1.00  0.00    -0.550 OA
ATOM      5  O   UNL     1      59.931  -4.923  83.080  1.00  0.00    -0.550 OA
ENDBRANCH   2   3
ENDBRANCH   1   2
BRANCH   1   6
ATOM      6  C   UNL     1      58.181  -1.820  83.458  1.00  0.00     0.000 C 
BRANCH   6   7
ATOM      7  C   UNL     1      59.603  -1.317  83.165  1.00  0.00    -0.000 C 
BRANCH   7   8
ATOM      8  C   UNL     1      59.933  -1.318  81.666  1.00  0.00    -0.003 C 
ATOM      9  C   UNL     1      61.381  -1.729  81.421  1.00  0.00     0.004 C 
ENDBRANCH   7   8
ENDBRANCH   6   7
ENDBRANCH   1   6
TORSDOF 5
ENDMDL
