MODEL 1
REMARK VINA RESULT:    -2.818      0.000      0.000
REMARK INTER + INTRA:          -2.818
REMARK INTER:                  -2.818
REMARK INTRA:                   0.000
REMARK UNBOUND:                 0.000
REMARK SMILES CC(=O)[O-]
REMARK SMILES IDX 1 1 2 2 3 3 4 4
REMARK H PARENT
REMARK Flexibility Score: inf
ROOT
ATOM      1  C   UNL     1     134.273 141.124 146.090  1.00  0.00     0.063 C 
ATOM      2  C   UNL     1     132.847 140.686 146.113  1.00  0.00     0.038 C 
ATOM      3  O   UNL     1     132.374 140.027 145.150  1.00  0.00    -0.550 OA
ATOM      4  O   UNL     1     132.024 141.048 147.171  1.00  0.00    -0.550 OA
ENDROOT
TORSDOF 0
ENDMDL
MODEL 2
REMARK VINA RESULT:    -2.639      1.368      2.041
REMARK INTER + INTRA:          -2.639
REMARK INTER:                  -2.639
REMARK INTRA:                   0.000
REMARK UNBOUND:                 0.000
REMARK SMILES CC(=O)[O-]
REMARK SMILES IDX 1 1 2 2 3 3 4 4
REMARK H PARENT
REMARK Flexibility Score: inf
ROOT
ATOM      1  C   UNL     1     132.980 140.938 145.966  1.00  0.00     0.063 C 
ATOM      2  C   UNL     1     131.902 140.691 146.967  1.00  0.00     0.038 C 
ATOM      3  O   UNL     1     132.035 141.096 148.152  1.00  0.00    -0.550 OA
ATOM      4  O   UNL     1     130.772 139.966 146.609  1.00  0.00    -0.550 OA
ENDROOT
TORSDOF 0
ENDMDL
MODEL 3
REMARK VINA RESULT:    -2.477     13.242     13.632
REMARK INTER + INTRA:          -2.477
REMARK INTER:                  -2.477
REMARK INTRA:                   0.000
REMARK UNBOUND:                 0.000
REMARK SMILES CC(=O)[O-]
REMARK SMILES IDX 1 1 2 2 3 3 4 4
REMARK H PARENT
REMARK Flexibility Score: inf
ROOT
ATOM      1  C   UNL     1     130.081 140.707 158.353  1.00  0.00     0.063 C 
ATOM      2  C   UNL     1     129.050 140.018 159.182  1.00  0.00     0.038 C 
ATOM      3  O   UNL     1     129.385 139.084 159.957  1.00  0.00    -0.550 OA
ATOM      4  O   UNL     1     127.712 140.368 159.061  1.00  0.00    -0.550 OA
ENDROOT
TORSDOF 0
ENDMDL
MODEL 4
REMARK VINA RESULT:    -2.420     10.674     10.813
REMARK INTER + INTRA:          -2.420
REMARK INTER:                  -2.420
REMARK INTRA:                   0.000
REMARK UNBOUND:                 0.000
REMARK SMILES CC(=O)[O-]
REMARK SMILES IDX 1 1 2 2 3 3 4 4
REMARK H PARENT
REMARK Flexibility Score: inf
ROOT
ATOM      1  C   UNL     1     132.826 132.839 151.848  1.00  0.00     0.063 C 
ATOM      2  C   UNL     1     133.696 131.638 151.692  1.00  0.00     0.038 C 
ATOM      3  O   UNL     1     133.270 130.501 152.026  1.00  0.00    -0.550 OA
ATOM      4  O   UNL     1     134.998 131.778 151.228  1.00  0.00    -0.550 OA
ENDROOT
TORSDOF 0
ENDMDL
MODEL 5
REMARK VINA RESULT:    -2.373     18.951     19.159
REMARK INTER + INTRA:          -2.373
REMARK INTER:                  -2.373
REMARK INTRA:                   0.000
REMARK UNBOUND:                 0.000
REMARK SMILES CC(=O)[O-]
REMARK SMILES IDX 1 1 2 2 3 3 4 4
REMARK H PARENT
REMARK Flexibility Score: inf
ROOT
ATOM      1  C   UNL     1     126.276 134.114 162.681  1.00  0.00     0.063 C 
ATOM      2  C   UNL     1     125.831 135.487 163.057  1.00  0.00     0.038 C 
ATOM      3  O   UNL     1     126.682 136.376 163.324  1.00  0.00    -0.550 OA
ATOM      4  O   UNL     1     124.477 135.775 163.165  1.00  0.00    -0.550 OA
ENDROOT
TORSDOF 0
ENDMDL
MODEL 6
REMARK VINA RESULT:    -2.335      9.620      9.939
REMARK INTER + INTRA:          -2.335
REMARK INTER:                  -2.335
REMARK INTRA:                   0.000
REMARK UNBOUND:                 0.000
REMARK SMILES CC(=O)[O-]
REMARK SMILES IDX 1 1 2 2 3 3 4 4
REMARK H PARENT
REMARK Flexibility Score: inf
ROOT
ATOM      1  C   UNL     1     125.672 138.445 153.340  1.00  0.00     0.063 C 
ATOM      2  C   UNL     1     125.220 139.160 152.112  1.00  0.00     0.038 C 
ATOM      3  O   UNL     1     124.444 138.592 151.299  1.00  0.00    -0.550 OA
ATOM      4  O   UNL     1     125.696 140.436 151.834  1.00  0.00    -0.550 OA
ENDROOT
TORSDOF 0
ENDMDL
MODEL 7
REMARK VINA RESULT:    -2.246      6.721      7.285
REMARK INTER + INTRA:          -2.246
REMARK INTER:                  -2.246
REMARK INTRA:                   0.000
REMARK UNBOUND:                 0.000
REMARK SMILES CC(=O)[O-]
REMARK SMILES IDX 1 1 2 2 3 3 4 4
REMARK H PARENT
REMARK Flexibility Score: inf
ROOT
ATOM      1  C   UNL     1     141.309 140.754 145.649  1.00  0.00     0.063 C 
ATOM      2  C   UNL     1     139.895 140.388 145.343  1.00  0.00     0.038 C 
ATOM      3  O   UNL     1     138.953 141.122 145.741  1.00  0.00    -0.550 OA
ATOM      4  O   UNL     1     139.613 139.210 144.664  1.00  0.00    -0.550 OA
ENDROOT
TORSDOF 0
ENDMDL
MODEL 8
REMARK VINA RESULT:    -2.163      4.599      5.003
REMARK INTER + INTRA:          -2.163
REMARK INTER:                  -2.163
REMARK INTRA:                   0.000
REMARK UNBOUND:                 0.000
REMARK SMILES CC(=O)[O-]
REMARK SMILES IDX 1 1 2 2 3 3 4 4
REMARK H PARENT
REMARK Flexibility Score: inf
ROOT
ATOM      1  C   UNL     1     138.564 139.066 146.565  1.00  0.00     0.063 C 
ATOM      2  C   UNL     1     137.289 139.390 147.266  1.00  0.00     0.038 C 
ATOM      3  O   UNL     1     137.209 139.275 148.517  1.00  0.00    -0.550 OA
ATOM      4  O   UNL     1     136.170 139.770 146.536  1.00  0.00    -0.550 OA
ENDROOT
TORSDOF 0
ENDMDL
MODEL 9
REMARK VINA RESULT:    -2.132     12.609     13.075
REMARK INTER + INTRA:          -2.132
REMARK INTER:                  -2.132
REMARK INTRA:                   0.000
REMARK UNBOUND:                 0.000
REMARK SMILES CC(=O)[O-]
REMARK SMILES IDX 1 1 2 2 3 3 4 4
REMARK H PARENT
REMARK Flexibility Score: inf
ROOT
ATOM      1  C   UNL     1     128.982 138.900 157.663  1.00  0.00     0.063 C 
ATOM      2  C   UNL     1     128.876 140.148 158.472  1.00  0.00     0.038 C 
ATOM      3  O   UNL     1     127.817 140.404 159.102  1.00  0.00    -0.550 OA
ATOM      4  O   UNL     1     129.927 141.057 158.491  1.00  0.00    -0.550 OA
ENDROOT
TORSDOF 0
ENDMDL
