MODEL 1
REMARK VINA RESULT:    -6.683      0.000      0.000
REMARK INTER + INTRA:          -8.373
REMARK INTER:                  -8.051
REMARK INTRA:                  -0.323
REMARK UNBOUND:                -0.323
REMARK SMILES O=c1c(O)c(-c2ccc(O)c(O)c2)oc2cc(O)cc(O)c12
REMARK SMILES IDX 5 1 3 2 2 3 1 4 22 5 20 6 19 7 17 8 16 9 15 10 14 11 6 12
REMARK SMILES IDX 7 13 8 14 9 15 13 16 11 17 10 18 12 20 4 22 21 24 18 26
REMARK H PARENT 10 19 12 21 4 23 21 25 18 27
REMARK Flexibility Score: inf
ROOT
ATOM      1  C   UNL     1       9.324 -28.098  27.651  1.00  0.00     0.180 A 
ATOM      2  C   UNL     1       8.262 -28.999  27.455  1.00  0.00     0.208 A 
ATOM      3  C   UNL     1       7.812 -29.768  28.539  1.00  0.00     0.238 A 
ATOM      4  O   UNL     1       6.897 -30.610  28.343  1.00  0.00    -0.285 OA
ATOM      5  C   UNL     1       8.417 -29.617  29.809  1.00  0.00     0.111 A 
ATOM      6  C   UNL     1       8.014 -30.316  30.987  1.00  0.00     0.134 A 
ATOM      7  C   UNL     1       8.769 -30.186  32.159  1.00  0.00     0.093 A 
ATOM      8  C   UNL     1       9.872 -29.330  32.214  1.00  0.00     0.123 A 
ATOM      9  C   UNL     1      10.237 -28.598  31.086  1.00  0.00     0.094 A 
ATOM     10  C   UNL     1       9.526 -28.736  29.892  1.00  0.00     0.146 A 
ATOM     11  O   UNL     1       9.914 -28.027  28.838  1.00  0.00    -0.452 OA
ENDROOT
BRANCH   1  12
ATOM     12  C   UNL     1       9.836 -27.235  26.563  1.00  0.00     0.025 A 
ATOM     13  C   UNL     1      10.835 -27.682  25.684  1.00  0.00     0.016 A 
ATOM     14  C   UNL     1      11.286 -26.858  24.651  1.00  0.00     0.051 A 
ATOM     15  C   UNL     1      10.742 -25.582  24.465  1.00  0.00     0.157 A 
ATOM     16  C   UNL     1       9.273 -25.964  26.365  1.00  0.00     0.062 A 
ATOM     17  C   UNL     1       9.719 -25.131  25.332  1.00  0.00     0.158 A 
BRANCH  15  18
ATOM     18  O   UNL     1      11.240 -24.807  23.415  1.00  0.00    -0.504 OA
ATOM     19  H   UNL     1      11.097 -23.811  23.332  1.00  0.00     0.293 HD
ENDBRANCH  15  18
BRANCH  17  20
ATOM     20  O   UNL     1       9.121 -23.876  25.203  1.00  0.00    -0.504 OA
ATOM     21  H   UNL     1       8.123 -23.726  25.160  1.00  0.00     0.293 HD
ENDBRANCH  17  20
ENDBRANCH   1  12
BRANCH   2  22
ATOM     22  O   UNL     1       7.692 -29.148  26.186  1.00  0.00    -0.502 OA
ATOM     23  H   UNL     1       7.923 -29.920  25.573  1.00  0.00     0.293 HD
ENDBRANCH   2  22
BRANCH   6  24
ATOM     24  O   UNL     1       6.875 -31.123  31.065  1.00  0.00    -0.507 OA
ATOM     25  H   UNL     1       6.828 -32.082  30.756  1.00  0.00     0.293 HD
ENDBRANCH   6  24
BRANCH   8  26
ATOM     26  O   UNL     1      10.608 -29.194  33.390  1.00  0.00    -0.508 OA
ATOM     27  H   UNL     1      10.903 -28.286  33.728  1.00  0.00     0.293 HD
ENDBRANCH   8  26
TORSDOF 6
ENDMDL
MODEL 2
REMARK VINA RESULT:    -6.621      8.575     10.334
REMARK INTER + INTRA:          -8.299
REMARK INTER:                  -7.998
REMARK INTRA:                  -0.301
REMARK UNBOUND:                -0.323
REMARK SMILES O=c1c(O)c(-c2ccc(O)c(O)c2)oc2cc(O)cc(O)c12
REMARK SMILES IDX 5 1 3 2 2 3 1 4 22 5 20 6 19 7 17 8 16 9 15 10 14 11 6 12
REMARK SMILES IDX 7 13 8 14 9 15 13 16 11 17 10 18 12 20 4 22 21 24 18 26
REMARK H PARENT 10 19 12 21 4 23 21 25 18 27
REMARK Flexibility Score: inf
ROOT
ATOM      1  C   UNL     1      10.090 -20.918  34.235  1.00  0.00     0.180 A 
ATOM      2  C   UNL     1      10.261 -21.976  35.144  1.00  0.00     0.208 A 
ATOM      3  C   UNL     1      10.301 -23.293  34.658  1.00  0.00     0.238 A 
ATOM      4  O   UNL     1      10.401 -24.238  35.484  1.00  0.00    -0.285 OA
ATOM      5  C   UNL     1      10.187 -23.534  33.269  1.00  0.00     0.111 A 
ATOM      6  C   UNL     1      10.254 -24.825  32.663  1.00  0.00     0.134 A 
ATOM      7  C   UNL     1       9.996 -24.959  31.293  1.00  0.00     0.093 A 
ATOM      8  C   UNL     1       9.740 -23.841  30.496  1.00  0.00     0.123 A 
ATOM      9  C   UNL     1       9.730 -22.571  31.068  1.00  0.00     0.094 A 
ATOM     10  C   UNL     1       9.947 -22.410  32.438  1.00  0.00     0.146 A 
ATOM     11  O   UNL     1       9.920 -21.182  32.945  1.00  0.00    -0.452 OA
ENDROOT
BRANCH   1  12
ATOM     12  C   UNL     1      10.063 -19.503  34.668  1.00  0.00     0.025 A 
ATOM     13  C   UNL     1       8.899 -18.921  35.195  1.00  0.00     0.016 A 
ATOM     14  C   UNL     1       8.905 -17.591  35.618  1.00  0.00     0.051 A 
ATOM     15  C   UNL     1      10.071 -16.820  35.539  1.00  0.00     0.157 A 
ATOM     16  C   UNL     1      11.239 -18.738  34.608  1.00  0.00     0.062 A 
ATOM     17  C   UNL     1      11.255 -17.404  35.030  1.00  0.00     0.158 A 
BRANCH  15  18
ATOM     18  O   UNL     1      10.008 -15.495  35.976  1.00  0.00    -0.504 OA
ATOM     19  H   UNL     1       9.906 -15.224  36.943  1.00  0.00     0.293 HD
ENDBRANCH  15  18
BRANCH  17  20
ATOM     20  O   UNL     1      12.458 -16.702  34.930  1.00  0.00    -0.504 OA
ATOM     21  H   UNL     1      13.341 -17.126  34.681  1.00  0.00     0.293 HD
ENDBRANCH  17  20
ENDBRANCH   1  12
BRANCH   2  22
ATOM     22  O   UNL     1      10.351 -21.717  36.516  1.00  0.00    -0.502 OA
ATOM     23  H   UNL     1      10.302 -22.449  37.212  1.00  0.00     0.293 HD
ENDBRANCH   2  22
BRANCH   6  24
ATOM     24  O   UNL     1      10.594 -25.994  33.350  1.00  0.00    -0.507 OA
ATOM     25  H   UNL     1       9.951 -26.547  33.897  1.00  0.00     0.293 HD
ENDBRANCH   6  24
BRANCH   8  26
ATOM     26  O   UNL     1       9.500 -23.981  29.130  1.00  0.00    -0.508 OA
ATOM     27  H   UNL     1       9.655 -23.216  28.484  1.00  0.00     0.293 HD
ENDBRANCH   8  26
TORSDOF 6
ENDMDL
MODEL 3
REMARK VINA RESULT:    -6.453      5.454      8.685
REMARK INTER + INTRA:          -8.096
REMARK INTER:                  -8.185
REMARK INTRA:                   0.089
REMARK UNBOUND:                -0.323
REMARK SMILES O=c1c(O)c(-c2ccc(O)c(O)c2)oc2cc(O)cc(O)c12
REMARK SMILES IDX 5 1 3 2 2 3 1 4 22 5 20 6 19 7 17 8 16 9 15 10 14 11 6 12
REMARK SMILES IDX 7 13 8 14 9 15 13 16 11 17 10 18 12 20 4 22 21 24 18 26
REMARK H PARENT 10 19 12 21 4 23 21 25 18 27
REMARK Flexibility Score: inf
ROOT
ATOM      1  C   UNL     1      15.396 -25.894  26.455  1.00  0.00     0.180 A 
ATOM      2  C   UNL     1      15.783 -25.372  25.208  1.00  0.00     0.208 A 
ATOM      3  C   UNL     1      14.934 -25.546  24.103  1.00  0.00     0.238 A 
ATOM      4  O   UNL     1      15.311 -25.123  22.980  1.00  0.00    -0.285 OA
ATOM      5  C   UNL     1      13.703 -26.226  24.262  1.00  0.00     0.111 A 
ATOM      6  C   UNL     1      12.748 -26.425  23.220  1.00  0.00     0.134 A 
ATOM      7  C   UNL     1      11.624 -27.226  23.458  1.00  0.00     0.093 A 
ATOM      8  C   UNL     1      11.388 -27.780  24.718  1.00  0.00     0.123 A 
ATOM      9  C   UNL     1      12.284 -27.542  25.757  1.00  0.00     0.094 A 
ATOM     10  C   UNL     1      13.433 -26.778  25.541  1.00  0.00     0.146 A 
ATOM     11  O   UNL     1      14.266 -26.584  26.557  1.00  0.00    -0.452 OA
ENDROOT
BRANCH   1  12
ATOM     12  C   UNL     1      16.225 -25.728  27.670  1.00  0.00     0.025 A 
ATOM     13  C   UNL     1      16.511 -26.812  28.514  1.00  0.00     0.016 A 
ATOM     14  C   UNL     1      17.315 -26.635  29.643  1.00  0.00     0.051 A 
ATOM     15  C   UNL     1      17.860 -25.381  29.942  1.00  0.00     0.157 A 
ATOM     16  C   UNL     1      16.789 -24.474  27.957  1.00  0.00     0.062 A 
ATOM     17  C   UNL     1      17.595 -24.287  29.085  1.00  0.00     0.158 A 
BRANCH  15  18
ATOM     18  O   UNL     1      18.651 -25.271  31.088  1.00  0.00    -0.504 OA
ATOM     19  H   UNL     1      19.614 -25.572  31.139  1.00  0.00     0.293 HD
ENDBRANCH  15  18
BRANCH  17  20
ATOM     20  O   UNL     1      18.112 -23.010  29.314  1.00  0.00    -0.504 OA
ATOM     21  H   UNL     1      18.172 -22.290  28.608  1.00  0.00     0.293 HD
ENDBRANCH  17  20
ENDBRANCH   1  12
BRANCH   2  22
ATOM     22  O   UNL     1      17.013 -24.721  25.069  1.00  0.00    -0.502 OA
ATOM     23  H   UNL     1      17.599 -24.836  24.252  1.00  0.00     0.293 HD
ENDBRANCH   2  22
BRANCH   6  24
ATOM     24  O   UNL     1      12.841 -25.842  21.953  1.00  0.00    -0.507 OA
ATOM     25  H   UNL     1      13.628 -25.944  21.330  1.00  0.00     0.293 HD
ENDBRANCH   6  24
BRANCH   8  26
ATOM     26  O   UNL     1      10.258 -28.563  24.951  1.00  0.00    -0.508 OA
ATOM     27  H   UNL     1       9.959 -29.270  24.290  1.00  0.00     0.293 HD
ENDBRANCH   8  26
TORSDOF 6
ENDMDL
MODEL 4
REMARK VINA RESULT:    -6.383      1.884      7.682
REMARK INTER + INTRA:          -8.011
REMARK INTER:                  -7.684
REMARK INTRA:                  -0.327
REMARK UNBOUND:                -0.323
REMARK SMILES O=c1c(O)c(-c2ccc(O)c(O)c2)oc2cc(O)cc(O)c12
REMARK SMILES IDX 5 1 3 2 2 3 1 4 22 5 20 6 19 7 17 8 16 9 15 10 14 11 6 12
REMARK SMILES IDX 7 13 8 14 9 15 13 16 11 17 10 18 12 20 4 22 21 24 18 26
REMARK H PARENT 10 19 12 21 4 23 21 25 18 27
REMARK Flexibility Score: inf
ROOT
ATOM      1  C   UNL     1      10.185 -26.640  26.016  1.00  0.00     0.180 A 
ATOM      2  C   UNL     1      11.329 -26.919  25.247  1.00  0.00     0.208 A 
ATOM      3  C   UNL     1      11.710 -26.017  24.241  1.00  0.00     0.238 A 
ATOM      4  O   UNL     1      12.703 -26.301  23.521  1.00  0.00    -0.285 OA
ATOM      5  C   UNL     1      10.954 -24.841  24.027  1.00  0.00     0.111 A 
ATOM      6  C   UNL     1      11.272 -23.838  23.061  1.00  0.00     0.134 A 
ATOM      7  C   UNL     1      10.381 -22.780  22.846  1.00  0.00     0.093 A 
ATOM      8  C   UNL     1       9.216 -22.653  23.607  1.00  0.00     0.123 A 
ATOM      9  C   UNL     1       8.927 -23.594  24.592  1.00  0.00     0.094 A 
ATOM     10  C   UNL     1       9.778 -24.681  24.804  1.00  0.00     0.146 A 
ATOM     11  O   UNL     1       9.460 -25.561  25.747  1.00  0.00    -0.452 OA
ENDROOT
BRANCH   1  12
ATOM     12  C   UNL     1       9.735 -27.529  27.111  1.00  0.00     0.025 A 
ATOM     13  C   UNL     1      10.277 -27.431  28.402  1.00  0.00     0.016 A 
ATOM     14  C   UNL     1       9.820 -28.265  29.425  1.00  0.00     0.051 A 
ATOM     15  C   UNL     1       8.807 -29.200  29.185  1.00  0.00     0.157 A 
ATOM     16  C   UNL     1       8.704 -28.452  26.874  1.00  0.00     0.062 A 
ATOM     17  C   UNL     1       8.240 -29.292  27.892  1.00  0.00     0.158 A 
BRANCH  15  18
ATOM     18  O   UNL     1       8.399 -30.007  30.249  1.00  0.00    -0.504 OA
ATOM     19  H   UNL     1       9.015 -30.331  30.980  1.00  0.00     0.293 HD
ENDBRANCH  15  18
BRANCH  17  20
ATOM     20  O   UNL     1       7.220 -30.193  27.580  1.00  0.00    -0.504 OA
ATOM     21  H   UNL     1       6.235 -29.990  27.680  1.00  0.00     0.293 HD
ENDBRANCH  17  20
ENDBRANCH   1  12
BRANCH   2  22
ATOM     22  O   UNL     1      12.049 -28.098  25.462  1.00  0.00    -0.502 OA
ATOM     23  H   UNL     1      11.635 -28.920  25.884  1.00  0.00     0.293 HD
ENDBRANCH   2  22
BRANCH   6  24
ATOM     24  O   UNL     1      12.453 -23.820  22.314  1.00  0.00    -0.507 OA
ATOM     25  H   UNL     1      13.326 -24.230  22.610  1.00  0.00     0.293 HD
ENDBRANCH   6  24
BRANCH   8  26
ATOM     26  O   UNL     1       8.342 -21.587  23.397  1.00  0.00    -0.508 OA
ATOM     27  H   UNL     1       8.394 -20.742  23.953  1.00  0.00     0.293 HD
ENDBRANCH   8  26
TORSDOF 6
ENDMDL
MODEL 5
REMARK VINA RESULT:    -6.368      1.498      2.226
REMARK INTER + INTRA:          -7.994
REMARK INTER:                  -7.672
REMARK INTRA:                  -0.322
REMARK UNBOUND:                -0.323
REMARK SMILES O=c1c(O)c(-c2ccc(O)c(O)c2)oc2cc(O)cc(O)c12
REMARK SMILES IDX 5 1 3 2 2 3 1 4 22 5 20 6 19 7 17 8 16 9 15 10 14 11 6 12
REMARK SMILES IDX 7 13 8 14 9 15 13 16 11 17 10 18 12 20 4 22 21 24 18 26
REMARK H PARENT 10 19 12 21 4 23 21 25 18 27
REMARK Flexibility Score: inf
ROOT
ATOM      1  C   UNL     1       9.287 -26.623  26.150  1.00  0.00     0.180 A 
ATOM      2  C   UNL     1       8.555 -27.732  25.692  1.00  0.00     0.208 A 
ATOM      3  C   UNL     1       8.246 -28.765  26.592  1.00  0.00     0.238 A 
ATOM      4  O   UNL     1       7.637 -29.779  26.162  1.00  0.00    -0.285 OA
ATOM      5  C   UNL     1       8.659 -28.668  27.942  1.00  0.00     0.111 A 
ATOM      6  C   UNL     1       8.367 -29.636  28.949  1.00  0.00     0.134 A 
ATOM      7  C   UNL     1       8.938 -29.503  30.221  1.00  0.00     0.093 A 
ATOM      8  C   UNL     1       9.736 -28.402  30.541  1.00  0.00     0.123 A 
ATOM      9  C   UNL     1       9.978 -27.421  29.581  1.00  0.00     0.094 A 
ATOM     10  C   UNL     1       9.453 -27.546  28.293  1.00  0.00     0.146 A 
ATOM     11  O   UNL     1       9.717 -26.593  27.406  1.00  0.00    -0.452 OA
ENDROOT
BRANCH   1  12
ATOM     12  C   UNL     1       9.628 -25.485  25.267  1.00  0.00     0.025 A 
ATOM     13  C   UNL     1      10.794 -25.489  24.486  1.00  0.00     0.016 A 
ATOM     14  C   UNL     1      11.083 -24.414  23.643  1.00  0.00     0.051 A 
ATOM     15  C   UNL     1      10.211 -23.323  23.552  1.00  0.00     0.157 A 
ATOM     16  C   UNL     1       8.741 -24.402  25.161  1.00  0.00     0.062 A 
ATOM     17  C   UNL     1       9.022 -23.319  24.319  1.00  0.00     0.158 A 
BRANCH  15  18
ATOM     18  O   UNL     1      10.560 -22.278  22.693  1.00  0.00    -0.504 OA
ATOM     19  H   UNL     1      10.106 -21.377  22.688  1.00  0.00     0.293 HD
ENDBRANCH  15  18
BRANCH  17  20
ATOM     20  O   UNL     1       8.100 -22.272  24.274  1.00  0.00    -0.504 OA
ATOM     21  H   UNL     1       8.348 -21.296  24.351  1.00  0.00     0.293 HD
ENDBRANCH  17  20
ENDBRANCH   1  12
BRANCH   2  22
ATOM     22  O   UNL     1       8.175 -27.817  24.348  1.00  0.00    -0.502 OA
ATOM     23  H   UNL     1       7.831 -27.019  23.829  1.00  0.00     0.293 HD
ENDBRANCH   2  22
BRANCH   6  24
ATOM     24  O   UNL     1       7.508 -30.723  28.763  1.00  0.00    -0.507 OA
ATOM     25  H   UNL     1       7.171 -31.041  27.867  1.00  0.00     0.293 HD
ENDBRANCH   6  24
BRANCH   8  26
ATOM     26  O   UNL     1      10.287 -28.268  31.814  1.00  0.00    -0.508 OA
ATOM     27  H   UNL     1      11.290 -28.247  31.957  1.00  0.00     0.293 HD
ENDBRANCH   8  26
TORSDOF 6
ENDMDL
MODEL 6
REMARK VINA RESULT:    -6.298      8.485     10.795
REMARK INTER + INTRA:          -7.910
REMARK INTER:                  -7.610
REMARK INTRA:                  -0.300
REMARK UNBOUND:                -0.323
REMARK SMILES O=c1c(O)c(-c2ccc(O)c(O)c2)oc2cc(O)cc(O)c12
REMARK SMILES IDX 5 1 3 2 2 3 1 4 22 5 20 6 19 7 17 8 16 9 15 10 14 11 6 12
REMARK SMILES IDX 7 13 8 14 9 15 13 16 11 17 10 18 12 20 4 22 21 24 18 26
REMARK H PARENT 10 19 12 21 4 23 21 25 18 27
REMARK Flexibility Score: inf
ROOT
ATOM      1  C   UNL     1      14.066 -23.676  34.170  1.00  0.00     0.180 A 
ATOM      2  C   UNL     1      14.914 -24.560  34.859  1.00  0.00     0.208 A 
ATOM      3  C   UNL     1      16.053 -25.059  34.208  1.00  0.00     0.238 A 
ATOM      4  O   UNL     1      16.778 -25.892  34.812  1.00  0.00    -0.285 OA
ATOM      5  C   UNL     1      16.339 -24.655  32.882  1.00  0.00     0.111 A 
ATOM      6  C   UNL     1      17.487 -25.067  32.140  1.00  0.00     0.134 A 
ATOM      7  C   UNL     1      17.601 -24.710  30.791  1.00  0.00     0.093 A 
ATOM      8  C   UNL     1      16.643 -23.902  30.176  1.00  0.00     0.123 A 
ATOM      9  C   UNL     1      15.549 -23.446  30.909  1.00  0.00     0.094 A 
ATOM     10  C   UNL     1      15.389 -23.816  32.246  1.00  0.00     0.146 A 
ATOM     11  O   UNL     1      14.326 -23.368  32.905  1.00  0.00    -0.452 OA
ENDROOT
BRANCH   1  12
ATOM     12  C   UNL     1      12.861 -23.088  34.798  1.00  0.00     0.025 A 
ATOM     13  C   UNL     1      11.587 -23.643  34.597  1.00  0.00     0.016 A 
ATOM     14  C   UNL     1      10.469 -23.085  35.219  1.00  0.00     0.051 A 
ATOM     15  C   UNL     1      10.599 -21.976  36.063  1.00  0.00     0.157 A 
ATOM     16  C   UNL     1      12.997 -21.989  35.661  1.00  0.00     0.062 A 
ATOM     17  C   UNL     1      11.882 -21.423  36.290  1.00  0.00     0.158 A 
BRANCH  15  18
ATOM     18  O   UNL     1       9.440 -21.464  36.651  1.00  0.00    -0.504 OA
ATOM     19  H   UNL     1       8.618 -22.014  36.850  1.00  0.00     0.293 HD
ENDBRANCH  15  18
BRANCH  17  20
ATOM     20  O   UNL     1      12.091 -20.325  37.125  1.00  0.00    -0.504 OA
ATOM     21  H   UNL     1      11.663 -19.420  36.988  1.00  0.00     0.293 HD
ENDBRANCH  17  20
ENDBRANCH   1  12
BRANCH   2  22
ATOM     22  O   UNL     1      14.600 -24.963  36.162  1.00  0.00    -0.502 OA
ATOM     23  H   UNL     1      14.431 -24.302  36.909  1.00  0.00     0.293 HD
ENDBRANCH   2  22
BRANCH   6  24
ATOM     24  O   UNL     1      18.548 -25.798  32.684  1.00  0.00    -0.507 OA
ATOM     25  H   UNL     1      19.430 -25.402  32.971  1.00  0.00     0.293 HD
ENDBRANCH   6  24
BRANCH   8  26
ATOM     26  O   UNL     1      16.772 -23.538  28.837  1.00  0.00    -0.508 OA
ATOM     27  H   UNL     1      17.243 -22.683  28.564  1.00  0.00     0.293 HD
ENDBRANCH   8  26
TORSDOF 6
ENDMDL
MODEL 7
REMARK VINA RESULT:    -6.258      7.266      9.306
REMARK INTER + INTRA:          -7.861
REMARK INTER:                  -7.571
REMARK INTRA:                  -0.290
REMARK UNBOUND:                -0.323
REMARK SMILES O=c1c(O)c(-c2ccc(O)c(O)c2)oc2cc(O)cc(O)c12
REMARK SMILES IDX 5 1 3 2 2 3 1 4 22 5 20 6 19 7 17 8 16 9 15 10 14 11 6 12
REMARK SMILES IDX 7 13 8 14 9 15 13 16 11 17 10 18 12 20 4 22 21 24 18 26
REMARK H PARENT 10 19 12 21 4 23 21 25 18 27
REMARK Flexibility Score: inf
ROOT
ATOM      1  C   UNL     1      12.765 -24.238  34.182  1.00  0.00     0.180 A 
ATOM      2  C   UNL     1      12.574 -25.006  35.344  1.00  0.00     0.208 A 
ATOM      3  C   UNL     1      13.678 -25.653  35.922  1.00  0.00     0.238 A 
ATOM      4  O   UNL     1      13.491 -26.383  36.930  1.00  0.00    -0.285 OA
ATOM      5  C   UNL     1      14.960 -25.511  35.340  1.00  0.00     0.111 A 
ATOM      6  C   UNL     1      16.156 -26.090  35.864  1.00  0.00     0.134 A 
ATOM      7  C   UNL     1      17.347 -25.993  35.135  1.00  0.00     0.093 A 
ATOM      8  C   UNL     1      17.400 -25.282  33.933  1.00  0.00     0.123 A 
ATOM      9  C   UNL     1      16.252 -24.664  33.444  1.00  0.00     0.094 A 
ATOM     10  C   UNL     1      15.041 -24.774  34.131  1.00  0.00     0.146 A 
ATOM     11  O   UNL     1      13.968 -24.177  33.624  1.00  0.00    -0.452 OA
ENDROOT
BRANCH   1  12
ATOM     12  C   UNL     1      11.655 -23.505  33.531  1.00  0.00     0.025 A 
ATOM     13  C   UNL     1      10.999 -24.023  32.404  1.00  0.00     0.016 A 
ATOM     14  C   UNL     1       9.940 -23.325  31.821  1.00  0.00     0.051 A 
ATOM     15  C   UNL     1       9.504 -22.108  32.357  1.00  0.00     0.157 A 
ATOM     16  C   UNL     1      11.206 -22.295  34.084  1.00  0.00     0.062 A 
ATOM     17  C   UNL     1      10.145 -21.589  33.507  1.00  0.00     0.158 A 
BRANCH  15  18
ATOM     18  O   UNL     1       8.442 -21.459  31.724  1.00  0.00    -0.504 OA
ATOM     19  H   UNL     1       7.477 -21.739  31.812  1.00  0.00     0.293 HD
ENDBRANCH  15  18
BRANCH  17  20
ATOM     20  O   UNL     1       9.760 -20.387  34.104  1.00  0.00    -0.504 OA
ATOM     21  H   UNL     1       9.934 -20.155  35.072  1.00  0.00     0.293 HD
ENDBRANCH  17  20
ENDBRANCH   1  12
BRANCH   2  22
ATOM     22  O   UNL     1      11.295 -25.150  35.890  1.00  0.00    -0.502 OA
ATOM     23  H   UNL     1      11.100 -24.990  36.871  1.00  0.00     0.293 HD
ENDBRANCH   2  22
BRANCH   6  24
ATOM     24  O   UNL     1      16.232 -26.742  37.099  1.00  0.00    -0.507 OA
ATOM     25  H   UNL     1      16.950 -26.581  37.789  1.00  0.00     0.293 HD
ENDBRANCH   6  24
BRANCH   8  26
ATOM     26  O   UNL     1      18.594 -25.177  33.222  1.00  0.00    -0.508 OA
ATOM     27  H   UNL     1      18.667 -25.491  32.261  1.00  0.00     0.293 HD
ENDBRANCH   8  26
TORSDOF 6
ENDMDL
MODEL 8
REMARK VINA RESULT:    -6.255      5.843      9.287
REMARK INTER + INTRA:          -7.857
REMARK INTER:                  -7.561
REMARK INTRA:                  -0.296
REMARK UNBOUND:                -0.323
REMARK SMILES O=c1c(O)c(-c2ccc(O)c(O)c2)oc2cc(O)cc(O)c12
REMARK SMILES IDX 5 1 3 2 2 3 1 4 22 5 20 6 19 7 17 8 16 9 15 10 14 11 6 12
REMARK SMILES IDX 7 13 8 14 9 15 13 16 11 17 10 18 12 20 4 22 21 24 18 26
REMARK H PARENT 10 19 12 21 4 23 21 25 18 27
REMARK Flexibility Score: inf
ROOT
ATOM      1  C   UNL     1      12.362 -25.394  22.485  1.00  0.00     0.180 A 
ATOM      2  C   UNL     1      13.707 -25.071  22.737  1.00  0.00     0.208 A 
ATOM      3  C   UNL     1      14.716 -25.820  22.111  1.00  0.00     0.238 A 
ATOM      4  O   UNL     1      15.918 -25.560  22.382  1.00  0.00    -0.285 OA
ATOM      5  C   UNL     1      14.369 -26.870  21.229  1.00  0.00     0.111 A 
ATOM      6  C   UNL     1      15.309 -27.668  20.509  1.00  0.00     0.134 A 
ATOM      7  C   UNL     1      14.857 -28.766  19.766  1.00  0.00     0.093 A 
ATOM      8  C   UNL     1      13.494 -29.054  19.663  1.00  0.00     0.123 A 
ATOM      9  C   UNL     1      12.565 -28.245  20.314  1.00  0.00     0.094 A 
ATOM     10  C   UNL     1      12.988 -27.166  21.093  1.00  0.00     0.146 A 
ATOM     11  O   UNL     1      12.069 -26.427  21.704  1.00  0.00    -0.452 OA
ENDROOT
BRANCH   1  12
ATOM     12  C   UNL     1      11.243 -24.634  23.088  1.00  0.00     0.025 A 
ATOM     13  C   UNL     1      10.859 -23.380  22.589  1.00  0.00     0.016 A 
ATOM     14  C   UNL     1       9.785 -22.693  23.159  1.00  0.00     0.051 A 
ATOM     15  C   UNL     1       9.067 -23.247  24.225  1.00  0.00     0.157 A 
ATOM     16  C   UNL     1      10.511 -25.201  24.143  1.00  0.00     0.062 A 
ATOM     17  C   UNL     1       9.434 -24.520  24.721  1.00  0.00     0.158 A 
BRANCH  15  18
ATOM     18  O   UNL     1       8.007 -22.506  24.753  1.00  0.00    -0.504 OA
ATOM     19  H   UNL     1       7.083 -22.476  24.347  1.00  0.00     0.293 HD
ENDBRANCH  15  18
BRANCH  17  20
ATOM     20  O   UNL     1       8.759 -25.141  25.774  1.00  0.00    -0.504 OA
ATOM     21  H   UNL     1       9.205 -25.731  26.462  1.00  0.00     0.293 HD
ENDBRANCH  17  20
ENDBRANCH   1  12
BRANCH   2  22
ATOM     22  O   UNL     1      14.028 -24.042  23.628  1.00  0.00    -0.502 OA
ATOM     23  H   UNL     1      13.416 -23.770  24.387  1.00  0.00     0.293 HD
ENDBRANCH   2  22
BRANCH   6  24
ATOM     24  O   UNL     1      16.683 -27.411  20.469  1.00  0.00    -0.507 OA
ATOM     25  H   UNL     1      17.100 -26.499  20.575  1.00  0.00     0.293 HD
ENDBRANCH   6  24
BRANCH   8  26
ATOM     26  O   UNL     1      13.052 -30.138  18.908  1.00  0.00    -0.508 OA
ATOM     27  H   UNL     1      12.206 -30.088  18.354  1.00  0.00     0.293 HD
ENDBRANCH   8  26
TORSDOF 6
ENDMDL
MODEL 9
REMARK VINA RESULT:    -5.102      8.260      9.463
REMARK INTER + INTRA:          -6.469
REMARK INTER:                  -6.153
REMARK INTRA:                  -0.316
REMARK UNBOUND:                -0.323
REMARK SMILES O=c1c(O)c(-c2ccc(O)c(O)c2)oc2cc(O)cc(O)c12
REMARK SMILES IDX 5 1 3 2 2 3 1 4 22 5 20 6 19 7 17 8 16 9 15 10 14 11 6 12
REMARK SMILES IDX 7 13 8 14 9 15 13 16 11 17 10 18 12 20 4 22 21 24 18 26
REMARK H PARENT 10 19 12 21 4 23 21 25 18 27
REMARK Flexibility Score: inf
ROOT
ATOM      1  C   UNL     1      16.587 -24.747  31.970  1.00  0.00     0.180 A 
ATOM      2  C   UNL     1      17.630 -25.131  32.831  1.00  0.00     0.208 A 
ATOM      3  C   UNL     1      17.410 -25.116  34.218  1.00  0.00     0.238 A 
ATOM      4  O   UNL     1      18.365 -25.409  34.983  1.00  0.00    -0.285 OA
ATOM      5  C   UNL     1      16.147 -24.732  34.726  1.00  0.00     0.111 A 
ATOM      6  C   UNL     1      15.801 -24.718  36.111  1.00  0.00     0.134 A 
ATOM      7  C   UNL     1      14.564 -24.196  36.508  1.00  0.00     0.093 A 
ATOM      8  C   UNL     1      13.635 -23.748  35.566  1.00  0.00     0.123 A 
ATOM      9  C   UNL     1      13.940 -23.813  34.209  1.00  0.00     0.094 A 
ATOM     10  C   UNL     1      15.180 -24.295  33.784  1.00  0.00     0.146 A 
ATOM     11  O   UNL     1      15.434 -24.330  32.481  1.00  0.00    -0.452 OA
ENDROOT
BRANCH   1  12
ATOM     12  C   UNL     1      16.734 -24.763  30.497  1.00  0.00     0.025 A 
ATOM     13  C   UNL     1      16.592 -25.949  29.761  1.00  0.00     0.016 A 
ATOM     14  C   UNL     1      16.713 -25.934  28.369  1.00  0.00     0.051 A 
ATOM     15  C   UNL     1      16.962 -24.738  27.686  1.00  0.00     0.157 A 
ATOM     16  C   UNL     1      16.963 -23.558  29.812  1.00  0.00     0.062 A 
ATOM     17  C   UNL     1      17.085 -23.534  28.418  1.00  0.00     0.158 A 
BRANCH  15  18
ATOM     18  O   UNL     1      17.076 -24.793  26.295  1.00  0.00    -0.504 OA
ATOM     19  H   UNL     1      17.941 -24.654  25.794  1.00  0.00     0.293 HD
ENDBRANCH  15  18
BRANCH  17  20
ATOM     20  O   UNL     1      17.323 -22.302  27.806  1.00  0.00    -0.504 OA
ATOM     21  H   UNL     1      16.736 -21.904  27.087  1.00  0.00     0.293 HD
ENDBRANCH  17  20
ENDBRANCH   1  12
BRANCH   2  22
ATOM     22  O   UNL     1      18.878 -25.486  32.308  1.00  0.00    -0.502 OA
ATOM     23  H   UNL     1      19.741 -25.340  32.815  1.00  0.00     0.293 HD
ENDBRANCH   2  22
BRANCH   6  24
ATOM     24  O   UNL     1      16.618 -25.226  37.125  1.00  0.00    -0.507 OA
ATOM     25  H   UNL     1      17.457 -24.781  37.464  1.00  0.00     0.293 HD
ENDBRANCH   6  24
BRANCH   8  26
ATOM     26  O   UNL     1      12.399 -23.245  35.970  1.00  0.00    -0.508 OA
ATOM     27  H   UNL     1      12.158 -23.155  36.949  1.00  0.00     0.293 HD
ENDBRANCH   8  26
TORSDOF 6
ENDMDL
