MODEL 1
REMARK VINA RESULT:    -3.818      0.000      0.000
REMARK INTER + INTRA:          -8.948
REMARK INTER:                  -7.390
REMARK INTRA:                  -1.558
REMARK UNBOUND:                -1.558
REMARK SMILES CCCCCCCCCCCCCCCCCC(=O)[O-]
REMARK SMILES IDX 10 1 11 2 12 3 13 4 14 5 15 6 16 7 17 8 18 9 19 10 20 11
REMARK SMILES IDX 9 12 8 13 7 14 6 15 5 16 4 17 3 18 2 19 1 20
REMARK H PARENT
REMARK Flexibility Score: inf
ROOT
ATOM      1  C   UNL     1       7.721   3.715  52.130  1.00  0.00     0.000 C 
ENDROOT
BRANCH   1   2
ATOM      2  C   UNL     1       6.219   3.679  52.466  1.00  0.00     0.000 C 
BRANCH   2   3
ATOM      3  C   UNL     1       5.341   4.193  51.314  1.00  0.00     0.000 C 
BRANCH   3   4
ATOM      4  C   UNL     1       4.471   5.393  51.725  1.00  0.00     0.000 C 
BRANCH   4   5
ATOM      5  C   UNL     1       3.845   6.113  50.522  1.00  0.00     0.000 C 
BRANCH   5   6
ATOM      6  C   UNL     1       2.751   5.250  49.875  1.00  0.00     0.000 C 
BRANCH   6   7
ATOM      7  C   UNL     1       1.821   4.590  50.909  1.00  0.00     0.006 C 
BRANCH   7   8
ATOM      8  C   UNL     1       0.689   3.750  50.296  1.00  0.00     0.053 C 
BRANCH   8   9
ATOM      9  C   UNL     1      -0.638   4.438  50.399  1.00  0.00     0.041 C 
ATOM     10  O   UNL     1      -0.694   5.677  50.617  1.00  0.00    -0.550 OA
ATOM     11  O   UNL     1      -1.811   3.715  50.222  1.00  0.00    -0.550 OA
ENDBRANCH   8   9
ENDBRANCH   7   8
ENDBRANCH   6   7
ENDBRANCH   5   6
ENDBRANCH   4   5
ENDBRANCH   3   4
ENDBRANCH   2   3
ENDBRANCH   1   2
BRANCH   1  12
ATOM     12  C   UNL     1       8.084   3.292  50.692  1.00  0.00     0.000 C 
BRANCH  12  13
ATOM     13  C   UNL     1       9.123   2.158  50.582  1.00  0.00    -0.000 C 
BRANCH  13  14
ATOM     14  C   UNL     1      10.588   2.623  50.501  1.00  0.00    -0.000 C 
BRANCH  14  15
ATOM     15  C   UNL     1      11.262   2.722  51.881  1.00  0.00    -0.000 C 
BRANCH  15  16
ATOM     16  C   UNL     1      12.070   4.028  52.046  1.00  0.00    -0.000 C 
BRANCH  16  17
ATOM     17  C   UNL     1      12.142   4.886  50.768  1.00  0.00    -0.000 C 
BRANCH  17  18
ATOM     18  C   UNL     1      11.623   6.326  50.920  1.00  0.00    -0.000 C 
BRANCH  18  19
ATOM     19  C   UNL     1      10.161   6.388  51.384  1.00  0.00    -0.003 C 
ATOM     20  C   UNL     1       9.238   6.759  50.227  1.00  0.00     0.004 C 
ENDBRANCH  18  19
ENDBRANCH  17  18
ENDBRANCH  16  17
ENDBRANCH  15  16
ENDBRANCH  14  15
ENDBRANCH  13  14
ENDBRANCH  12  13
ENDBRANCH   1  12
TORSDOF 16
ENDMDL
MODEL 2
REMARK VINA RESULT:    -3.754      3.535      7.395
REMARK INTER + INTRA:          -8.823
REMARK INTER:                  -7.143
REMARK INTRA:                  -1.680
REMARK UNBOUND:                -1.558
REMARK SMILES CCCCCCCCCCCCCCCCCC(=O)[O-]
REMARK SMILES IDX 10 1 11 2 12 3 13 4 14 5 15 6 16 7 17 8 18 9 19 10 20 11
REMARK SMILES IDX 9 12 8 13 7 14 6 15 5 16 4 17 3 18 2 19 1 20
REMARK H PARENT
REMARK Flexibility Score: inf
ROOT
ATOM      1  C   UNL     1       8.851   1.971  50.027  1.00  0.00     0.000 C 
ENDROOT
BRANCH   1   2
ATOM      2  C   UNL     1       9.911   2.568  50.969  1.00  0.00     0.000 C 
BRANCH   2   3
ATOM      3  C   UNL     1      10.589   3.818  50.385  1.00  0.00     0.000 C 
BRANCH   3   4
ATOM      4  C   UNL     1       9.581   4.920  50.021  1.00  0.00     0.000 C 
BRANCH   4   5
ATOM      5  C   UNL     1       9.346   5.914  51.169  1.00  0.00     0.000 C 
BRANCH   5   6
ATOM      6  C   UNL     1       9.910   5.369  52.490  1.00  0.00     0.000 C 
BRANCH   6   7
ATOM      7  C   UNL     1       8.817   4.819  53.425  1.00  0.00     0.006 C 
BRANCH   7   8
ATOM      8  C   UNL     1       8.624   5.630  54.716  1.00  0.00     0.053 C 
BRANCH   8   9
ATOM      9  C   UNL     1       7.763   4.908  55.707  1.00  0.00     0.041 C 
ATOM     10  O   UNL     1       6.614   4.512  55.378  1.00  0.00    -0.550 OA
ATOM     11  O   UNL     1       8.243   4.645  56.983  1.00  0.00    -0.550 OA
ENDBRANCH   8   9
ENDBRANCH   7   8
ENDBRANCH   6   7
ENDBRANCH   5   6
ENDBRANCH   4   5
ENDBRANCH   3   4
ENDBRANCH   2   3
ENDBRANCH   1   2
BRANCH   1  12
ATOM     12  C   UNL     1       7.427   1.880  50.611  1.00  0.00     0.000 C 
BRANCH  12  13
ATOM     13  C   UNL     1       6.510   3.080  50.302  1.00  0.00    -0.000 C 
BRANCH  13  14
ATOM     14  C   UNL     1       5.767   3.663  51.518  1.00  0.00    -0.000 C 
BRANCH  14  15
ATOM     15  C   UNL     1       5.742   5.202  51.522  1.00  0.00    -0.000 C 
BRANCH  15  16
ATOM     16  C   UNL     1       4.311   5.765  51.377  1.00  0.00    -0.000 C 
BRANCH  16  17
ATOM     17  C   UNL     1       3.536   5.204  50.168  1.00  0.00    -0.000 C 
BRANCH  17  18
ATOM     18  C   UNL     1       2.005   5.256  50.296  1.00  0.00    -0.000 C 
BRANCH  18  19
ATOM     19  C   UNL     1       1.390   3.898  50.664  1.00  0.00    -0.003 C 
ATOM     20  C   UNL     1       2.055   2.769  49.882  1.00  0.00     0.004 C 
ENDBRANCH  18  19
ENDBRANCH  17  18
ENDBRANCH  16  17
ENDBRANCH  15  16
ENDBRANCH  14  15
ENDBRANCH  13  14
ENDBRANCH  12  13
ENDBRANCH   1  12
TORSDOF 16
ENDMDL
MODEL 3
REMARK VINA RESULT:    -3.587      4.032      8.383
REMARK INTER + INTRA:          -8.501
REMARK INTER:                  -7.286
REMARK INTRA:                  -1.215
REMARK UNBOUND:                -1.558
REMARK SMILES CCCCCCCCCCCCCCCCCC(=O)[O-]
REMARK SMILES IDX 10 1 11 2 12 3 13 4 14 5 15 6 16 7 17 8 18 9 19 10 20 11
REMARK SMILES IDX 9 12 8 13 7 14 6 15 5 16 4 17 3 18 2 19 1 20
REMARK H PARENT
REMARK Flexibility Score: inf
ROOT
ATOM      1  C   UNL     1       7.051   4.436  53.769  1.00  0.00     0.000 C 
ENDROOT
BRANCH   1   2
ATOM      2  C   UNL     1       8.488   4.242  53.254  1.00  0.00     0.000 C 
BRANCH   2   3
ATOM      3  C   UNL     1       9.380   5.469  53.504  1.00  0.00     0.000 C 
BRANCH   3   4
ATOM      4  C   UNL     1       9.796   6.172  52.202  1.00  0.00     0.000 C 
BRANCH   4   5
ATOM      5  C   UNL     1      11.244   6.682  52.238  1.00  0.00     0.000 C 
BRANCH   5   6
ATOM      6  C   UNL     1      11.918   6.515  50.868  1.00  0.00     0.000 C 
BRANCH   6   7
ATOM      7  C   UNL     1      11.976   5.048  50.404  1.00  0.00     0.006 C 
BRANCH   7   8
ATOM      8  C   UNL     1      12.251   4.040  51.531  1.00  0.00     0.053 C 
BRANCH   8   9
ATOM      9  C   UNL     1      11.342   2.852  51.454  1.00  0.00     0.041 C 
ATOM     10  O   UNL     1      10.666   2.638  50.414  1.00  0.00    -0.550 OA
ATOM     11  O   UNL     1      11.266   1.965  52.520  1.00  0.00    -0.550 OA
ENDBRANCH   8   9
ENDBRANCH   7   8
ENDBRANCH   6   7
ENDBRANCH   5   6
ENDBRANCH   4   5
ENDBRANCH   3   4
ENDBRANCH   2   3
ENDBRANCH   1   2
BRANCH   1  12
ATOM     12  C   UNL     1       5.938   4.118  52.749  1.00  0.00     0.000 C 
BRANCH  12  13
ATOM     13  C   UNL     1       6.359   4.196  51.268  1.00  0.00    -0.000 C 
BRANCH  13  14
ATOM     14  C   UNL     1       6.686   5.610  50.757  1.00  0.00    -0.000 C 
BRANCH  14  15
ATOM     15  C   UNL     1       5.572   6.200  49.875  1.00  0.00    -0.000 C 
BRANCH  15  16
ATOM     16  C   UNL     1       4.360   6.680  50.704  1.00  0.00    -0.000 C 
BRANCH  16  17
ATOM     17  C   UNL     1       2.997   6.404  50.039  1.00  0.00    -0.000 C 
BRANCH  17  18
ATOM     18  C   UNL     1       2.630   4.918  49.900  1.00  0.00    -0.000 C 
BRANCH  18  19
ATOM     19  C   UNL     1       1.641   4.443  50.974  1.00  0.00    -0.003 C 
ATOM     20  C   UNL     1       0.204   4.765  50.572  1.00  0.00     0.004 C 
ENDBRANCH  18  19
ENDBRANCH  17  18
ENDBRANCH  16  17
ENDBRANCH  15  16
ENDBRANCH  14  15
ENDBRANCH  13  14
ENDBRANCH  12  13
ENDBRANCH   1  12
TORSDOF 16
ENDMDL
MODEL 4
REMARK VINA RESULT:    -3.244      4.350     10.421
REMARK INTER + INTRA:          -7.836
REMARK INTER:                  -6.899
REMARK INTRA:                  -0.937
REMARK UNBOUND:                -1.558
REMARK SMILES CCCCCCCCCCCCCCCCCC(=O)[O-]
REMARK SMILES IDX 10 1 11 2 12 3 13 4 14 5 15 6 16 7 17 8 18 9 19 10 20 11
REMARK SMILES IDX 9 12 8 13 7 14 6 15 5 16 4 17 3 18 2 19 1 20
REMARK H PARENT
REMARK Flexibility Score: inf
ROOT
ATOM      1  C   UNL     1       3.958   4.875  50.538  1.00  0.00     0.000 C 
ENDROOT
BRANCH   1   2
ATOM      2  C   UNL     1       4.933   5.028  51.720  1.00  0.00     0.000 C 
BRANCH   2   3
ATOM      3  C   UNL     1       5.962   3.888  51.792  1.00  0.00     0.000 C 
BRANCH   3   4
ATOM      4  C   UNL     1       7.318   4.279  51.181  1.00  0.00     0.000 C 
BRANCH   4   5
ATOM      5  C   UNL     1       8.411   3.231  51.440  1.00  0.00     0.000 C 
BRANCH   5   6
ATOM      6  C   UNL     1       9.394   3.718  52.515  1.00  0.00     0.000 C 
BRANCH   6   7
ATOM      7  C   UNL     1       9.435   5.252  52.636  1.00  0.00     0.006 C 
BRANCH   7   8
ATOM      8  C   UNL     1      10.835   5.863  52.464  1.00  0.00     0.053 C 
BRANCH   8   9
ATOM      9  C   UNL     1      11.395   5.603  51.099  1.00  0.00     0.041 C 
ATOM     10  O   UNL     1      12.508   5.028  50.970  1.00  0.00    -0.550 OA
ATOM     11  O   UNL     1      10.673   5.969  49.970  1.00  0.00    -0.550 OA
ENDBRANCH   8   9
ENDBRANCH   7   8
ENDBRANCH   6   7
ENDBRANCH   5   6
ENDBRANCH   4   5
ENDBRANCH   3   4
ENDBRANCH   2   3
ENDBRANCH   1   2
BRANCH   1  12
ATOM     12  C   UNL     1       3.158   3.557  50.512  1.00  0.00     0.000 C 
BRANCH  12  13
ATOM     13  C   UNL     1       1.728   3.666  49.946  1.00  0.00    -0.000 C 
BRANCH  13  14
ATOM     14  C   UNL     1       0.770   4.553  50.762  1.00  0.00    -0.000 C 
BRANCH  14  15
ATOM     15  C   UNL     1      -0.094   5.470  49.879  1.00  0.00    -0.000 C 
BRANCH  15  16
ATOM     16  C   UNL     1      -1.600   5.148  49.997  1.00  0.00    -0.000 C 
BRANCH  16  17
ATOM     17  C   UNL     1      -1.923   3.642  49.953  1.00  0.00    -0.000 C 
BRANCH  17  18
ATOM     18  C   UNL     1      -3.249   3.241  50.620  1.00  0.00    -0.000 C 
BRANCH  18  19
ATOM     19  C   UNL     1      -4.435   4.099  50.156  1.00  0.00    -0.003 C 
ATOM     20  C   UNL     1      -5.743   3.591  50.757  1.00  0.00     0.004 C 
ENDBRANCH  18  19
ENDBRANCH  17  18
ENDBRANCH  16  17
ENDBRANCH  15  16
ENDBRANCH  14  15
ENDBRANCH  13  14
ENDBRANCH  12  13
ENDBRANCH   1  12
TORSDOF 16
ENDMDL
MODEL 5
REMARK VINA RESULT:    -3.234      2.439      4.379
REMARK INTER + INTRA:          -7.817
REMARK INTER:                  -7.203
REMARK INTRA:                  -0.614
REMARK UNBOUND:                -1.558
REMARK SMILES CCCCCCCCCCCCCCCCCC(=O)[O-]
REMARK SMILES IDX 10 1 11 2 12 3 13 4 14 5 15 6 16 7 17 8 18 9 19 10 20 11
REMARK SMILES IDX 9 12 8 13 7 14 6 15 5 16 4 17 3 18 2 19 1 20
REMARK H PARENT
REMARK Flexibility Score: inf
ROOT
ATOM      1  C   UNL     1       3.496   4.362  50.954  1.00  0.00     0.000 C 
ENDROOT
BRANCH   1   2
ATOM      2  C   UNL     1       1.970   4.163  50.931  1.00  0.00     0.000 C 
BRANCH   2   3
ATOM      3  C   UNL     1       1.228   5.337  50.271  1.00  0.00     0.000 C 
BRANCH   3   4
ATOM      4  C   UNL     1      -0.279   5.327  50.574  1.00  0.00     0.000 C 
BRANCH   4   5
ATOM      5  C   UNL     1      -1.000   4.113  49.967  1.00  0.00     0.000 C 
BRANCH   5   6
ATOM      6  C   UNL     1      -2.512   4.364  49.875  1.00  0.00     0.000 C 
BRANCH   6   7
ATOM      7  C   UNL     1      -3.348   3.168  50.365  1.00  0.00     0.006 C 
BRANCH   7   8
ATOM      8  C   UNL     1      -4.836   3.239  49.988  1.00  0.00     0.053 C 
BRANCH   8   9
ATOM      9  C   UNL     1      -5.620   4.070  50.956  1.00  0.00     0.041 C 
ATOM     10  O   UNL     1      -6.021   3.570  52.041  1.00  0.00    -0.550 OA
ATOM     11  O   UNL     1      -5.881   5.405  50.676  1.00  0.00    -0.550 OA
ENDBRANCH   8   9
ENDBRANCH   7   8
ENDBRANCH   6   7
ENDBRANCH   5   6
ENDBRANCH   4   5
ENDBRANCH   3   4
ENDBRANCH   2   3
ENDBRANCH   1   2
BRANCH   1  12
ATOM     12  C   UNL     1       4.305   3.347  50.121  1.00  0.00     0.000 C 
BRANCH  12  13
ATOM     13  C   UNL     1       5.831   3.564  50.120  1.00  0.00    -0.000 C 
BRANCH  13  14
ATOM     14  C   UNL     1       6.628   2.594  51.011  1.00  0.00    -0.000 C 
BRANCH  14  15
ATOM     15  C   UNL     1       7.266   3.288  52.228  1.00  0.00    -0.000 C 
BRANCH  15  16
ATOM     16  C   UNL     1       8.654   3.883  51.901  1.00  0.00    -0.000 C 
BRANCH  16  17
ATOM     17  C   UNL     1       8.626   5.384  51.551  1.00  0.00    -0.000 C 
BRANCH  17  18
ATOM     18  C   UNL     1       9.996   6.003  51.231  1.00  0.00    -0.000 C 
BRANCH  18  19
ATOM     19  C   UNL     1      11.113   5.491  52.151  1.00  0.00    -0.003 C 
ATOM     20  C   UNL     1      12.166   4.725  51.355  1.00  0.00     0.004 C 
ENDBRANCH  18  19
ENDBRANCH  17  18
ENDBRANCH  16  17
ENDBRANCH  15  16
ENDBRANCH  14  15
ENDBRANCH  13  14
ENDBRANCH  12  13
ENDBRANCH   1  12
TORSDOF 16
ENDMDL
MODEL 6
REMARK VINA RESULT:    -3.186      4.046      9.740
REMARK INTER + INTRA:          -7.724
REMARK INTER:                  -6.748
REMARK INTRA:                  -0.976
REMARK UNBOUND:                -1.558
REMARK SMILES CCCCCCCCCCCCCCCCCC(=O)[O-]
REMARK SMILES IDX 10 1 11 2 12 3 13 4 14 5 15 6 16 7 17 8 18 9 19 10 20 11
REMARK SMILES IDX 9 12 8 13 7 14 6 15 5 16 4 17 3 18 2 19 1 20
REMARK H PARENT
REMARK Flexibility Score: inf
ROOT
ATOM      1  C   UNL     1       4.952   5.403  51.761  1.00  0.00     0.000 C 
ENDROOT
BRANCH   1   2
ATOM      2  C   UNL     1       6.158   4.488  52.039  1.00  0.00     0.000 C 
BRANCH   2   3
ATOM      3  C   UNL     1       5.926   3.042  51.573  1.00  0.00     0.000 C 
BRANCH   3   4
ATOM      4  C   UNL     1       7.215   2.369  51.073  1.00  0.00     0.000 C 
BRANCH   4   5
ATOM      5  C   UNL     1       8.360   3.369  50.852  1.00  0.00     0.000 C 
BRANCH   5   6
ATOM      6  C   UNL     1       9.480   3.155  51.880  1.00  0.00     0.000 C 
BRANCH   6   7
ATOM      7  C   UNL     1      10.886   3.222  51.256  1.00  0.00     0.006 C 
BRANCH   7   8
ATOM      8  C   UNL     1      11.797   4.299  51.865  1.00  0.00     0.053 C 
BRANCH   8   9
ATOM      9  C   UNL     1      11.244   5.677  51.670  1.00  0.00     0.041 C 
ATOM     10  O   UNL     1      11.107   6.450  52.655  1.00  0.00    -0.550 OA
ATOM     11  O   UNL     1      10.909   6.118  50.396  1.00  0.00    -0.550 OA
ENDBRANCH   8   9
ENDBRANCH   7   8
ENDBRANCH   6   7
ENDBRANCH   5   6
ENDBRANCH   4   5
ENDBRANCH   3   4
ENDBRANCH   2   3
ENDBRANCH   1   2
BRANCH   1  12
ATOM     12  C   UNL     1       4.247   5.171  50.409  1.00  0.00     0.000 C 
BRANCH  12  13
ATOM     13  C   UNL     1       2.929   5.945  50.211  1.00  0.00    -0.000 C 
BRANCH  13  14
ATOM     14  C   UNL     1       1.653   5.089  50.290  1.00  0.00    -0.000 C 
BRANCH  14  15
ATOM     15  C   UNL     1       1.907   3.688  50.875  1.00  0.00    -0.000 C 
BRANCH  15  16
ATOM     16  C   UNL     1       0.715   2.732  50.646  1.00  0.00    -0.000 C 
BRANCH  16  17
ATOM     17  C   UNL     1      -0.626   3.451  50.402  1.00  0.00    -0.000 C 
BRANCH  17  18
ATOM     18  C   UNL     1      -1.808   2.526  50.065  1.00  0.00    -0.000 C 
BRANCH  18  19
ATOM     19  C   UNL     1      -2.892   2.521  51.153  1.00  0.00    -0.003 C 
ATOM     20  C   UNL     1      -4.188   3.136  50.631  1.00  0.00     0.004 C 
ENDBRANCH  18  19
ENDBRANCH  17  18
ENDBRANCH  16  17
ENDBRANCH  15  16
ENDBRANCH  14  15
ENDBRANCH  13  14
ENDBRANCH  12  13
ENDBRANCH   1  12
TORSDOF 16
ENDMDL
MODEL 7
REMARK VINA RESULT:    -2.971      2.010      3.862
REMARK INTER + INTRA:          -7.309
REMARK INTER:                  -6.051
REMARK INTRA:                  -1.258
REMARK UNBOUND:                -1.558
REMARK SMILES CCCCCCCCCCCCCCCCCC(=O)[O-]
REMARK SMILES IDX 10 1 11 2 12 3 13 4 14 5 15 6 16 7 17 8 18 9 19 10 20 11
REMARK SMILES IDX 9 12 8 13 7 14 6 15 5 16 4 17 3 18 2 19 1 20
REMARK H PARENT
REMARK Flexibility Score: inf
ROOT
ATOM      1  C   UNL     1       9.356   5.000  54.066  1.00  0.00     0.000 C 
ENDROOT
BRANCH   1   2
ATOM      2  C   UNL     1       8.516   5.751  55.116  1.00  0.00     0.000 C 
BRANCH   2   3
ATOM      3  C   UNL     1       7.454   4.857  55.776  1.00  0.00     0.000 C 
BRANCH   3   4
ATOM      4  C   UNL     1       6.560   4.145  54.747  1.00  0.00     0.000 C 
BRANCH   4   5
ATOM      5  C   UNL     1       6.136   5.064  53.591  1.00  0.00     0.000 C 
BRANCH   5   6
ATOM      6  C   UNL     1       5.726   4.241  52.361  1.00  0.00     0.000 C 
BRANCH   6   7
ATOM      7  C   UNL     1       5.409   5.116  51.135  1.00  0.00     0.006 C 
BRANCH   7   8
ATOM      8  C   UNL     1       4.121   5.943  51.264  1.00  0.00     0.053 C 
BRANCH   8   9
ATOM      9  C   UNL     1       2.975   5.316  50.531  1.00  0.00     0.041 C 
ATOM     10  O   UNL     1       1.946   5.992  50.266  1.00  0.00    -0.550 OA
ATOM     11  O   UNL     1       3.058   3.994  50.113  1.00  0.00    -0.550 OA
ENDBRANCH   8   9
ENDBRANCH   7   8
ENDBRANCH   6   7
ENDBRANCH   5   6
ENDBRANCH   4   5
ENDBRANCH   3   4
ENDBRANCH   2   3
ENDBRANCH   1   2
BRANCH   1  12
ATOM     12  C   UNL     1       9.359   5.625  52.656  1.00  0.00     0.000 C 
BRANCH  12  13
ATOM     13  C   UNL     1      10.676   6.314  52.244  1.00  0.00    -0.000 C 
BRANCH  13  14
ATOM     14  C   UNL     1      11.500   5.561  51.184  1.00  0.00    -0.000 C 
BRANCH  14  15
ATOM     15  C   UNL     1      12.210   4.319  51.749  1.00  0.00    -0.000 C 
BRANCH  15  16
ATOM     16  C   UNL     1      11.382   3.030  51.554  1.00  0.00    -0.000 C 
BRANCH  16  17
ATOM     17  C   UNL     1      10.736   2.905  50.160  1.00  0.00    -0.000 C 
BRANCH  17  18
ATOM     18  C   UNL     1       9.516   1.972  50.089  1.00  0.00    -0.000 C 
BRANCH  18  19
ATOM     19  C   UNL     1       8.299   2.520  50.848  1.00  0.00    -0.003 C 
ATOM     20  C   UNL     1       7.010   1.876  50.348  1.00  0.00     0.004 C 
ENDBRANCH  18  19
ENDBRANCH  17  18
ENDBRANCH  16  17
ENDBRANCH  15  16
ENDBRANCH  14  15
ENDBRANCH  13  14
ENDBRANCH  12  13
ENDBRANCH   1  12
TORSDOF 16
ENDMDL
MODEL 8
REMARK VINA RESULT:    -2.802     18.943     21.313
REMARK INTER + INTRA:          -6.981
REMARK INTER:                  -6.294
REMARK INTRA:                  -0.687
REMARK UNBOUND:                -1.558
REMARK SMILES CCCCCCCCCCCCCCCCCC(=O)[O-]
REMARK SMILES IDX 10 1 11 2 12 3 13 4 14 5 15 6 16 7 17 8 18 9 19 10 20 11
REMARK SMILES IDX 9 12 8 13 7 14 6 15 5 16 4 17 3 18 2 19 1 20
REMARK H PARENT
REMARK Flexibility Score: inf
ROOT
ATOM      1  C   UNL     1      11.483  18.479  64.039  1.00  0.00     0.000 C 
ENDROOT
BRANCH   1   2
ATOM      2  C   UNL     1      12.083  17.456  63.057  1.00  0.00     0.000 C 
BRANCH   2   3
ATOM      3  C   UNL     1      12.497  16.145  63.745  1.00  0.00     0.000 C 
BRANCH   3   4
ATOM      4  C   UNL     1      11.289  15.333  64.243  1.00  0.00     0.000 C 
BRANCH   4   5
ATOM      5  C   UNL     1      11.680  14.245  65.254  1.00  0.00     0.000 C 
BRANCH   5   6
ATOM      6  C   UNL     1      12.995  13.564  64.845  1.00  0.00     0.000 C 
BRANCH   6   7
ATOM      7  C   UNL     1      13.060  12.086  65.268  1.00  0.00     0.006 C 
BRANCH   7   8
ATOM      8  C   UNL     1      13.486  11.125  64.147  1.00  0.00     0.053 C 
BRANCH   8   9
ATOM      9  C   UNL     1      12.418  10.123  63.832  1.00  0.00     0.041 C 
ATOM     10  O   UNL     1      12.600   9.266  62.927  1.00  0.00    -0.550 OA
ATOM     11  O   UNL     1      11.235  10.116  64.559  1.00  0.00    -0.550 OA
ENDBRANCH   8   9
ENDBRANCH   7   8
ENDBRANCH   6   7
ENDBRANCH   5   6
ENDBRANCH   4   5
ENDBRANCH   3   4
ENDBRANCH   2   3
ENDBRANCH   1   2
BRANCH   1  12
ATOM     12  C   UNL     1      12.480  19.509  64.607  1.00  0.00     0.000 C 
BRANCH  12  13
ATOM     13  C   UNL     1      11.844  20.761  65.242  1.00  0.00    -0.000 C 
BRANCH  13  14
ATOM     14  C   UNL     1      12.677  21.423  66.354  1.00  0.00    -0.000 C 
BRANCH  14  15
ATOM     15  C   UNL     1      11.874  21.655  67.646  1.00  0.00    -0.000 C 
BRANCH  15  16
ATOM     16  C   UNL     1      10.363  21.823  67.374  1.00  0.00    -0.000 C 
BRANCH  16  17
ATOM     17  C   UNL     1       9.472  21.566  68.606  1.00  0.00    -0.000 C 
BRANCH  17  18
ATOM     18  C   UNL     1       8.039  22.112  68.498  1.00  0.00    -0.000 C 
BRANCH  18  19
ATOM     19  C   UNL     1       6.972  21.013  68.589  1.00  0.00    -0.003 C 
ATOM     20  C   UNL     1       5.759  21.359  67.729  1.00  0.00     0.004 C 
ENDBRANCH  18  19
ENDBRANCH  17  18
ENDBRANCH  16  17
ENDBRANCH  15  16
ENDBRANCH  14  15
ENDBRANCH  13  14
ENDBRANCH  12  13
ENDBRANCH   1  12
TORSDOF 16
ENDMDL
MODEL 9
REMARK VINA RESULT:    -2.760      3.775      9.142
REMARK INTER + INTRA:          -6.900
REMARK INTER:                  -6.263
REMARK INTRA:                  -0.638
REMARK UNBOUND:                -1.558
REMARK SMILES CCCCCCCCCCCCCCCCCC(=O)[O-]
REMARK SMILES IDX 10 1 11 2 12 3 13 4 14 5 15 6 16 7 17 8 18 9 19 10 20 11
REMARK SMILES IDX 9 12 8 13 7 14 6 15 5 16 4 17 3 18 2 19 1 20
REMARK H PARENT
REMARK Flexibility Score: inf
ROOT
ATOM      1  C   UNL     1       6.923   4.134  52.995  1.00  0.00     0.000 C 
ENDROOT
BRANCH   1   2
ATOM      2  C   UNL     1       8.112   3.411  52.337  1.00  0.00     0.000 C 
BRANCH   2   3
ATOM      3  C   UNL     1       7.674   2.233  51.452  1.00  0.00     0.000 C 
BRANCH   3   4
ATOM      4  C   UNL     1       8.362   2.242  50.076  1.00  0.00     0.000 C 
BRANCH   4   5
ATOM      5  C   UNL     1       9.295   3.448  49.886  1.00  0.00     0.000 C 
BRANCH   5   6
ATOM      6  C   UNL     1      10.764   3.036  50.063  1.00  0.00     0.000 C 
BRANCH   6   7
ATOM      7  C   UNL     1      11.413   3.657  51.313  1.00  0.00     0.006 C 
BRANCH   7   8
ATOM      8  C   UNL     1      11.884   5.108  51.126  1.00  0.00     0.053 C 
BRANCH   8   9
ATOM      9  C   UNL     1      10.990   6.083  51.829  1.00  0.00     0.041 C 
ATOM     10  O   UNL     1      11.149   6.317  53.056  1.00  0.00    -0.550 OA
ATOM     11  O   UNL     1      10.001   6.755  51.121  1.00  0.00    -0.550 OA
ENDBRANCH   8   9
ENDBRANCH   7   8
ENDBRANCH   6   7
ENDBRANCH   5   6
ENDBRANCH   4   5
ENDBRANCH   3   4
ENDBRANCH   2   3
ENDBRANCH   1   2
BRANCH   1  12
ATOM     12  C   UNL     1       5.530   3.605  52.599  1.00  0.00     0.000 C 
BRANCH  12  13
ATOM     13  C   UNL     1       5.082   3.937  51.162  1.00  0.00    -0.000 C 
BRANCH  13  14
ATOM     14  C   UNL     1       3.918   4.939  51.058  1.00  0.00    -0.000 C 
BRANCH  14  15
ATOM     15  C   UNL     1       2.782   4.444  50.145  1.00  0.00    -0.000 C 
BRANCH  15  16
ATOM     16  C   UNL     1       1.507   4.083  50.939  1.00  0.00    -0.000 C 
BRANCH  16  17
ATOM     17  C   UNL     1       0.219   4.089  50.092  1.00  0.00    -0.000 C 
BRANCH  17  18
ATOM     18  C   UNL     1      -0.595   5.392  50.155  1.00  0.00    -0.000 C 
BRANCH  18  19
ATOM     19  C   UNL     1      -2.089   5.178  49.875  1.00  0.00    -0.003 C 
ATOM     20  C   UNL     1      -2.507   3.749  50.213  1.00  0.00     0.004 C 
ENDBRANCH  18  19
ENDBRANCH  17  18
ENDBRANCH  16  17
ENDBRANCH  15  16
ENDBRANCH  14  15
ENDBRANCH  13  14
ENDBRANCH  12  13
ENDBRANCH   1  12
TORSDOF 16
ENDMDL
