MODEL 1
REMARK VINA RESULT:    -7.169      0.000      0.000
REMARK INTER + INTRA:         -11.742
REMARK INTER:                 -10.522
REMARK INTRA:                  -1.220
REMARK UNBOUND:                -1.220
REMARK SMILES O=c1c(O[C@H]2O[C@H](CO)[C@@H](O)[C@H](O)[C@@H]2O)c(-c2ccc(O)c(O)c2)oc2cc(O)cc(O)c12
REMARK SMILES IDX 4 1 3 2 16 3 25 4 2 5 26 6 1 7 33 8 27 9 31 10 28 11 30 12
REMARK SMILES IDX 17 13 18 14 19 15 20 16 24 17 22 18 21 19 23 21 32 23 29 25
REMARK SMILES IDX 5 27 14 28 6 29 12 30 7 31 10 32 15 33 13 35 8 37 9 38 11 40
REMARK H PARENT 21 20 23 22 32 24 29 26 15 34 13 36 9 39 11 41
REMARK Flexibility Score: inf
ROOT
ATOM      1  O   UNL     1      55.592   3.508  79.847  1.00  0.00    -0.454 OA
ENDROOT
BRANCH   1   2
ATOM      2  C   UNL     1      55.949   4.634  79.069  1.00  0.00     0.214 A 
ATOM      3  C   UNL     1      55.009   5.290  78.248  1.00  0.00     0.180 A 
ATOM      4  O   UNL     1      55.405   6.299  77.474  1.00  0.00    -0.452 OA
ATOM      5  C   UNL     1      57.277   5.132  79.092  1.00  0.00     0.239 A 
ATOM      6  C   UNL     1      56.622   6.811  77.479  1.00  0.00     0.146 A 
ATOM      7  O   UNL     1      58.142   4.588  79.836  1.00  0.00    -0.285 OA
ATOM      8  C   UNL     1      57.621   6.259  78.310  1.00  0.00     0.111 A 
ATOM      9  C   UNL     1      56.885   7.954  76.726  1.00  0.00     0.094 A 
ATOM     10  C   UNL     1      58.887   6.883  78.375  1.00  0.00     0.134 A 
ATOM     11  C   UNL     1      58.097   8.630  76.866  1.00  0.00     0.123 A 
ATOM     12  C   UNL     1      59.097   8.089  77.685  1.00  0.00     0.093 A 
BRANCH   3  13
ATOM     13  C   UNL     1      53.565   5.101  78.340  1.00  0.00     0.025 A 
ATOM     14  C   UNL     1      52.833   5.915  79.219  1.00  0.00     0.016 A 
ATOM     15  C   UNL     1      51.605   5.469  79.731  1.00  0.00     0.051 A 
ATOM     16  C   UNL     1      51.106   4.197  79.420  1.00  0.00     0.157 A 
ATOM     17  C   UNL     1      53.045   3.852  77.968  1.00  0.00     0.062 A 
ATOM     18  C   UNL     1      51.821   3.390  78.491  1.00  0.00     0.158 A 
BRANCH  16  19
ATOM     19  O   UNL     1      49.947   3.768  80.069  1.00  0.00    -0.504 OA
ATOM     20  H   UNL     1      49.662   2.802  80.105  1.00  0.00     0.293 HD
ENDBRANCH  16  19
BRANCH  18  21
ATOM     21  O   UNL     1      51.381   2.122  78.103  1.00  0.00    -0.504 OA
ATOM     22  H   UNL     1      51.966   1.300  78.069  1.00  0.00     0.293 HD
ENDBRANCH  18  21
ENDBRANCH   3  13
BRANCH  10  23
ATOM     23  O   UNL     1      59.917   6.380  79.155  1.00  0.00    -0.507 OA
ATOM     24  H   UNL     1      60.337   5.472  78.968  1.00  0.00     0.293 HD
ENDBRANCH  10  23
BRANCH  11  25
ATOM     25  O   UNL     1      58.268   9.863  76.225  1.00  0.00    -0.508 OA
ATOM     26  H   UNL     1      57.698  10.661  76.461  1.00  0.00     0.293 HD
ENDBRANCH  11  25
ENDBRANCH   1   2
BRANCH   1  27
ATOM     27  C   UNL     1      55.359   3.658  81.255  1.00  0.00     0.339 C 
ATOM     28  C   UNL     1      53.935   3.191  81.690  1.00  0.00     0.214 C 
ATOM     29  O   UNL     1      55.700   4.979  81.639  1.00  0.00    -0.332 OA
ATOM     30  C   UNL     1      53.710   3.544  83.183  1.00  0.00     0.180 C 
ATOM     31  C   UNL     1      54.612   5.739  82.151  1.00  0.00     0.179 C 
ATOM     32  C   UNL     1      54.109   5.044  83.459  1.00  0.00     0.177 C 
BRANCH  28  33
ATOM     33  O   UNL     1      53.759   1.807  81.489  1.00  0.00    -0.384 OA
ATOM     34  H   UNL     1      54.133   1.542  80.604  1.00  0.00     0.211 HD
ENDBRANCH  28  33
BRANCH  30  35
ATOM     35  O   UNL     1      54.478   2.673  83.999  1.00  0.00    -0.387 OA
ATOM     36  H   UNL     1      53.871   2.031  84.479  1.00  0.00     0.211 HD
ENDBRANCH  30  35
BRANCH  31  37
ATOM     37  C   UNL     1      55.115   7.187  82.392  1.00  0.00     0.191 C 
BRANCH  37  38
ATOM     38  O   UNL     1      54.025   8.046  82.660  1.00  0.00    -0.394 OA
ATOM     39  H   UNL     1      53.956   8.702  81.924  1.00  0.00     0.210 HD
ENDBRANCH  37  38
ENDBRANCH  31  37
BRANCH  32  40
ATOM     40  O   UNL     1      53.049   5.708  84.125  1.00  0.00    -0.387 OA
ATOM     41  H   UNL     1      52.614   5.085  84.765  1.00  0.00     0.211 HD
ENDBRANCH  32  40
ENDBRANCH   1  27
TORSDOF 12
ENDMDL
MODEL 2
REMARK VINA RESULT:    -6.990      1.584      2.239
REMARK INTER + INTRA:         -11.479
REMARK INTER:                 -10.900
REMARK INTRA:                  -0.579
REMARK UNBOUND:                -1.220
REMARK SMILES O=c1c(O[C@H]2O[C@H](CO)[C@@H](O)[C@H](O)[C@@H]2O)c(-c2ccc(O)c(O)c2)oc2cc(O)cc(O)c12
REMARK SMILES IDX 4 1 3 2 16 3 25 4 2 5 26 6 1 7 33 8 27 9 31 10 28 11 30 12
REMARK SMILES IDX 17 13 18 14 19 15 20 16 24 17 22 18 21 19 23 21 32 23 29 25
REMARK SMILES IDX 5 27 14 28 6 29 12 30 7 31 10 32 15 33 13 35 8 37 9 38 11 40
REMARK H PARENT 21 20 23 22 32 24 29 26 15 34 13 36 9 39 11 41
REMARK Flexibility Score: inf
ROOT
ATOM      1  O   UNL     1      55.430   3.690  79.597  1.00  0.00    -0.454 OA
ENDROOT
BRANCH   1   2
ATOM      2  C   UNL     1      55.038   4.731  78.722  1.00  0.00     0.214 A 
ATOM      3  C   UNL     1      53.775   4.730  78.094  1.00  0.00     0.180 A 
ATOM      4  O   UNL     1      53.478   5.689  77.219  1.00  0.00    -0.452 OA
ATOM      5  C   UNL     1      55.918   5.809  78.448  1.00  0.00     0.239 A 
ATOM      6  C   UNL     1      54.253   6.722  76.950  1.00  0.00     0.146 A 
ATOM      7  O   UNL     1      57.049   5.860  79.012  1.00  0.00    -0.285 OA
ATOM      8  C   UNL     1      55.515   6.843  77.572  1.00  0.00     0.111 A 
ATOM      9  C   UNL     1      53.778   7.735  76.119  1.00  0.00     0.094 A 
ATOM     10  C   UNL     1      56.287   8.005  77.347  1.00  0.00     0.134 A 
ATOM     11  C   UNL     1      54.490   8.926  75.977  1.00  0.00     0.123 A 
ATOM     12  C   UNL     1      55.745   9.055  76.586  1.00  0.00     0.093 A 
BRANCH   3  13
ATOM     13  C   UNL     1      52.660   3.877  78.495  1.00  0.00     0.025 A 
ATOM     14  C   UNL     1      52.063   3.052  77.529  1.00  0.00     0.016 A 
ATOM     15  C   UNL     1      50.734   2.631  77.691  1.00  0.00     0.051 A 
ATOM     16  C   UNL     1      49.965   3.055  78.782  1.00  0.00     0.157 A 
ATOM     17  C   UNL     1      51.923   4.256  79.626  1.00  0.00     0.062 A 
ATOM     18  C   UNL     1      50.582   3.851  79.787  1.00  0.00     0.158 A 
BRANCH  16  19
ATOM     19  O   UNL     1      48.614   2.706  78.810  1.00  0.00    -0.504 OA
ATOM     20  H   UNL     1      47.869   3.383  78.761  1.00  0.00     0.293 HD
ENDBRANCH  16  19
BRANCH  18  21
ATOM     21  O   UNL     1      49.898   4.294  80.922  1.00  0.00    -0.504 OA
ATOM     22  H   UNL     1      48.923   4.112  81.109  1.00  0.00     0.293 HD
ENDBRANCH  18  21
ENDBRANCH   3  13
BRANCH  10  23
ATOM     23  O   UNL     1      57.542   8.177  77.911  1.00  0.00    -0.507 OA
ATOM     24  H   UNL     1      58.194   8.876  77.564  1.00  0.00     0.293 HD
ENDBRANCH  10  23
BRANCH  11  25
ATOM     25  O   UNL     1      53.910   9.987  75.271  1.00  0.00    -0.508 OA
ATOM     26  H   UNL     1      52.908  10.071  75.179  1.00  0.00     0.293 HD
ENDBRANCH  11  25
ENDBRANCH   1   2
BRANCH   1  27
ATOM     27  C   UNL     1      55.350   3.884  81.017  1.00  0.00     0.339 C 
ATOM     28  C   UNL     1      54.046   3.296  81.639  1.00  0.00     0.214 C 
ATOM     29  O   UNL     1      55.590   5.250  81.308  1.00  0.00    -0.332 OA
ATOM     30  C   UNL     1      53.963   3.696  83.135  1.00  0.00     0.180 C 
ATOM     31  C   UNL     1      54.495   5.918  81.922  1.00  0.00     0.179 C 
ATOM     32  C   UNL     1      54.229   5.240  83.306  1.00  0.00     0.177 C 
BRANCH  28  33
ATOM     33  O   UNL     1      53.997   1.893  81.512  1.00  0.00    -0.384 OA
ATOM     34  H   UNL     1      54.108   1.635  80.555  1.00  0.00     0.211 HD
ENDBRANCH  28  33
BRANCH  30  35
ATOM     35  O   UNL     1      54.911   2.948  83.881  1.00  0.00    -0.387 OA
ATOM     36  H   UNL     1      55.635   2.609  83.271  1.00  0.00     0.211 HD
ENDBRANCH  30  35
BRANCH  31  37
ATOM     37  C   UNL     1      54.865   7.420  82.048  1.00  0.00     0.191 C 
BRANCH  37  38
ATOM     38  O   UNL     1      56.013   7.709  81.275  1.00  0.00    -0.394 OA
ATOM     39  H   UNL     1      56.706   7.036  81.484  1.00  0.00     0.210 HD
ENDBRANCH  37  38
ENDBRANCH  31  37
BRANCH  32  40
ATOM     40  O   UNL     1      53.190   5.824  84.073  1.00  0.00    -0.387 OA
ATOM     41  H   UNL     1      53.570   6.508  84.685  1.00  0.00     0.211 HD
ENDBRANCH  32  40
ENDBRANCH   1  27
TORSDOF 12
ENDMDL
MODEL 3
REMARK VINA RESULT:    -6.755      1.789      6.203
REMARK INTER + INTRA:         -11.134
REMARK INTER:                 -10.064
REMARK INTRA:                  -1.071
REMARK UNBOUND:                -1.220
REMARK SMILES O=c1c(O[C@H]2O[C@H](CO)[C@@H](O)[C@H](O)[C@@H]2O)c(-c2ccc(O)c(O)c2)oc2cc(O)cc(O)c12
REMARK SMILES IDX 4 1 3 2 16 3 25 4 2 5 26 6 1 7 33 8 27 9 31 10 28 11 30 12
REMARK SMILES IDX 17 13 18 14 19 15 20 16 24 17 22 18 21 19 23 21 32 23 29 25
REMARK SMILES IDX 5 27 14 28 6 29 12 30 7 31 10 32 15 33 13 35 8 37 9 38 11 40
REMARK H PARENT 21 20 23 22 32 24 29 26 15 34 13 36 9 39 11 41
REMARK Flexibility Score: inf
ROOT
ATOM      1  O   UNL     1      55.804   5.464  81.399  1.00  0.00    -0.454 OA
ENDROOT
BRANCH   1   2
ATOM      2  C   UNL     1      54.899   5.018  80.407  1.00  0.00     0.214 A 
ATOM      3  C   UNL     1      55.203   5.114  79.034  1.00  0.00     0.180 A 
ATOM      4  O   UNL     1      54.291   4.753  78.133  1.00  0.00    -0.452 OA
ATOM      5  C   UNL     1      53.646   4.462  80.775  1.00  0.00     0.239 A 
ATOM      6  C   UNL     1      53.124   4.211  78.426  1.00  0.00     0.146 A 
ATOM      7  O   UNL     1      53.347   4.335  81.997  1.00  0.00    -0.285 OA
ATOM      8  C   UNL     1      52.750   4.020  79.774  1.00  0.00     0.111 A 
ATOM      9  C   UNL     1      52.308   3.746  77.397  1.00  0.00     0.094 A 
ATOM     10  C   UNL     1      51.542   3.347  80.067  1.00  0.00     0.134 A 
ATOM     11  C   UNL     1      51.169   2.993  77.682  1.00  0.00     0.123 A 
ATOM     12  C   UNL     1      50.786   2.802  79.015  1.00  0.00     0.093 A 
BRANCH   3  13
ATOM     13  C   UNL     1      56.539   5.371  78.506  1.00  0.00     0.025 A 
ATOM     14  C   UNL     1      57.642   4.783  79.147  1.00  0.00     0.016 A 
ATOM     15  C   UNL     1      58.911   5.370  79.038  1.00  0.00     0.051 A 
ATOM     16  C   UNL     1      59.102   6.567  78.335  1.00  0.00     0.157 A 
ATOM     17  C   UNL     1      56.728   6.534  77.744  1.00  0.00     0.062 A 
ATOM     18  C   UNL     1      57.997   7.138  77.644  1.00  0.00     0.158 A 
BRANCH  16  19
ATOM     19  O   UNL     1      60.364   7.162  78.380  1.00  0.00    -0.504 OA
ATOM     20  H   UNL     1      60.510   8.122  78.652  1.00  0.00     0.293 HD
ENDBRANCH  16  19
BRANCH  18  21
ATOM     21  O   UNL     1      58.104   8.314  76.897  1.00  0.00    -0.504 OA
ATOM     22  H   UNL     1      57.635   9.179  77.121  1.00  0.00     0.293 HD
ENDBRANCH  18  21
ENDBRANCH   3  13
BRANCH  10  23
ATOM     23  O   UNL     1      51.107   3.146  81.368  1.00  0.00    -0.507 OA
ATOM     24  H   UNL     1      51.548   2.464  81.981  1.00  0.00     0.293 HD
ENDBRANCH  10  23
BRANCH  11  25
ATOM     25  O   UNL     1      50.463   2.401  76.628  1.00  0.00    -0.508 OA
ATOM     26  H   UNL     1      49.523   2.689  76.398  1.00  0.00     0.293 HD
ENDBRANCH  11  25
ENDBRANCH   1   2
BRANCH   1  27
ATOM     27  C   UNL     1      55.842   6.854  81.756  1.00  0.00     0.339 C 
ATOM     28  C   UNL     1      55.469   7.109  83.249  1.00  0.00     0.214 C 
ATOM     29  O   UNL     1      55.082   7.591  80.814  1.00  0.00    -0.332 OA
ATOM     30  C   UNL     1      55.370   8.635  83.503  1.00  0.00     0.180 C 
ATOM     31  C   UNL     1      53.957   8.263  81.367  1.00  0.00     0.179 C 
ATOM     32  C   UNL     1      54.482   9.319  82.395  1.00  0.00     0.177 C 
BRANCH  28  33
ATOM     33  O   UNL     1      56.413   6.534  84.125  1.00  0.00    -0.384 OA
ATOM     34  H   UNL     1      56.346   5.540  84.091  1.00  0.00     0.211 HD
ENDBRANCH  28  33
BRANCH  30  35
ATOM     35  O   UNL     1      56.672   9.202  83.508  1.00  0.00    -0.387 OA
ATOM     36  H   UNL     1      56.921   9.495  82.578  1.00  0.00     0.211 HD
ENDBRANCH  30  35
BRANCH  31  37
ATOM     37  C   UNL     1      53.162   8.902  80.198  1.00  0.00     0.191 C 
BRANCH  37  38
ATOM     38  O   UNL     1      52.705   7.901  79.311  1.00  0.00    -0.394 OA
ATOM     39  H   UNL     1      52.717   8.268  78.394  1.00  0.00     0.210 HD
ENDBRANCH  37  38
ENDBRANCH  31  37
BRANCH  32  40
ATOM     40  O   UNL     1      53.480  10.115  83.006  1.00  0.00    -0.387 OA
ATOM     41  H   UNL     1      52.673   9.562  83.179  1.00  0.00     0.211 HD
ENDBRANCH  32  40
ENDBRANCH   1  27
TORSDOF 12
ENDMDL
MODEL 4
REMARK VINA RESULT:    -6.656      2.171      6.178
REMARK INTER + INTRA:         -10.990
REMARK INTER:                  -9.175
REMARK INTRA:                  -1.815
REMARK UNBOUND:                -1.220
REMARK SMILES O=c1c(O[C@H]2O[C@H](CO)[C@@H](O)[C@H](O)[C@@H]2O)c(-c2ccc(O)c(O)c2)oc2cc(O)cc(O)c12
REMARK SMILES IDX 4 1 3 2 16 3 25 4 2 5 26 6 1 7 33 8 27 9 31 10 28 11 30 12
REMARK SMILES IDX 17 13 18 14 19 15 20 16 24 17 22 18 21 19 23 21 32 23 29 25
REMARK SMILES IDX 5 27 14 28 6 29 12 30 7 31 10 32 15 33 13 35 8 37 9 38 11 40
REMARK H PARENT 21 20 23 22 32 24 29 26 15 34 13 36 9 39 11 41
REMARK Flexibility Score: inf
ROOT
ATOM      1  O   UNL     1      55.084   6.472  81.039  1.00  0.00    -0.454 OA
ENDROOT
BRANCH   1   2
ATOM      2  C   UNL     1      54.250   5.788  80.123  1.00  0.00     0.214 A 
ATOM      3  C   UNL     1      54.451   5.881  78.731  1.00  0.00     0.180 A 
ATOM      4  O   UNL     1      53.597   5.283  77.903  1.00  0.00    -0.452 OA
ATOM      5  C   UNL     1      53.175   4.988  80.589  1.00  0.00     0.239 A 
ATOM      6  C   UNL     1      52.598   4.511  78.289  1.00  0.00     0.146 A 
ATOM      7  O   UNL     1      52.977   4.858  81.832  1.00  0.00    -0.285 OA
ATOM      8  C   UNL     1      52.348   4.310  79.664  1.00  0.00     0.111 A 
ATOM      9  C   UNL     1      51.853   3.827  77.331  1.00  0.00     0.094 A 
ATOM     10  C   UNL     1      51.339   3.402  80.056  1.00  0.00     0.134 A 
ATOM     11  C   UNL     1      50.928   2.856  77.714  1.00  0.00     0.123 A 
ATOM     12  C   UNL     1      50.669   2.651  79.075  1.00  0.00     0.093 A 
BRANCH   3  13
ATOM     13  C   UNL     1      55.666   6.401  78.111  1.00  0.00     0.025 A 
ATOM     14  C   UNL     1      56.742   5.524  77.897  1.00  0.00     0.016 A 
ATOM     15  C   UNL     1      58.049   6.026  77.806  1.00  0.00     0.051 A 
ATOM     16  C   UNL     1      58.316   7.392  77.969  1.00  0.00     0.157 A 
ATOM     17  C   UNL     1      55.913   7.778  78.211  1.00  0.00     0.062 A 
ATOM     18  C   UNL     1      57.225   8.288  78.137  1.00  0.00     0.158 A 
BRANCH  16  19
ATOM     19  O   UNL     1      59.651   7.801  77.999  1.00  0.00    -0.504 OA
ATOM     20  H   UNL     1      60.394   7.228  78.366  1.00  0.00     0.293 HD
ENDBRANCH  16  19
BRANCH  18  21
ATOM     21  O   UNL     1      57.398   9.667  78.280  1.00  0.00    -0.504 OA
ATOM     22  H   UNL     1      57.359  10.160  79.160  1.00  0.00     0.293 HD
ENDBRANCH  18  21
ENDBRANCH   3  13
BRANCH  10  23
ATOM     23  O   UNL     1      51.030   3.174  81.389  1.00  0.00    -0.507 OA
ATOM     24  H   UNL     1      50.081   3.268  81.742  1.00  0.00     0.293 HD
ENDBRANCH  10  23
BRANCH  11  25
ATOM     25  O   UNL     1      50.317   2.071  76.730  1.00  0.00    -0.508 OA
ATOM     26  H   UNL     1      49.505   1.507  76.935  1.00  0.00     0.293 HD
ENDBRANCH  11  25
ENDBRANCH   1   2
BRANCH   1  27
ATOM     27  C   UNL     1      56.223   5.805  81.602  1.00  0.00     0.339 C 
ATOM     28  C   UNL     1      56.143   5.672  83.154  1.00  0.00     0.214 C 
ATOM     29  O   UNL     1      57.403   6.418  81.112  1.00  0.00    -0.332 OA
ATOM     30  C   UNL     1      57.480   5.097  83.691  1.00  0.00     0.180 C 
ATOM     31  C   UNL     1      58.212   7.016  82.118  1.00  0.00     0.179 C 
ATOM     32  C   UNL     1      58.701   5.886  83.081  1.00  0.00     0.177 C 
BRANCH  28  33
ATOM     33  O   UNL     1      55.070   4.848  83.551  1.00  0.00    -0.384 OA
ATOM     34  H   UNL     1      54.946   4.905  84.538  1.00  0.00     0.211 HD
ENDBRANCH  28  33
BRANCH  30  35
ATOM     35  O   UNL     1      57.572   3.720  83.363  1.00  0.00    -0.387 OA
ATOM     36  H   UNL     1      57.072   3.537  82.510  1.00  0.00     0.211 HD
ENDBRANCH  30  35
BRANCH  31  37
ATOM     37  C   UNL     1      59.380   7.754  81.411  1.00  0.00     0.191 C 
BRANCH  37  38
ATOM     38  O   UNL     1      58.943   9.006  80.921  1.00  0.00    -0.394 OA
ATOM     39  H   UNL     1      59.621   9.686  81.154  1.00  0.00     0.210 HD
ENDBRANCH  37  38
ENDBRANCH  31  37
BRANCH  32  40
ATOM     40  O   UNL     1      59.565   6.312  84.121  1.00  0.00    -0.387 OA
ATOM     41  H   UNL     1      59.141   6.135  85.002  1.00  0.00     0.211 HD
ENDBRANCH  32  40
ENDBRANCH   1  27
TORSDOF 12
ENDMDL
MODEL 5
REMARK VINA RESULT:    -6.508      1.751      6.305
REMARK INTER + INTRA:         -10.772
REMARK INTER:                  -9.954
REMARK INTRA:                  -0.818
REMARK UNBOUND:                -1.220
REMARK SMILES O=c1c(O[C@H]2O[C@H](CO)[C@@H](O)[C@H](O)[C@@H]2O)c(-c2ccc(O)c(O)c2)oc2cc(O)cc(O)c12
REMARK SMILES IDX 4 1 3 2 16 3 25 4 2 5 26 6 1 7 33 8 27 9 31 10 28 11 30 12
REMARK SMILES IDX 17 13 18 14 19 15 20 16 24 17 22 18 21 19 23 21 32 23 29 25
REMARK SMILES IDX 5 27 14 28 6 29 12 30 7 31 10 32 15 33 13 35 8 37 9 38 11 40
REMARK H PARENT 21 20 23 22 32 24 29 26 15 34 13 36 9 39 11 41
REMARK Flexibility Score: inf
ROOT
ATOM      1  O   UNL     1      54.804   6.921  80.722  1.00  0.00    -0.454 OA
ENDROOT
BRANCH   1   2
ATOM      2  C   UNL     1      54.096   6.032  79.880  1.00  0.00     0.214 A 
ATOM      3  C   UNL     1      54.629   5.600  78.648  1.00  0.00     0.180 A 
ATOM      4  O   UNL     1      53.896   4.824  77.852  1.00  0.00    -0.452 OA
ATOM      5  C   UNL     1      52.814   5.553  80.256  1.00  0.00     0.239 A 
ATOM      6  C   UNL     1      52.711   4.335  78.169  1.00  0.00     0.146 A 
ATOM      7  O   UNL     1      52.313   5.896  81.365  1.00  0.00    -0.285 OA
ATOM      8  C   UNL     1      52.116   4.665  79.406  1.00  0.00     0.111 A 
ATOM      9  C   UNL     1      52.097   3.423  77.313  1.00  0.00     0.094 A 
ATOM     10  C   UNL     1      50.895   4.053  79.769  1.00  0.00     0.134 A 
ATOM     11  C   UNL     1      50.946   2.742  77.712  1.00  0.00     0.123 A 
ATOM     12  C   UNL     1      50.346   3.064  78.935  1.00  0.00     0.093 A 
BRANCH   3  13
ATOM     13  C   UNL     1      56.028   5.750  78.262  1.00  0.00     0.025 A 
ATOM     14  C   UNL     1      56.969   4.837  78.767  1.00  0.00     0.016 A 
ATOM     15  C   UNL     1      58.318   5.205  78.870  1.00  0.00     0.051 A 
ATOM     16  C   UNL     1      58.750   6.491  78.520  1.00  0.00     0.157 A 
ATOM     17  C   UNL     1      56.458   7.019  77.846  1.00  0.00     0.062 A 
ATOM     18  C   UNL     1      57.810   7.401  77.963  1.00  0.00     0.158 A 
BRANCH  16  19
ATOM     19  O   UNL     1      60.081   6.830  78.773  1.00  0.00    -0.504 OA
ATOM     20  H   UNL     1      60.782   6.152  79.028  1.00  0.00     0.293 HD
ENDBRANCH  16  19
BRANCH  18  21
ATOM     21  O   UNL     1      58.160   8.693  77.561  1.00  0.00    -0.504 OA
ATOM     22  H   UNL     1      59.104   8.999  77.379  1.00  0.00     0.293 HD
ENDBRANCH  18  21
ENDBRANCH   3  13
BRANCH  10  23
ATOM     23  O   UNL     1      50.248   4.348  80.960  1.00  0.00    -0.507 OA
ATOM     24  H   UNL     1      50.762   4.524  81.819  1.00  0.00     0.293 HD
ENDBRANCH  10  23
BRANCH  11  25
ATOM     25  O   UNL     1      50.448   1.714  76.903  1.00  0.00    -0.508 OA
ATOM     26  H   UNL     1      49.456   1.556  76.806  1.00  0.00     0.293 HD
ENDBRANCH  11  25
ENDBRANCH   1   2
BRANCH   1  27
ATOM     27  C   UNL     1      55.473   6.419  81.888  1.00  0.00     0.339 C 
ATOM     28  C   UNL     1      57.027   6.438  81.753  1.00  0.00     0.214 C 
ATOM     29  O   UNL     1      54.916   5.162  82.231  1.00  0.00    -0.332 OA
ATOM     30  C   UNL     1      57.659   5.727  82.978  1.00  0.00     0.180 C 
ATOM     31  C   UNL     1      55.836   4.078  82.171  1.00  0.00     0.179 C 
ATOM     32  C   UNL     1      56.959   4.337  83.228  1.00  0.00     0.177 C 
BRANCH  28  33
ATOM     33  O   UNL     1      57.524   7.753  81.650  1.00  0.00    -0.384 OA
ATOM     34  H   UNL     1      57.146   8.317  82.380  1.00  0.00     0.211 HD
ENDBRANCH  28  33
BRANCH  30  35
ATOM     35  O   UNL     1      57.535   6.554  84.125  1.00  0.00    -0.387 OA
ATOM     36  H   UNL     1      57.544   5.988  84.957  1.00  0.00     0.211 HD
ENDBRANCH  30  35
BRANCH  31  37
ATOM     37  C   UNL     1      55.046   2.769  82.437  1.00  0.00     0.191 C 
BRANCH  37  38
ATOM     38  O   UNL     1      55.442   2.200  83.669  1.00  0.00    -0.394 OA
ATOM     39  H   UNL     1      56.257   1.661  83.516  1.00  0.00     0.210 HD
ENDBRANCH  37  38
ENDBRANCH  31  37
BRANCH  32  40
ATOM     40  O   UNL     1      57.938   3.317  83.330  1.00  0.00    -0.387 OA
ATOM     41  H   UNL     1      57.542   2.446  83.062  1.00  0.00     0.211 HD
ENDBRANCH  32  40
ENDBRANCH   1  27
TORSDOF 12
ENDMDL
MODEL 6
REMARK VINA RESULT:    -6.339      2.239      7.483
REMARK INTER + INTRA:         -10.524
REMARK INTER:                  -9.151
REMARK INTRA:                  -1.373
REMARK UNBOUND:                -1.220
REMARK SMILES O=c1c(O[C@H]2O[C@H](CO)[C@@H](O)[C@H](O)[C@@H]2O)c(-c2ccc(O)c(O)c2)oc2cc(O)cc(O)c12
REMARK SMILES IDX 4 1 3 2 16 3 25 4 2 5 26 6 1 7 33 8 27 9 31 10 28 11 30 12
REMARK SMILES IDX 17 13 18 14 19 15 20 16 24 17 22 18 21 19 23 21 32 23 29 25
REMARK SMILES IDX 5 27 14 28 6 29 12 30 7 31 10 32 15 33 13 35 8 37 9 38 11 40
REMARK H PARENT 21 20 23 22 32 24 29 26 15 34 13 36 9 39 11 41
REMARK Flexibility Score: inf
ROOT
ATOM      1  O   UNL     1      55.907   5.482  78.345  1.00  0.00    -0.454 OA
ENDROOT
BRANCH   1   2
ATOM      2  C   UNL     1      55.086   4.909  79.344  1.00  0.00     0.214 A 
ATOM      3  C   UNL     1      55.591   4.590  80.621  1.00  0.00     0.180 A 
ATOM      4  O   UNL     1      54.803   3.981  81.505  1.00  0.00    -0.452 OA
ATOM      5  C   UNL     1      53.720   4.631  79.079  1.00  0.00     0.239 A 
ATOM      6  C   UNL     1      53.522   3.724  81.312  1.00  0.00     0.146 A 
ATOM      7  O   UNL     1      53.222   4.926  77.954  1.00  0.00    -0.285 OA
ATOM      8  C   UNL     1      52.909   4.057  80.085  1.00  0.00     0.111 A 
ATOM      9  C   UNL     1      52.764   3.207  82.361  1.00  0.00     0.094 A 
ATOM     10  C   UNL     1      51.517   3.866  79.935  1.00  0.00     0.134 A 
ATOM     11  C   UNL     1      51.376   3.113  82.251  1.00  0.00     0.123 A 
ATOM     12  C   UNL     1      50.758   3.437  81.037  1.00  0.00     0.093 A 
BRANCH   3  13
ATOM     13  C   UNL     1      56.862   5.080  81.146  1.00  0.00     0.025 A 
ATOM     14  C   UNL     1      57.837   4.146  81.531  1.00  0.00     0.016 A 
ATOM     15  C   UNL     1      58.808   4.496  82.480  1.00  0.00     0.051 A 
ATOM     16  C   UNL     1      58.803   5.755  83.095  1.00  0.00     0.157 A 
ATOM     17  C   UNL     1      56.884   6.366  81.706  1.00  0.00     0.062 A 
ATOM     18  C   UNL     1      57.847   6.720  82.672  1.00  0.00     0.158 A 
BRANCH  16  19
ATOM     19  O   UNL     1      59.717   5.987  84.125  1.00  0.00    -0.504 OA
ATOM     20  H   UNL     1      59.521   6.589  84.909  1.00  0.00     0.293 HD
ENDBRANCH  16  19
BRANCH  18  21
ATOM     21  O   UNL     1      57.788   8.007  83.212  1.00  0.00    -0.504 OA
ATOM     22  H   UNL     1      58.584   8.514  83.571  1.00  0.00     0.293 HD
ENDBRANCH  18  21
ENDBRANCH   3  13
BRANCH  10  23
ATOM     23  O   UNL     1      50.857   4.154  78.750  1.00  0.00    -0.507 OA
ATOM     24  H   UNL     1      51.347   4.189  77.859  1.00  0.00     0.293 HD
ENDBRANCH  10  23
BRANCH  11  25
ATOM     25  O   UNL     1      50.627   2.748  83.376  1.00  0.00    -0.508 OA
ATOM     26  H   UNL     1      49.718   2.318  83.286  1.00  0.00     0.293 HD
ENDBRANCH  11  25
ENDBRANCH   1   2
BRANCH   1  27
ATOM     27  C   UNL     1      55.898   6.903  78.143  1.00  0.00     0.339 C 
ATOM     28  C   UNL     1      55.509   7.308  76.688  1.00  0.00     0.214 C 
ATOM     29  O   UNL     1      57.123   7.441  78.608  1.00  0.00    -0.332 OA
ATOM     30  C   UNL     1      55.688   8.838  76.513  1.00  0.00     0.180 C 
ATOM     31  C   UNL     1      57.906   8.070  77.600  1.00  0.00     0.179 C 
ATOM     32  C   UNL     1      57.098   9.291  77.052  1.00  0.00     0.177 C 
BRANCH  28  33
ATOM     33  O   UNL     1      54.183   6.939  76.383  1.00  0.00    -0.384 OA
ATOM     34  H   UNL     1      53.610   7.033  77.193  1.00  0.00     0.211 HD
ENDBRANCH  28  33
BRANCH  30  35
ATOM     35  O   UNL     1      54.654   9.520  77.207  1.00  0.00    -0.387 OA
ATOM     36  H   UNL     1      53.759   9.150  76.938  1.00  0.00     0.211 HD
ENDBRANCH  30  35
BRANCH  31  37
ATOM     37  C   UNL     1      59.260   8.479  78.237  1.00  0.00     0.191 C 
BRANCH  37  38
ATOM     38  O   UNL     1      60.172   7.400  78.186  1.00  0.00    -0.394 OA
ATOM     39  H   UNL     1      59.679   6.588  77.911  1.00  0.00     0.210 HD
ENDBRANCH  37  38
ENDBRANCH  31  37
BRANCH  32  40
ATOM     40  O   UNL     1      57.765  10.060  76.065  1.00  0.00    -0.387 OA
ATOM     41  H   UNL     1      58.489   9.519  75.652  1.00  0.00     0.211 HD
ENDBRANCH  32  40
ENDBRANCH   1  27
TORSDOF 12
ENDMDL
MODEL 7
REMARK VINA RESULT:    -6.257      2.447      5.464
REMARK INTER + INTRA:         -10.404
REMARK INTER:                  -9.534
REMARK INTRA:                  -0.869
REMARK UNBOUND:                -1.220
REMARK SMILES O=c1c(O[C@H]2O[C@H](CO)[C@@H](O)[C@H](O)[C@@H]2O)c(-c2ccc(O)c(O)c2)oc2cc(O)cc(O)c12
REMARK SMILES IDX 4 1 3 2 16 3 25 4 2 5 26 6 1 7 33 8 27 9 31 10 28 11 30 12
REMARK SMILES IDX 17 13 18 14 19 15 20 16 24 17 22 18 21 19 23 21 32 23 29 25
REMARK SMILES IDX 5 27 14 28 6 29 12 30 7 31 10 32 15 33 13 35 8 37 9 38 11 40
REMARK H PARENT 21 20 23 22 32 24 29 26 15 34 13 36 9 39 11 41
REMARK Flexibility Score: inf
ROOT
ATOM      1  O   UNL     1      53.143   6.770  80.431  1.00  0.00    -0.454 OA
ENDROOT
BRANCH   1   2
ATOM      2  C   UNL     1      54.251   6.083  80.980  1.00  0.00     0.214 A 
ATOM      3  C   UNL     1      54.345   4.677  80.931  1.00  0.00     0.180 A 
ATOM      4  O   UNL     1      55.367   4.067  81.528  1.00  0.00    -0.452 OA
ATOM      5  C   UNL     1      55.302   6.800  81.608  1.00  0.00     0.239 A 
ATOM      6  C   UNL     1      56.378   4.691  82.102  1.00  0.00     0.146 A 
ATOM      7  O   UNL     1      55.267   8.064  81.649  1.00  0.00    -0.285 OA
ATOM      8  C   UNL     1      56.404   6.102  82.154  1.00  0.00     0.111 A 
ATOM      9  C   UNL     1      57.460   3.950  82.574  1.00  0.00     0.094 A 
ATOM     10  C   UNL     1      57.541   6.753  82.683  1.00  0.00     0.134 A 
ATOM     11  C   UNL     1      58.623   4.590  83.002  1.00  0.00     0.123 A 
ATOM     12  C   UNL     1      58.658   5.989  83.061  1.00  0.00     0.093 A 
BRANCH   3  13
ATOM     13  C   UNL     1      53.522   3.829  80.074  1.00  0.00     0.025 A 
ATOM     14  C   UNL     1      53.950   3.582  78.759  1.00  0.00     0.016 A 
ATOM     15  C   UNL     1      53.015   3.243  77.770  1.00  0.00     0.051 A 
ATOM     16  C   UNL     1      51.644   3.187  78.052  1.00  0.00     0.157 A 
ATOM     17  C   UNL     1      52.160   3.712  80.386  1.00  0.00     0.062 A 
ATOM     18  C   UNL     1      51.213   3.389  79.393  1.00  0.00     0.158 A 
BRANCH  16  19
ATOM     19  O   UNL     1      50.762   2.975  76.992  1.00  0.00    -0.504 OA
ATOM     20  H   UNL     1      50.084   3.659  76.694  1.00  0.00     0.293 HD
ENDBRANCH  16  19
BRANCH  18  21
ATOM     21  O   UNL     1      49.869   3.324  79.769  1.00  0.00    -0.504 OA
ATOM     22  H   UNL     1      49.093   3.532  79.157  1.00  0.00     0.293 HD
ENDBRANCH  18  21
ENDBRANCH   3  13
BRANCH  10  23
ATOM     23  O   UNL     1      57.620   8.134  82.781  1.00  0.00    -0.507 OA
ATOM     24  H   UNL     1      58.378   8.593  83.281  1.00  0.00     0.293 HD
ENDBRANCH  10  23
BRANCH  11  25
ATOM     25  O   UNL     1      59.750   3.819  83.313  1.00  0.00    -0.508 OA
ATOM     26  H   UNL     1      59.690   2.816  83.409  1.00  0.00     0.293 HD
ENDBRANCH  11  25
ENDBRANCH   1   2
BRANCH   1  27
ATOM     27  C   UNL     1      53.334   7.661  79.323  1.00  0.00     0.339 C 
ATOM     28  C   UNL     1      52.083   7.759  78.396  1.00  0.00     0.214 C 
ATOM     29  O   UNL     1      54.543   7.324  78.665  1.00  0.00    -0.332 OA
ATOM     30  C   UNL     1      52.433   8.603  77.144  1.00  0.00     0.180 C 
ATOM     31  C   UNL     1      54.377   6.904  77.316  1.00  0.00     0.179 C 
ATOM     32  C   UNL     1      53.785   8.104  76.506  1.00  0.00     0.177 C 
BRANCH  28  33
ATOM     33  O   UNL     1      50.982   8.327  79.068  1.00  0.00    -0.384 OA
ATOM     34  H   UNL     1      50.234   7.669  79.110  1.00  0.00     0.211 HD
ENDBRANCH  28  33
BRANCH  30  35
ATOM     35  O   UNL     1      52.537   9.971  77.506  1.00  0.00    -0.387 OA
ATOM     36  H   UNL     1      51.846  10.509  77.011  1.00  0.00     0.211 HD
ENDBRANCH  30  35
BRANCH  31  37
ATOM     37  C   UNL     1      55.761   6.443  76.788  1.00  0.00     0.191 C 
BRANCH  37  38
ATOM     38  O   UNL     1      56.784   7.269  77.308  1.00  0.00    -0.394 OA
ATOM     39  H   UNL     1      57.117   7.849  76.580  1.00  0.00     0.210 HD
ENDBRANCH  37  38
ENDBRANCH  31  37
BRANCH  32  40
ATOM     40  O   UNL     1      53.603   7.864  75.120  1.00  0.00    -0.387 OA
ATOM     41  H   UNL     1      52.681   8.122  74.855  1.00  0.00     0.211 HD
ENDBRANCH  32  40
ENDBRANCH   1  27
TORSDOF 12
ENDMDL
MODEL 8
REMARK VINA RESULT:    -6.218      1.974      6.593
REMARK INTER + INTRA:         -10.346
REMARK INTER:                  -8.675
REMARK INTRA:                  -1.671
REMARK UNBOUND:                -1.220
REMARK SMILES O=c1c(O[C@H]2O[C@H](CO)[C@@H](O)[C@H](O)[C@@H]2O)c(-c2ccc(O)c(O)c2)oc2cc(O)cc(O)c12
REMARK SMILES IDX 4 1 3 2 16 3 25 4 2 5 26 6 1 7 33 8 27 9 31 10 28 11 30 12
REMARK SMILES IDX 17 13 18 14 19 15 20 16 24 17 22 18 21 19 23 21 32 23 29 25
REMARK SMILES IDX 5 27 14 28 6 29 12 30 7 31 10 32 15 33 13 35 8 37 9 38 11 40
REMARK H PARENT 21 20 23 22 32 24 29 26 15 34 13 36 9 39 11 41
REMARK Flexibility Score: inf
ROOT
ATOM      1  O   UNL     1      55.673   6.482  81.073  1.00  0.00    -0.454 OA
ENDROOT
BRANCH   1   2
ATOM      2  C   UNL     1      54.778   5.457  81.458  1.00  0.00     0.214 A 
ATOM      3  C   UNL     1      53.459   5.405  80.962  1.00  0.00     0.180 A 
ATOM      4  O   UNL     1      52.626   4.468  81.410  1.00  0.00    -0.452 OA
ATOM      5  C   UNL     1      55.188   4.448  82.368  1.00  0.00     0.239 A 
ATOM      6  C   UNL     1      52.968   3.497  82.237  1.00  0.00     0.146 A 
ATOM      7  O   UNL     1      56.371   4.445  82.815  1.00  0.00    -0.285 OA
ATOM      8  C   UNL     1      54.283   3.429  82.746  1.00  0.00     0.111 A 
ATOM      9  C   UNL     1      52.048   2.492  82.529  1.00  0.00     0.094 A 
ATOM     10  C   UNL     1      54.657   2.328  83.548  1.00  0.00     0.134 A 
ATOM     11  C   UNL     1      52.442   1.355  83.235  1.00  0.00     0.123 A 
ATOM     12  C   UNL     1      53.743   1.280  83.747  1.00  0.00     0.093 A 
BRANCH   3  13
ATOM     13  C   UNL     1      52.984   6.168  79.812  1.00  0.00     0.025 A 
ATOM     14  C   UNL     1      53.235   5.671  78.523  1.00  0.00     0.016 A 
ATOM     15  C   UNL     1      53.282   6.548  77.430  1.00  0.00     0.051 A 
ATOM     16  C   UNL     1      53.129   7.931  77.599  1.00  0.00     0.157 A 
ATOM     17  C   UNL     1      52.763   7.543  79.987  1.00  0.00     0.062 A 
ATOM     18  C   UNL     1      52.826   8.432  78.895  1.00  0.00     0.158 A 
BRANCH  16  19
ATOM     19  O   UNL     1      53.320   8.754  76.488  1.00  0.00    -0.504 OA
ATOM     20  H   UNL     1      54.197   8.820  75.996  1.00  0.00     0.293 HD
ENDBRANCH  16  19
BRANCH  18  21
ATOM     21  O   UNL     1      52.630   9.792  79.149  1.00  0.00    -0.504 OA
ATOM     22  H   UNL     1      52.339  10.467  78.457  1.00  0.00     0.293 HD
ENDBRANCH  18  21
ENDBRANCH   3  13
BRANCH  10  23
ATOM     23  O   UNL     1      55.926   2.212  84.095  1.00  0.00    -0.507 OA
ATOM     24  H   UNL     1      56.726   2.701  83.701  1.00  0.00     0.293 HD
ENDBRANCH  10  23
BRANCH  11  25
ATOM     25  O   UNL     1      51.542   0.291  83.369  1.00  0.00    -0.508 OA
ATOM     26  H   UNL     1      51.856  -0.633  83.629  1.00  0.00     0.293 HD
ENDBRANCH  11  25
ENDBRANCH   1   2
BRANCH   1  27
ATOM     27  C   UNL     1      56.686   6.213  80.091  1.00  0.00     0.339 C 
ATOM     28  C   UNL     1      58.127   6.509  80.608  1.00  0.00     0.214 C 
ATOM     29  O   UNL     1      56.337   6.863  78.882  1.00  0.00    -0.332 OA
ATOM     30  C   UNL     1      59.135   6.355  79.440  1.00  0.00     0.180 C 
ATOM     31  C   UNL     1      57.267   7.853  78.460  1.00  0.00     0.179 C 
ATOM     32  C   UNL     1      58.631   7.144  78.172  1.00  0.00     0.177 C 
BRANCH  28  33
ATOM     33  O   UNL     1      58.485   5.653  81.669  1.00  0.00    -0.384 OA
ATOM     34  H   UNL     1      58.299   6.098  82.542  1.00  0.00     0.211 HD
ENDBRANCH  28  33
BRANCH  30  35
ATOM     35  O   UNL     1      59.298   4.980  79.130  1.00  0.00    -0.387 OA
ATOM     36  H   UNL     1      58.693   4.424  79.710  1.00  0.00     0.211 HD
ENDBRANCH  30  35
BRANCH  31  37
ATOM     37  C   UNL     1      56.677   8.558  77.210  1.00  0.00     0.191 C 
BRANCH  37  38
ATOM     38  O   UNL     1      57.598   9.501  76.699  1.00  0.00    -0.394 OA
ATOM     39  H   UNL     1      58.239   9.731  77.416  1.00  0.00     0.210 HD
ENDBRANCH  37  38
ENDBRANCH  31  37
BRANCH  32  40
ATOM     40  O   UNL     1      59.661   7.992  77.692  1.00  0.00    -0.387 OA
ATOM     41  H   UNL     1      59.719   7.920  76.703  1.00  0.00     0.211 HD
ENDBRANCH  32  40
ENDBRANCH   1  27
TORSDOF 12
ENDMDL
MODEL 9
REMARK VINA RESULT:    -6.195      2.432      5.143
REMARK INTER + INTRA:         -10.313
REMARK INTER:                  -9.106
REMARK INTRA:                  -1.207
REMARK UNBOUND:                -1.220
REMARK SMILES O=c1c(O[C@H]2O[C@H](CO)[C@@H](O)[C@H](O)[C@@H]2O)c(-c2ccc(O)c(O)c2)oc2cc(O)cc(O)c12
REMARK SMILES IDX 4 1 3 2 16 3 25 4 2 5 26 6 1 7 33 8 27 9 31 10 28 11 30 12
REMARK SMILES IDX 17 13 18 14 19 15 20 16 24 17 22 18 21 19 23 21 32 23 29 25
REMARK SMILES IDX 5 27 14 28 6 29 12 30 7 31 10 32 15 33 13 35 8 37 9 38 11 40
REMARK H PARENT 21 20 23 22 32 24 29 26 15 34 13 36 9 39 11 41
REMARK Flexibility Score: inf
ROOT
ATOM      1  O   UNL     1      54.008   5.886  80.840  1.00  0.00    -0.454 OA
ENDROOT
BRANCH   1   2
ATOM      2  C   UNL     1      55.203   6.121  81.560  1.00  0.00     0.214 A 
ATOM      3  C   UNL     1      55.453   5.496  82.799  1.00  0.00     0.180 A 
ATOM      4  O   UNL     1      56.556   5.804  83.478  1.00  0.00    -0.452 OA
ATOM      5  C   UNL     1      56.187   7.006  81.049  1.00  0.00     0.239 A 
ATOM      6  C   UNL     1      57.509   6.602  83.034  1.00  0.00     0.146 A 
ATOM      7  O   UNL     1      56.012   7.566  79.929  1.00  0.00    -0.285 OA
ATOM      8  C   UNL     1      57.378   7.233  81.777  1.00  0.00     0.111 A 
ATOM      9  C   UNL     1      58.682   6.743  83.773  1.00  0.00     0.094 A 
ATOM     10  C   UNL     1      58.452   8.002  81.276  1.00  0.00     0.134 A 
ATOM     11  C   UNL     1      59.780   7.416  83.236  1.00  0.00     0.123 A 
ATOM     12  C   UNL     1      59.659   8.049  81.993  1.00  0.00     0.093 A 
BRANCH   3  13
ATOM     13  C   UNL     1      54.703   4.351  83.306  1.00  0.00     0.025 A 
ATOM     14  C   UNL     1      55.136   3.059  82.970  1.00  0.00     0.016 A 
ATOM     15  C   UNL     1      54.226   1.992  82.971  1.00  0.00     0.051 A 
ATOM     16  C   UNL     1      52.869   2.193  83.258  1.00  0.00     0.157 A 
ATOM     17  C   UNL     1      53.361   4.556  83.659  1.00  0.00     0.062 A 
ATOM     18  C   UNL     1      52.437   3.491  83.646  1.00  0.00     0.158 A 
BRANCH  16  19
ATOM     19  O   UNL     1      51.998   1.112  83.109  1.00  0.00    -0.504 OA
ATOM     20  H   UNL     1      52.312   0.155  83.061  1.00  0.00     0.293 HD
ENDBRANCH  16  19
BRANCH  18  21
ATOM     21  O   UNL     1      51.109   3.775  83.975  1.00  0.00    -0.504 OA
ATOM     22  H   UNL     1      50.316   3.558  83.390  1.00  0.00     0.293 HD
ENDBRANCH  18  21
ENDBRANCH   3  13
BRANCH  10  23
ATOM     23  O   UNL     1      58.379   8.664  80.059  1.00  0.00    -0.507 OA
ATOM     24  H   UNL     1      57.539   8.641  79.486  1.00  0.00     0.293 HD
ENDBRANCH  10  23
BRANCH  11  25
ATOM     25  O   UNL     1      60.995   7.399  83.931  1.00  0.00    -0.508 OA
ATOM     26  H   UNL     1      61.353   8.226  84.385  1.00  0.00     0.293 HD
ENDBRANCH  11  25
ENDBRANCH   1   2
BRANCH   1  27
ATOM     27  C   UNL     1      53.804   4.625  80.187  1.00  0.00     0.339 C 
ATOM     28  C   UNL     1      54.211   4.647  78.681  1.00  0.00     0.214 C 
ATOM     29  O   UNL     1      52.484   4.181  80.445  1.00  0.00    -0.332 OA
ATOM     30  C   UNL     1      53.804   3.307  78.017  1.00  0.00     0.180 C 
ATOM     31  C   UNL     1      51.673   4.051  79.283  1.00  0.00     0.179 C 
ATOM     32  C   UNL     1      52.309   2.951  78.371  1.00  0.00     0.177 C 
BRANCH  28  33
ATOM     33  O   UNL     1      55.595   4.864  78.520  1.00  0.00    -0.384 OA
ATOM     34  H   UNL     1      55.877   4.591  77.604  1.00  0.00     0.211 HD
ENDBRANCH  28  33
BRANCH  30  35
ATOM     35  O   UNL     1      54.672   2.274  78.457  1.00  0.00    -0.387 OA
ATOM     36  H   UNL     1      55.564   2.360  78.000  1.00  0.00     0.211 HD
ENDBRANCH  30  35
BRANCH  31  37
ATOM     37  C   UNL     1      50.235   3.695  79.744  1.00  0.00     0.191 C 
BRANCH  37  38
ATOM     38  O   UNL     1      50.051   4.058  81.098  1.00  0.00    -0.394 OA
ATOM     39  H   UNL     1      49.085   4.197  81.254  1.00  0.00     0.210 HD
ENDBRANCH  37  38
ENDBRANCH  31  37
BRANCH  32  40
ATOM     40  O   UNL     1      51.590   2.663  77.184  1.00  0.00    -0.387 OA
ATOM     41  H   UNL     1      51.723   1.710  76.935  1.00  0.00     0.211 HD
ENDBRANCH  32  40
ENDBRANCH   1  27
TORSDOF 12
ENDMDL
