MODEL 1
REMARK VINA RESULT:    -4.002      0.000      0.000
REMARK INTER + INTRA:          -5.693
REMARK INTER:                  -5.406
REMARK INTRA:                  -0.287
REMARK UNBOUND:                -0.287
REMARK SMILES CCCCCCC=CC(=O)[O-]
REMARK SMILES IDX 5 1 6 2 7 3 8 4 9 5 10 6 11 7 4 8 3 9 2 10 1 11
REMARK H PARENT
REMARK Flexibility Score: inf
ROOT
ATOM      1  C   UNL     1      37.210  -6.251  -6.751  1.00  0.00     0.004 C 
ENDROOT
BRANCH   1   2
ATOM      2  C   UNL     1      36.091  -5.595  -7.571  1.00  0.00     0.027 C 
BRANCH   2   3
ATOM      3  C   UNL     1      36.514  -4.250  -8.095  1.00  0.00    -0.025 C 
ATOM      4  C   UNL     1      35.757  -3.409  -8.818  1.00  0.00     0.020 C 
BRANCH   4   5
ATOM      5  C   UNL     1      34.346  -3.610  -9.211  1.00  0.00     0.064 C 
ATOM      6  O   UNL     1      33.460  -2.889  -8.685  1.00  0.00    -0.545 OA
ATOM      7  O   UNL     1      33.962  -4.584 -10.124  1.00  0.00    -0.545 OA
ENDBRANCH   4   5
ENDBRANCH   2   3
ENDBRANCH   1   2
BRANCH   1   8
ATOM      8  C   UNL     1      38.562  -5.590  -7.042  1.00  0.00     0.000 C 
BRANCH   8   9
ATOM      9  C   UNL     1      39.636  -6.078  -6.063  1.00  0.00    -0.000 C 
BRANCH   9  10
ATOM     10  C   UNL     1      40.679  -4.987  -5.800  1.00  0.00    -0.003 C 
ATOM     11  C   UNL     1      41.289  -5.128  -4.409  1.00  0.00     0.004 C 
ENDBRANCH   9  10
ENDBRANCH   8   9
ENDBRANCH   1   8
TORSDOF 6
ENDMDL
MODEL 2
REMARK VINA RESULT:    -3.949      1.208      1.468
REMARK INTER + INTRA:          -5.621
REMARK INTER:                  -5.363
REMARK INTRA:                  -0.258
REMARK UNBOUND:                -0.287
REMARK SMILES CCCCCCC=CC(=O)[O-]
REMARK SMILES IDX 5 1 6 2 7 3 8 4 9 5 10 6 11 7 4 8 3 9 2 10 1 11
REMARK H PARENT
REMARK Flexibility Score: inf
ROOT
ATOM      1  C   UNL     1      38.656  -6.724  -6.362  1.00  0.00     0.004 C 
ENDROOT
BRANCH   1   2
ATOM      2  C   UNL     1      37.299  -6.127  -6.755  1.00  0.00     0.027 C 
BRANCH   2   3
ATOM      3  C   UNL     1      37.469  -4.899  -7.608  1.00  0.00    -0.025 C 
ATOM      4  C   UNL     1      36.494  -4.259  -8.273  1.00  0.00     0.020 C 
BRANCH   4   5
ATOM      5  C   UNL     1      35.055  -4.599  -8.274  1.00  0.00     0.064 C 
ATOM      6  O   UNL     1      34.232  -3.759  -7.829  1.00  0.00    -0.545 OA
ATOM      7  O   UNL     1      34.583  -5.825  -8.727  1.00  0.00    -0.545 OA
ENDBRANCH   4   5
ENDBRANCH   2   3
ENDBRANCH   1   2
BRANCH   1   8
ATOM      8  C   UNL     1      39.756  -5.656  -6.394  1.00  0.00     0.000 C 
BRANCH   8   9
ATOM      9  C   UNL     1      40.706  -5.807  -5.200  1.00  0.00    -0.000 C 
BRANCH   9  10
ATOM     10  C   UNL     1      41.387  -4.476  -4.867  1.00  0.00    -0.003 C 
ATOM     11  C   UNL     1      41.381  -4.213  -3.364  1.00  0.00     0.004 C 
ENDBRANCH   9  10
ENDBRANCH   8   9
ENDBRANCH   1   8
TORSDOF 6
ENDMDL
MODEL 3
REMARK VINA RESULT:    -3.848     16.427     18.004
REMARK INTER + INTRA:          -5.484
REMARK INTER:                  -4.829
REMARK INTRA:                  -0.655
REMARK UNBOUND:                -0.287
REMARK SMILES CCCCCCC=CC(=O)[O-]
REMARK SMILES IDX 5 1 6 2 7 3 8 4 9 5 10 6 11 7 4 8 3 9 2 10 1 11
REMARK H PARENT
REMARK Flexibility Score: inf
ROOT
ATOM      1  C   UNL     1      36.278   4.734   8.763  1.00  0.00     0.004 C 
ENDROOT
BRANCH   1   2
ATOM      2  C   UNL     1      37.352   4.709   7.667  1.00  0.00     0.027 C 
BRANCH   2   3
ATOM      3  C   UNL     1      38.619   4.065   8.159  1.00  0.00    -0.025 C 
ATOM      4  C   UNL     1      39.688   3.752   7.410  1.00  0.00     0.020 C 
BRANCH   4   5
ATOM      5  C   UNL     1      39.859   4.010   5.965  1.00  0.00     0.064 C 
ATOM      6  O   UNL     1      39.895   3.034   5.173  1.00  0.00    -0.545 OA
ATOM      7  O   UNL     1      40.006   5.293   5.453  1.00  0.00    -0.545 OA
ENDBRANCH   4   5
ENDBRANCH   2   3
ENDBRANCH   1   2
BRANCH   1   8
ATOM      8  C   UNL     1      36.511   3.616   9.786  1.00  0.00     0.000 C 
BRANCH   8   9
ATOM      9  C   UNL     1      35.330   2.639   9.814  1.00  0.00    -0.000 C 
BRANCH   9  10
ATOM     10  C   UNL     1      35.486   1.557   8.740  1.00  0.00    -0.003 C 
ATOM     11  C   UNL     1      36.834   0.853   8.857  1.00  0.00     0.004 C 
ENDBRANCH   9  10
ENDBRANCH   8   9
ENDBRANCH   1   8
TORSDOF 6
ENDMDL
MODEL 4
REMARK VINA RESULT:    -3.826      1.537      2.460
REMARK INTER + INTRA:          -5.455
REMARK INTER:                  -5.086
REMARK INTRA:                  -0.368
REMARK UNBOUND:                -0.287
REMARK SMILES CCCCCCC=CC(=O)[O-]
REMARK SMILES IDX 5 1 6 2 7 3 8 4 9 5 10 6 11 7 4 8 3 9 2 10 1 11
REMARK H PARENT
REMARK Flexibility Score: inf
ROOT
ATOM      1  C   UNL     1      39.664  -6.684  -6.253  1.00  0.00     0.004 C 
ENDROOT
BRANCH   1   2
ATOM      2  C   UNL     1      38.743  -5.572  -6.771  1.00  0.00     0.027 C 
BRANCH   2   3
ATOM      3  C   UNL     1      37.315  -6.038  -6.848  1.00  0.00    -0.025 C 
ATOM      4  C   UNL     1      36.338  -5.473  -7.576  1.00  0.00     0.020 C 
BRANCH   4   5
ATOM      5  C   UNL     1      36.470  -4.310  -8.479  1.00  0.00     0.064 C 
ATOM      6  O   UNL     1      35.962  -3.212  -8.135  1.00  0.00    -0.545 OA
ATOM      7  O   UNL     1      37.116  -4.394  -9.706  1.00  0.00    -0.545 OA
ENDBRANCH   4   5
ENDBRANCH   2   3
ENDBRANCH   1   2
BRANCH   1   8
ATOM      8  C   UNL     1      40.630  -6.147  -5.190  1.00  0.00     0.000 C 
BRANCH   8   9
ATOM      9  C   UNL     1      40.966  -4.673  -5.444  1.00  0.00    -0.000 C 
BRANCH   9  10
ATOM     10  C   UNL     1      41.462  -3.993  -4.164  1.00  0.00    -0.003 C 
ATOM     11  C   UNL     1      41.393  -4.943  -2.972  1.00  0.00     0.004 C 
ENDBRANCH   9  10
ENDBRANCH   8   9
ENDBRANCH   1   8
TORSDOF 6
ENDMDL
MODEL 5
REMARK VINA RESULT:    -3.825      2.962      5.613
REMARK INTER + INTRA:          -5.453
REMARK INTER:                  -5.016
REMARK INTRA:                  -0.437
REMARK UNBOUND:                -0.287
REMARK SMILES CCCCCCC=CC(=O)[O-]
REMARK SMILES IDX 5 1 6 2 7 3 8 4 9 5 10 6 11 7 4 8 3 9 2 10 1 11
REMARK H PARENT
REMARK Flexibility Score: inf
ROOT
ATOM      1  C   UNL     1      36.533  -4.185  -8.147  1.00  0.00     0.004 C 
ENDROOT
BRANCH   1   2
ATOM      2  C   UNL     1      37.436  -5.425  -8.107  1.00  0.00     0.027 C 
BRANCH   2   3
ATOM      3  C   UNL     1      37.428  -6.062  -6.745  1.00  0.00    -0.025 C 
ATOM      4  C   UNL     1      37.009  -7.305  -6.456  1.00  0.00     0.020 C 
BRANCH   4   5
ATOM      5  C   UNL     1      36.510  -8.313  -7.416  1.00  0.00     0.064 C 
ATOM      6  O   UNL     1      37.253  -9.280  -7.723  1.00  0.00    -0.545 OA
ATOM      7  O   UNL     1      35.257  -8.215  -8.009  1.00  0.00    -0.545 OA
ENDBRANCH   4   5
ENDBRANCH   2   3
ENDBRANCH   1   2
BRANCH   1   8
ATOM      8  C   UNL     1      35.054  -4.584  -8.215  1.00  0.00     0.000 C 
BRANCH   8   9
ATOM      9  C   UNL     1      34.179  -3.392  -8.620  1.00  0.00    -0.000 C 
BRANCH   9  10
ATOM     10  C   UNL     1      35.037  -2.218  -9.102  1.00  0.00    -0.003 C 
ATOM     11  C   UNL     1      34.189  -1.172  -9.819  1.00  0.00     0.004 C 
ENDBRANCH   9  10
ENDBRANCH   8   9
ENDBRANCH   1   8
TORSDOF 6
ENDMDL
MODEL 6
REMARK VINA RESULT:    -3.789     17.004     18.156
REMARK INTER + INTRA:          -5.404
REMARK INTER:                  -4.728
REMARK INTRA:                  -0.677
REMARK UNBOUND:                -0.287
REMARK SMILES CCCCCCC=CC(=O)[O-]
REMARK SMILES IDX 5 1 6 2 7 3 8 4 9 5 10 6 11 7 4 8 3 9 2 10 1 11
REMARK H PARENT
REMARK Flexibility Score: inf
ROOT
ATOM      1  C   UNL     1      37.011   4.702   9.048  1.00  0.00     0.004 C 
ENDROOT
BRANCH   1   2
ATOM      2  C   UNL     1      36.949   4.935   7.533  1.00  0.00     0.027 C 
BRANCH   2   3
ATOM      3  C   UNL     1      38.077   5.817   7.071  1.00  0.00    -0.025 C 
ATOM      4  C   UNL     1      39.312   5.411   6.737  1.00  0.00     0.020 C 
BRANCH   4   5
ATOM      5  C   UNL     1      39.806   4.017   6.715  1.00  0.00     0.064 C 
ATOM      6  O   UNL     1      39.611   3.319   5.688  1.00  0.00    -0.545 OA
ATOM      7  O   UNL     1      40.458   3.444   7.800  1.00  0.00    -0.545 OA
ENDBRANCH   4   5
ENDBRANCH   2   3
ENDBRANCH   1   2
BRANCH   1   8
ATOM      8  C   UNL     1      37.252   3.221   9.366  1.00  0.00     0.000 C 
BRANCH   8   9
ATOM      9  C   UNL     1      36.728   2.323   8.240  1.00  0.00    -0.000 C 
BRANCH   9  10
ATOM     10  C   UNL     1      35.801   1.235   8.790  1.00  0.00    -0.003 C 
ATOM     11  C   UNL     1      34.728   1.830   9.697  1.00  0.00     0.004 C 
ENDBRANCH   9  10
ENDBRANCH   8   9
ENDBRANCH   1   8
TORSDOF 6
ENDMDL
MODEL 7
REMARK VINA RESULT:    -3.717     17.311     18.667
REMARK INTER + INTRA:          -5.307
REMARK INTER:                  -4.934
REMARK INTRA:                  -0.372
REMARK UNBOUND:                -0.287
REMARK SMILES CCCCCCC=CC(=O)[O-]
REMARK SMILES IDX 5 1 6 2 7 3 8 4 9 5 10 6 11 7 4 8 3 9 2 10 1 11
REMARK H PARENT
REMARK Flexibility Score: inf
ROOT
ATOM      1  C   UNL     1      35.377   5.191   9.842  1.00  0.00     0.004 C 
ENDROOT
BRANCH   1   2
ATOM      2  C   UNL     1      36.029   3.817  10.042  1.00  0.00     0.027 C 
BRANCH   2   3
ATOM      3  C   UNL     1      35.008   2.714   9.975  1.00  0.00    -0.025 C 
ATOM      4  C   UNL     1      35.175   1.517   9.389  1.00  0.00     0.020 C 
BRANCH   4   5
ATOM      5  C   UNL     1      36.402   1.022   8.729  1.00  0.00     0.064 C 
ATOM      6  O   UNL     1      36.927  -0.044   9.142  1.00  0.00    -0.545 OA
ATOM      7  O   UNL     1      37.009   1.706   7.683  1.00  0.00    -0.545 OA
ENDBRANCH   4   5
ENDBRANCH   2   3
ENDBRANCH   1   2
BRANCH   1   8
ATOM      8  C   UNL     1      36.146   6.018   8.805  1.00  0.00     0.000 C 
BRANCH   8   9
ATOM      9  C   UNL     1      36.901   5.111   7.826  1.00  0.00    -0.000 C 
BRANCH   9  10
ATOM     10  C   UNL     1      38.351   5.573   7.655  1.00  0.00    -0.003 C 
ATOM     11  C   UNL     1      39.148   4.589   6.803  1.00  0.00     0.004 C 
ENDBRANCH   9  10
ENDBRANCH   8   9
ENDBRANCH   1   8
TORSDOF 6
ENDMDL
MODEL 8
REMARK VINA RESULT:    -3.635      1.937      2.807
REMARK INTER + INTRA:          -5.197
REMARK INTER:                  -4.807
REMARK INTRA:                  -0.390
REMARK UNBOUND:                -0.287
REMARK SMILES CCCCCCC=CC(=O)[O-]
REMARK SMILES IDX 5 1 6 2 7 3 8 4 9 5 10 6 11 7 4 8 3 9 2 10 1 11
REMARK H PARENT
REMARK Flexibility Score: inf
ROOT
ATOM      1  C   UNL     1      37.227  -5.250  -7.448  1.00  0.00     0.004 C 
ENDROOT
BRANCH   1   2
ATOM      2  C   UNL     1      35.754  -5.652  -7.600  1.00  0.00     0.027 C 
BRANCH   2   3
ATOM      3  C   UNL     1      35.320  -5.598  -9.039  1.00  0.00    -0.025 C 
ATOM      4  C   UNL     1      34.702  -4.569  -9.640  1.00  0.00     0.020 C 
BRANCH   4   5
ATOM      5  C   UNL     1      34.359  -3.267  -9.028  1.00  0.00     0.064 C 
ATOM      6  O   UNL     1      33.148  -2.962  -8.886  1.00  0.00    -0.545 OA
ATOM      7  O   UNL     1      35.331  -2.358  -8.627  1.00  0.00    -0.545 OA
ENDBRANCH   4   5
ENDBRANCH   2   3
ENDBRANCH   1   2
BRANCH   1   8
ATOM      8  C   UNL     1      38.027  -6.350  -6.740  1.00  0.00     0.000 C 
BRANCH   8   9
ATOM      9  C   UNL     1      37.244  -7.668  -6.710  1.00  0.00    -0.000 C 
BRANCH   9  10
ATOM     10  C   UNL     1      37.750  -8.583  -5.590  1.00  0.00    -0.003 C 
ATOM     11  C   UNL     1      36.607  -9.034  -4.686  1.00  0.00     0.004 C 
ENDBRANCH   9  10
ENDBRANCH   8   9
ENDBRANCH   1   8
TORSDOF 6
ENDMDL
MODEL 9
REMARK VINA RESULT:    -3.621     18.676     20.166
REMARK INTER + INTRA:          -5.177
REMARK INTER:                  -4.858
REMARK INTRA:                  -0.319
REMARK UNBOUND:                -0.287
REMARK SMILES CCCCCCC=CC(=O)[O-]
REMARK SMILES IDX 5 1 6 2 7 3 8 4 9 5 10 6 11 7 4 8 3 9 2 10 1 11
REMARK H PARENT
REMARK Flexibility Score: inf
ROOT
ATOM      1  C   UNL     1      35.126   5.971  10.125  1.00  0.00     0.004 C 
ENDROOT
BRANCH   1   2
ATOM      2  C   UNL     1      36.026   5.119   9.220  1.00  0.00     0.027 C 
BRANCH   2   3
ATOM      3  C   UNL     1      36.795   4.102  10.017  1.00  0.00    -0.025 C 
ATOM      4  C   UNL     1      36.712   2.768   9.886  1.00  0.00     0.020 C 
BRANCH   4   5
ATOM      5  C   UNL     1      35.885   2.028   8.909  1.00  0.00     0.064 C 
ATOM      6  O   UNL     1      34.822   1.482   9.303  1.00  0.00    -0.545 OA
ATOM      7  O   UNL     1      36.253   1.894   7.576  1.00  0.00    -0.545 OA
ENDBRANCH   4   5
ENDBRANCH   2   3
ENDBRANCH   1   2
BRANCH   1   8
ATOM      8  C   UNL     1      34.420   7.069   9.321  1.00  0.00     0.000 C 
BRANCH   8   9
ATOM      9  C   UNL     1      33.109   7.490   9.995  1.00  0.00    -0.000 C 
BRANCH   9  10
ATOM     10  C   UNL     1      31.904   7.172   9.103  1.00  0.00    -0.003 C 
ATOM     11  C   UNL     1      31.371   5.769   9.376  1.00  0.00     0.004 C 
ENDBRANCH   9  10
ENDBRANCH   8   9
ENDBRANCH   1   8
TORSDOF 6
ENDMDL
