MODEL 1
REMARK VINA RESULT:    -3.878      0.000      0.000
REMARK INTER + INTRA:          -5.962
REMARK INTER:                  -5.238
REMARK INTRA:                  -0.724
REMARK UNBOUND:                -0.724
REMARK SMILES CC(=O)CCC=C(C)CCC=C(C)C
REMARK SMILES IDX 7 1 6 2 8 3 9 4 10 5 11 6 13 7 12 8 14 9 5 10 4 11 2 12 3 13
REMARK SMILES IDX 1 14
REMARK H PARENT
REMARK Flexibility Score: inf
ROOT
ATOM      1  C   UNL     1     199.486 150.356 165.072  1.00  0.00    -0.077 C 
ATOM      2  C   UNL     1     199.286 151.685 164.934  1.00  0.00    -0.028 C 
ATOM      3  C   UNL     1     200.681 149.816 165.821  1.00  0.00     0.039 C 
ENDROOT
BRANCH   1   4
ATOM      4  C   UNL     1     198.497 149.392 164.454  1.00  0.00     0.034 C 
BRANCH   4   5
ATOM      5  C   UNL     1     198.845 149.116 162.987  1.00  0.00     0.032 C 
BRANCH   5   6
ATOM      6  C   UNL     1     197.718 149.527 162.071  1.00  0.00    -0.028 C 
ATOM      7  C   UNL     1     199.052 151.420 161.135  1.00  0.00     0.039 C 
ATOM      8  C   UNL     1     197.803 150.575 161.223  1.00  0.00    -0.080 C 
ATOM      9  C   UNL     1     196.618 150.898 160.351  1.00  0.00     0.039 C 
ENDBRANCH   5   6
ENDBRANCH   4   5
ENDBRANCH   1   4
BRANCH   2  10
ATOM     10  C   UNL     1     200.210 152.727 165.520  1.00  0.00     0.035 C 
BRANCH  10  11
ATOM     11  C   UNL     1     199.526 154.094 165.650  1.00  0.00     0.079 C 
BRANCH  11  12
ATOM     12  C   UNL     1     200.257 155.158 164.871  1.00  0.00     0.130 C 
ATOM     13  O   UNL     1     200.964 154.836 163.928  1.00  0.00    -0.300 OA
ATOM     14  C   UNL     1     200.130 156.610 165.226  1.00  0.00     0.087 C 
ENDBRANCH  11  12
ENDBRANCH  10  11
ENDBRANCH   2  10
TORSDOF 6
ENDMDL
MODEL 2
REMARK VINA RESULT:    -3.856     14.541     17.320
REMARK INTER + INTRA:          -5.932
REMARK INTER:                  -5.097
REMARK INTRA:                  -0.835
REMARK UNBOUND:                -0.724
REMARK SMILES CC(=O)CCC=C(C)CCC=C(C)C
REMARK SMILES IDX 7 1 6 2 8 3 9 4 10 5 11 6 13 7 12 8 14 9 5 10 4 11 2 12 3 13
REMARK SMILES IDX 1 14
REMARK H PARENT
REMARK Flexibility Score: inf
ROOT
ATOM      1  C   UNL     1     214.105 147.362 172.103  1.00  0.00    -0.077 C 
ATOM      2  C   UNL     1     212.822 147.023 171.849  1.00  0.00    -0.028 C 
ATOM      3  C   UNL     1     214.761 148.531 171.408  1.00  0.00     0.039 C 
ENDROOT
BRANCH   1   4
ATOM      4  C   UNL     1     214.901 146.546 173.098  1.00  0.00     0.034 C 
BRANCH   4   5
ATOM      5  C   UNL     1     215.846 145.577 172.379  1.00  0.00     0.032 C 
BRANCH   5   6
ATOM      6  C   UNL     1     215.078 144.478 171.685  1.00  0.00    -0.028 C 
ATOM      7  C   UNL     1     215.826 145.257 169.433  1.00  0.00     0.039 C 
ATOM      8  C   UNL     1     215.063 144.324 170.344  1.00  0.00    -0.080 C 
ATOM      9  C   UNL     1     214.263 143.191 169.754  1.00  0.00     0.039 C 
ENDBRANCH   5   6
ENDBRANCH   4   5
ENDBRANCH   1   4
BRANCH   2  10
ATOM     10  C   UNL     1     211.943 147.780 170.880  1.00  0.00     0.035 C 
BRANCH  10  11
ATOM     11  C   UNL     1     210.468 147.752 171.302  1.00  0.00     0.079 C 
BRANCH  11  12
ATOM     12  C   UNL     1     209.794 146.471 170.882  1.00  0.00     0.130 C 
ATOM     13  O   UNL     1     210.160 145.903 169.864  1.00  0.00    -0.300 OA
ATOM     14  C   UNL     1     208.684 145.871 171.694  1.00  0.00     0.087 C 
ENDBRANCH  11  12
ENDBRANCH  10  11
ENDBRANCH   2  10
TORSDOF 6
ENDMDL
MODEL 3
REMARK VINA RESULT:    -3.843     15.386     17.751
REMARK INTER + INTRA:          -5.915
REMARK INTER:                  -4.516
REMARK INTRA:                  -1.400
REMARK UNBOUND:                -0.724
REMARK SMILES CC(=O)CCC=C(C)CCC=C(C)C
REMARK SMILES IDX 7 1 6 2 8 3 9 4 10 5 11 6 13 7 12 8 14 9 5 10 4 11 2 12 3 13
REMARK SMILES IDX 1 14
REMARK H PARENT
REMARK Flexibility Score: inf
ROOT
ATOM      1  C   UNL     1     215.352 144.757 170.819  1.00  0.00    -0.077 C 
ATOM      2  C   UNL     1     214.539 143.737 170.463  1.00  0.00    -0.028 C 
ATOM      3  C   UNL     1     216.125 145.541 169.786  1.00  0.00     0.039 C 
ENDROOT
BRANCH   1   4
ATOM      4  C   UNL     1     215.495 145.111 172.283  1.00  0.00     0.034 C 
BRANCH   4   5
ATOM      5  C   UNL     1     215.009 146.539 172.550  1.00  0.00     0.032 C 
BRANCH   5   6
ATOM      6  C   UNL     1     213.503 146.626 172.486  1.00  0.00    -0.028 C 
ATOM      7  C   UNL     1     213.590 148.275 170.613  1.00  0.00     0.039 C 
ATOM      8  C   UNL     1     212.848 147.414 171.607  1.00  0.00    -0.080 C 
ATOM      9  C   UNL     1     211.341 147.425 171.628  1.00  0.00     0.039 C 
ENDBRANCH   5   6
ENDBRANCH   4   5
ENDBRANCH   1   4
BRANCH   2  10
ATOM     10  C   UNL     1     214.323 143.313 169.029  1.00  0.00     0.035 C 
BRANCH  10  11
ATOM     11  C   UNL     1     212.834 143.265 168.663  1.00  0.00     0.079 C 
BRANCH  11  12
ATOM     12  C   UNL     1     212.215 144.640 168.671  1.00  0.00     0.130 C 
ATOM     13  O   UNL     1     211.180 144.831 169.289  1.00  0.00    -0.300 OA
ATOM     14  C   UNL     1     212.852 145.786 167.941  1.00  0.00     0.087 C 
ENDBRANCH  11  12
ENDBRANCH  10  11
ENDBRANCH   2  10
TORSDOF 6
ENDMDL
MODEL 4
REMARK VINA RESULT:    -3.834      2.084      6.038
REMARK INTER + INTRA:          -5.903
REMARK INTER:                  -5.302
REMARK INTRA:                  -0.601
REMARK UNBOUND:                -0.724
REMARK SMILES CC(=O)CCC=C(C)CCC=C(C)C
REMARK SMILES IDX 7 1 6 2 8 3 9 4 10 5 11 6 13 7 12 8 14 9 5 10 4 11 2 12 3 13
REMARK SMILES IDX 1 14
REMARK H PARENT
REMARK Flexibility Score: inf
ROOT
ATOM      1  C   UNL     1     199.733 152.131 164.846  1.00  0.00    -0.077 C 
ATOM      2  C   UNL     1     199.996 152.168 163.521  1.00  0.00    -0.028 C 
ATOM      3  C   UNL     1     199.187 150.886 165.504  1.00  0.00     0.039 C 
ENDROOT
BRANCH   1   4
ATOM      4  C   UNL     1     199.983 153.366 165.684  1.00  0.00     0.034 C 
BRANCH   4   5
ATOM      5  C   UNL     1     200.584 154.491 164.834  1.00  0.00     0.032 C 
BRANCH   5   6
ATOM      6  C   UNL     1     199.899 155.808 165.104  1.00  0.00    -0.028 C 
ATOM      7  C   UNL     1     201.900 157.102 164.357  1.00  0.00     0.039 C 
ATOM      8  C   UNL     1     200.491 157.003 164.890  1.00  0.00    -0.080 C 
ATOM      9  C   UNL     1     199.716 158.259 165.194  1.00  0.00     0.039 C 
ENDBRANCH   5   6
ENDBRANCH   4   5
ENDBRANCH   1   4
BRANCH   2  10
ATOM     10  C   UNL     1     199.788 150.985 162.603  1.00  0.00     0.035 C 
BRANCH  10  11
ATOM     11  C   UNL     1     199.010 151.370 161.339  1.00  0.00     0.079 C 
BRANCH  11  12
ATOM     12  C   UNL     1     197.742 150.565 161.200  1.00  0.00     0.130 C 
ATOM     13  O   UNL     1     196.934 150.858 160.333  1.00  0.00    -0.300 OA
ATOM     14  C   UNL     1     197.455 149.402 162.103  1.00  0.00     0.087 C 
ENDBRANCH  11  12
ENDBRANCH  10  11
ENDBRANCH   2  10
TORSDOF 6
ENDMDL
MODEL 5
REMARK VINA RESULT:    -3.827      1.770      3.076
REMARK INTER + INTRA:          -5.893
REMARK INTER:                  -5.173
REMARK INTRA:                  -0.721
REMARK UNBOUND:                -0.724
REMARK SMILES CC(=O)CCC=C(C)CCC=C(C)C
REMARK SMILES IDX 7 1 6 2 8 3 9 4 10 5 11 6 13 7 12 8 14 9 5 10 4 11 2 12 3 13
REMARK SMILES IDX 1 14
REMARK H PARENT
REMARK Flexibility Score: inf
ROOT
ATOM      1  C   UNL     1     200.468 153.266 165.353  1.00  0.00    -0.077 C 
ATOM      2  C   UNL     1     199.856 154.422 165.013  1.00  0.00    -0.028 C 
ATOM      3  C   UNL     1     201.949 153.067 165.134  1.00  0.00     0.039 C 
ENDROOT
BRANCH   1   4
ATOM      4  C   UNL     1     199.648 152.146 165.957  1.00  0.00     0.034 C 
BRANCH   4   5
ATOM      5  C   UNL     1     200.125 150.782 165.446  1.00  0.00     0.032 C 
BRANCH   5   6
ATOM      6  C   UNL     1     199.020 150.050 164.725  1.00  0.00    -0.028 C 
ATOM      7  C   UNL     1     199.718 150.987 162.518  1.00  0.00     0.039 C 
ATOM      8  C   UNL     1     198.826 150.137 163.392  1.00  0.00    -0.080 C 
ATOM      9  C   UNL     1     197.692 149.362 162.773  1.00  0.00     0.039 C 
ENDBRANCH   5   6
ENDBRANCH   4   5
ENDBRANCH   1   4
BRANCH   2  10
ATOM     10  C   UNL     1     200.589 155.600 164.413  1.00  0.00     0.035 C 
BRANCH  10  11
ATOM     11  C   UNL     1     200.647 156.791 165.377  1.00  0.00     0.079 C 
BRANCH  11  12
ATOM     12  C   UNL     1     200.141 158.056 164.730  1.00  0.00     0.130 C 
ATOM     13  O   UNL     1     199.522 158.869 165.398  1.00  0.00    -0.300 OA
ATOM     14  C   UNL     1     200.390 158.342 163.278  1.00  0.00     0.087 C 
ENDBRANCH  11  12
ENDBRANCH  10  11
ENDBRANCH   2  10
TORSDOF 6
ENDMDL
MODEL 6
REMARK VINA RESULT:    -3.762     14.685     17.124
REMARK INTER + INTRA:          -5.805
REMARK INTER:                  -4.408
REMARK INTRA:                  -1.397
REMARK UNBOUND:                -0.724
REMARK SMILES CC(=O)CCC=C(C)CCC=C(C)C
REMARK SMILES IDX 7 1 6 2 8 3 9 4 10 5 11 6 13 7 12 8 14 9 5 10 4 11 2 12 3 13
REMARK SMILES IDX 1 14
REMARK H PARENT
REMARK Flexibility Score: inf
ROOT
ATOM      1  C   UNL     1     215.066 144.292 170.308  1.00  0.00    -0.077 C 
ATOM      2  C   UNL     1     214.753 144.493 171.607  1.00  0.00    -0.028 C 
ATOM      3  C   UNL     1     215.872 145.304 169.529  1.00  0.00     0.039 C 
ENDROOT
BRANCH   1   4
ATOM      4  C   UNL     1     214.590 143.031 169.620  1.00  0.00     0.034 C 
BRANCH   4   5
ATOM      5  C   UNL     1     213.700 143.366 168.419  1.00  0.00     0.032 C 
BRANCH   5   6
ATOM      6  C   UNL     1     212.280 143.644 168.850  1.00  0.00    -0.028 C 
ATOM      7  C   UNL     1     212.474 146.058 168.240  1.00  0.00     0.039 C 
ATOM      8  C   UNL     1     211.713 144.867 168.772  1.00  0.00    -0.080 C 
ATOM      9  C   UNL     1     210.287 145.034 169.230  1.00  0.00     0.039 C 
ENDBRANCH   5   6
ENDBRANCH   4   5
ENDBRANCH   1   4
BRANCH   2  10
ATOM     10  C   UNL     1     215.189 145.714 172.384  1.00  0.00     0.035 C 
BRANCH  10  11
ATOM     11  C   UNL     1     213.992 146.504 172.930  1.00  0.00     0.079 C 
BRANCH  11  12
ATOM     12  C   UNL     1     213.286 147.269 171.839  1.00  0.00     0.130 C 
ATOM     13  O   UNL     1     213.943 147.865 170.999  1.00  0.00    -0.300 OA
ATOM     14  C   UNL     1     211.789 147.307 171.757  1.00  0.00     0.087 C 
ENDBRANCH  11  12
ENDBRANCH  10  11
ENDBRANCH   2  10
TORSDOF 6
ENDMDL
MODEL 7
REMARK VINA RESULT:    -3.737     15.146     17.518
REMARK INTER + INTRA:          -5.772
REMARK INTER:                  -4.734
REMARK INTRA:                  -1.038
REMARK UNBOUND:                -0.724
REMARK SMILES CC(=O)CCC=C(C)CCC=C(C)C
REMARK SMILES IDX 7 1 6 2 8 3 9 4 10 5 11 6 13 7 12 8 14 9 5 10 4 11 2 12 3 13
REMARK SMILES IDX 1 14
REMARK H PARENT
REMARK Flexibility Score: inf
ROOT
ATOM      1  C   UNL     1     214.195 147.755 172.096  1.00  0.00    -0.077 C 
ATOM      2  C   UNL     1     214.996 148.833 171.945  1.00  0.00    -0.028 C 
ATOM      3  C   UNL     1     212.902 147.624 171.328  1.00  0.00     0.039 C 
ENDROOT
BRANCH   1   4
ATOM      4  C   UNL     1     214.600 146.665 173.065  1.00  0.00     0.034 C 
BRANCH   4   5
ATOM      5  C   UNL     1     215.678 145.763 172.453  1.00  0.00     0.032 C 
BRANCH   5   6
ATOM      6  C   UNL     1     215.066 144.561 171.775  1.00  0.00    -0.028 C 
ATOM      7  C   UNL     1     215.597 145.461 169.506  1.00  0.00     0.039 C 
ATOM      8  C   UNL     1     215.025 144.415 170.433  1.00  0.00    -0.080 C 
ATOM      9  C   UNL     1     214.391 143.174 169.859  1.00  0.00     0.039 C 
ENDBRANCH   5   6
ENDBRANCH   4   5
ENDBRANCH   1   4
BRANCH   2  10
ATOM     10  C   UNL     1     214.685 149.969 170.997  1.00  0.00     0.035 C 
BRANCH  10  11
ATOM     11  C   UNL     1     214.315 151.255 171.746  1.00  0.00     0.079 C 
BRANCH  11  12
ATOM     12  C   UNL     1     213.074 151.894 171.175  1.00  0.00     0.130 C 
ATOM     13  O   UNL     1     212.777 153.032 171.503  1.00  0.00    -0.300 OA
ATOM     14  C   UNL     1     212.198 151.163 170.202  1.00  0.00     0.087 C 
ENDBRANCH  11  12
ENDBRANCH  10  11
ENDBRANCH   2  10
TORSDOF 6
ENDMDL
MODEL 8
REMARK VINA RESULT:    -3.696      1.766      3.371
REMARK INTER + INTRA:          -5.717
REMARK INTER:                  -4.817
REMARK INTRA:                  -0.900
REMARK UNBOUND:                -0.724
REMARK SMILES CC(=O)CCC=C(C)CCC=C(C)C
REMARK SMILES IDX 7 1 6 2 8 3 9 4 10 5 11 6 13 7 12 8 14 9 5 10 4 11 2 12 3 13
REMARK SMILES IDX 1 14
REMARK H PARENT
REMARK Flexibility Score: inf
ROOT
ATOM      1  C   UNL     1     200.104 153.659 164.795  1.00  0.00    -0.077 C 
ATOM      2  C   UNL     1     199.893 154.909 165.266  1.00  0.00    -0.028 C 
ATOM      3  C   UNL     1     200.828 153.424 163.491  1.00  0.00     0.039 C 
ENDROOT
BRANCH   1   4
ATOM      4  C   UNL     1     199.594 152.475 165.588  1.00  0.00     0.034 C 
BRANCH   4   5
ATOM      5  C   UNL     1     200.240 151.173 165.102  1.00  0.00     0.032 C 
BRANCH   5   6
ATOM      6  C   UNL     1     199.221 150.066 164.985  1.00  0.00    -0.028 C 
ATOM      7  C   UNL     1     199.008 150.403 162.520  1.00  0.00     0.039 C 
ATOM      8  C   UNL     1     198.654 149.708 163.813  1.00  0.00    -0.080 C 
ATOM      9  C   UNL     1     197.647 148.587 163.809  1.00  0.00     0.039 C 
ENDBRANCH   5   6
ENDBRANCH   4   5
ENDBRANCH   1   4
BRANCH   2  10
ATOM     10  C   UNL     1     200.371 156.153 164.554  1.00  0.00     0.035 C 
BRANCH  10  11
ATOM     11  C   UNL     1     201.502 156.853 165.317  1.00  0.00     0.079 C 
BRANCH  11  12
ATOM     12  C   UNL     1     202.848 156.264 164.980  1.00  0.00     0.130 C 
ATOM     13  O   UNL     1     203.425 156.622 163.965  1.00  0.00    -0.300 OA
ATOM     14  C   UNL     1     203.501 155.250 165.872  1.00  0.00     0.087 C 
ENDBRANCH  11  12
ENDBRANCH  10  11
ENDBRANCH   2  10
TORSDOF 6
ENDMDL
MODEL 9
REMARK VINA RESULT:    -3.616     14.548     17.263
REMARK INTER + INTRA:          -5.609
REMARK INTER:                  -4.223
REMARK INTRA:                  -1.386
REMARK UNBOUND:                -0.724
REMARK SMILES CC(=O)CCC=C(C)CCC=C(C)C
REMARK SMILES IDX 7 1 6 2 8 3 9 4 10 5 11 6 13 7 12 8 14 9 5 10 4 11 2 12 3 13
REMARK SMILES IDX 1 14
REMARK H PARENT
REMARK Flexibility Score: inf
ROOT
ATOM      1  C   UNL     1     214.010 160.937 159.276  1.00  0.00    -0.077 C 
ATOM      2  C   UNL     1     213.644 159.679 158.942  1.00  0.00    -0.028 C 
ATOM      3  C   UNL     1     215.440 161.271 159.629  1.00  0.00     0.039 C 
ENDROOT
BRANCH   1   4
ATOM      4  C   UNL     1     212.962 162.028 159.305  1.00  0.00     0.034 C 
BRANCH   4   5
ATOM      5  C   UNL     1     211.872 161.711 160.335  1.00  0.00     0.032 C 
BRANCH   5   6
ATOM      6  C   UNL     1     212.471 161.265 161.646  1.00  0.00    -0.028 C 
ATOM      7  C   UNL     1     211.061 159.204 161.690  1.00  0.00     0.039 C 
ATOM      8  C   UNL     1     212.108 160.124 162.272  1.00  0.00    -0.080 C 
ATOM      9  C   UNL     1     212.770 159.772 163.579  1.00  0.00     0.039 C 
ENDBRANCH   5   6
ENDBRANCH   4   5
ENDBRANCH   1   4
BRANCH   2  10
ATOM     10  C   UNL     1     214.617 158.525 158.875  1.00  0.00     0.035 C 
BRANCH  10  11
ATOM     11  C   UNL     1     214.090 157.287 159.612  1.00  0.00     0.079 C 
BRANCH  11  12
ATOM     12  C   UNL     1     214.372 157.358 161.091  1.00  0.00     0.130 C 
ATOM     13  O   UNL     1     213.635 156.779 161.874  1.00  0.00    -0.300 OA
ATOM     14  C   UNL     1     215.548 158.122 161.625  1.00  0.00     0.087 C 
ENDBRANCH  11  12
ENDBRANCH  10  11
ENDBRANCH   2  10
TORSDOF 6
ENDMDL
