MODEL 1
REMARK VINA RESULT:    -1.651      0.000      0.000
REMARK INTER + INTRA:          -3.667
REMARK INTER:                  -2.519
REMARK INTRA:                  -1.148
REMARK UNBOUND:                -1.148
REMARK SMILES O=C([O-])CCCCCCCCC(=O)[O-]
REMARK SMILES IDX 7 1 6 2 5 3 4 4 2 5 1 6 3 7 8 8 9 9 10 10 11 11 12 12 13 13
REMARK SMILES IDX 14 14
REMARK H PARENT
REMARK Flexibility Score: inf
ROOT
ATOM      1  C   UNL     1      20.941  27.952  14.886  1.00  0.00     0.000 C 
ENDROOT
BRANCH   1   2
ATOM      2  C   UNL     1      21.988  28.740  15.691  1.00  0.00     0.000 C 
BRANCH   2   3
ATOM      3  C   UNL     1      22.770  29.742  14.822  1.00  0.00     0.006 C 
BRANCH   3   4
ATOM      4  C   UNL     1      24.254  29.370  14.706  1.00  0.00     0.053 C 
BRANCH   4   5
ATOM      5  C   UNL     1      24.681  29.226  13.278  1.00  0.00     0.041 C 
ATOM      6  O   UNL     1      23.929  29.624  12.349  1.00  0.00    -0.550 OA
ATOM      7  O   UNL     1      25.923  28.685  12.973  1.00  0.00    -0.550 OA
ENDBRANCH   4   5
ENDBRANCH   3   4
ENDBRANCH   2   3
ENDBRANCH   1   2
BRANCH   1   8
ATOM      8  C   UNL     1      20.731  28.520  13.475  1.00  0.00     0.000 C 
BRANCH   8   9
ATOM      9  C   UNL     1      21.109  27.488  12.406  1.00  0.00     0.000 C 
BRANCH   9  10
ATOM     10  C   UNL     1      21.629  26.194  13.050  1.00  0.00     0.006 C 
BRANCH  10  11
ATOM     11  C   UNL     1      23.111  25.945  12.739  1.00  0.00     0.053 C 
BRANCH  11  12
ATOM     12  C   UNL     1      23.813  25.274  13.880  1.00  0.00     0.041 C 
ATOM     13  O   UNL     1      24.038  25.905  14.945  1.00  0.00    -0.550 OA
ATOM     14  O   UNL     1      24.190  23.940  13.777  1.00  0.00    -0.550 OA
ENDBRANCH  11  12
ENDBRANCH  10  11
ENDBRANCH   9  10
ENDBRANCH   8   9
ENDBRANCH   1   8
TORSDOF 9
ENDMDL
MODEL 2
REMARK VINA RESULT:    -1.647      2.170      3.307
REMARK INTER + INTRA:          -3.661
REMARK INTER:                  -2.598
REMARK INTRA:                  -1.064
REMARK UNBOUND:                -1.148
REMARK SMILES O=C([O-])CCCCCCCCC(=O)[O-]
REMARK SMILES IDX 7 1 6 2 5 3 4 4 2 5 1 6 3 7 8 8 9 9 10 10 11 11 12 12 13 13
REMARK SMILES IDX 14 14
REMARK H PARENT
REMARK Flexibility Score: inf
ROOT
ATOM      1  C   UNL     1      23.157  28.806  16.621  1.00  0.00     0.000 C 
ENDROOT
BRANCH   1   2
ATOM      2  C   UNL     1      23.999  29.864  15.889  1.00  0.00     0.000 C 
BRANCH   2   3
ATOM      3  C   UNL     1      23.511  30.115  14.451  1.00  0.00     0.006 C 
BRANCH   3   4
ATOM      4  C   UNL     1      24.261  29.252  13.427  1.00  0.00     0.053 C 
BRANCH   4   5
ATOM      5  C   UNL     1      23.394  28.161  12.879  1.00  0.00     0.041 C 
ATOM      6  O   UNL     1      23.867  27.324  12.064  1.00  0.00    -0.550 OA
ATOM      7  O   UNL     1      22.073  28.046  13.293  1.00  0.00    -0.550 OA
ENDBRANCH   4   5
ENDBRANCH   3   4
ENDBRANCH   2   3
ENDBRANCH   1   2
BRANCH   1   8
ATOM      8  C   UNL     1      23.939  27.512  16.892  1.00  0.00     0.000 C 
BRANCH   8   9
ATOM      9  C   UNL     1      25.437  27.712  16.630  1.00  0.00     0.000 C 
BRANCH   9  10
ATOM     10  C   UNL     1      25.953  26.707  15.590  1.00  0.00     0.006 C 
BRANCH  10  11
ATOM     11  C   UNL     1      24.902  25.647  15.233  1.00  0.00     0.053 C 
BRANCH  11  12
ATOM     12  C   UNL     1      25.400  24.259  15.500  1.00  0.00     0.041 C 
ATOM     13  O   UNL     1      25.642  23.888  16.677  1.00  0.00    -0.550 OA
ATOM     14  O   UNL     1      25.564  23.365  14.448  1.00  0.00    -0.550 OA
ENDBRANCH  11  12
ENDBRANCH  10  11
ENDBRANCH   9  10
ENDBRANCH   8   9
ENDBRANCH   1   8
TORSDOF 9
ENDMDL
MODEL 3
REMARK VINA RESULT:    -1.600      1.969      2.894
REMARK INTER + INTRA:          -3.589
REMARK INTER:                  -2.435
REMARK INTRA:                  -1.155
REMARK UNBOUND:                -1.148
REMARK SMILES O=C([O-])CCCCCCCCC(=O)[O-]
REMARK SMILES IDX 7 1 6 2 5 3 4 4 2 5 1 6 3 7 8 8 9 9 10 10 11 11 12 12 13 13
REMARK SMILES IDX 14 14
REMARK H PARENT
REMARK Flexibility Score: inf
ROOT
ATOM      1  C   UNL     1      24.139  28.146  11.989  1.00  0.00     0.000 C 
ENDROOT
BRANCH   1   2
ATOM      2  C   UNL     1      24.706  29.363  12.739  1.00  0.00     0.000 C 
BRANCH   2   3
ATOM      3  C   UNL     1      23.817  29.798  13.917  1.00  0.00     0.006 C 
BRANCH   3   4
ATOM      4  C   UNL     1      24.270  29.175  15.244  1.00  0.00     0.053 C 
BRANCH   4   5
ATOM      5  C   UNL     1      23.121  28.587  16.003  1.00  0.00     0.041 C 
ATOM      6  O   UNL     1      21.951  28.663  15.541  1.00  0.00    -0.550 OA
ATOM      7  O   UNL     1      23.345  27.924  17.203  1.00  0.00    -0.550 OA
ENDBRANCH   4   5
ENDBRANCH   3   4
ENDBRANCH   2   3
ENDBRANCH   1   2
BRANCH   1   8
ATOM      8  C   UNL     1      22.609  28.057  12.081  1.00  0.00     0.000 C 
BRANCH   8   9
ATOM      9  C   UNL     1      22.170  26.684  12.605  1.00  0.00     0.000 C 
BRANCH   9  10
ATOM     10  C   UNL     1      23.373  25.882  13.124  1.00  0.00     0.006 C 
BRANCH  10  11
ATOM     11  C   UNL     1      23.113  25.275  14.509  1.00  0.00     0.053 C 
BRANCH  11  12
ATOM     12  C   UNL     1      24.389  24.915  15.207  1.00  0.00     0.041 C 
ATOM     13  O   UNL     1      24.557  23.753  15.660  1.00  0.00    -0.550 OA
ATOM     14  O   UNL     1      25.405  25.855  15.328  1.00  0.00    -0.550 OA
ENDBRANCH  11  12
ENDBRANCH  10  11
ENDBRANCH   9  10
ENDBRANCH   8   9
ENDBRANCH   1   8
TORSDOF 9
ENDMDL
MODEL 4
REMARK VINA RESULT:    -1.593      1.701      3.120
REMARK INTER + INTRA:          -3.579
REMARK INTER:                  -2.681
REMARK INTRA:                  -0.898
REMARK UNBOUND:                -1.148
REMARK SMILES O=C([O-])CCCCCCCCC(=O)[O-]
REMARK SMILES IDX 7 1 6 2 5 3 4 4 2 5 1 6 3 7 8 8 9 9 10 10 11 11 12 12 13 13
REMARK SMILES IDX 14 14
REMARK H PARENT
REMARK Flexibility Score: inf
ROOT
ATOM      1  C   UNL     1      20.953  27.311  14.565  1.00  0.00     0.000 C 
ENDROOT
BRANCH   1   2
ATOM      2  C   UNL     1      21.572  26.987  13.196  1.00  0.00     0.000 C 
BRANCH   2   3
ATOM      3  C   UNL     1      22.462  28.126  12.665  1.00  0.00     0.006 C 
BRANCH   3   4
ATOM      4  C   UNL     1      23.922  27.686  12.493  1.00  0.00     0.053 C 
BRANCH   4   5
ATOM      5  C   UNL     1      24.874  28.821  12.709  1.00  0.00     0.041 C 
ATOM      6  O   UNL     1      26.048  28.598  13.105  1.00  0.00    -0.550 OA
ATOM      7  O   UNL     1      24.476  30.125  12.441  1.00  0.00    -0.550 OA
ENDBRANCH   4   5
ENDBRANCH   3   4
ENDBRANCH   2   3
ENDBRANCH   1   2
BRANCH   1   8
ATOM      8  C   UNL     1      21.047  28.803  14.918  1.00  0.00     0.000 C 
BRANCH   8   9
ATOM      9  C   UNL     1      21.820  29.009  16.227  1.00  0.00     0.000 C 
BRANCH   9  10
ATOM     10  C   UNL     1      22.957  27.985  16.362  1.00  0.00     0.006 C 
BRANCH  10  11
ATOM     11  C   UNL     1      24.342  28.642  16.292  1.00  0.00     0.053 C 
BRANCH  11  12
ATOM     12  C   UNL     1      25.440  27.652  16.540  1.00  0.00     0.041 C 
ATOM     13  O   UNL     1      26.125  27.716  17.593  1.00  0.00    -0.550 OA
ATOM     14  O   UNL     1      25.683  26.638  15.620  1.00  0.00    -0.550 OA
ENDBRANCH  11  12
ENDBRANCH  10  11
ENDBRANCH   9  10
ENDBRANCH   8   9
ENDBRANCH   1   8
TORSDOF 9
ENDMDL
MODEL 5
REMARK VINA RESULT:    -1.591      2.131      4.509
REMARK INTER + INTRA:          -3.576
REMARK INTER:                  -2.484
REMARK INTRA:                  -1.092
REMARK UNBOUND:                -1.148
REMARK SMILES O=C([O-])CCCCCCCCC(=O)[O-]
REMARK SMILES IDX 7 1 6 2 5 3 4 4 2 5 1 6 3 7 8 8 9 9 10 10 11 11 12 12 13 13
REMARK SMILES IDX 14 14
REMARK H PARENT
REMARK Flexibility Score: inf
ROOT
ATOM      1  C   UNL     1      23.316  24.937  13.688  1.00  0.00     0.000 C 
ENDROOT
BRANCH   1   2
ATOM      2  C   UNL     1      23.090  25.830  12.457  1.00  0.00     0.000 C 
BRANCH   2   3
ATOM      3  C   UNL     1      21.624  26.279  12.315  1.00  0.00     0.006 C 
BRANCH   3   4
ATOM      4  C   UNL     1      21.485  27.808  12.321  1.00  0.00     0.053 C 
BRANCH   4   5
ATOM      5  C   UNL     1      20.509  28.272  13.357  1.00  0.00     0.041 C 
ATOM      6  O   UNL     1      20.894  29.003  14.308  1.00  0.00    -0.550 OA
ATOM      7  O   UNL     1      19.167  27.928  13.255  1.00  0.00    -0.550 OA
ENDBRANCH   4   5
ENDBRANCH   3   4
ENDBRANCH   2   3
ENDBRANCH   1   2
BRANCH   1   8
ATOM      8  C   UNL     1      24.181  25.617  14.760  1.00  0.00     0.000 C 
BRANCH   8   9
ATOM      9  C   UNL     1      23.371  26.663  15.536  1.00  0.00     0.000 C 
BRANCH   9  10
ATOM     10  C   UNL     1      24.082  28.024  15.531  1.00  0.00     0.006 C 
BRANCH  10  11
ATOM     11  C   UNL     1      25.207  28.090  14.490  1.00  0.00     0.053 C 
BRANCH  11  12
ATOM     12  C   UNL     1      24.849  28.982  13.341  1.00  0.00     0.041 C 
ATOM     13  O   UNL     1      25.324  28.763  12.196  1.00  0.00    -0.550 OA
ATOM     14  O   UNL     1      23.964  30.038  13.528  1.00  0.00    -0.550 OA
ENDBRANCH  11  12
ENDBRANCH  10  11
ENDBRANCH   9  10
ENDBRANCH   8   9
ENDBRANCH   1   8
TORSDOF 9
ENDMDL
MODEL 6
REMARK VINA RESULT:    -1.567      2.219      5.078
REMARK INTER + INTRA:          -3.540
REMARK INTER:                  -2.851
REMARK INTRA:                  -0.689
REMARK UNBOUND:                -1.148
REMARK SMILES O=C([O-])CCCCCCCCC(=O)[O-]
REMARK SMILES IDX 7 1 6 2 5 3 4 4 2 5 1 6 3 7 8 8 9 9 10 10 11 11 12 12 13 13
REMARK SMILES IDX 14 14
REMARK H PARENT
REMARK Flexibility Score: inf
ROOT
ATOM      1  C   UNL     1      22.394  25.720  13.692  1.00  0.00     0.000 C 
ENDROOT
BRANCH   1   2
ATOM      2  C   UNL     1      23.471  24.677  13.352  1.00  0.00     0.000 C 
BRANCH   2   3
ATOM      3  C   UNL     1      24.444  24.430  14.518  1.00  0.00     0.006 C 
BRANCH   3   4
ATOM      4  C   UNL     1      25.325  23.195  14.285  1.00  0.00     0.053 C 
BRANCH   4   5
ATOM      5  C   UNL     1      25.626  22.477  15.563  1.00  0.00     0.041 C 
ATOM      6  O   UNL     1      26.091  23.107  16.550  1.00  0.00    -0.550 OA
ATOM      7  O   UNL     1      25.360  21.118  15.679  1.00  0.00    -0.550 OA
ENDBRANCH   4   5
ENDBRANCH   3   4
ENDBRANCH   2   3
ENDBRANCH   1   2
BRANCH   1   8
ATOM      8  C   UNL     1      22.175  26.734  12.559  1.00  0.00     0.000 C 
BRANCH   8   9
ATOM      9  C   UNL     1      23.502  27.091  11.878  1.00  0.00     0.000 C 
BRANCH   9  10
ATOM     10  C   UNL     1      23.789  28.596  11.985  1.00  0.00     0.006 C 
BRANCH  10  11
ATOM     11  C   UNL     1      25.093  28.887  12.739  1.00  0.00     0.053 C 
BRANCH  11  12
ATOM     12  C   UNL     1      24.979  28.555  14.196  1.00  0.00     0.041 C 
ATOM     13  O   UNL     1      24.044  29.040  14.884  1.00  0.00    -0.550 OA
ATOM     14  O   UNL     1      25.887  27.683  14.785  1.00  0.00    -0.550 OA
ENDBRANCH  11  12
ENDBRANCH  10  11
ENDBRANCH   9  10
ENDBRANCH   8   9
ENDBRANCH   1   8
TORSDOF 9
ENDMDL
MODEL 7
REMARK VINA RESULT:    -1.565      1.381      4.191
REMARK INTER + INTRA:          -3.536
REMARK INTER:                  -2.560
REMARK INTRA:                  -0.977
REMARK UNBOUND:                -1.148
REMARK SMILES O=C([O-])CCCCCCCCC(=O)[O-]
REMARK SMILES IDX 7 1 6 2 5 3 4 4 2 5 1 6 3 7 8 8 9 9 10 10 11 11 12 12 13 13
REMARK SMILES IDX 14 14
REMARK H PARENT
REMARK Flexibility Score: inf
ROOT
ATOM      1  C   UNL     1      21.658  26.486  13.408  1.00  0.00     0.000 C 
ENDROOT
BRANCH   1   2
ATOM      2  C   UNL     1      22.887  25.854  12.734  1.00  0.00     0.000 C 
BRANCH   2   3
ATOM      3  C   UNL     1      23.734  25.022  13.712  1.00  0.00     0.006 C 
BRANCH   3   4
ATOM      4  C   UNL     1      23.656  25.560  15.148  1.00  0.00     0.053 C 
BRANCH   4   5
ATOM      5  C   UNL     1      24.776  25.043  15.997  1.00  0.00     0.041 C 
ATOM      6  O   UNL     1      24.527  24.381  17.039  1.00  0.00    -0.550 OA
ATOM      7  O   UNL     1      26.094  25.261  15.620  1.00  0.00    -0.550 OA
ENDBRANCH   4   5
ENDBRANCH   3   4
ENDBRANCH   2   3
ENDBRANCH   1   2
BRANCH   1   8
ATOM      8  C   UNL     1      21.525  27.986  13.107  1.00  0.00     0.000 C 
BRANCH   8   9
ATOM      9  C   UNL     1      21.643  28.816  14.391  1.00  0.00     0.000 C 
BRANCH   9  10
ATOM     10  C   UNL     1      23.110  29.156  14.695  1.00  0.00     0.006 C 
BRANCH  10  11
ATOM     11  C   UNL     1      23.851  29.687  13.461  1.00  0.00     0.053 C 
BRANCH  11  12
ATOM     12  C   UNL     1      25.024  28.825  13.104  1.00  0.00     0.041 C 
ATOM     13  O   UNL     1      25.343  28.656  11.899  1.00  0.00    -0.550 OA
ATOM     14  O   UNL     1      25.785  28.236  14.107  1.00  0.00    -0.550 OA
ENDBRANCH  11  12
ENDBRANCH  10  11
ENDBRANCH   9  10
ENDBRANCH   8   9
ENDBRANCH   1   8
TORSDOF 9
ENDMDL
MODEL 8
REMARK VINA RESULT:    -1.547      1.900      3.555
REMARK INTER + INTRA:          -3.509
REMARK INTER:                  -2.484
REMARK INTRA:                  -1.024
REMARK UNBOUND:                -1.148
REMARK SMILES O=C([O-])CCCCCCCCC(=O)[O-]
REMARK SMILES IDX 7 1 6 2 5 3 4 4 2 5 1 6 3 7 8 8 9 9 10 10 11 11 12 12 13 13
REMARK SMILES IDX 14 14
REMARK H PARENT
REMARK Flexibility Score: inf
ROOT
ATOM      1  C   UNL     1      21.285  26.070  14.367  1.00  0.00     0.000 C 
ENDROOT
BRANCH   1   2
ATOM      2  C   UNL     1      21.845  26.977  15.475  1.00  0.00     0.000 C 
BRANCH   2   3
ATOM      3  C   UNL     1      23.011  26.326  16.239  1.00  0.00     0.006 C 
BRANCH   3   4
ATOM      4  C   UNL     1      24.207  26.027  15.324  1.00  0.00     0.053 C 
BRANCH   4   5
ATOM      5  C   UNL     1      25.504  26.427  15.955  1.00  0.00     0.041 C 
ATOM      6  O   UNL     1      26.124  27.442  15.541  1.00  0.00    -0.550 OA
ATOM      7  O   UNL     1      26.011  25.700  17.024  1.00  0.00    -0.550 OA
ENDBRANCH   4   5
ENDBRANCH   3   4
ENDBRANCH   2   3
ENDBRANCH   1   2
BRANCH   1   8
ATOM      8  C   UNL     1      20.988  26.837  13.069  1.00  0.00     0.000 C 
BRANCH   8   9
ATOM      9  C   UNL     1      21.911  26.374  11.935  1.00  0.00     0.000 C 
BRANCH   9  10
ATOM     10  C   UNL     1      23.260  27.107  11.988  1.00  0.00     0.006 C 
BRANCH  10  11
ATOM     11  C   UNL     1      23.096  28.607  12.268  1.00  0.00     0.053 C 
BRANCH  11  12
ATOM     12  C   UNL     1      24.214  29.140  13.111  1.00  0.00     0.041 C 
ATOM     13  O   UNL     1      25.402  29.072  12.703  1.00  0.00    -0.550 OA
ATOM     14  O   UNL     1      23.938  29.741  14.334  1.00  0.00    -0.550 OA
ENDBRANCH  11  12
ENDBRANCH  10  11
ENDBRANCH   9  10
ENDBRANCH   8   9
ENDBRANCH   1   8
TORSDOF 9
ENDMDL
MODEL 9
REMARK VINA RESULT:    -1.535      2.347      4.186
REMARK INTER + INTRA:          -3.491
REMARK INTER:                  -2.449
REMARK INTRA:                  -1.042
REMARK UNBOUND:                -1.148
REMARK SMILES O=C([O-])CCCCCCCCC(=O)[O-]
REMARK SMILES IDX 7 1 6 2 5 3 4 4 2 5 1 6 3 7 8 8 9 9 10 10 11 11 12 12 13 13
REMARK SMILES IDX 14 14
REMARK H PARENT
REMARK Flexibility Score: inf
ROOT
ATOM      1  C   UNL     1      24.250  28.257  11.938  1.00  0.00     0.000 C 
ENDROOT
BRANCH   1   2
ATOM      2  C   UNL     1      22.734  28.249  12.197  1.00  0.00     0.000 C 
BRANCH   2   3
ATOM      3  C   UNL     1      22.144  26.827  12.211  1.00  0.00     0.006 C 
BRANCH   3   4
ATOM      4  C   UNL     1      22.441  26.091  13.525  1.00  0.00     0.053 C 
BRANCH   4   5
ATOM      5  C   UNL     1      21.332  26.258  14.517  1.00  0.00     0.041 C 
ATOM      6  O   UNL     1      20.379  25.435  14.548  1.00  0.00    -0.550 OA
ATOM      7  O   UNL     1      21.368  27.302  15.432  1.00  0.00    -0.550 OA
ENDBRANCH   4   5
ENDBRANCH   3   4
ENDBRANCH   2   3
ENDBRANCH   1   2
BRANCH   1   8
ATOM      8  C   UNL     1      25.031  28.999  13.033  1.00  0.00     0.000 C 
BRANCH   8   9
ATOM      9  C   UNL     1      24.127  29.322  14.228  1.00  0.00     0.000 C 
BRANCH   9  10
ATOM     10  C   UNL     1      24.619  28.611  15.499  1.00  0.00     0.006 C 
BRANCH  10  11
ATOM     11  C   UNL     1      25.698  27.563  15.197  1.00  0.00     0.053 C 
BRANCH  11  12
ATOM     12  C   UNL     1      25.377  26.240  15.822  1.00  0.00     0.041 C 
ATOM     13  O   UNL     1      26.125  25.247  15.625  1.00  0.00    -0.550 OA
ATOM     14  O   UNL     1      24.267  26.111  16.650  1.00  0.00    -0.550 OA
ENDBRANCH  11  12
ENDBRANCH  10  11
ENDBRANCH   9  10
ENDBRANCH   8   9
ENDBRANCH   1   8
TORSDOF 9
ENDMDL
