MODEL 1
REMARK VINA RESULT:    -6.642      0.000      0.000
REMARK INTER + INTRA:          -7.824
REMARK INTER:                  -7.807
REMARK INTRA:                  -0.016
REMARK UNBOUND:                -0.016
REMARK SMILES O=c1c(O)c(-c2ccc(O)c(O)c2)oc2cc(O)ccc12
REMARK SMILES IDX 5 1 3 2 2 3 1 4 21 5 15 6 14 7 16 8 17 9 19 10 20 11 6 12
REMARK SMILES IDX 7 13 8 14 9 15 13 16 11 17 10 18 12 20 4 22 18 24
REMARK H PARENT 10 19 12 21 4 23 18 25
REMARK Flexibility Score: inf
ROOT
ATOM      1  C   UNL     1     -16.397  14.919  -8.295  1.00  0.00     0.180 A 
ATOM      2  C   UNL     1     -15.117  15.482  -8.481  1.00  0.00     0.208 A 
ATOM      3  C   UNL     1     -14.595  16.319  -7.482  1.00  0.00     0.235 A 
ATOM      4  O   UNL     1     -13.456  16.843  -7.630  1.00  0.00    -0.285 OA
ATOM      5  C   UNL     1     -15.346  16.559  -6.321  1.00  0.00     0.069 A 
ATOM      6  C   UNL     1     -16.608  15.940  -6.200  1.00  0.00     0.142 A 
ATOM      7  O   UNL     1     -17.070  15.161  -7.172  1.00  0.00    -0.452 OA
ATOM      8  C   UNL     1     -17.382  16.146  -5.052  1.00  0.00     0.094 A 
ATOM      9  C   UNL     1     -16.909  16.969  -4.021  1.00  0.00     0.119 A 
ATOM     10  C   UNL     1     -15.659  17.585  -4.140  1.00  0.00     0.047 A 
ATOM     11  C   UNL     1     -14.877  17.384  -5.281  1.00  0.00     0.020 A 
ENDROOT
BRANCH   1  12
ATOM     12  C   UNL     1     -17.025  14.042  -9.309  1.00  0.00     0.025 A 
ATOM     13  C   UNL     1     -18.293  14.368  -9.814  1.00  0.00     0.016 A 
ATOM     14  C   UNL     1     -18.896  13.566 -10.786  1.00  0.00     0.051 A 
ATOM     15  C   UNL     1     -18.237  12.436 -11.279  1.00  0.00     0.157 A 
ATOM     16  C   UNL     1     -16.354  12.918  -9.821  1.00  0.00     0.062 A 
ATOM     17  C   UNL     1     -16.957  12.111 -10.798  1.00  0.00     0.158 A 
BRANCH  15  18
ATOM     18  O   UNL     1     -18.864  11.653 -12.246  1.00  0.00    -0.504 OA
ATOM     19  H   UNL     1     -18.344  11.030 -12.854  1.00  0.00     0.293 HD
ENDBRANCH  15  18
BRANCH  17  20
ATOM     20  O   UNL     1     -16.286  10.994 -11.295  1.00  0.00    -0.504 OA
ATOM     21  H   UNL     1     -15.731  10.397 -10.694  1.00  0.00     0.293 HD
ENDBRANCH  17  20
ENDBRANCH   1  12
BRANCH   2  22
ATOM     22  O   UNL     1     -14.373  15.185  -9.625  1.00  0.00    -0.502 OA
ATOM     23  H   UNL     1     -14.280  15.837 -10.395  1.00  0.00     0.293 HD
ENDBRANCH   2  22
BRANCH   9  24
ATOM     24  O   UNL     1     -17.673  17.181  -2.875  1.00  0.00    -0.508 OA
ATOM     25  H   UNL     1     -18.085  18.085  -2.674  1.00  0.00     0.293 HD
ENDBRANCH   9  24
TORSDOF 5
ENDMDL
MODEL 2
REMARK VINA RESULT:    -6.576      2.001      7.216
REMARK INTER + INTRA:          -7.746
REMARK INTER:                  -7.426
REMARK INTRA:                  -0.320
REMARK UNBOUND:                -0.016
REMARK SMILES O=c1c(O)c(-c2ccc(O)c(O)c2)oc2cc(O)ccc12
REMARK SMILES IDX 5 1 3 2 2 3 1 4 21 5 15 6 14 7 16 8 17 9 19 10 20 11 6 12
REMARK SMILES IDX 7 13 8 14 9 15 13 16 11 17 10 18 12 20 4 22 18 24
REMARK H PARENT 10 19 12 21 4 23 18 25
REMARK Flexibility Score: inf
ROOT
ATOM      1  C   UNL     1     -16.653  14.647  -6.985  1.00  0.00     0.180 A 
ATOM      2  C   UNL     1     -17.918  14.042  -6.837  1.00  0.00     0.208 A 
ATOM      3  C   UNL     1     -18.366  13.158  -7.830  1.00  0.00     0.235 A 
ATOM      4  O   UNL     1     -19.499  12.612  -7.725  1.00  0.00    -0.285 OA
ATOM      5  C   UNL     1     -17.541  12.882  -8.932  1.00  0.00     0.069 A 
ATOM      6  C   UNL     1     -16.278  13.510  -8.996  1.00  0.00     0.142 A 
ATOM      7  O   UNL     1     -15.895  14.348  -8.038  1.00  0.00    -0.452 OA
ATOM      8  C   UNL     1     -15.422  13.253 -10.073  1.00  0.00     0.094 A 
ATOM      9  C   UNL     1     -15.815  12.375 -11.092  1.00  0.00     0.119 A 
ATOM     10  C   UNL     1     -17.067  11.754 -11.032  1.00  0.00     0.047 A 
ATOM     11  C   UNL     1     -17.928  12.002  -9.959  1.00  0.00     0.020 A 
ENDROOT
BRANCH   1  12
ATOM     12  C   UNL     1     -16.117  15.605  -5.991  1.00  0.00     0.025 A 
ATOM     13  C   UNL     1     -15.213  15.154  -5.017  1.00  0.00     0.016 A 
ATOM     14  C   UNL     1     -14.678  16.044  -4.081  1.00  0.00     0.051 A 
ATOM     15  C   UNL     1     -15.028  17.398  -4.113  1.00  0.00     0.157 A 
ATOM     16  C   UNL     1     -16.451  16.970  -6.035  1.00  0.00     0.062 A 
ATOM     17  C   UNL     1     -15.915  17.866  -5.097  1.00  0.00     0.158 A 
BRANCH  15  18
ATOM     18  O   UNL     1     -14.481  18.262  -3.166  1.00  0.00    -0.504 OA
ATOM     19  H   UNL     1     -13.929  19.070  -3.429  1.00  0.00     0.293 HD
ENDBRANCH  15  18
BRANCH  17  20
ATOM     20  O   UNL     1     -16.256  19.217  -5.145  1.00  0.00    -0.504 OA
ATOM     21  H   UNL     1     -16.181  19.812  -4.329  1.00  0.00     0.293 HD
ENDBRANCH  17  20
ENDBRANCH   1  12
BRANCH   2  22
ATOM     22  O   UNL     1     -18.696  14.298  -5.705  1.00  0.00    -0.502 OA
ATOM     23  H   UNL     1     -19.319  13.605  -5.307  1.00  0.00     0.293 HD
ENDBRANCH   2  22
BRANCH   9  24
ATOM     24  O   UNL     1     -14.970  12.114 -12.169  1.00  0.00    -0.508 OA
ATOM     25  H   UNL     1     -14.963  12.706 -12.991  1.00  0.00     0.293 HD
ENDBRANCH   9  24
TORSDOF 5
ENDMDL
MODEL 3
REMARK VINA RESULT:    -6.400      1.908      2.336
REMARK INTER + INTRA:          -7.539
REMARK INTER:                  -7.219
REMARK INTRA:                  -0.319
REMARK UNBOUND:                -0.016
REMARK SMILES O=c1c(O)c(-c2ccc(O)c(O)c2)oc2cc(O)ccc12
REMARK SMILES IDX 5 1 3 2 2 3 1 4 21 5 15 6 14 7 16 8 17 9 19 10 20 11 6 12
REMARK SMILES IDX 7 13 8 14 9 15 13 16 11 17 10 18 12 20 4 22 18 24
REMARK H PARENT 10 19 12 21 4 23 18 25
REMARK Flexibility Score: inf
ROOT
ATOM      1  C   UNL     1     -15.769  14.751  -8.628  1.00  0.00     0.180 A 
ATOM      2  C   UNL     1     -15.063  15.921  -8.977  1.00  0.00     0.208 A 
ATOM      3  C   UNL     1     -14.294  16.565  -7.995  1.00  0.00     0.235 A 
ATOM      4  O   UNL     1     -13.662  17.619  -8.280  1.00  0.00    -0.285 OA
ATOM      5  C   UNL     1     -14.230  16.022  -6.703  1.00  0.00     0.069 A 
ATOM      6  C   UNL     1     -14.946  14.835  -6.439  1.00  0.00     0.142 A 
ATOM      7  O   UNL     1     -15.670  14.261  -7.394  1.00  0.00    -0.452 OA
ATOM      8  C   UNL     1     -14.899  14.257  -5.166  1.00  0.00     0.094 A 
ATOM      9  C   UNL     1     -14.143  14.854  -4.147  1.00  0.00     0.119 A 
ATOM     10  C   UNL     1     -13.434  16.031  -4.406  1.00  0.00     0.047 A 
ATOM     11  C   UNL     1     -13.473  16.615  -5.675  1.00  0.00     0.020 A 
ENDROOT
BRANCH   1  12
ATOM     12  C   UNL     1     -16.617  14.024  -9.601  1.00  0.00     0.025 A 
ATOM     13  C   UNL     1     -16.092  12.913 -10.278  1.00  0.00     0.016 A 
ATOM     14  C   UNL     1     -16.880  12.199 -11.185  1.00  0.00     0.051 A 
ATOM     15  C   UNL     1     -18.207  12.576 -11.418  1.00  0.00     0.157 A 
ATOM     16  C   UNL     1     -17.957  14.389  -9.820  1.00  0.00     0.062 A 
ATOM     17  C   UNL     1     -18.751  13.674 -10.729  1.00  0.00     0.158 A 
BRANCH  15  18
ATOM     18  O   UNL     1     -18.968  11.847 -12.330  1.00  0.00    -0.504 OA
ATOM     19  H   UNL     1     -19.970  11.971 -12.415  1.00  0.00     0.293 HD
ENDBRANCH  15  18
BRANCH  17  20
ATOM     20  O   UNL     1     -20.077  14.046 -10.945  1.00  0.00    -0.504 OA
ATOM     21  H   UNL     1     -20.643  14.448 -10.207  1.00  0.00     0.293 HD
ENDBRANCH  17  20
ENDBRANCH   1  12
BRANCH   2  22
ATOM     22  O   UNL     1     -15.107  16.411 -10.285  1.00  0.00    -0.502 OA
ATOM     23  H   UNL     1     -15.197  17.398 -10.491  1.00  0.00     0.293 HD
ENDBRANCH   2  22
BRANCH   9  24
ATOM     24  O   UNL     1     -14.091  14.286  -2.876  1.00  0.00    -0.508 OA
ATOM     25  H   UNL     1     -14.890  13.804  -2.479  1.00  0.00     0.293 HD
ENDBRANCH   9  24
TORSDOF 5
ENDMDL
MODEL 4
REMARK VINA RESULT:    -6.328      2.181      6.945
REMARK INTER + INTRA:          -7.455
REMARK INTER:                  -7.589
REMARK INTRA:                   0.134
REMARK UNBOUND:                -0.016
REMARK SMILES O=c1c(O)c(-c2ccc(O)c(O)c2)oc2cc(O)ccc12
REMARK SMILES IDX 5 1 3 2 2 3 1 4 21 5 15 6 14 7 16 8 17 9 19 10 20 11 6 12
REMARK SMILES IDX 7 13 8 14 9 15 13 16 11 17 10 18 12 20 4 22 18 24
REMARK H PARENT 10 19 12 21 4 23 18 25
REMARK Flexibility Score: inf
ROOT
ATOM      1  C   UNL     1     -17.282  13.769  -8.456  1.00  0.00     0.180 A 
ATOM      2  C   UNL     1     -17.884  13.199  -7.315  1.00  0.00     0.208 A 
ATOM      3  C   UNL     1     -18.901  12.248  -7.491  1.00  0.00     0.235 A 
ATOM      4  O   UNL     1     -19.462  11.731  -6.485  1.00  0.00    -0.285 OA
ATOM      5  C   UNL     1     -19.281  11.875  -8.789  1.00  0.00     0.069 A 
ATOM      6  C   UNL     1     -18.614  12.474  -9.879  1.00  0.00     0.142 A 
ATOM      7  O   UNL     1     -17.662  13.377  -9.671  1.00  0.00    -0.452 OA
ATOM      8  C   UNL     1     -18.957  12.121 -11.189  1.00  0.00     0.094 A 
ATOM      9  C   UNL     1     -19.963  11.174 -11.425  1.00  0.00     0.119 A 
ATOM     10  C   UNL     1     -20.626  10.580 -10.345  1.00  0.00     0.047 A 
ATOM     11  C   UNL     1     -20.289  10.925  -9.033  1.00  0.00     0.020 A 
ENDROOT
BRANCH   1  12
ATOM     12  C   UNL     1     -16.216  14.791  -8.355  1.00  0.00     0.025 A 
ATOM     13  C   UNL     1     -15.168  14.790  -9.289  1.00  0.00     0.016 A 
ATOM     14  C   UNL     1     -14.162  15.757  -9.226  1.00  0.00     0.051 A 
ATOM     15  C   UNL     1     -14.194  16.748  -8.240  1.00  0.00     0.157 A 
ATOM     16  C   UNL     1     -16.259  15.801  -7.378  1.00  0.00     0.062 A 
ATOM     17  C   UNL     1     -15.250  16.774  -7.313  1.00  0.00     0.158 A 
BRANCH  15  18
ATOM     18  O   UNL     1     -13.176  17.698  -8.200  1.00  0.00    -0.504 OA
ATOM     19  H   UNL     1     -12.218  17.452  -7.977  1.00  0.00     0.293 HD
ENDBRANCH  15  18
BRANCH  17  20
ATOM     20  O   UNL     1     -15.298  17.768  -6.336  1.00  0.00    -0.504 OA
ATOM     21  H   UNL     1     -14.551  17.887  -5.662  1.00  0.00     0.293 HD
ENDBRANCH  17  20
ENDBRANCH   1  12
BRANCH   2  22
ATOM     22  O   UNL     1     -17.451  13.554  -6.035  1.00  0.00    -0.502 OA
ATOM     23  H   UNL     1     -16.664  14.173  -5.881  1.00  0.00     0.293 HD
ENDBRANCH   2  22
BRANCH   9  24
ATOM     24  O   UNL     1     -20.311  10.817 -12.726  1.00  0.00    -0.508 OA
ATOM     25  H   UNL     1     -19.617  10.497 -13.390  1.00  0.00     0.293 HD
ENDBRANCH   9  24
TORSDOF 5
ENDMDL
MODEL 5
REMARK VINA RESULT:    -6.291      1.751      3.017
REMARK INTER + INTRA:          -7.410
REMARK INTER:                  -7.104
REMARK INTRA:                  -0.307
REMARK UNBOUND:                -0.016
REMARK SMILES O=c1c(O)c(-c2ccc(O)c(O)c2)oc2cc(O)ccc12
REMARK SMILES IDX 5 1 3 2 2 3 1 4 21 5 15 6 14 7 16 8 17 9 19 10 20 11 6 12
REMARK SMILES IDX 7 13 8 14 9 15 13 16 11 17 10 18 12 20 4 22 18 24
REMARK H PARENT 10 19 12 21 4 23 18 25
REMARK Flexibility Score: inf
ROOT
ATOM      1  C   UNL     1     -17.144  14.017  -7.491  1.00  0.00     0.180 A 
ATOM      2  C   UNL     1     -17.768  13.642  -6.283  1.00  0.00     0.208 A 
ATOM      3  C   UNL     1     -17.202  14.063  -5.070  1.00  0.00     0.235 A 
ATOM      4  O   UNL     1     -17.737  13.732  -3.976  1.00  0.00    -0.285 OA
ATOM      5  C   UNL     1     -16.045  14.858  -5.087  1.00  0.00     0.069 A 
ATOM      6  C   UNL     1     -15.494  15.210  -6.337  1.00  0.00     0.142 A 
ATOM      7  O   UNL     1     -16.056  14.784  -7.464  1.00  0.00    -0.452 OA
ATOM      8  C   UNL     1     -14.347  16.010  -6.397  1.00  0.00     0.094 A 
ATOM      9  C   UNL     1     -13.741  16.462  -5.217  1.00  0.00     0.119 A 
ATOM     10  C   UNL     1     -14.285  16.113  -3.976  1.00  0.00     0.047 A 
ATOM     11  C   UNL     1     -15.431  15.316  -3.907  1.00  0.00     0.020 A 
ENDROOT
BRANCH   1  12
ATOM     12  C   UNL     1     -17.669  13.599  -8.811  1.00  0.00     0.025 A 
ATOM     13  C   UNL     1     -18.674  14.360  -9.426  1.00  0.00     0.016 A 
ATOM     14  C   UNL     1     -19.170  13.995 -10.681  1.00  0.00     0.051 A 
ATOM     15  C   UNL     1     -18.660  12.876 -11.345  1.00  0.00     0.157 A 
ATOM     16  C   UNL     1     -17.141  12.486  -9.489  1.00  0.00     0.062 A 
ATOM     17  C   UNL     1     -17.637  12.119 -10.750  1.00  0.00     0.158 A 
BRANCH  15  18
ATOM     18  O   UNL     1     -19.176  12.536 -12.595  1.00  0.00    -0.504 OA
ATOM     19  H   UNL     1     -20.173  12.515 -12.778  1.00  0.00     0.293 HD
ENDBRANCH  15  18
BRANCH  17  20
ATOM     20  O   UNL     1     -17.112  11.010 -11.413  1.00  0.00    -0.504 OA
ATOM     21  H   UNL     1     -16.929  11.025 -12.409  1.00  0.00     0.293 HD
ENDBRANCH  17  20
ENDBRANCH   1  12
BRANCH   2  22
ATOM     22  O   UNL     1     -18.947  12.892  -6.299  1.00  0.00    -0.502 OA
ATOM     23  H   UNL     1     -19.362  12.517  -5.455  1.00  0.00     0.293 HD
ENDBRANCH   2  22
BRANCH   9  24
ATOM     24  O   UNL     1     -12.598  17.258  -5.266  1.00  0.00    -0.508 OA
ATOM     25  H   UNL     1     -12.430  17.894  -6.036  1.00  0.00     0.293 HD
ENDBRANCH   9  24
TORSDOF 5
ENDMDL
MODEL 6
REMARK VINA RESULT:    -6.249      1.803      2.945
REMARK INTER + INTRA:          -7.361
REMARK INTER:                  -7.075
REMARK INTRA:                  -0.286
REMARK UNBOUND:                -0.016
REMARK SMILES O=c1c(O)c(-c2ccc(O)c(O)c2)oc2cc(O)ccc12
REMARK SMILES IDX 5 1 3 2 2 3 1 4 21 5 15 6 14 7 16 8 17 9 19 10 20 11 6 12
REMARK SMILES IDX 7 13 8 14 9 15 13 16 11 17 10 18 12 20 4 22 18 24
REMARK H PARENT 10 19 12 21 4 23 18 25
REMARK Flexibility Score: inf
ROOT
ATOM      1  C   UNL     1     -17.364  14.600  -8.167  1.00  0.00     0.180 A 
ATOM      2  C   UNL     1     -18.084  15.644  -7.550  1.00  0.00     0.208 A 
ATOM      3  C   UNL     1     -17.451  16.409  -6.558  1.00  0.00     0.235 A 
ATOM      4  O   UNL     1     -18.078  17.342  -5.985  1.00  0.00    -0.285 OA
ATOM      5  C   UNL     1     -16.117  16.132  -6.219  1.00  0.00     0.069 A 
ATOM      6  C   UNL     1     -15.458  15.086  -6.898  1.00  0.00     0.142 A 
ATOM      7  O   UNL     1     -16.095  14.380  -7.826  1.00  0.00    -0.452 OA
ATOM      8  C   UNL     1     -14.125  14.785  -6.596  1.00  0.00     0.094 A 
ATOM      9  C   UNL     1     -13.441  15.519  -5.617  1.00  0.00     0.119 A 
ATOM     10  C   UNL     1     -14.094  16.555  -4.940  1.00  0.00     0.047 A 
ATOM     11  C   UNL     1     -15.424  16.864  -5.237  1.00  0.00     0.020 A 
ENDROOT
BRANCH   1  12
ATOM     12  C   UNL     1     -17.966  13.737  -9.209  1.00  0.00     0.025 A 
ATOM     13  C   UNL     1     -18.027  14.195 -10.534  1.00  0.00     0.016 A 
ATOM     14  C   UNL     1     -18.572  13.389 -11.537  1.00  0.00     0.051 A 
ATOM     15  C   UNL     1     -19.050  12.110 -11.235  1.00  0.00     0.157 A 
ATOM     16  C   UNL     1     -18.426  12.443  -8.910  1.00  0.00     0.062 A 
ATOM     17  C   UNL     1     -18.973  11.631  -9.916  1.00  0.00     0.158 A 
BRANCH  15  18
ATOM     18  O   UNL     1     -19.591  11.330 -12.255  1.00  0.00    -0.504 OA
ATOM     19  H   UNL     1     -19.025  10.690 -12.801  1.00  0.00     0.293 HD
ENDBRANCH  15  18
BRANCH  17  20
ATOM     20  O   UNL     1     -19.434  10.351  -9.609  1.00  0.00    -0.504 OA
ATOM     21  H   UNL     1     -20.202  10.203  -8.966  1.00  0.00     0.293 HD
ENDBRANCH  17  20
ENDBRANCH   1  12
BRANCH   2  22
ATOM     22  O   UNL     1     -19.394  15.929  -7.944  1.00  0.00    -0.502 OA
ATOM     23  H   UNL     1     -19.651  16.060  -8.915  1.00  0.00     0.293 HD
ENDBRANCH   2  22
BRANCH   9  24
ATOM     24  O   UNL     1     -12.114  15.226  -5.308  1.00  0.00    -0.508 OA
ATOM     25  H   UNL     1     -11.778  15.240  -4.352  1.00  0.00     0.293 HD
ENDBRANCH   9  24
TORSDOF 5
ENDMDL
MODEL 7
REMARK VINA RESULT:    -6.198      2.072      7.018
REMARK INTER + INTRA:          -7.302
REMARK INTER:                  -7.080
REMARK INTRA:                  -0.222
REMARK UNBOUND:                -0.016
REMARK SMILES O=c1c(O)c(-c2ccc(O)c(O)c2)oc2cc(O)ccc12
REMARK SMILES IDX 5 1 3 2 2 3 1 4 21 5 15 6 14 7 16 8 17 9 19 10 20 11 6 12
REMARK SMILES IDX 7 13 8 14 9 15 13 16 11 17 10 18 12 20 4 22 18 24
REMARK H PARENT 10 19 12 21 4 23 18 25
REMARK Flexibility Score: inf
ROOT
ATOM      1  C   UNL     1     -16.794  14.400  -7.101  1.00  0.00     0.180 A 
ATOM      2  C   UNL     1     -17.714  13.662  -6.328  1.00  0.00     0.208 A 
ATOM      3  C   UNL     1     -18.756  12.985  -6.980  1.00  0.00     0.235 A 
ATOM      4  O   UNL     1     -19.598  12.326  -6.308  1.00  0.00    -0.285 OA
ATOM      5  C   UNL     1     -18.845  13.039  -8.379  1.00  0.00     0.069 A 
ATOM      6  C   UNL     1     -17.872  13.780  -9.084  1.00  0.00     0.142 A 
ATOM      7  O   UNL     1     -16.906  14.414  -8.428  1.00  0.00    -0.452 OA
ATOM      8  C   UNL     1     -17.921  13.850 -10.480  1.00  0.00     0.094 A 
ATOM      9  C   UNL     1     -18.937  13.189 -11.185  1.00  0.00     0.119 A 
ATOM     10  C   UNL     1     -19.904  12.457 -10.488  1.00  0.00     0.047 A 
ATOM     11  C   UNL     1     -19.862  12.378  -9.093  1.00  0.00     0.020 A 
ENDROOT
BRANCH   1  12
ATOM     12  C   UNL     1     -15.679  15.157  -6.488  1.00  0.00     0.025 A 
ATOM     13  C   UNL     1     -14.356  14.758  -6.735  1.00  0.00     0.016 A 
ATOM     14  C   UNL     1     -13.288  15.470  -6.183  1.00  0.00     0.051 A 
ATOM     15  C   UNL     1     -13.523  16.597  -5.390  1.00  0.00     0.157 A 
ATOM     16  C   UNL     1     -15.914  16.302  -5.707  1.00  0.00     0.062 A 
ATOM     17  C   UNL     1     -14.842  17.019  -5.153  1.00  0.00     0.158 A 
BRANCH  15  18
ATOM     18  O   UNL     1     -12.438  17.285  -4.851  1.00  0.00    -0.504 OA
ATOM     19  H   UNL     1     -11.518  17.257  -5.276  1.00  0.00     0.293 HD
ENDBRANCH  15  18
BRANCH  17  20
ATOM     20  O   UNL     1     -15.085  18.151  -4.375  1.00  0.00    -0.504 OA
ATOM     21  H   UNL     1     -14.895  19.084  -4.721  1.00  0.00     0.293 HD
ENDBRANCH  17  20
ENDBRANCH   1  12
BRANCH   2  22
ATOM     22  O   UNL     1     -17.570  13.585  -4.940  1.00  0.00    -0.502 OA
ATOM     23  H   UNL     1     -16.679  13.395  -4.497  1.00  0.00     0.293 HD
ENDBRANCH   2  22
BRANCH   9  24
ATOM     24  O   UNL     1     -18.994  13.255 -12.576  1.00  0.00    -0.508 OA
ATOM     25  H   UNL     1     -19.682  12.729 -13.101  1.00  0.00     0.293 HD
ENDBRANCH   9  24
TORSDOF 5
ENDMDL
MODEL 8
REMARK VINA RESULT:    -6.081      1.927      6.624
REMARK INTER + INTRA:          -7.164
REMARK INTER:                  -6.846
REMARK INTRA:                  -0.317
REMARK UNBOUND:                -0.016
REMARK SMILES O=c1c(O)c(-c2ccc(O)c(O)c2)oc2cc(O)ccc12
REMARK SMILES IDX 5 1 3 2 2 3 1 4 21 5 15 6 14 7 16 8 17 9 19 10 20 11 6 12
REMARK SMILES IDX 7 13 8 14 9 15 13 16 11 17 10 18 12 20 4 22 18 24
REMARK H PARENT 10 19 12 21 4 23 18 25
REMARK Flexibility Score: inf
ROOT
ATOM      1  C   UNL     1     -16.410  14.629  -7.653  1.00  0.00     0.180 A 
ATOM      2  C   UNL     1     -15.571  14.375  -8.759  1.00  0.00     0.208 A 
ATOM      3  C   UNL     1     -15.993  13.456  -9.731  1.00  0.00     0.235 A 
ATOM      4  O   UNL     1     -15.255  13.205 -10.724  1.00  0.00    -0.285 OA
ATOM      5  C   UNL     1     -17.241  12.829  -9.593  1.00  0.00     0.069 A 
ATOM      6  C   UNL     1     -18.032  13.153  -8.471  1.00  0.00     0.142 A 
ATOM      7  O   UNL     1     -17.593  14.023  -7.568  1.00  0.00    -0.452 OA
ATOM      8  C   UNL     1     -19.287  12.557  -8.303  1.00  0.00     0.094 A 
ATOM      9  C   UNL     1     -19.762  11.635  -9.245  1.00  0.00     0.119 A 
ATOM     10  C   UNL     1     -18.978  11.310 -10.357  1.00  0.00     0.047 A 
ATOM     11  C   UNL     1     -17.724  11.902 -10.535  1.00  0.00     0.020 A 
ENDROOT
BRANCH   1  12
ATOM     12  C   UNL     1     -16.029  15.570  -6.576  1.00  0.00     0.025 A 
ATOM     13  C   UNL     1     -15.279  15.104  -5.486  1.00  0.00     0.016 A 
ATOM     14  C   UNL     1     -14.890  15.979  -4.468  1.00  0.00     0.051 A 
ATOM     15  C   UNL     1     -15.232  17.334  -4.530  1.00  0.00     0.157 A 
ATOM     16  C   UNL     1     -16.354  16.936  -6.649  1.00  0.00     0.062 A 
ATOM     17  C   UNL     1     -15.964  17.817  -5.629  1.00  0.00     0.158 A 
BRANCH  15  18
ATOM     18  O   UNL     1     -14.834  18.182  -3.499  1.00  0.00    -0.504 OA
ATOM     19  H   UNL     1     -15.058  19.171  -3.498  1.00  0.00     0.293 HD
ENDBRANCH  15  18
BRANCH  17  20
ATOM     20  O   UNL     1     -16.296  19.169  -5.706  1.00  0.00    -0.504 OA
ATOM     21  H   UNL     1     -16.083  19.722  -6.528  1.00  0.00     0.293 HD
ENDBRANCH  17  20
ENDBRANCH   1  12
BRANCH   2  22
ATOM     22  O   UNL     1     -14.356  15.052  -8.895  1.00  0.00    -0.502 OA
ATOM     23  H   UNL     1     -13.525  14.781  -8.383  1.00  0.00     0.293 HD
ENDBRANCH   2  22
BRANCH   9  24
ATOM     24  O   UNL     1     -21.010  11.035  -9.085  1.00  0.00    -0.508 OA
ATOM     25  H   UNL     1     -21.510  10.638  -9.872  1.00  0.00     0.293 HD
ENDBRANCH   9  24
TORSDOF 5
ENDMDL
