MODEL 1
REMARK VINA RESULT:    -3.184      0.000      0.000
REMARK INTER + INTRA:          -3.812
REMARK INTER:                  -3.743
REMARK INTRA:                  -0.069
REMARK UNBOUND:                -0.069
REMARK SMILES O=C([O-])CCC(=O)[O-]
REMARK SMILES IDX 4 1 2 2 1 3 3 4 5 5 6 6 7 7 8 8
REMARK H PARENT
REMARK Flexibility Score: inf
ROOT
ATOM      1  C   UNL     1      25.309  27.734 -16.537  1.00  0.00     0.059 C 
ENDROOT
BRANCH   1   2
ATOM      2  C   UNL     1      25.163  29.089 -15.921  1.00  0.00     0.042 C 
ATOM      3  O   UNL     1      24.888  29.202 -14.697  1.00  0.00    -0.550 OA
ATOM      4  O   UNL     1      25.377  30.228 -16.687  1.00  0.00    -0.550 OA
ENDBRANCH   1   2
BRANCH   1   5
ATOM      5  C   UNL     1      26.580  27.667 -17.387  1.00  0.00     0.059 C 
BRANCH   5   6
ATOM      6  C   UNL     1      26.295  27.019 -18.704  1.00  0.00     0.042 C 
ATOM      7  O   UNL     1      25.126  26.650 -18.990  1.00  0.00    -0.550 OA
ATOM      8  O   UNL     1      27.312  26.867 -19.639  1.00  0.00    -0.550 OA
ENDBRANCH   5   6
ENDBRANCH   1   5
TORSDOF 3
ENDMDL
MODEL 2
REMARK VINA RESULT:    -3.136      1.051      4.142
REMARK INTER + INTRA:          -3.755
REMARK INTER:                  -3.722
REMARK INTRA:                  -0.033
REMARK UNBOUND:                -0.069
REMARK SMILES O=C([O-])CCC(=O)[O-]
REMARK SMILES IDX 4 1 2 2 1 3 3 4 5 5 6 6 7 7 8 8
REMARK H PARENT
REMARK Flexibility Score: inf
ROOT
ATOM      1  C   UNL     1      26.948  27.964 -17.713  1.00  0.00     0.059 C 
ENDROOT
BRANCH   1   2
ATOM      2  C   UNL     1      27.085  27.533 -19.138  1.00  0.00     0.042 C 
ATOM      3  O   UNL     1      27.626  28.297 -19.982  1.00  0.00    -0.550 OA
ATOM      4  O   UNL     1      26.659  26.269 -19.527  1.00  0.00    -0.550 OA
ENDBRANCH   1   2
BRANCH   1   5
ATOM      5  C   UNL     1      25.603  27.508 -17.143  1.00  0.00     0.059 C 
BRANCH   5   6
ATOM      6  C   UNL     1      25.232  28.333 -15.953  1.00  0.00     0.042 C 
ATOM      7  O   UNL     1      24.906  27.776 -14.871  1.00  0.00    -0.550 OA
ATOM      8  O   UNL     1      25.292  29.719 -16.022  1.00  0.00    -0.550 OA
ENDBRANCH   5   6
ENDBRANCH   1   5
TORSDOF 3
ENDMDL
MODEL 3
REMARK VINA RESULT:    -3.122      1.384      2.008
REMARK INTER + INTRA:          -3.739
REMARK INTER:                  -3.631
REMARK INTRA:                  -0.108
REMARK UNBOUND:                -0.069
REMARK SMILES O=C([O-])CCC(=O)[O-]
REMARK SMILES IDX 4 1 2 2 1 3 3 4 5 5 6 6 7 7 8 8
REMARK H PARENT
REMARK Flexibility Score: inf
ROOT
ATOM      1  C   UNL     1      25.370  27.804 -17.230  1.00  0.00     0.059 C 
ENDROOT
BRANCH   1   2
ATOM      2  C   UNL     1      25.150  28.554 -15.955  1.00  0.00     0.042 C 
ATOM      3  O   UNL     1      25.175  29.814 -15.949  1.00  0.00    -0.550 OA
ATOM      4  O   UNL     1      24.868  27.865 -14.782  1.00  0.00    -0.550 OA
ENDBRANCH   1   2
BRANCH   1   5
ATOM      5  C   UNL     1      26.856  27.480 -17.409  1.00  0.00     0.059 C 
BRANCH   5   6
ATOM      6  C   UNL     1      27.433  28.279 -18.533  1.00  0.00     0.042 C 
ATOM      7  O   UNL     1      27.970  29.396 -18.306  1.00  0.00    -0.550 OA
ATOM      8  O   UNL     1      27.424  27.771 -19.825  1.00  0.00    -0.550 OA
ENDBRANCH   5   6
ENDBRANCH   1   5
TORSDOF 3
ENDMDL
MODEL 4
REMARK VINA RESULT:    -3.112      1.091      3.989
REMARK INTER + INTRA:          -3.727
REMARK INTER:                  -3.607
REMARK INTRA:                  -0.120
REMARK UNBOUND:                -0.069
REMARK SMILES O=C([O-])CCC(=O)[O-]
REMARK SMILES IDX 4 1 2 2 1 3 3 4 5 5 6 6 7 7 8 8
REMARK H PARENT
REMARK Flexibility Score: inf
ROOT
ATOM      1  C   UNL     1      26.473  27.500 -17.218  1.00  0.00     0.059 C 
ENDROOT
BRANCH   1   2
ATOM      2  C   UNL     1      27.284  27.949 -18.391  1.00  0.00     0.042 C 
ATOM      3  O   UNL     1      28.013  28.973 -18.303  1.00  0.00    -0.550 OA
ATOM      4  O   UNL     1      27.274  27.210 -19.568  1.00  0.00    -0.550 OA
ENDBRANCH   1   2
BRANCH   1   5
ATOM      5  C   UNL     1      25.128  28.231 -17.187  1.00  0.00     0.059 C 
BRANCH   5   6
ATOM      6  C   UNL     1      25.183  29.386 -16.239  1.00  0.00     0.042 C 
ATOM      7  O   UNL     1      25.411  30.548 -16.667  1.00  0.00    -0.550 OA
ATOM      8  O   UNL     1      24.933  29.188 -14.887  1.00  0.00    -0.550 OA
ENDBRANCH   5   6
ENDBRANCH   1   5
TORSDOF 3
ENDMDL
MODEL 5
REMARK VINA RESULT:    -3.106      1.109      1.490
REMARK INTER + INTRA:          -3.720
REMARK INTER:                  -3.596
REMARK INTRA:                  -0.124
REMARK UNBOUND:                -0.069
REMARK SMILES O=C([O-])CCC(=O)[O-]
REMARK SMILES IDX 4 1 2 2 1 3 3 4 5 5 6 6 7 7 8 8
REMARK H PARENT
REMARK Flexibility Score: inf
ROOT
ATOM      1  C   UNL     1      25.115  28.163 -17.142  1.00  0.00     0.059 C 
ENDROOT
BRANCH   1   2
ATOM      2  C   UNL     1      25.153  29.318 -16.192  1.00  0.00     0.042 C 
ATOM      3  O   UNL     1      24.966  29.132 -14.960  1.00  0.00    -0.550 OA
ATOM      4  O   UNL     1      25.441  30.594 -16.660  1.00  0.00    -0.550 OA
ENDBRANCH   1   2
BRANCH   1   5
ATOM      5  C   UNL     1      26.482  27.478 -17.205  1.00  0.00     0.059 C 
BRANCH   5   6
ATOM      6  C   UNL     1      27.273  27.995 -18.363  1.00  0.00     0.042 C 
ATOM      7  O   UNL     1      28.025  28.995 -18.222  1.00  0.00    -0.550 OA
ATOM      8  O   UNL     1      27.219  27.343 -19.589  1.00  0.00    -0.550 OA
ENDBRANCH   5   6
ENDBRANCH   1   5
TORSDOF 3
ENDMDL
MODEL 6
REMARK VINA RESULT:    -2.919      2.331      3.014
REMARK INTER + INTRA:          -3.500
REMARK INTER:                  -3.392
REMARK INTRA:                  -0.108
REMARK UNBOUND:                -0.069
REMARK SMILES O=C([O-])CCC(=O)[O-]
REMARK SMILES IDX 4 1 2 2 1 3 3 4 5 5 6 6 7 7 8 8
REMARK H PARENT
REMARK Flexibility Score: inf
ROOT
ATOM      1  C   UNL     1      27.322  29.231 -18.996  1.00  0.00     0.059 C 
ENDROOT
BRANCH   1   2
ATOM      2  C   UNL     1      27.688  30.432 -18.183  1.00  0.00     0.042 C 
ATOM      3  O   UNL     1      26.819  31.008 -17.476  1.00  0.00    -0.550 OA
ATOM      4  O   UNL     1      29.000  30.888 -18.168  1.00  0.00    -0.550 OA
ENDBRANCH   1   2
BRANCH   1   5
ATOM      5  C   UNL     1      27.527  27.951 -18.183  1.00  0.00     0.059 C 
BRANCH   5   6
ATOM      6  C   UNL     1      26.221  27.456 -17.649  1.00  0.00     0.042 C 
ATOM      7  O   UNL     1      25.988  27.486 -16.412  1.00  0.00    -0.550 OA
ATOM      8  O   UNL     1      25.239  27.005 -18.522  1.00  0.00    -0.550 OA
ENDBRANCH   5   6
ENDBRANCH   1   5
TORSDOF 3
ENDMDL
MODEL 7
REMARK VINA RESULT:    -2.891     21.378     22.167
REMARK INTER + INTRA:          -3.468
REMARK INTER:                  -3.421
REMARK INTRA:                  -0.046
REMARK UNBOUND:                -0.069
REMARK SMILES O=C([O-])CCC(=O)[O-]
REMARK SMILES IDX 4 1 2 2 1 3 3 4 5 5 6 6 7 7 8 8
REMARK H PARENT
REMARK Flexibility Score: inf
ROOT
ATOM      1  C   UNL     1      34.336  14.596  -2.150  1.00  0.00     0.059 C 
ENDROOT
BRANCH   1   2
ATOM      2  C   UNL     1      34.954  14.463  -3.505  1.00  0.00     0.042 C 
ATOM      3  O   UNL     1      34.636  13.501  -4.254  1.00  0.00    -0.550 OA
ATOM      4  O   UNL     1      35.844  15.426  -3.962  1.00  0.00    -0.550 OA
ENDBRANCH   1   2
BRANCH   1   5
ATOM      5  C   UNL     1      33.207  13.578  -1.973  1.00  0.00     0.059 C 
BRANCH   5   6
ATOM      6  C   UNL     1      32.171  14.104  -1.033  1.00  0.00     0.042 C 
ATOM      7  O   UNL     1      31.201  13.379  -0.688  1.00  0.00    -0.550 OA
ATOM      8  O   UNL     1      32.301  15.379  -0.498  1.00  0.00    -0.550 OA
ENDBRANCH   5   6
ENDBRANCH   1   5
TORSDOF 3
ENDMDL
MODEL 8
REMARK VINA RESULT:    -2.872      2.401      3.697
REMARK INTER + INTRA:          -3.445
REMARK INTER:                  -3.329
REMARK INTRA:                  -0.116
REMARK UNBOUND:                -0.069
REMARK SMILES O=C([O-])CCC(=O)[O-]
REMARK SMILES IDX 4 1 2 2 1 3 3 4 5 5 6 6 7 7 8 8
REMARK H PARENT
REMARK Flexibility Score: inf
ROOT
ATOM      1  C   UNL     1      27.535  28.059 -18.690  1.00  0.00     0.059 C 
ENDROOT
BRANCH   1   2
ATOM      2  C   UNL     1      26.381  27.424 -17.983  1.00  0.00     0.042 C 
ATOM      3  O   UNL     1      26.346  27.396 -16.724  1.00  0.00    -0.550 OA
ATOM      4  O   UNL     1      25.318  26.905 -18.712  1.00  0.00    -0.550 OA
ENDBRANCH   1   2
BRANCH   1   5
ATOM      5  C   UNL     1      27.167  29.469 -19.157  1.00  0.00     0.059 C 
BRANCH   5   6
ATOM      6  C   UNL     1      27.671  30.490 -18.188  1.00  0.00     0.042 C 
ATOM      7  O   UNL     1      26.885  31.024 -17.362  1.00  0.00    -0.550 OA
ATOM      8  O   UNL     1      29.021  30.817 -18.163  1.00  0.00    -0.550 OA
ENDBRANCH   5   6
ENDBRANCH   1   5
TORSDOF 3
ENDMDL
MODEL 9
REMARK VINA RESULT:    -2.834     21.487     21.934
REMARK INTER + INTRA:          -3.401
REMARK INTER:                  -3.353
REMARK INTRA:                  -0.048
REMARK UNBOUND:                -0.069
REMARK SMILES O=C([O-])CCC(=O)[O-]
REMARK SMILES IDX 4 1 2 2 1 3 3 4 5 5 6 6 7 7 8 8
REMARK H PARENT
REMARK Flexibility Score: inf
ROOT
ATOM      1  C   UNL     1      33.553  14.361  -1.353  1.00  0.00     0.059 C 
ENDROOT
BRANCH   1   2
ATOM      2  C   UNL     1      32.120  14.425  -0.931  1.00  0.00     0.042 C 
ATOM      3  O   UNL     1      31.609  15.524  -0.587  1.00  0.00    -0.550 OA
ATOM      4  O   UNL     1      31.334  13.280  -0.964  1.00  0.00    -0.550 OA
ENDBRANCH   1   2
BRANCH   1   5
ATOM      5  C   UNL     1      33.713  13.444  -2.568  1.00  0.00     0.059 C 
BRANCH   5   6
ATOM      6  C   UNL     1      34.651  14.051  -3.561  1.00  0.00     0.042 C 
ATOM      7  O   UNL     1      35.194  15.162  -3.324  1.00  0.00    -0.550 OA
ATOM      8  O   UNL     1      34.965  13.368  -4.729  1.00  0.00    -0.550 OA
ENDBRANCH   5   6
ENDBRANCH   1   5
TORSDOF 3
ENDMDL
