MODEL 1
REMARK VINA RESULT:    -7.039      0.000      0.000
REMARK INTER + INTRA:         -10.347
REMARK INTER:                  -9.509
REMARK INTRA:                  -0.838
REMARK UNBOUND:                -0.838
REMARK SMILES C[C@H]1O[C@@H](Oc2cc(O)c3c(=O)c(O)c(-c4ccc(O)cc4)oc3c2)[C@@H](O)[C@@H](O)[C@H]1O
REMARK SMILES IDX 6 1 7 2 8 3 10 4 24 5 25 6 23 7 15 8 13 9 11 10 12 11 5 12
REMARK SMILES IDX 4 13 1 14 2 15 30 16 3 17 28 18 26 19 31 20 29 22 27 24 9 26
REMARK SMILES IDX 16 28 17 29 22 30 18 31 21 32 19 33 20 34 14 36
REMARK H PARENT 31 21 29 23 27 25 9 27 20 35 14 37
REMARK Flexibility Score: inf
ROOT
ATOM      1  C   UNL     1      10.382   4.544   0.627  1.00  0.00     0.130 A 
ATOM      2  C   UNL     1       9.802   3.794   1.646  1.00  0.00     0.093 A 
ATOM      3  C   UNL     1      10.413   2.629   2.120  1.00  0.00     0.134 A 
ATOM      4  C   UNL     1      11.641   2.200   1.554  1.00  0.00     0.111 A 
ATOM      5  C   UNL     1      12.236   2.982   0.547  1.00  0.00     0.146 A 
ATOM      6  C   UNL     1      11.628   4.161   0.098  1.00  0.00     0.094 A 
ATOM      7  O   UNL     1      13.363   2.553  -0.064  1.00  0.00    -0.452 OA
ATOM      8  C   UNL     1      13.934   1.389   0.238  1.00  0.00     0.180 A 
ATOM      9  C   UNL     1      13.365   0.521   1.183  1.00  0.00     0.208 A 
ATOM     10  C   UNL     1      12.217   0.947   1.878  1.00  0.00     0.238 A 
ATOM     11  O   UNL     1      11.691   0.170   2.726  1.00  0.00    -0.285 OA
ENDROOT
BRANCH   1  12
ATOM     12  O   UNL     1       9.806   5.745   0.178  1.00  0.00    -0.462 OA
BRANCH  12  13
ATOM     13  C   UNL     1       8.394   6.010   0.106  1.00  0.00     0.339 C 
ATOM     14  C   UNL     1       9.855   6.414  -2.555  1.00  0.00     0.042 C 
ATOM     15  C   UNL     1       8.351   6.514  -2.222  1.00  0.00     0.151 C 
ATOM     16  C   UNL     1       7.881   7.961  -1.951  1.00  0.00     0.174 C 
ATOM     17  O   UNL     1       7.884   5.657  -1.178  1.00  0.00    -0.335 OA
ATOM     18  C   UNL     1       8.380   8.493  -0.584  1.00  0.00     0.180 C 
ATOM     19  C   UNL     1       8.018   7.476   0.514  1.00  0.00     0.214 C 
BRANCH  16  20
ATOM     20  O   UNL     1       8.304   8.828  -2.978  1.00  0.00    -0.388 OA
ATOM     21  H   UNL     1       8.379   8.274  -3.820  1.00  0.00     0.211 HD
ENDBRANCH  16  20
BRANCH  18  22
ATOM     22  O   UNL     1       9.749   8.832  -0.580  1.00  0.00    -0.387 OA
ATOM     23  H   UNL     1      10.262   8.102  -1.064  1.00  0.00     0.211 HD
ENDBRANCH  18  22
BRANCH  19  24
ATOM     24  O   UNL     1       8.570   7.873   1.761  1.00  0.00    -0.384 OA
ATOM     25  H   UNL     1       8.193   8.777   1.997  1.00  0.00     0.211 HD
ENDBRANCH  19  24
ENDBRANCH  12  13
ENDBRANCH   1  12
BRANCH   3  26
ATOM     26  O   UNL     1       9.792   1.859   3.103  1.00  0.00    -0.507 OA
ATOM     27  H   UNL     1       8.794   1.657   3.060  1.00  0.00     0.293 HD
ENDBRANCH   3  26
BRANCH   8  28
ATOM     28  C   UNL     1      15.093   0.912  -0.553  1.00  0.00     0.021 A 
ATOM     29  C   UNL     1      14.891   0.237  -1.765  1.00  0.00     0.016 A 
ATOM     30  C   UNL     1      16.382   1.311  -0.172  1.00  0.00     0.016 A 
ATOM     31  C   UNL     1      15.966   0.034  -2.635  1.00  0.00     0.047 A 
ATOM     32  C   UNL     1      17.458   1.128  -1.045  1.00  0.00     0.047 A 
ATOM     33  C   UNL     1      17.239   0.522  -2.296  1.00  0.00     0.115 A 
BRANCH  33  34
ATOM     34  O   UNL     1      18.296   0.405  -3.193  1.00  0.00    -0.508 OA
ATOM     35  H   UNL     1      18.367  -0.387  -3.821  1.00  0.00     0.293 HD
ENDBRANCH  33  34
ENDBRANCH   8  28
BRANCH   9  36
ATOM     36  O   UNL     1      13.876  -0.773   1.378  1.00  0.00    -0.502 OA
ATOM     37  H   UNL     1      13.493  -1.585   0.899  1.00  0.00     0.293 HD
ENDBRANCH   9  36
TORSDOF 9
ENDMDL
MODEL 2
REMARK VINA RESULT:    -6.374      2.357      3.378
REMARK INTER + INTRA:          -9.448
REMARK INTER:                  -9.360
REMARK INTRA:                  -0.088
REMARK UNBOUND:                -0.838
REMARK SMILES C[C@H]1O[C@@H](Oc2cc(O)c3c(=O)c(O)c(-c4ccc(O)cc4)oc3c2)[C@@H](O)[C@@H](O)[C@H]1O
REMARK SMILES IDX 6 1 7 2 8 3 10 4 24 5 25 6 23 7 15 8 13 9 11 10 12 11 5 12
REMARK SMILES IDX 4 13 1 14 2 15 30 16 3 17 28 18 26 19 31 20 29 22 27 24 9 26
REMARK SMILES IDX 16 28 17 29 22 30 18 31 21 32 19 33 20 34 14 36
REMARK H PARENT 31 21 29 23 27 25 9 27 20 35 14 37
REMARK Flexibility Score: inf
ROOT
ATOM      1  C   UNL     1      10.440   4.517   0.033  1.00  0.00     0.130 A 
ATOM      2  C   UNL     1      10.219   3.633  -1.019  1.00  0.00     0.093 A 
ATOM      3  C   UNL     1      10.779   2.352  -1.013  1.00  0.00     0.134 A 
ATOM      4  C   UNL     1      11.588   1.945   0.079  1.00  0.00     0.111 A 
ATOM      5  C   UNL     1      11.778   2.833   1.154  1.00  0.00     0.146 A 
ATOM      6  C   UNL     1      11.191   4.104   1.149  1.00  0.00     0.094 A 
ATOM      7  O   UNL     1      12.609   2.499   2.166  1.00  0.00    -0.452 OA
ATOM      8  C   UNL     1      13.285   1.352   2.182  1.00  0.00     0.180 A 
ATOM      9  C   UNL     1      13.200   0.443   1.115  1.00  0.00     0.208 A 
ATOM     10  C   UNL     1      12.312   0.727   0.061  1.00  0.00     0.238 A 
ATOM     11  O   UNL     1      12.234  -0.081  -0.910  1.00  0.00    -0.285 OA
ENDROOT
BRANCH   1  12
ATOM     12  O   UNL     1       9.839   5.788   0.065  1.00  0.00    -0.462 OA
BRANCH  12  13
ATOM     13  C   UNL     1       8.424   6.036   0.010  1.00  0.00     0.339 C 
ATOM     14  C   UNL     1       9.867   6.578  -2.636  1.00  0.00     0.042 C 
ATOM     15  C   UNL     1       8.363   6.643  -2.293  1.00  0.00     0.151 C 
ATOM     16  C   UNL     1       7.875   8.070  -1.956  1.00  0.00     0.174 C 
ATOM     17  O   UNL     1       7.913   5.734  -1.286  1.00  0.00    -0.335 OA
ATOM     18  C   UNL     1       8.372   8.547  -0.569  1.00  0.00     0.180 C 
ATOM     19  C   UNL     1       8.029   7.477   0.484  1.00  0.00     0.214 C 
BRANCH  16  20
ATOM     20  O   UNL     1       8.281   8.987  -2.945  1.00  0.00    -0.388 OA
ATOM     21  H   UNL     1       8.824   8.470  -3.623  1.00  0.00     0.211 HD
ENDBRANCH  16  20
BRANCH  18  22
ATOM     22  O   UNL     1       9.737   8.904  -0.556  1.00  0.00    -0.387 OA
ATOM     23  H   UNL     1      10.059   8.975  -1.515  1.00  0.00     0.211 HD
ENDBRANCH  18  22
BRANCH  19  24
ATOM     24  O   UNL     1       8.583   7.826   1.746  1.00  0.00    -0.384 OA
ATOM     25  H   UNL     1       9.458   8.298   1.583  1.00  0.00     0.211 HD
ENDBRANCH  19  24
ENDBRANCH  12  13
ENDBRANCH   1  12
BRANCH   3  26
ATOM     26  O   UNL     1      10.595   1.499  -2.100  1.00  0.00    -0.507 OA
ATOM     27  H   UNL     1      10.315   0.528  -1.965  1.00  0.00     0.293 HD
ENDBRANCH   3  26
BRANCH   8  28
ATOM     28  C   UNL     1      14.277   1.097   3.251  1.00  0.00     0.021 A 
ATOM     29  C   UNL     1      14.213  -0.081   4.009  1.00  0.00     0.016 A 
ATOM     30  C   UNL     1      15.383   1.951   3.365  1.00  0.00     0.016 A 
ATOM     31  C   UNL     1      15.293  -0.447   4.818  1.00  0.00     0.047 A 
ATOM     32  C   UNL     1      16.474   1.582   4.157  1.00  0.00     0.047 A 
ATOM     33  C   UNL     1      16.442   0.360   4.853  1.00  0.00     0.115 A 
BRANCH  33  34
ATOM     34  O   UNL     1      17.557  -0.039   5.584  1.00  0.00    -0.508 OA
ATOM     35  H   UNL     1      18.309  -0.561   5.150  1.00  0.00     0.293 HD
ENDBRANCH  33  34
ENDBRANCH   8  28
BRANCH   9  36
ATOM     36  O   UNL     1      14.038  -0.684   1.056  1.00  0.00    -0.502 OA
ATOM     37  H   UNL     1      14.591  -0.906   0.232  1.00  0.00     0.293 HD
ENDBRANCH   9  36
TORSDOF 9
ENDMDL
MODEL 3
REMARK VINA RESULT:    -6.035      1.736      8.408
REMARK INTER + INTRA:          -8.990
REMARK INTER:                  -9.284
REMARK INTRA:                   0.293
REMARK UNBOUND:                -0.838
REMARK SMILES C[C@H]1O[C@@H](Oc2cc(O)c3c(=O)c(O)c(-c4ccc(O)cc4)oc3c2)[C@@H](O)[C@@H](O)[C@H]1O
REMARK SMILES IDX 6 1 7 2 8 3 10 4 24 5 25 6 23 7 15 8 13 9 11 10 12 11 5 12
REMARK SMILES IDX 4 13 1 14 2 15 30 16 3 17 28 18 26 19 31 20 29 22 27 24 9 26
REMARK SMILES IDX 16 28 17 29 22 30 18 31 21 32 19 33 20 34 14 36
REMARK H PARENT 31 21 29 23 27 25 9 27 20 35 14 37
REMARK Flexibility Score: inf
ROOT
ATOM      1  C   UNL     1      12.841   2.449  -0.275  1.00  0.00     0.130 A 
ATOM      2  C   UNL     1      12.870   2.445   1.117  1.00  0.00     0.093 A 
ATOM      3  C   UNL     1      12.063   3.315   1.857  1.00  0.00     0.134 A 
ATOM      4  C   UNL     1      11.204   4.220   1.182  1.00  0.00     0.111 A 
ATOM      5  C   UNL     1      11.157   4.194  -0.224  1.00  0.00     0.146 A 
ATOM      6  C   UNL     1      11.951   3.301  -0.954  1.00  0.00     0.094 A 
ATOM      7  O   UNL     1      10.408   5.100  -0.891  1.00  0.00    -0.452 OA
ATOM      8  C   UNL     1       9.714   6.047  -0.264  1.00  0.00     0.180 A 
ATOM      9  C   UNL     1       9.761   6.181   1.133  1.00  0.00     0.208 A 
ATOM     10  C   UNL     1      10.491   5.232   1.873  1.00  0.00     0.238 A 
ATOM     11  O   UNL     1      10.548   5.347   3.131  1.00  0.00    -0.285 OA
ENDROOT
BRANCH   1  12
ATOM     12  O   UNL     1      13.607   1.544  -1.028  1.00  0.00    -0.462 OA
BRANCH  12  13
ATOM     13  C   UNL     1      14.317   1.864  -2.237  1.00  0.00     0.339 C 
ATOM     14  C   UNL     1      15.418  -0.597  -0.785  1.00  0.00     0.042 C 
ATOM     15  C   UNL     1      15.833   0.029  -2.133  1.00  0.00     0.151 C 
ATOM     16  C   UNL     1      17.049   0.976  -2.018  1.00  0.00     0.174 C 
ATOM     17  O   UNL     1      14.792   0.677  -2.868  1.00  0.00    -0.335 OA
ATOM     18  C   UNL     1      16.686   2.315  -1.329  1.00  0.00     0.180 C 
ATOM     19  C   UNL     1      15.455   2.921  -2.025  1.00  0.00     0.214 C 
BRANCH  16  20
ATOM     20  O   UNL     1      18.105   0.356  -1.320  1.00  0.00    -0.388 OA
ATOM     21  H   UNL     1      18.818   1.059  -1.179  1.00  0.00     0.211 HD
ENDBRANCH  16  20
BRANCH  18  22
ATOM     22  O   UNL     1      16.519   2.199   0.067  1.00  0.00    -0.387 OA
ATOM     23  H   UNL     1      16.557   3.128   0.473  1.00  0.00     0.211 HD
ENDBRANCH  18  22
BRANCH  19  24
ATOM     24  O   UNL     1      15.020   4.087  -1.339  1.00  0.00    -0.384 OA
ATOM     25  H   UNL     1      14.037   3.985  -1.141  1.00  0.00     0.211 HD
ENDBRANCH  19  24
ENDBRANCH  12  13
ENDBRANCH   1  12
BRANCH   3  26
ATOM     26  O   UNL     1      12.144   3.337   3.248  1.00  0.00    -0.507 OA
ATOM     27  H   UNL     1      11.425   3.791   3.810  1.00  0.00     0.293 HD
ENDBRANCH   3  26
BRANCH   8  28
ATOM     28  C   UNL     1       9.015   7.090  -1.051  1.00  0.00     0.021 A 
ATOM     29  C   UNL     1       9.014   8.423  -0.615  1.00  0.00     0.016 A 
ATOM     30  C   UNL     1       8.526   6.762  -2.323  1.00  0.00     0.016 A 
ATOM     31  C   UNL     1       8.600   9.438  -1.482  1.00  0.00     0.047 A 
ATOM     32  C   UNL     1       8.128   7.773  -3.202  1.00  0.00     0.047 A 
ATOM     33  C   UNL     1       8.204   9.117  -2.791  1.00  0.00     0.115 A 
BRANCH  33  34
ATOM     34  O   UNL     1       7.875  10.126  -3.691  1.00  0.00    -0.508 OA
ATOM     35  H   UNL     1       8.115  11.093  -3.506  1.00  0.00     0.293 HD
ENDBRANCH  33  34
ENDBRANCH   8  28
BRANCH   9  36
ATOM     36  O   UNL     1       9.164   7.278   1.777  1.00  0.00    -0.502 OA
ATOM     37  H   UNL     1       8.234   7.610   1.532  1.00  0.00     0.293 HD
ENDBRANCH   9  36
TORSDOF 9
ENDMDL
MODEL 4
REMARK VINA RESULT:    -5.436      1.664      8.564
REMARK INTER + INTRA:          -8.182
REMARK INTER:                  -8.218
REMARK INTRA:                   0.036
REMARK UNBOUND:                -0.838
REMARK SMILES C[C@H]1O[C@@H](Oc2cc(O)c3c(=O)c(O)c(-c4ccc(O)cc4)oc3c2)[C@@H](O)[C@@H](O)[C@H]1O
REMARK SMILES IDX 6 1 7 2 8 3 10 4 24 5 25 6 23 7 15 8 13 9 11 10 12 11 5 12
REMARK SMILES IDX 4 13 1 14 2 15 30 16 3 17 28 18 26 19 31 20 29 22 27 24 9 26
REMARK SMILES IDX 16 28 17 29 22 30 18 31 21 32 19 33 20 34 14 36
REMARK H PARENT 31 21 29 23 27 25 9 27 20 35 14 37
REMARK Flexibility Score: inf
ROOT
ATOM      1  C   UNL     1      13.087   2.604   0.237  1.00  0.00     0.130 A 
ATOM      2  C   UNL     1      13.050   2.671   1.627  1.00  0.00     0.093 A 
ATOM      3  C   UNL     1      12.163   3.531   2.282  1.00  0.00     0.134 A 
ATOM      4  C   UNL     1      11.288   4.350   1.523  1.00  0.00     0.111 A 
ATOM      5  C   UNL     1      11.310   4.250   0.120  1.00  0.00     0.146 A 
ATOM      6  C   UNL     1      12.185   3.367  -0.526  1.00  0.00     0.094 A 
ATOM      7  O   UNL     1      10.545   5.077  -0.628  1.00  0.00    -0.452 OA
ATOM      8  C   UNL     1       9.771   6.013  -0.084  1.00  0.00     0.180 A 
ATOM      9  C   UNL     1       9.745   6.220   1.305  1.00  0.00     0.208 A 
ATOM     10  C   UNL     1      10.490   5.353   2.126  1.00  0.00     0.238 A 
ATOM     11  O   UNL     1      10.481   5.535   3.378  1.00  0.00    -0.285 OA
ENDROOT
BRANCH   1  12
ATOM     12  O   UNL     1      13.936   1.706  -0.432  1.00  0.00    -0.462 OA
BRANCH  12  13
ATOM     13  C   UNL     1      14.949   0.899   0.193  1.00  0.00     0.339 C 
ATOM     14  C   UNL     1      16.074   3.262  -1.398  1.00  0.00     0.042 C 
ATOM     15  C   UNL     1      16.800   2.215  -0.526  1.00  0.00     0.151 C 
ATOM     16  C   UNL     1      17.382   1.039  -1.342  1.00  0.00     0.174 C 
ATOM     17  O   UNL     1      16.059   1.705   0.584  1.00  0.00    -0.335 OA
ATOM     18  C   UNL     1      16.281   0.078  -1.854  1.00  0.00     0.180 C 
ATOM     19  C   UNL     1      15.383  -0.333  -0.673  1.00  0.00     0.214 C 
BRANCH  16  20
ATOM     20  O   UNL     1      18.142   1.510  -2.431  1.00  0.00    -0.388 OA
ATOM     21  H   UNL     1      18.952   0.909  -2.507  1.00  0.00     0.211 HD
ENDBRANCH  16  20
BRANCH  18  22
ATOM     22  O   UNL     1      15.546   0.597  -2.940  1.00  0.00    -0.387 OA
ATOM     23  H   UNL     1      15.170  -0.179  -3.474  1.00  0.00     0.211 HD
ENDBRANCH  18  22
BRANCH  19  24
ATOM     24  O   UNL     1      14.287  -1.114  -1.130  1.00  0.00    -0.384 OA
ATOM     25  H   UNL     1      14.656  -1.911  -1.623  1.00  0.00     0.211 HD
ENDBRANCH  19  24
ENDBRANCH  12  13
ENDBRANCH   1  12
BRANCH   3  26
ATOM     26  O   UNL     1      12.176   3.628   3.673  1.00  0.00    -0.507 OA
ATOM     27  H   UNL     1      13.003   3.958   4.169  1.00  0.00     0.293 HD
ENDBRANCH   3  26
BRANCH   8  28
ATOM     28  C   UNL     1       9.055   6.973  -0.955  1.00  0.00     0.021 A 
ATOM     29  C   UNL     1       8.966   8.325  -0.595  1.00  0.00     0.016 A 
ATOM     30  C   UNL     1       8.639   6.552  -2.226  1.00  0.00     0.016 A 
ATOM     31  C   UNL     1       8.539   9.269  -1.534  1.00  0.00     0.047 A 
ATOM     32  C   UNL     1       8.228   7.491  -3.176  1.00  0.00     0.047 A 
ATOM     33  C   UNL     1       8.217   8.857  -2.838  1.00  0.00     0.115 A 
BRANCH  33  34
ATOM     34  O   UNL     1       7.876   9.797  -3.806  1.00  0.00    -0.508 OA
ATOM     35  H   UNL     1       8.223   9.722  -4.756  1.00  0.00     0.293 HD
ENDBRANCH  33  34
ENDBRANCH   8  28
BRANCH   9  36
ATOM     36  O   UNL     1       9.059   7.313   1.861  1.00  0.00    -0.502 OA
ATOM     37  H   UNL     1       9.444   7.863   2.626  1.00  0.00     0.293 HD
ENDBRANCH   9  36
TORSDOF 9
ENDMDL
MODEL 5
REMARK VINA RESULT:    -5.045      1.627      8.543
REMARK INTER + INTRA:          -7.653
REMARK INTER:                  -6.955
REMARK INTRA:                  -0.698
REMARK UNBOUND:                -0.838
REMARK SMILES C[C@H]1O[C@@H](Oc2cc(O)c3c(=O)c(O)c(-c4ccc(O)cc4)oc3c2)[C@@H](O)[C@@H](O)[C@H]1O
REMARK SMILES IDX 6 1 7 2 8 3 10 4 24 5 25 6 23 7 15 8 13 9 11 10 12 11 5 12
REMARK SMILES IDX 4 13 1 14 2 15 30 16 3 17 28 18 26 19 31 20 29 22 27 24 9 26
REMARK SMILES IDX 16 28 17 29 22 30 18 31 21 32 19 33 20 34 14 36
REMARK H PARENT 31 21 29 23 27 25 9 27 20 35 14 37
REMARK Flexibility Score: inf
ROOT
ATOM      1  C   UNL     1      13.161   1.820  -0.538  1.00  0.00     0.130 A 
ATOM      2  C   UNL     1      12.510   1.103   0.462  1.00  0.00     0.093 A 
ATOM      3  C   UNL     1      11.257   1.504   0.936  1.00  0.00     0.134 A 
ATOM      4  C   UNL     1      10.638   2.660   0.394  1.00  0.00     0.111 A 
ATOM      5  C   UNL     1      11.288   3.359  -0.639  1.00  0.00     0.146 A 
ATOM      6  C   UNL     1      12.532   2.934  -1.124  1.00  0.00     0.094 A 
ATOM      7  O   UNL     1      10.758   4.508  -1.115  1.00  0.00    -0.452 OA
ATOM      8  C   UNL     1       9.635   5.028  -0.625  1.00  0.00     0.180 A 
ATOM      9  C   UNL     1       8.963   4.426   0.451  1.00  0.00     0.208 A 
ATOM     10  C   UNL     1       9.452   3.204   0.949  1.00  0.00     0.238 A 
ATOM     11  O   UNL     1       8.860   2.657   1.923  1.00  0.00    -0.285 OA
ENDROOT
BRANCH   1  12
ATOM     12  O   UNL     1      14.395   1.398  -1.060  1.00  0.00    -0.462 OA
BRANCH  12  13
ATOM     13  C   UNL     1      15.312   0.506  -0.403  1.00  0.00     0.339 C 
ATOM     14  C   UNL     1      16.514   3.250  -1.034  1.00  0.00     0.042 C 
ATOM     15  C   UNL     1      17.122   2.049  -0.279  1.00  0.00     0.151 C 
ATOM     16  C   UNL     1      18.011   1.154  -1.171  1.00  0.00     0.174 C 
ATOM     17  O   UNL     1      16.198   1.234   0.445  1.00  0.00    -0.335 OA
ATOM     18  C   UNL     1      17.180   0.307  -2.166  1.00  0.00     0.180 C 
ATOM     19  C   UNL     1      16.076  -0.438  -1.394  1.00  0.00     0.214 C 
BRANCH  16  20
ATOM     20  O   UNL     1      18.953   1.926  -1.879  1.00  0.00    -0.388 OA
ATOM     21  H   UNL     1      19.661   1.290  -2.219  1.00  0.00     0.211 HD
ENDBRANCH  16  20
BRANCH  18  22
ATOM     22  O   UNL     1      16.674   1.055  -3.250  1.00  0.00    -0.387 OA
ATOM     23  H   UNL     1      15.791   0.646  -3.539  1.00  0.00     0.211 HD
ENDBRANCH  18  22
BRANCH  19  24
ATOM     24  O   UNL     1      15.217  -1.125  -2.293  1.00  0.00    -0.384 OA
ATOM     25  H   UNL     1      15.258  -0.656  -3.184  1.00  0.00     0.211 HD
ENDBRANCH  19  24
ENDBRANCH  12  13
ENDBRANCH   1  12
BRANCH   3  26
ATOM     26  O   UNL     1      10.643   0.808   1.976  1.00  0.00    -0.507 OA
ATOM     27  H   UNL     1      10.991   0.875   2.932  1.00  0.00     0.293 HD
ENDBRANCH   3  26
BRANCH   8  28
ATOM     28  C   UNL     1       9.171   6.353  -1.096  1.00  0.00     0.021 A 
ATOM     29  C   UNL     1       9.404   7.500  -0.324  1.00  0.00     0.016 A 
ATOM     30  C   UNL     1       8.673   6.469  -2.402  1.00  0.00     0.016 A 
ATOM     31  C   UNL     1       9.218   8.766  -0.885  1.00  0.00     0.047 A 
ATOM     32  C   UNL     1       8.501   7.732  -2.976  1.00  0.00     0.047 A 
ATOM     33  C   UNL     1       8.813   8.882  -2.226  1.00  0.00     0.115 A 
BRANCH  33  34
ATOM     34  O   UNL     1       8.710  10.134  -2.822  1.00  0.00    -0.508 OA
ATOM     35  H   UNL     1       9.308  10.398  -3.597  1.00  0.00     0.293 HD
ENDBRANCH  33  34
ENDBRANCH   8  28
BRANCH   9  36
ATOM     36  O   UNL     1       7.875   5.063   1.073  1.00  0.00    -0.502 OA
ATOM     37  H   UNL     1       6.996   5.230   0.589  1.00  0.00     0.293 HD
ENDBRANCH   9  36
TORSDOF 9
ENDMDL
MODEL 6
REMARK VINA RESULT:    -4.993      2.925      8.815
REMARK INTER + INTRA:          -7.582
REMARK INTER:                  -6.833
REMARK INTRA:                  -0.749
REMARK UNBOUND:                -0.838
REMARK SMILES C[C@H]1O[C@@H](Oc2cc(O)c3c(=O)c(O)c(-c4ccc(O)cc4)oc3c2)[C@@H](O)[C@@H](O)[C@H]1O
REMARK SMILES IDX 6 1 7 2 8 3 10 4 24 5 25 6 23 7 15 8 13 9 11 10 12 11 5 12
REMARK SMILES IDX 4 13 1 14 2 15 30 16 3 17 28 18 26 19 31 20 29 22 27 24 9 26
REMARK SMILES IDX 16 28 17 29 22 30 18 31 21 32 19 33 20 34 14 36
REMARK H PARENT 31 21 29 23 27 25 9 27 20 35 14 37
REMARK Flexibility Score: inf
ROOT
ATOM      1  C   UNL     1      12.907   1.256   2.344  1.00  0.00     0.130 A 
ATOM      2  C   UNL     1      12.273   0.100   1.899  1.00  0.00     0.093 A 
ATOM      3  C   UNL     1      11.204   0.166   0.999  1.00  0.00     0.134 A 
ATOM      4  C   UNL     1      10.755   1.428   0.534  1.00  0.00     0.111 A 
ATOM      5  C   UNL     1      11.424   2.589   0.963  1.00  0.00     0.146 A 
ATOM      6  C   UNL     1      12.510   2.510   1.845  1.00  0.00     0.094 A 
ATOM      7  O   UNL     1      10.965   3.807   0.599  1.00  0.00    -0.452 OA
ATOM      8  C   UNL     1       9.874   3.960  -0.149  1.00  0.00     0.180 A 
ATOM      9  C   UNL     1       9.114   2.854  -0.562  1.00  0.00     0.208 A 
ATOM     10  C   UNL     1       9.579   1.565  -0.244  1.00  0.00     0.238 A 
ATOM     11  O   UNL     1       8.897   0.561  -0.604  1.00  0.00    -0.285 OA
ENDROOT
BRANCH   1  12
ATOM     12  O   UNL     1      14.016   1.200   3.206  1.00  0.00    -0.462 OA
BRANCH  12  13
ATOM     13  C   UNL     1      15.356   0.860   2.812  1.00  0.00     0.339 C 
ATOM     14  C   UNL     1      14.160  -1.063   4.874  1.00  0.00     0.042 C 
ATOM     15  C   UNL     1      15.518  -1.111   4.141  1.00  0.00     0.151 C 
ATOM     16  C   UNL     1      16.679  -0.516   4.969  1.00  0.00     0.174 C 
ATOM     17  O   UNL     1      15.537  -0.555   2.824  1.00  0.00    -0.335 OA
ATOM     18  C   UNL     1      16.605   1.028   5.059  1.00  0.00     0.180 C 
ATOM     19  C   UNL     1      16.455   1.608   3.641  1.00  0.00     0.214 C 
BRANCH  16  20
ATOM     20  O   UNL     1      16.705  -1.065   6.266  1.00  0.00    -0.388 OA
ATOM     21  H   UNL     1      15.847  -1.588   6.382  1.00  0.00     0.211 HD
ENDBRANCH  16  20
BRANCH  18  22
ATOM     22  O   UNL     1      15.608   1.490   5.943  1.00  0.00    -0.387 OA
ATOM     23  H   UNL     1      14.915   0.757   6.056  1.00  0.00     0.211 HD
ENDBRANCH  18  22
BRANCH  19  24
ATOM     24  O   UNL     1      16.258   3.015   3.697  1.00  0.00    -0.384 OA
ATOM     25  H   UNL     1      16.007   3.257   4.642  1.00  0.00     0.211 HD
ENDBRANCH  19  24
ENDBRANCH  12  13
ENDBRANCH   1  12
BRANCH   3  26
ATOM     26  O   UNL     1      10.544  -0.997   0.605  1.00  0.00    -0.507 OA
ATOM     27  H   UNL     1      10.608  -1.851   1.157  1.00  0.00     0.293 HD
ENDBRANCH   3  26
BRANCH   8  28
ATOM     28  C   UNL     1       9.346   5.319  -0.410  1.00  0.00     0.021 A 
ATOM     29  C   UNL     1       8.852   6.100   0.645  1.00  0.00     0.016 A 
ATOM     30  C   UNL     1       9.523   5.881  -1.682  1.00  0.00     0.016 A 
ATOM     31  C   UNL     1       8.614   7.463   0.449  1.00  0.00     0.047 A 
ATOM     32  C   UNL     1       9.305   7.247  -1.881  1.00  0.00     0.047 A 
ATOM     33  C   UNL     1       8.887   8.046  -0.800  1.00  0.00     0.115 A 
BRANCH  33  34
ATOM     34  O   UNL     1       8.739   9.417  -0.982  1.00  0.00    -0.508 OA
ATOM     35  H   UNL     1       9.542  10.036  -0.982  1.00  0.00     0.293 HD
ENDBRANCH  33  34
ENDBRANCH   8  28
BRANCH   9  36
ATOM     36  O   UNL     1       7.877   3.026  -1.206  1.00  0.00    -0.502 OA
ATOM     37  H   UNL     1       7.001   2.716  -0.791  1.00  0.00     0.293 HD
ENDBRANCH   9  36
TORSDOF 9
ENDMDL
MODEL 7
REMARK VINA RESULT:    -4.928     17.725     19.132
REMARK INTER + INTRA:          -7.495
REMARK INTER:                  -7.600
REMARK INTRA:                   0.105
REMARK UNBOUND:                -0.838
REMARK SMILES C[C@H]1O[C@@H](Oc2cc(O)c3c(=O)c(O)c(-c4ccc(O)cc4)oc3c2)[C@@H](O)[C@@H](O)[C@H]1O
REMARK SMILES IDX 6 1 7 2 8 3 10 4 24 5 25 6 23 7 15 8 13 9 11 10 12 11 5 12
REMARK SMILES IDX 4 13 1 14 2 15 30 16 3 17 28 18 26 19 31 20 29 22 27 24 9 26
REMARK SMILES IDX 16 28 17 29 22 30 18 31 21 32 19 33 20 34 14 36
REMARK H PARENT 31 21 29 23 27 25 9 27 20 35 14 37
REMARK Flexibility Score: inf
ROOT
ATOM      1  C   UNL     1      25.867  15.332   6.599  1.00  0.00     0.130 A 
ATOM      2  C   UNL     1      26.509  15.896   7.698  1.00  0.00     0.093 A 
ATOM      3  C   UNL     1      27.145  15.094   8.650  1.00  0.00     0.134 A 
ATOM      4  C   UNL     1      27.134  13.683   8.500  1.00  0.00     0.111 A 
ATOM      5  C   UNL     1      26.511  13.124   7.369  1.00  0.00     0.146 A 
ATOM      6  C   UNL     1      25.900  13.938   6.408  1.00  0.00     0.094 A 
ATOM      7  O   UNL     1      26.417  11.781   7.245  1.00  0.00    -0.452 OA
ATOM      8  C   UNL     1      26.880  10.948   8.175  1.00  0.00     0.180 A 
ATOM      9  C   UNL     1      27.455  11.429   9.362  1.00  0.00     0.208 A 
ATOM     10  C   UNL     1      27.616  12.819   9.515  1.00  0.00     0.238 A 
ATOM     11  O   UNL     1      28.125  13.264  10.584  1.00  0.00    -0.285 OA
ENDROOT
BRANCH   1  12
ATOM     12  O   UNL     1      25.271  16.129   5.607  1.00  0.00    -0.462 OA
BRANCH  12  13
ATOM     13  C   UNL     1      25.594  17.505   5.345  1.00  0.00     0.339 C 
ATOM     14  C   UNL     1      22.585  16.969   5.540  1.00  0.00     0.042 C 
ATOM     15  C   UNL     1      23.347  18.298   5.351  1.00  0.00     0.151 C 
ATOM     16  C   UNL     1      23.447  18.740   3.873  1.00  0.00     0.174 C 
ATOM     17  O   UNL     1      24.639  18.369   5.958  1.00  0.00    -0.335 OA
ATOM     18  C   UNL     1      24.445  17.872   3.068  1.00  0.00     0.180 C 
ATOM     19  C   UNL     1      25.787  17.817   3.821  1.00  0.00     0.214 C 
BRANCH  16  20
ATOM     20  O   UNL     1      22.183  18.707   3.252  1.00  0.00    -0.388 OA
ATOM     21  H   UNL     1      21.957  17.733   3.094  1.00  0.00     0.211 HD
ENDBRANCH  16  20
BRANCH  18  22
ATOM     22  O   UNL     1      23.946  16.590   2.754  1.00  0.00    -0.387 OA
ATOM     23  H   UNL     1      23.541  16.622   1.824  1.00  0.00     0.211 HD
ENDBRANCH  18  22
BRANCH  19  24
ATOM     24  O   UNL     1      26.685  16.927   3.173  1.00  0.00    -0.384 OA
ATOM     25  H   UNL     1      27.247  16.481   3.879  1.00  0.00     0.211 HD
ENDBRANCH  19  24
ENDBRANCH  12  13
ENDBRANCH   1  12
BRANCH   3  26
ATOM     26  O   UNL     1      27.736  15.670   9.773  1.00  0.00    -0.507 OA
ATOM     27  H   UNL     1      27.843  15.145  10.640  1.00  0.00     0.293 HD
ENDBRANCH   3  26
BRANCH   8  28
ATOM     28  C   UNL     1      26.635   9.493   8.046  1.00  0.00     0.021 A 
ATOM     29  C   UNL     1      25.776   9.006   7.051  1.00  0.00     0.016 A 
ATOM     30  C   UNL     1      27.416   8.606   8.801  1.00  0.00     0.016 A 
ATOM     31  C   UNL     1      25.758   7.641   6.754  1.00  0.00     0.047 A 
ATOM     32  C   UNL     1      27.417   7.242   8.497  1.00  0.00     0.047 A 
ATOM     33  C   UNL     1      26.614   6.766   7.444  1.00  0.00     0.115 A 
BRANCH  33  34
ATOM     34  O   UNL     1      26.671   5.421   7.096  1.00  0.00    -0.508 OA
ATOM     35  H   UNL     1      26.085   5.043   6.360  1.00  0.00     0.293 HD
ENDBRANCH  33  34
ENDBRANCH   8  28
BRANCH   9  36
ATOM     36  O   UNL     1      27.790  10.555  10.411  1.00  0.00    -0.502 OA
ATOM     37  H   UNL     1      27.299  10.564  11.302  1.00  0.00     0.293 HD
ENDBRANCH   9  36
TORSDOF 9
ENDMDL
MODEL 8
REMARK VINA RESULT:    -4.461     17.281     20.165
REMARK INTER + INTRA:          -6.864
REMARK INTER:                  -6.213
REMARK INTRA:                  -0.651
REMARK UNBOUND:                -0.838
REMARK SMILES C[C@H]1O[C@@H](Oc2cc(O)c3c(=O)c(O)c(-c4ccc(O)cc4)oc3c2)[C@@H](O)[C@@H](O)[C@H]1O
REMARK SMILES IDX 6 1 7 2 8 3 10 4 24 5 25 6 23 7 15 8 13 9 11 10 12 11 5 12
REMARK SMILES IDX 4 13 1 14 2 15 30 16 3 17 28 18 26 19 31 20 29 22 27 24 9 26
REMARK SMILES IDX 16 28 17 29 22 30 18 31 21 32 19 33 20 34 14 36
REMARK H PARENT 31 21 29 23 27 25 9 27 20 35 14 37
REMARK Flexibility Score: inf
ROOT
ATOM      1  C   UNL     1      26.485  12.398   7.689  1.00  0.00     0.130 A 
ATOM      2  C   UNL     1      27.373  13.314   8.247  1.00  0.00     0.093 A 
ATOM      3  C   UNL     1      27.196  14.689   8.067  1.00  0.00     0.134 A 
ATOM      4  C   UNL     1      26.099  15.162   7.302  1.00  0.00     0.111 A 
ATOM      5  C   UNL     1      25.189  14.231   6.770  1.00  0.00     0.146 A 
ATOM      6  C   UNL     1      25.361  12.857   6.978  1.00  0.00     0.094 A 
ATOM      7  O   UNL     1      24.182  14.651   5.971  1.00  0.00    -0.452 OA
ATOM      8  C   UNL     1      24.024  15.931   5.643  1.00  0.00     0.180 A 
ATOM      9  C   UNL     1      24.929  16.912   6.079  1.00  0.00     0.208 A 
ATOM     10  C   UNL     1      25.966  16.528   6.950  1.00  0.00     0.238 A 
ATOM     11  O   UNL     1      26.792  17.402   7.343  1.00  0.00    -0.285 OA
ENDROOT
BRANCH   1  12
ATOM     12  O   UNL     1      26.621  11.016   7.907  1.00  0.00    -0.462 OA
BRANCH  12  13
ATOM     13  C   UNL     1      27.865  10.331   8.130  1.00  0.00     0.339 C 
ATOM     14  C   UNL     1      25.759   8.618   6.711  1.00  0.00     0.042 C 
ATOM     15  C   UNL     1      27.228   8.297   7.064  1.00  0.00     0.151 C 
ATOM     16  C   UNL     1      27.379   7.502   8.380  1.00  0.00     0.174 C 
ATOM     17  O   UNL     1      28.125   9.410   7.073  1.00  0.00    -0.335 OA
ATOM     18  C   UNL     1      27.106   8.377   9.629  1.00  0.00     0.180 C 
ATOM     19  C   UNL     1      27.957   9.657   9.542  1.00  0.00     0.214 C 
BRANCH  16  20
ATOM     20  O   UNL     1      26.525   6.382   8.392  1.00  0.00    -0.388 OA
ATOM     21  H   UNL     1      25.603   6.710   8.134  1.00  0.00     0.211 HD
ENDBRANCH  16  20
BRANCH  18  22
ATOM     22  O   UNL     1      25.737   8.647   9.834  1.00  0.00    -0.387 OA
ATOM     23  H   UNL     1      25.490   8.357  10.775  1.00  0.00     0.211 HD
ENDBRANCH  18  22
BRANCH  19  24
ATOM     24  O   UNL     1      27.637  10.540  10.609  1.00  0.00    -0.384 OA
ATOM     25  H   UNL     1      26.735  10.945  10.419  1.00  0.00     0.211 HD
ENDBRANCH  19  24
ENDBRANCH  12  13
ENDBRANCH   1  12
BRANCH   3  26
ATOM     26  O   UNL     1      28.125  15.591   8.585  1.00  0.00    -0.507 OA
ATOM     27  H   UNL     1      28.960  15.265   9.070  1.00  0.00     0.293 HD
ENDBRANCH   3  26
BRANCH   8  28
ATOM     28  C   UNL     1      22.983  16.315   4.662  1.00  0.00     0.021 A 
ATOM     29  C   UNL     1      21.665  16.546   5.084  1.00  0.00     0.016 A 
ATOM     30  C   UNL     1      23.370  16.630   3.352  1.00  0.00     0.016 A 
ATOM     31  C   UNL     1      20.757  17.167   4.222  1.00  0.00     0.047 A 
ATOM     32  C   UNL     1      22.474  17.269   2.491  1.00  0.00     0.047 A 
ATOM     33  C   UNL     1      21.176  17.572   2.943  1.00  0.00     0.115 A 
BRANCH  33  34
ATOM     34  O   UNL     1      20.309  18.271   2.110  1.00  0.00    -0.508 OA
ATOM     35  H   UNL     1      19.303  18.180   2.203  1.00  0.00     0.293 HD
ENDBRANCH  33  34
ENDBRANCH   8  28
BRANCH   9  36
ATOM     36  O   UNL     1      24.856  18.230   5.597  1.00  0.00    -0.502 OA
ATOM     37  H   UNL     1      25.517  18.949   5.882  1.00  0.00     0.293 HD
ENDBRANCH   9  36
TORSDOF 9
ENDMDL
