MODEL 1
REMARK VINA RESULT:    -2.473      0.000      0.000
REMARK INTER + INTRA:          -7.838
REMARK INTER:                  -4.641
REMARK INTRA:                  -3.197
REMARK UNBOUND:                -3.197
REMARK SMILES CCCCCCCCC=CCCCCCCCC(=O)[O-]
REMARK SMILES IDX 10 1 9 2 11 3 12 4 13 5 14 6 15 7 16 8 17 9 18 10 19 11
REMARK SMILES IDX 20 12 8 13 7 14 6 15 5 16 4 17 3 18 2 19 1 20
REMARK H PARENT
REMARK Flexibility Score: inf
ROOT
ATOM      1  C   UNL     1     125.166 -36.111  81.797  1.00  0.00    -0.031 C 
ATOM      2  C   UNL     1     125.760 -36.277  80.607  1.00  0.00    -0.031 C 
ENDROOT
BRANCH   1   3
ATOM      3  C   UNL     1     125.037 -37.263  82.757  1.00  0.00     0.027 C 
BRANCH   3   4
ATOM      4  C   UNL     1     125.900 -37.045  84.004  1.00  0.00     0.004 C 
BRANCH   4   5
ATOM      5  C   UNL     1     126.432 -35.607  84.062  1.00  0.00     0.000 C 
BRANCH   5   6
ATOM      6  C   UNL     1     127.904 -35.583  84.490  1.00  0.00     0.000 C 
BRANCH   6   7
ATOM      7  C   UNL     1     128.578 -36.937  84.224  1.00  0.00     0.000 C 
BRANCH   7   8
ATOM      8  C   UNL     1     129.485 -36.914  82.982  1.00  0.00     0.006 C 
BRANCH   8   9
ATOM      9  C   UNL     1     128.909 -37.722  81.813  1.00  0.00     0.053 C 
BRANCH   9  10
ATOM     10  C   UNL     1     128.673 -39.141  82.223  1.00  0.00     0.041 C 
ATOM     11  O   UNL     1     127.514 -39.630  82.172  1.00  0.00    -0.550 OA
ATOM     12  O   UNL     1     129.727 -39.915  82.701  1.00  0.00    -0.550 OA
ENDBRANCH   9  10
ENDBRANCH   8   9
ENDBRANCH   7   8
ENDBRANCH   6   7
ENDBRANCH   5   6
ENDBRANCH   4   5
ENDBRANCH   3   4
ENDBRANCH   1   3
BRANCH   2  13
ATOM     13  C   UNL     1     125.877 -35.149  79.619  1.00  0.00     0.027 C 
BRANCH  13  14
ATOM     14  C   UNL     1     124.783 -34.094  79.845  1.00  0.00     0.004 C 
BRANCH  14  15
ATOM     15  C   UNL     1     125.341 -32.663  79.898  1.00  0.00     0.000 C 
BRANCH  15  16
ATOM     16  C   UNL     1     125.243 -32.040  81.302  1.00  0.00     0.000 C 
BRANCH  16  17
ATOM     17  C   UNL     1     126.478 -32.328  82.175  1.00  0.00    -0.000 C 
BRANCH  17  18
ATOM     18  C   UNL     1     127.828 -32.265  81.437  1.00  0.00    -0.000 C 
BRANCH  18  19
ATOM     19  C   UNL     1     128.738 -33.459  81.753  1.00  0.00    -0.003 C 
ATOM     20  C   UNL     1     129.245 -34.117  80.472  1.00  0.00     0.004 C 
ENDBRANCH  18  19
ENDBRANCH  17  18
ENDBRANCH  16  17
ENDBRANCH  15  16
ENDBRANCH  14  15
ENDBRANCH  13  14
ENDBRANCH   2  13
TORSDOF 15
ENDMDL
MODEL 2
REMARK VINA RESULT:    -2.456      2.699      5.210
REMARK INTER + INTRA:          -7.806
REMARK INTER:                  -4.441
REMARK INTRA:                  -3.365
REMARK UNBOUND:                -3.197
REMARK SMILES CCCCCCCCC=CCCCCCCCC(=O)[O-]
REMARK SMILES IDX 10 1 9 2 11 3 12 4 13 5 14 6 15 7 16 8 17 9 18 10 19 11
REMARK SMILES IDX 20 12 8 13 7 14 6 15 5 16 4 17 3 18 2 19 1 20
REMARK H PARENT
REMARK Flexibility Score: inf
ROOT
ATOM      1  C   UNL     1     128.212 -38.328  84.465  1.00  0.00    -0.031 C 
ATOM      2  C   UNL     1     126.992 -37.781  84.371  1.00  0.00    -0.031 C 
ENDROOT
BRANCH   1   3
ATOM      3  C   UNL     1     129.443 -37.463  84.453  1.00  0.00     0.027 C 
BRANCH   3   4
ATOM      4  C   UNL     1     129.077 -35.979  84.354  1.00  0.00     0.004 C 
BRANCH   4   5
ATOM      5  C   UNL     1     129.691 -35.342  83.101  1.00  0.00     0.000 C 
BRANCH   5   6
ATOM      6  C   UNL     1     128.903 -34.098  82.675  1.00  0.00     0.000 C 
BRANCH   6   7
ATOM      7  C   UNL     1     127.478 -34.125  83.246  1.00  0.00     0.000 C 
BRANCH   7   8
ATOM      8  C   UNL     1     126.494 -33.274  82.426  1.00  0.00     0.006 C 
BRANCH   8   9
ATOM      9  C   UNL     1     127.186 -32.476  81.314  1.00  0.00     0.053 C 
BRANCH   9  10
ATOM     10  C   UNL     1     126.609 -32.829  79.980  1.00  0.00     0.041 C 
ATOM     11  O   UNL     1     127.267 -33.540  79.175  1.00  0.00    -0.550 OA
ATOM     12  O   UNL     1     125.360 -32.342  79.606  1.00  0.00    -0.550 OA
ENDBRANCH   9  10
ENDBRANCH   8   9
ENDBRANCH   7   8
ENDBRANCH   6   7
ENDBRANCH   5   6
ENDBRANCH   4   5
ENDBRANCH   3   4
ENDBRANCH   1   3
BRANCH   2  13
ATOM     13  C   UNL     1     125.747 -38.625  84.352  1.00  0.00     0.027 C 
BRANCH  13  14
ATOM     14  C   UNL     1     124.783 -38.175  83.243  1.00  0.00     0.004 C 
BRANCH  14  15
ATOM     15  C   UNL     1     125.108 -36.771  82.709  1.00  0.00     0.000 C 
BRANCH  15  16
ATOM     16  C   UNL     1     124.720 -36.595  81.231  1.00  0.00     0.000 C 
BRANCH  16  17
ATOM     17  C   UNL     1     125.813 -37.078  80.261  1.00  0.00    -0.000 C 
BRANCH  17  18
ATOM     18  C   UNL     1     127.254 -36.719  80.671  1.00  0.00    -0.000 C 
BRANCH  18  19
ATOM     19  C   UNL     1     128.165 -37.948  80.792  1.00  0.00    -0.003 C 
ATOM     20  C   UNL     1     127.351 -39.238  80.796  1.00  0.00     0.004 C 
ENDBRANCH  18  19
ENDBRANCH  17  18
ENDBRANCH  16  17
ENDBRANCH  15  16
ENDBRANCH  14  15
ENDBRANCH  13  14
ENDBRANCH   2  13
TORSDOF 15
ENDMDL
MODEL 3
REMARK VINA RESULT:    -2.440     20.178     23.011
REMARK INTER + INTRA:          -7.778
REMARK INTER:                  -4.587
REMARK INTRA:                  -3.191
REMARK UNBOUND:                -3.197
REMARK SMILES CCCCCCCCC=CCCCCCCCC(=O)[O-]
REMARK SMILES IDX 10 1 9 2 11 3 12 4 13 5 14 6 15 7 16 8 17 9 18 10 19 11
REMARK SMILES IDX 20 12 8 13 7 14 6 15 5 16 4 17 3 18 2 19 1 20
REMARK H PARENT
REMARK Flexibility Score: inf
ROOT
ATOM      1  C   UNL     1     139.408 -48.058  66.580  1.00  0.00    -0.031 C 
ATOM      2  C   UNL     1     138.190 -47.779  67.068  1.00  0.00    -0.031 C 
ENDROOT
BRANCH   1   3
ATOM      3  C   UNL     1     140.509 -47.035  66.636  1.00  0.00     0.027 C 
BRANCH   3   4
ATOM      4  C   UNL     1     141.761 -47.604  67.313  1.00  0.00     0.004 C 
BRANCH   4   5
ATOM      5  C   UNL     1     141.533 -49.052  67.765  1.00  0.00     0.000 C 
BRANCH   5   6
ATOM      6  C   UNL     1     141.823 -49.213  69.261  1.00  0.00     0.000 C 
BRANCH   6   7
ATOM      7  C   UNL     1     141.963 -47.845  69.946  1.00  0.00     0.000 C 
BRANCH   7   8
ATOM      8  C   UNL     1     140.794 -47.535  70.895  1.00  0.00     0.006 C 
BRANCH   8   9
ATOM      9  C   UNL     1     139.769 -46.573  70.279  1.00  0.00     0.053 C 
BRANCH   9  10
ATOM     10  C   UNL     1     140.287 -45.170  70.307  1.00  0.00     0.041 C 
ATOM     11  O   UNL     1     140.376 -44.551  71.400  1.00  0.00    -0.550 OA
ATOM     12  O   UNL     1     140.636 -44.530  69.121  1.00  0.00    -0.550 OA
ENDBRANCH   9  10
ENDBRANCH   8   9
ENDBRANCH   7   8
ENDBRANCH   6   7
ENDBRANCH   5   6
ENDBRANCH   4   5
ENDBRANCH   3   4
ENDBRANCH   1   3
BRANCH   2  13
ATOM     13  C   UNL     1     137.065 -48.775  66.998  1.00  0.00     0.027 C 
BRANCH  13  14
ATOM     14  C   UNL     1     137.346 -49.862  65.950  1.00  0.00     0.004 C 
BRANCH  14  15
ATOM     15  C   UNL     1     137.376 -51.275  66.554  1.00  0.00     0.000 C 
BRANCH  15  16
ATOM     16  C   UNL     1     138.807 -51.815  66.728  1.00  0.00     0.000 C 
BRANCH  16  17
ATOM     17  C   UNL     1     139.295 -51.765  68.187  1.00  0.00    -0.000 C 
BRANCH  17  18
ATOM     18  C   UNL     1     138.188 -51.562  69.239  1.00  0.00    -0.000 C 
BRANCH  18  19
ATOM     19  C   UNL     1     138.420 -50.328  70.121  1.00  0.00    -0.003 C 
ATOM     20  C   UNL     1     139.026 -50.719  71.466  1.00  0.00     0.004 C 
ENDBRANCH  18  19
ENDBRANCH  17  18
ENDBRANCH  16  17
ENDBRANCH  15  16
ENDBRANCH  14  15
ENDBRANCH  13  14
ENDBRANCH   2  13
TORSDOF 15
ENDMDL
MODEL 4
REMARK VINA RESULT:    -2.436     20.608     22.960
REMARK INTER + INTRA:          -7.769
REMARK INTER:                  -4.486
REMARK INTRA:                  -3.282
REMARK UNBOUND:                -3.197
REMARK SMILES CCCCCCCCC=CCCCCCCCC(=O)[O-]
REMARK SMILES IDX 10 1 9 2 11 3 12 4 13 5 14 6 15 7 16 8 17 9 18 10 19 11
REMARK SMILES IDX 20 12 8 13 7 14 6 15 5 16 4 17 3 18 2 19 1 20
REMARK H PARENT
REMARK Flexibility Score: inf
ROOT
ATOM      1  C   UNL     1     140.519 -50.192  67.982  1.00  0.00    -0.031 C 
ATOM      2  C   UNL     1     139.839 -51.037  68.771  1.00  0.00    -0.031 C 
ENDROOT
BRANCH   1   3
ATOM      3  C   UNL     1     141.477 -49.193  68.572  1.00  0.00     0.027 C 
BRANCH   3   4
ATOM      4  C   UNL     1     141.772 -48.059  67.585  1.00  0.00     0.004 C 
BRANCH   4   5
ATOM      5  C   UNL     1     140.546 -47.751  66.716  1.00  0.00     0.000 C 
BRANCH   5   6
ATOM      6  C   UNL     1     140.168 -46.268  66.805  1.00  0.00     0.000 C 
BRANCH   6   7
ATOM      7  C   UNL     1     141.071 -45.527  67.801  1.00  0.00     0.000 C 
BRANCH   7   8
ATOM      8  C   UNL     1     140.314 -45.064  69.057  1.00  0.00     0.006 C 
BRANCH   8   9
ATOM      9  C   UNL     1     140.675 -45.882  70.303  1.00  0.00     0.053 C 
BRANCH   9  10
ATOM     10  C   UNL     1     142.093 -45.626  70.704  1.00  0.00     0.041 C 
ATOM     11  O   UNL     1     142.429 -44.497  71.148  1.00  0.00    -0.550 OA
ATOM     12  O   UNL     1     143.054 -46.621  70.550  1.00  0.00    -0.550 OA
ENDBRANCH   9  10
ENDBRANCH   8   9
ENDBRANCH   7   8
ENDBRANCH   6   7
ENDBRANCH   5   6
ENDBRANCH   4   5
ENDBRANCH   3   4
ENDBRANCH   1   3
BRANCH   2  13
ATOM     13  C   UNL     1     138.855 -52.025  68.207  1.00  0.00     0.027 C 
BRANCH  13  14
ATOM     14  C   UNL     1     138.527 -51.711  66.740  1.00  0.00     0.004 C 
BRANCH  14  15
ATOM     15  C   UNL     1     137.174 -51.002  66.573  1.00  0.00     0.000 C 
BRANCH  15  16
ATOM     16  C   UNL     1     137.289 -49.679  65.795  1.00  0.00     0.000 C 
BRANCH  16  17
ATOM     17  C   UNL     1     137.123 -48.439  66.692  1.00  0.00    -0.000 C 
BRANCH  17  18
ATOM     18  C   UNL     1     136.900 -48.739  68.186  1.00  0.00    -0.000 C 
BRANCH  18  19
ATOM     19  C   UNL     1     137.689 -47.800  69.109  1.00  0.00    -0.003 C 
ATOM     20  C   UNL     1     137.942 -48.448  70.467  1.00  0.00     0.004 C 
ENDBRANCH  18  19
ENDBRANCH  17  18
ENDBRANCH  16  17
ENDBRANCH  15  16
ENDBRANCH  14  15
ENDBRANCH  13  14
ENDBRANCH   2  13
TORSDOF 15
ENDMDL
MODEL 5
REMARK VINA RESULT:    -2.409      1.792      4.852
REMARK INTER + INTRA:          -7.718
REMARK INTER:                  -4.728
REMARK INTRA:                  -2.990
REMARK UNBOUND:                -3.197
REMARK SMILES CCCCCCCCC=CCCCCCCCC(=O)[O-]
REMARK SMILES IDX 10 1 9 2 11 3 12 4 13 5 14 6 15 7 16 8 17 9 18 10 19 11
REMARK SMILES IDX 20 12 8 13 7 14 6 15 5 16 4 17 3 18 2 19 1 20
REMARK H PARENT
REMARK Flexibility Score: inf
ROOT
ATOM      1  C   UNL     1     129.044 -33.257  81.968  1.00  0.00    -0.031 C 
ATOM      2  C   UNL     1     130.260 -32.817  81.614  1.00  0.00    -0.031 C 
ENDROOT
BRANCH   1   3
ATOM      3  C   UNL     1     127.804 -32.539  81.507  1.00  0.00     0.027 C 
BRANCH   3   4
ATOM      4  C   UNL     1     126.563 -33.046  82.249  1.00  0.00     0.004 C 
BRANCH   4   5
ATOM      5  C   UNL     1     126.934 -34.130  83.268  1.00  0.00     0.000 C 
BRANCH   5   6
ATOM      6  C   UNL     1     126.218 -35.449  82.954  1.00  0.00     0.000 C 
BRANCH   6   7
ATOM      7  C   UNL     1     126.151 -36.350  84.196  1.00  0.00     0.000 C 
BRANCH   7   8
ATOM      8  C   UNL     1     125.630 -37.761  83.877  1.00  0.00     0.006 C 
BRANCH   8   9
ATOM      9  C   UNL     1     126.549 -38.867  84.409  1.00  0.00     0.053 C 
BRANCH   9  10
ATOM     10  C   UNL     1     127.012 -39.746  83.291  1.00  0.00     0.041 C 
ATOM     11  O   UNL     1     128.135 -40.313  83.356  1.00  0.00    -0.550 OA
ATOM     12  O   UNL     1     126.222 -39.909  82.157  1.00  0.00    -0.550 OA
ENDBRANCH   9  10
ENDBRANCH   8   9
ENDBRANCH   7   8
ENDBRANCH   6   7
ENDBRANCH   5   6
ENDBRANCH   4   5
ENDBRANCH   3   4
ENDBRANCH   1   3
BRANCH   2  13
ATOM     13  C   UNL     1     131.514 -33.500  82.085  1.00  0.00     0.027 C 
BRANCH  13  14
ATOM     14  C   UNL     1     131.510 -33.687  83.610  1.00  0.00     0.004 C 
BRANCH  14  15
ATOM     15  C   UNL     1     131.494 -35.166  84.027  1.00  0.00     0.000 C 
BRANCH  15  16
ATOM     16  C   UNL     1     130.113 -35.625  84.527  1.00  0.00     0.000 C 
BRANCH  16  17
ATOM     17  C   UNL     1     129.802 -37.091  84.174  1.00  0.00    -0.000 C 
BRANCH  17  18
ATOM     18  C   UNL     1     130.172 -37.509  82.738  1.00  0.00    -0.000 C 
BRANCH  18  19
ATOM     19  C   UNL     1     129.144 -37.045  81.697  1.00  0.00    -0.003 C 
ATOM     20  C   UNL     1     129.834 -36.479  80.458  1.00  0.00     0.004 C 
ENDBRANCH  18  19
ENDBRANCH  17  18
ENDBRANCH  16  17
ENDBRANCH  15  16
ENDBRANCH  14  15
ENDBRANCH  13  14
ENDBRANCH   2  13
TORSDOF 15
ENDMDL
MODEL 6
REMARK VINA RESULT:    -2.403      1.909      3.309
REMARK INTER + INTRA:          -7.707
REMARK INTER:                  -4.737
REMARK INTRA:                  -2.970
REMARK UNBOUND:                -3.197
REMARK SMILES CCCCCCCCC=CCCCCCCCC(=O)[O-]
REMARK SMILES IDX 10 1 9 2 11 3 12 4 13 5 14 6 15 7 16 8 17 9 18 10 19 11
REMARK SMILES IDX 20 12 8 13 7 14 6 15 5 16 4 17 3 18 2 19 1 20
REMARK H PARENT
REMARK Flexibility Score: inf
ROOT
ATOM      1  C   UNL     1     126.791 -34.542  83.294  1.00  0.00    -0.031 C 
ATOM      2  C   UNL     1     128.047 -34.283  82.903  1.00  0.00    -0.031 C 
ENDROOT
BRANCH   1   3
ATOM      3  C   UNL     1     126.501 -35.672  84.244  1.00  0.00     0.027 C 
BRANCH   3   4
ATOM      4  C   UNL     1     125.728 -36.797  83.548  1.00  0.00     0.004 C 
BRANCH   4   5
ATOM      5  C   UNL     1     125.804 -38.100  84.354  1.00  0.00     0.000 C 
BRANCH   5   6
ATOM      6  C   UNL     1     127.259 -38.540  84.552  1.00  0.00     0.000 C 
BRANCH   6   7
ATOM      7  C   UNL     1     128.001 -38.608  83.209  1.00  0.00     0.000 C 
BRANCH   7   8
ATOM      8  C   UNL     1     129.367 -37.903  83.251  1.00  0.00     0.006 C 
BRANCH   8   9
ATOM      9  C   UNL     1     129.769 -37.473  84.668  1.00  0.00     0.053 C 
BRANCH   9  10
ATOM     10  C   UNL     1     130.983 -36.600  84.624  1.00  0.00     0.041 C 
ATOM     11  O   UNL     1     132.128 -37.115  84.526  1.00  0.00    -0.550 OA
ATOM     12  O   UNL     1     130.856 -35.219  84.733  1.00  0.00    -0.550 OA
ENDBRANCH   9  10
ENDBRANCH   8   9
ENDBRANCH   7   8
ENDBRANCH   6   7
ENDBRANCH   5   6
ENDBRANCH   4   5
ENDBRANCH   3   4
ENDBRANCH   1   3
BRANCH   2  13
ATOM     13  C   UNL     1     128.359 -33.178  81.933  1.00  0.00     0.027 C 
BRANCH  13  14
ATOM     14  C   UNL     1     127.170 -32.218  81.777  1.00  0.00     0.004 C 
BRANCH  14  15
ATOM     15  C   UNL     1     126.525 -32.292  80.384  1.00  0.00     0.000 C 
BRANCH  15  16
ATOM     16  C   UNL     1     125.051 -32.731  80.436  1.00  0.00     0.000 C 
BRANCH  16  17
ATOM     17  C   UNL     1     124.870 -34.250  80.263  1.00  0.00    -0.000 C 
BRANCH  17  18
ATOM     18  C   UNL     1     125.972 -34.951  79.446  1.00  0.00    -0.000 C 
BRANCH  18  19
ATOM     19  C   UNL     1     126.295 -36.360  79.961  1.00  0.00    -0.003 C 
ATOM     20  C   UNL     1     127.802 -36.567  80.087  1.00  0.00     0.004 C 
ENDBRANCH  18  19
ENDBRANCH  17  18
ENDBRANCH  16  17
ENDBRANCH  15  16
ENDBRANCH  14  15
ENDBRANCH  13  14
ENDBRANCH   2  13
TORSDOF 15
ENDMDL
MODEL 7
REMARK VINA RESULT:    -2.402      1.447      2.585
REMARK INTER + INTRA:          -7.705
REMARK INTER:                  -4.621
REMARK INTRA:                  -3.084
REMARK UNBOUND:                -3.197
REMARK SMILES CCCCCCCCC=CCCCCCCCC(=O)[O-]
REMARK SMILES IDX 10 1 9 2 11 3 12 4 13 5 14 6 15 7 16 8 17 9 18 10 19 11
REMARK SMILES IDX 20 12 8 13 7 14 6 15 5 16 4 17 3 18 2 19 1 20
REMARK H PARENT
REMARK Flexibility Score: inf
ROOT
ATOM      1  C   UNL     1     125.477 -35.774  80.003  1.00  0.00    -0.031 C 
ATOM      2  C   UNL     1     124.976 -34.718  80.660  1.00  0.00    -0.031 C 
ENDROOT
BRANCH   1   3
ATOM      3  C   UNL     1     125.660 -37.095  80.701  1.00  0.00     0.027 C 
BRANCH   3   4
ATOM      4  C   UNL     1     124.902 -37.129  82.032  1.00  0.00     0.004 C 
BRANCH   4   5
ATOM      5  C   UNL     1     125.537 -38.131  83.003  1.00  0.00     0.000 C 
BRANCH   5   6
ATOM      6  C   UNL     1     126.005 -37.432  84.285  1.00  0.00     0.000 C 
BRANCH   6   7
ATOM      7  C   UNL     1     126.120 -35.915  84.076  1.00  0.00     0.000 C 
BRANCH   7   8
ATOM      8  C   UNL     1     127.544 -35.390  84.317  1.00  0.00     0.006 C 
BRANCH   8   9
ATOM      9  C   UNL     1     128.583 -36.515  84.415  1.00  0.00     0.053 C 
BRANCH   9  10
ATOM     10  C   UNL     1     129.436 -36.547  83.187  1.00  0.00     0.041 C 
ATOM     11  O   UNL     1     129.088 -37.239  82.193  1.00  0.00    -0.550 OA
ATOM     12  O   UNL     1     130.637 -35.845  83.150  1.00  0.00    -0.550 OA
ENDBRANCH   9  10
ENDBRANCH   8   9
ENDBRANCH   7   8
ENDBRANCH   6   7
ENDBRANCH   5   6
ENDBRANCH   4   5
ENDBRANCH   3   4
ENDBRANCH   1   3
BRANCH   2  13
ATOM     13  C   UNL     1     124.811 -33.380  79.994  1.00  0.00     0.027 C 
BRANCH  13  14
ATOM     14  C   UNL     1     125.171 -32.232  80.948  1.00  0.00     0.004 C 
BRANCH  14  15
ATOM     15  C   UNL     1     126.193 -32.648  82.018  1.00  0.00     0.000 C 
BRANCH  15  16
ATOM     16  C   UNL     1     127.596 -32.077  81.750  1.00  0.00     0.000 C 
BRANCH  16  17
ATOM     17  C   UNL     1     128.693 -33.159  81.740  1.00  0.00    -0.000 C 
BRANCH  17  18
ATOM     18  C   UNL     1     128.701 -34.068  80.497  1.00  0.00    -0.000 C 
BRANCH  18  19
ATOM     19  C   UNL     1     128.910 -33.292  79.190  1.00  0.00    -0.003 C 
ATOM     20  C   UNL     1     127.939 -33.762  78.110  1.00  0.00     0.004 C 
ENDBRANCH  18  19
ENDBRANCH  17  18
ENDBRANCH  16  17
ENDBRANCH  15  16
ENDBRANCH  14  15
ENDBRANCH  13  14
ENDBRANCH   2  13
TORSDOF 15
ENDMDL
MODEL 8
REMARK VINA RESULT:    -2.385      2.369      4.909
REMARK INTER + INTRA:          -7.673
REMARK INTER:                  -4.409
REMARK INTRA:                  -3.264
REMARK UNBOUND:                -3.197
REMARK SMILES CCCCCCCCC=CCCCCCCCC(=O)[O-]
REMARK SMILES IDX 10 1 9 2 11 3 12 4 13 5 14 6 15 7 16 8 17 9 18 10 19 11
REMARK SMILES IDX 20 12 8 13 7 14 6 15 5 16 4 17 3 18 2 19 1 20
REMARK H PARENT
REMARK Flexibility Score: inf
ROOT
ATOM      1  C   UNL     1     125.358 -35.956  80.318  1.00  0.00    -0.031 C 
ATOM      2  C   UNL     1     125.220 -35.926  81.652  1.00  0.00    -0.031 C 
ENDROOT
BRANCH   1   3
ATOM      3  C   UNL     1     125.464 -34.679  79.529  1.00  0.00     0.027 C 
BRANCH   3   4
ATOM      4  C   UNL     1     124.764 -33.522  80.250  1.00  0.00     0.004 C 
BRANCH   4   5
ATOM      5  C   UNL     1     125.747 -32.384  80.549  1.00  0.00     0.000 C 
BRANCH   5   6
ATOM      6  C   UNL     1     126.161 -32.389  82.025  1.00  0.00     0.000 C 
BRANCH   6   7
ATOM      7  C   UNL     1     127.621 -32.838  82.186  1.00  0.00     0.000 C 
BRANCH   7   8
ATOM      8  C   UNL     1     128.437 -32.676  80.893  1.00  0.00     0.006 C 
BRANCH   8   9
ATOM      9  C   UNL     1     129.833 -32.092  81.143  1.00  0.00     0.053 C 
BRANCH   9  10
ATOM     10  C   UNL     1     130.887 -33.111  80.841  1.00  0.00     0.041 C 
ATOM     11  O   UNL     1     131.829 -33.305  81.653  1.00  0.00    -0.550 OA
ATOM     12  O   UNL     1     130.852 -33.819  79.643  1.00  0.00    -0.550 OA
ENDBRANCH   9  10
ENDBRANCH   8   9
ENDBRANCH   7   8
ENDBRANCH   6   7
ENDBRANCH   5   6
ENDBRANCH   4   5
ENDBRANCH   3   4
ENDBRANCH   1   3
BRANCH   2  13
ATOM     13  C   UNL     1     125.084 -37.187  82.460  1.00  0.00     0.027 C 
BRANCH  13  14
ATOM     14  C   UNL     1     125.905 -37.111  83.756  1.00  0.00     0.004 C 
BRANCH  14  15
ATOM     15  C   UNL     1     126.273 -35.670  84.143  1.00  0.00     0.000 C 
BRANCH  15  16
ATOM     16  C   UNL     1     127.754 -35.519  84.528  1.00  0.00     0.000 C 
BRANCH  16  17
ATOM     17  C   UNL     1     128.657 -36.580  83.872  1.00  0.00    -0.000 C 
BRANCH  17  18
ATOM     18  C   UNL     1     129.545 -36.063  82.725  1.00  0.00    -0.000 C 
BRANCH  18  19
ATOM     19  C   UNL     1     128.925 -36.289  81.339  1.00  0.00    -0.003 C 
ATOM     20  C   UNL     1     128.565 -37.758  81.131  1.00  0.00     0.004 C 
ENDBRANCH  18  19
ENDBRANCH  17  18
ENDBRANCH  16  17
ENDBRANCH  15  16
ENDBRANCH  14  15
ENDBRANCH  13  14
ENDBRANCH   2  13
TORSDOF 15
ENDMDL
MODEL 9
REMARK VINA RESULT:    -2.357      1.469      2.810
REMARK INTER + INTRA:          -7.620
REMARK INTER:                  -4.357
REMARK INTRA:                  -3.263
REMARK UNBOUND:                -3.197
REMARK SMILES CCCCCCCCC=CCCCCCCCC(=O)[O-]
REMARK SMILES IDX 10 1 9 2 11 3 12 4 13 5 14 6 15 7 16 8 17 9 18 10 19 11
REMARK SMILES IDX 20 12 8 13 7 14 6 15 5 16 4 17 3 18 2 19 1 20
REMARK H PARENT
REMARK Flexibility Score: inf
ROOT
ATOM      1  C   UNL     1     128.248 -37.130  80.719  1.00  0.00    -0.031 C 
ATOM      2  C   UNL     1     127.652 -36.018  80.266  1.00  0.00    -0.031 C 
ENDROOT
BRANCH   1   3
ATOM      3  C   UNL     1     129.616 -37.068  81.342  1.00  0.00     0.027 C 
BRANCH   3   4
ATOM      4  C   UNL     1     129.626 -37.726  82.725  1.00  0.00     0.004 C 
BRANCH   4   5
ATOM      5  C   UNL     1     129.821 -36.683  83.831  1.00  0.00     0.000 C 
BRANCH   5   6
ATOM      6  C   UNL     1     128.576 -36.584  84.720  1.00  0.00     0.000 C 
BRANCH   6   7
ATOM      7  C   UNL     1     127.687 -35.407  84.294  1.00  0.00     0.000 C 
BRANCH   7   8
ATOM      8  C   UNL     1     126.235 -35.831  84.017  1.00  0.00     0.006 C 
BRANCH   8   9
ATOM      9  C   UNL     1     126.049 -37.353  84.029  1.00  0.00     0.053 C 
BRANCH   9  10
ATOM     10  C   UNL     1     125.266 -37.794  82.834  1.00  0.00     0.041 C 
ATOM     11  O   UNL     1     124.331 -37.076  82.391  1.00  0.00    -0.550 OA
ATOM     12  O   UNL     1     125.540 -39.017  82.229  1.00  0.00    -0.550 OA
ENDBRANCH   9  10
ENDBRANCH   8   9
ENDBRANCH   7   8
ENDBRANCH   6   7
ENDBRANCH   5   6
ENDBRANCH   4   5
ENDBRANCH   3   4
ENDBRANCH   1   3
BRANCH   2  13
ATOM     13  C   UNL     1     126.297 -36.059  79.614  1.00  0.00     0.027 C 
BRANCH  13  14
ATOM     14  C   UNL     1     125.664 -34.660  79.554  1.00  0.00     0.004 C 
BRANCH  14  15
ATOM     15  C   UNL     1     125.359 -34.086  80.947  1.00  0.00     0.000 C 
BRANCH  15  16
ATOM     16  C   UNL     1     125.892 -32.655  81.128  1.00  0.00     0.000 C 
BRANCH  16  17
ATOM     17  C   UNL     1     127.121 -32.583  82.054  1.00  0.00    -0.000 C 
BRANCH  17  18
ATOM     18  C   UNL     1     128.482 -32.571  81.333  1.00  0.00    -0.000 C 
BRANCH  18  19
ATOM     19  C   UNL     1     129.570 -33.338  82.095  1.00  0.00    -0.003 C 
ATOM     20  C   UNL     1     130.765 -33.637  81.195  1.00  0.00     0.004 C 
ENDBRANCH  18  19
ENDBRANCH  17  18
ENDBRANCH  16  17
ENDBRANCH  15  16
ENDBRANCH  14  15
ENDBRANCH  13  14
ENDBRANCH   2  13
TORSDOF 15
ENDMDL
