MODEL 1
REMARK VINA RESULT:    -3.894      0.000      0.000
REMARK INTER + INTRA:          -8.958
REMARK INTER:                  -6.853
REMARK INTRA:                  -2.105
REMARK UNBOUND:                -2.105
REMARK SMILES CCCCCCC=CCCCCCCCC(=O)[O-]
REMARK SMILES IDX 10 1 11 2 12 3 13 4 14 5 15 6 16 7 17 8 18 9 9 10 8 11 7 12
REMARK SMILES IDX 6 13 5 14 4 15 3 16 2 17 1 18
REMARK H PARENT
REMARK Flexibility Score: inf
ROOT
ATOM      1  C   UNL     1      76.094 -72.395  -3.973  1.00  0.00     0.004 C 
ENDROOT
BRANCH   1   2
ATOM      2  C   UNL     1      74.977 -73.451  -3.994  1.00  0.00     0.000 C 
BRANCH   2   3
ATOM      3  C   UNL     1      73.689 -72.963  -3.312  1.00  0.00     0.000 C 
BRANCH   3   4
ATOM      4  C   UNL     1      73.484 -73.668  -1.963  1.00  0.00     0.000 C 
BRANCH   4   5
ATOM      5  C   UNL     1      74.142 -72.918  -0.796  1.00  0.00     0.006 C 
BRANCH   5   6
ATOM      6  C   UNL     1      74.149 -71.398  -0.998  1.00  0.00     0.053 C 
BRANCH   6   7
ATOM      7  C   UNL     1      73.347 -70.725   0.070  1.00  0.00     0.041 C 
ATOM      8  O   UNL     1      73.860 -69.811   0.768  1.00  0.00    -0.550 OA
ATOM      9  O   UNL     1      72.014 -71.071   0.261  1.00  0.00    -0.550 OA
ENDBRANCH   6   7
ENDBRANCH   5   6
ENDBRANCH   4   5
ENDBRANCH   3   4
ENDBRANCH   2   3
ENDBRANCH   1   2
BRANCH   1  10
ATOM     10  C   UNL     1      77.444 -72.972  -3.522  1.00  0.00     0.027 C 
BRANCH  10  11
ATOM     11  C   UNL     1      77.276 -73.881  -2.336  1.00  0.00    -0.031 C 
ATOM     12  C   UNL     1      78.087 -74.931  -2.135  1.00  0.00    -0.031 C 
BRANCH  12  13
ATOM     13  C   UNL     1      77.912 -75.851  -0.956  1.00  0.00     0.027 C 
BRANCH  13  14
ATOM     14  C   UNL     1      78.267 -77.310  -1.288  1.00  0.00     0.004 C 
BRANCH  14  15
ATOM     15  C   UNL     1      77.079 -78.154  -1.796  1.00  0.00     0.000 C 
BRANCH  15  16
ATOM     16  C   UNL     1      75.687 -77.636  -1.383  1.00  0.00    -0.000 C 
BRANCH  16  17
ATOM     17  C   UNL     1      74.908 -76.914  -2.495  1.00  0.00    -0.003 C 
ATOM     18  C   UNL     1      75.538 -77.092  -3.876  1.00  0.00     0.004 C 
ENDBRANCH  16  17
ENDBRANCH  15  16
ENDBRANCH  14  15
ENDBRANCH  13  14
ENDBRANCH  12  13
ENDBRANCH  10  11
ENDBRANCH   1  10
TORSDOF 13
ENDMDL
MODEL 2
REMARK VINA RESULT:    -3.845      1.035      1.547
REMARK INTER + INTRA:          -8.872
REMARK INTER:                  -7.130
REMARK INTRA:                  -1.742
REMARK UNBOUND:                -2.105
REMARK SMILES CCCCCCC=CCCCCCCCC(=O)[O-]
REMARK SMILES IDX 10 1 11 2 12 3 13 4 14 5 15 6 16 7 17 8 18 9 9 10 8 11 7 12
REMARK SMILES IDX 6 13 5 14 4 15 3 16 2 17 1 18
REMARK H PARENT
REMARK Flexibility Score: inf
ROOT
ATOM      1  C   UNL     1      75.830 -73.050  -4.049  1.00  0.00     0.004 C 
ENDROOT
BRANCH   1   2
ATOM      2  C   UNL     1      74.861 -72.097  -3.333  1.00  0.00     0.000 C 
BRANCH   2   3
ATOM      3  C   UNL     1      73.889 -72.835  -2.399  1.00  0.00     0.000 C 
BRANCH   3   4
ATOM      4  C   UNL     1      74.209 -72.532  -0.927  1.00  0.00     0.000 C 
BRANCH   4   5
ATOM      5  C   UNL     1      73.820 -71.103  -0.518  1.00  0.00     0.006 C 
BRANCH   5   6
ATOM      6  C   UNL     1      72.556 -71.059   0.349  1.00  0.00     0.053 C 
BRANCH   6   7
ATOM      7  C   UNL     1      72.466 -69.755   1.076  1.00  0.00     0.041 C 
ATOM      8  O   UNL     1      71.610 -69.593   1.984  1.00  0.00    -0.550 OA
ATOM      9  O   UNL     1      73.365 -68.734   0.787  1.00  0.00    -0.550 OA
ENDBRANCH   6   7
ENDBRANCH   5   6
ENDBRANCH   4   5
ENDBRANCH   3   4
ENDBRANCH   2   3
ENDBRANCH   1   2
BRANCH   1  10
ATOM     10  C   UNL     1      77.266 -72.945  -3.513  1.00  0.00     0.027 C 
BRANCH  10  11
ATOM     11  C   UNL     1      77.466 -73.838  -2.319  1.00  0.00    -0.031 C 
ATOM     12  C   UNL     1      78.101 -75.015  -2.420  1.00  0.00    -0.031 C 
BRANCH  12  13
ATOM     13  C   UNL     1      78.290 -75.915  -1.230  1.00  0.00     0.027 C 
BRANCH  13  14
ATOM     14  C   UNL     1      76.999 -76.093  -0.413  1.00  0.00     0.004 C 
BRANCH  14  15
ATOM     15  C   UNL     1      75.980 -77.068  -1.037  1.00  0.00     0.000 C 
BRANCH  15  16
ATOM     16  C   UNL     1      74.752 -76.401  -1.687  1.00  0.00    -0.000 C 
BRANCH  16  17
ATOM     17  C   UNL     1      74.746 -76.414  -3.226  1.00  0.00    -0.003 C 
ATOM     18  C   UNL     1      74.745 -77.828  -3.809  1.00  0.00     0.004 C 
ENDBRANCH  16  17
ENDBRANCH  15  16
ENDBRANCH  14  15
ENDBRANCH  13  14
ENDBRANCH  12  13
ENDBRANCH  10  11
ENDBRANCH   1  10
TORSDOF 13
ENDMDL
MODEL 3
REMARK VINA RESULT:    -3.747      3.455      5.006
REMARK INTER + INTRA:          -8.699
REMARK INTER:                  -6.383
REMARK INTRA:                  -2.317
REMARK UNBOUND:                -2.105
REMARK SMILES CCCCCCC=CCCCCCCCC(=O)[O-]
REMARK SMILES IDX 10 1 11 2 12 3 13 4 14 5 15 6 16 7 17 8 18 9 9 10 8 11 7 12
REMARK SMILES IDX 6 13 5 14 4 15 3 16 2 17 1 18
REMARK H PARENT
REMARK Flexibility Score: inf
ROOT
ATOM      1  C   UNL     1      75.073 -71.925  -3.738  1.00  0.00     0.004 C 
ENDROOT
BRANCH   1   2
ATOM      2  C   UNL     1      75.882 -73.219  -3.921  1.00  0.00     0.000 C 
BRANCH   2   3
ATOM      3  C   UNL     1      77.389 -73.009  -3.709  1.00  0.00     0.000 C 
BRANCH   3   4
ATOM      4  C   UNL     1      77.856 -73.675  -2.406  1.00  0.00     0.000 C 
BRANCH   4   5
ATOM      5  C   UNL     1      77.272 -75.084  -2.219  1.00  0.00     0.006 C 
BRANCH   5   6
ATOM      6  C   UNL     1      77.992 -75.883  -1.125  1.00  0.00     0.053 C 
BRANCH   6   7
ATOM      7  C   UNL     1      78.610 -77.117  -1.701  1.00  0.00     0.041 C 
ATOM      8  O   UNL     1      78.594 -78.196  -1.052  1.00  0.00    -0.550 OA
ATOM      9  O   UNL     1      79.159 -77.090  -2.978  1.00  0.00    -0.550 OA
ENDBRANCH   6   7
ENDBRANCH   5   6
ENDBRANCH   4   5
ENDBRANCH   3   4
ENDBRANCH   2   3
ENDBRANCH   1   2
BRANCH   1  10
ATOM     10  C   UNL     1      74.529 -71.766  -2.310  1.00  0.00     0.027 C 
BRANCH  10  11
ATOM     11  C   UNL     1      73.820 -73.013  -1.858  1.00  0.00    -0.031 C 
ATOM     12  C   UNL     1      74.160 -73.642  -0.723  1.00  0.00    -0.031 C 
BRANCH  12  13
ATOM     13  C   UNL     1      73.462 -74.898  -0.276  1.00  0.00     0.027 C 
BRANCH  13  14
ATOM     14  C   UNL     1      74.440 -76.051   0.003  1.00  0.00     0.004 C 
BRANCH  14  15
ATOM     15  C   UNL     1      74.469 -77.138  -1.092  1.00  0.00     0.000 C 
BRANCH  15  16
ATOM     16  C   UNL     1      73.685 -76.795  -2.373  1.00  0.00    -0.000 C 
BRANCH  16  17
ATOM     17  C   UNL     1      74.512 -76.832  -3.669  1.00  0.00    -0.003 C 
ATOM     18  C   UNL     1      75.540 -77.964  -3.688  1.00  0.00     0.004 C 
ENDBRANCH  16  17
ENDBRANCH  15  16
ENDBRANCH  14  15
ENDBRANCH  13  14
ENDBRANCH  12  13
ENDBRANCH  10  11
ENDBRANCH   1  10
TORSDOF 13
ENDMDL
MODEL 4
REMARK VINA RESULT:    -3.726      2.894      5.930
REMARK INTER + INTRA:          -8.663
REMARK INTER:                  -6.999
REMARK INTRA:                  -1.664
REMARK UNBOUND:                -2.105
REMARK SMILES CCCCCCC=CCCCCCCCC(=O)[O-]
REMARK SMILES IDX 10 1 11 2 12 3 13 4 14 5 15 6 16 7 17 8 18 9 9 10 8 11 7 12
REMARK SMILES IDX 6 13 5 14 4 15 3 16 2 17 1 18
REMARK H PARENT
REMARK Flexibility Score: inf
ROOT
ATOM      1  C   UNL     1      78.104 -74.595  -2.202  1.00  0.00     0.004 C 
ENDROOT
BRANCH   1   2
ATOM      2  C   UNL     1      78.461 -76.007  -1.712  1.00  0.00     0.000 C 
BRANCH   2   3
ATOM      3  C   UNL     1      77.493 -76.520  -0.634  1.00  0.00     0.000 C 
BRANCH   3   4
ATOM      4  C   UNL     1      76.295 -75.572  -0.478  1.00  0.00     0.000 C 
BRANCH   4   5
ATOM      5  C   UNL     1      74.983 -76.186  -0.991  1.00  0.00     0.006 C 
BRANCH   5   6
ATOM      6  C   UNL     1      75.188 -77.554  -1.652  1.00  0.00     0.053 C 
BRANCH   6   7
ATOM      7  C   UNL     1      74.934 -77.467  -3.123  1.00  0.00     0.041 C 
ATOM      8  O   UNL     1      74.373 -76.452  -3.611  1.00  0.00    -0.550 OA
ATOM      9  O   UNL     1      75.365 -78.486  -3.965  1.00  0.00    -0.550 OA
ENDBRANCH   6   7
ENDBRANCH   5   6
ENDBRANCH   4   5
ENDBRANCH   3   4
ENDBRANCH   2   3
ENDBRANCH   1   2
BRANCH   1  10
ATOM     10  C   UNL     1      77.704 -74.567  -3.685  1.00  0.00     0.027 C 
BRANCH  10  11
ATOM     11  C   UNL     1      76.403 -73.839  -3.881  1.00  0.00    -0.031 C 
ATOM     12  C   UNL     1      76.245 -72.566  -3.489  1.00  0.00    -0.031 C 
BRANCH  12  13
ATOM     13  C   UNL     1      74.940 -71.839  -3.673  1.00  0.00     0.027 C 
BRANCH  13  14
ATOM     14  C   UNL     1      73.722 -72.723  -3.355  1.00  0.00     0.004 C 
BRANCH  14  15
ATOM     15  C   UNL     1      73.449 -72.913  -1.849  1.00  0.00     0.000 C 
BRANCH  15  16
ATOM     16  C   UNL     1      74.049 -71.825  -0.935  1.00  0.00    -0.000 C 
BRANCH  16  17
ATOM     17  C   UNL     1      73.021 -71.029  -0.113  1.00  0.00    -0.003 C 
ATOM     18  C   UNL     1      73.637 -69.833   0.612  1.00  0.00     0.004 C 
ENDBRANCH  16  17
ENDBRANCH  15  16
ENDBRANCH  14  15
ENDBRANCH  13  14
ENDBRANCH  12  13
ENDBRANCH  10  11
ENDBRANCH   1  10
TORSDOF 13
ENDMDL
MODEL 5
REMARK VINA RESULT:    -3.666      3.420      5.402
REMARK INTER + INTRA:          -8.557
REMARK INTER:                  -6.725
REMARK INTRA:                  -1.832
REMARK UNBOUND:                -2.105
REMARK SMILES CCCCCCC=CCCCCCCCC(=O)[O-]
REMARK SMILES IDX 10 1 11 2 12 3 13 4 14 5 15 6 16 7 17 8 18 9 9 10 8 11 7 12
REMARK SMILES IDX 6 13 5 14 4 15 3 16 2 17 1 18
REMARK H PARENT
REMARK Flexibility Score: inf
ROOT
ATOM      1  C   UNL     1      75.426 -76.289  -0.379  1.00  0.00     0.004 C 
ENDROOT
BRANCH   1   2
ATOM      2  C   UNL     1      74.344 -75.822  -1.366  1.00  0.00     0.000 C 
BRANCH   2   3
ATOM      3  C   UNL     1      72.967 -75.665  -0.701  1.00  0.00     0.000 C 
BRANCH   3   4
ATOM      4  C   UNL     1      73.111 -75.467   0.815  1.00  0.00     0.000 C 
BRANCH   4   5
ATOM      5  C   UNL     1      72.145 -76.349   1.622  1.00  0.00     0.006 C 
BRANCH   5   6
ATOM      6  C   UNL     1      72.872 -77.396   2.475  1.00  0.00     0.053 C 
BRANCH   6   7
ATOM      7  C   UNL     1      73.242 -76.821   3.805  1.00  0.00     0.041 C 
ATOM      8  O   UNL     1      72.502 -75.963   4.353  1.00  0.00    -0.550 OA
ATOM      9  O   UNL     1      74.379 -77.271   4.465  1.00  0.00    -0.550 OA
ENDBRANCH   6   7
ENDBRANCH   5   6
ENDBRANCH   4   5
ENDBRANCH   3   4
ENDBRANCH   2   3
ENDBRANCH   1   2
BRANCH   1  10
ATOM     10  C   UNL     1      76.814 -75.719  -0.711  1.00  0.00     0.027 C 
BRANCH  10  11
ATOM     11  C   UNL     1      76.702 -74.478  -1.553  1.00  0.00    -0.031 C 
ATOM     12  C   UNL     1      77.533 -74.249  -2.581  1.00  0.00    -0.031 C 
BRANCH  12  13
ATOM     13  C   UNL     1      77.432 -73.001  -3.416  1.00  0.00     0.027 C 
BRANCH  13  14
ATOM     14  C   UNL     1      76.035 -72.814  -4.032  1.00  0.00     0.004 C 
BRANCH  14  15
ATOM     15  C   UNL     1      75.190 -71.709  -3.366  1.00  0.00     0.000 C 
BRANCH  15  16
ATOM     16  C   UNL     1      73.992 -72.215  -2.537  1.00  0.00    -0.000 C 
BRANCH  16  17
ATOM     17  C   UNL     1      74.083 -71.933  -1.028  1.00  0.00    -0.003 C 
ATOM     18  C   UNL     1      72.716 -71.898  -0.345  1.00  0.00     0.004 C 
ENDBRANCH  16  17
ENDBRANCH  15  16
ENDBRANCH  14  15
ENDBRANCH  13  14
ENDBRANCH  12  13
ENDBRANCH  10  11
ENDBRANCH   1  10
TORSDOF 13
ENDMDL
MODEL 6
REMARK VINA RESULT:    -3.624      2.300      2.905
REMARK INTER + INTRA:          -8.482
REMARK INTER:                  -6.321
REMARK INTRA:                  -2.162
REMARK UNBOUND:                -2.105
REMARK SMILES CCCCCCC=CCCCCCCCC(=O)[O-]
REMARK SMILES IDX 10 1 11 2 12 3 13 4 14 5 15 6 16 7 17 8 18 9 9 10 8 11 7 12
REMARK SMILES IDX 6 13 5 14 4 15 3 16 2 17 1 18
REMARK H PARENT
REMARK Flexibility Score: inf
ROOT
ATOM      1  C   UNL     1      75.992 -73.138  -3.960  1.00  0.00     0.004 C 
ENDROOT
BRANCH   1   2
ATOM      2  C   UNL     1      75.345 -71.762  -3.734  1.00  0.00     0.000 C 
BRANCH   2   3
ATOM      3  C   UNL     1      74.475 -71.720  -2.467  1.00  0.00     0.000 C 
BRANCH   3   4
ATOM      4  C   UNL     1      74.175 -73.139  -1.962  1.00  0.00     0.000 C 
BRANCH   4   5
ATOM      5  C   UNL     1      72.697 -73.527  -2.129  1.00  0.00     0.006 C 
BRANCH   5   6
ATOM      6  C   UNL     1      72.286 -73.675  -3.599  1.00  0.00     0.053 C 
BRANCH   6   7
ATOM      7  C   UNL     1      70.797 -73.729  -3.722  1.00  0.00     0.041 C 
ATOM      8  O   UNL     1      70.180 -74.803  -3.494  1.00  0.00    -0.550 OA
ATOM      9  O   UNL     1      70.083 -72.580  -4.039  1.00  0.00    -0.550 OA
ENDBRANCH   6   7
ENDBRANCH   5   6
ENDBRANCH   4   5
ENDBRANCH   3   4
ENDBRANCH   2   3
ENDBRANCH   1   2
BRANCH   1  10
ATOM     10  C   UNL     1      77.509 -73.124  -3.716  1.00  0.00     0.027 C 
BRANCH  10  11
ATOM     11  C   UNL     1      77.859 -73.834  -2.438  1.00  0.00    -0.031 C 
ATOM     12  C   UNL     1      77.894 -75.173  -2.365  1.00  0.00    -0.031 C 
BRANCH  12  13
ATOM     13  C   UNL     1      78.230 -75.886  -1.083  1.00  0.00     0.027 C 
BRANCH  13  14
ATOM     14  C   UNL     1      77.115 -76.844  -0.630  1.00  0.00     0.004 C 
BRANCH  14  15
ATOM     15  C   UNL     1      75.765 -76.156  -0.341  1.00  0.00     0.000 C 
BRANCH  15  16
ATOM     16  C   UNL     1      74.577 -76.674  -1.176  1.00  0.00    -0.000 C 
BRANCH  16  17
ATOM     17  C   UNL     1      74.966 -77.410  -2.470  1.00  0.00    -0.003 C 
ATOM     18  C   UNL     1      74.701 -76.584  -3.728  1.00  0.00     0.004 C 
ENDBRANCH  16  17
ENDBRANCH  15  16
ENDBRANCH  14  15
ENDBRANCH  13  14
ENDBRANCH  12  13
ENDBRANCH  10  11
ENDBRANCH   1  10
TORSDOF 13
ENDMDL
MODEL 7
REMARK VINA RESULT:    -3.610      2.671      5.523
REMARK INTER + INTRA:          -8.457
REMARK INTER:                  -6.080
REMARK INTRA:                  -2.378
REMARK UNBOUND:                -2.105
REMARK SMILES CCCCCCC=CCCCCCCCC(=O)[O-]
REMARK SMILES IDX 10 1 11 2 12 3 13 4 14 5 15 6 16 7 17 8 18 9 9 10 8 11 7 12
REMARK SMILES IDX 6 13 5 14 4 15 3 16 2 17 1 18
REMARK H PARENT
REMARK Flexibility Score: inf
ROOT
ATOM      1  C   UNL     1      78.447 -76.767  -1.597  1.00  0.00     0.004 C 
ENDROOT
BRANCH   1   2
ATOM      2  C   UNL     1      77.751 -78.045  -2.092  1.00  0.00     0.000 C 
BRANCH   2   3
ATOM      3  C   UNL     1      77.357 -77.967  -3.575  1.00  0.00     0.000 C 
BRANCH   3   4
ATOM      4  C   UNL     1      75.835 -78.081  -3.744  1.00  0.00     0.000 C 
BRANCH   4   5
ATOM      5  C   UNL     1      75.126 -76.720  -3.666  1.00  0.00     0.006 C 
BRANCH   5   6
ATOM      6  C   UNL     1      73.748 -76.807  -2.998  1.00  0.00     0.053 C 
BRANCH   6   7
ATOM      7  C   UNL     1      73.812 -77.674  -1.781  1.00  0.00     0.041 C 
ATOM      8  O   UNL     1      74.380 -77.260  -0.736  1.00  0.00    -0.550 OA
ATOM      9  O   UNL     1      73.198 -78.921  -1.782  1.00  0.00    -0.550 OA
ENDBRANCH   6   7
ENDBRANCH   5   6
ENDBRANCH   4   5
ENDBRANCH   3   4
ENDBRANCH   2   3
ENDBRANCH   1   2
BRANCH   1  10
ATOM     10  C   UNL     1      77.503 -75.848  -0.807  1.00  0.00     0.027 C 
BRANCH  10  11
ATOM     11  C   UNL     1      77.147 -74.624  -1.604  1.00  0.00    -0.031 C 
ATOM     12  C   UNL     1      77.785 -74.317  -2.743  1.00  0.00    -0.031 C 
BRANCH  12  13
ATOM     13  C   UNL     1      77.440 -73.085  -3.535  1.00  0.00     0.027 C 
BRANCH  13  14
ATOM     14  C   UNL     1      75.958 -73.043  -3.947  1.00  0.00     0.004 C 
BRANCH  14  15
ATOM     15  C   UNL     1      75.211 -71.768  -3.503  1.00  0.00     0.000 C 
BRANCH  15  16
ATOM     16  C   UNL     1      74.424 -71.899  -2.184  1.00  0.00    -0.000 C 
BRANCH  16  17
ATOM     17  C   UNL     1      73.607 -73.195  -2.043  1.00  0.00    -0.003 C 
ATOM     18  C   UNL     1      73.696 -73.805  -0.643  1.00  0.00     0.004 C 
ENDBRANCH  16  17
ENDBRANCH  15  16
ENDBRANCH  14  15
ENDBRANCH  13  14
ENDBRANCH  12  13
ENDBRANCH  10  11
ENDBRANCH   1  10
TORSDOF 13
ENDMDL
MODEL 8
REMARK VINA RESULT:    -3.605      2.275      3.620
REMARK INTER + INTRA:          -8.449
REMARK INTER:                  -6.358
REMARK INTRA:                  -2.090
REMARK UNBOUND:                -2.105
REMARK SMILES CCCCCCC=CCCCCCCCC(=O)[O-]
REMARK SMILES IDX 10 1 11 2 12 3 13 4 14 5 15 6 16 7 17 8 18 9 9 10 8 11 7 12
REMARK SMILES IDX 6 13 5 14 4 15 3 16 2 17 1 18
REMARK H PARENT
REMARK Flexibility Score: inf
ROOT
ATOM      1  C   UNL     1      78.461 -75.432  -1.873  1.00  0.00     0.004 C 
ENDROOT
BRANCH   1   2
ATOM      2  C   UNL     1      77.868 -74.071  -2.272  1.00  0.00     0.000 C 
BRANCH   2   3
ATOM      3  C   UNL     1      77.317 -74.064  -3.706  1.00  0.00     0.000 C 
BRANCH   3   4
ATOM      4  C   UNL     1      76.087 -74.976  -3.823  1.00  0.00     0.000 C 
BRANCH   4   5
ATOM      5  C   UNL     1      74.859 -74.412  -3.091  1.00  0.00     0.006 C 
BRANCH   5   6
ATOM      6  C   UNL     1      74.331 -75.358  -2.006  1.00  0.00     0.053 C 
BRANCH   6   7
ATOM      7  C   UNL     1      74.266 -74.656  -0.687  1.00  0.00     0.041 C 
ATOM      8  O   UNL     1      74.992 -73.651  -0.468  1.00  0.00    -0.550 OA
ATOM      9  O   UNL     1      73.367 -75.081   0.284  1.00  0.00    -0.550 OA
ENDBRANCH   6   7
ENDBRANCH   5   6
ENDBRANCH   4   5
ENDBRANCH   3   4
ENDBRANCH   2   3
ENDBRANCH   1   2
BRANCH   1  10
ATOM     10  C   UNL     1      77.685 -76.101  -0.728  1.00  0.00     0.027 C 
BRANCH  10  11
ATOM     11  C   UNL     1      77.849 -77.596  -0.764  1.00  0.00    -0.031 C 
ATOM     12  C   UNL     1      78.721 -78.187  -1.596  1.00  0.00    -0.031 C 
BRANCH  12  13
ATOM     13  C   UNL     1      78.876 -79.683  -1.644  1.00  0.00     0.027 C 
BRANCH  13  14
ATOM     14  C   UNL     1      77.825 -80.414  -0.792  1.00  0.00     0.004 C 
BRANCH  14  15
ATOM     15  C   UNL     1      76.688 -81.066  -1.606  1.00  0.00     0.000 C 
BRANCH  15  16
ATOM     16  C   UNL     1      75.263 -80.722  -1.130  1.00  0.00    -0.000 C 
BRANCH  16  17
ATOM     17  C   UNL     1      74.742 -79.349  -1.587  1.00  0.00    -0.003 C 
ATOM     18  C   UNL     1      75.193 -78.980  -3.000  1.00  0.00     0.004 C 
ENDBRANCH  16  17
ENDBRANCH  15  16
ENDBRANCH  14  15
ENDBRANCH  13  14
ENDBRANCH  12  13
ENDBRANCH  10  11
ENDBRANCH   1  10
TORSDOF 13
ENDMDL
MODEL 9
REMARK VINA RESULT:    -3.527      1.948      2.570
REMARK INTER + INTRA:          -8.311
REMARK INTER:                  -6.182
REMARK INTRA:                  -2.130
REMARK UNBOUND:                -2.105
REMARK SMILES CCCCCCC=CCCCCCCCC(=O)[O-]
REMARK SMILES IDX 10 1 11 2 12 3 13 4 14 5 15 6 16 7 17 8 18 9 9 10 8 11 7 12
REMARK SMILES IDX 6 13 5 14 4 15 3 16 2 17 1 18
REMARK H PARENT
REMARK Flexibility Score: inf
ROOT
ATOM      1  C   UNL     1      77.322 -73.581  -3.698  1.00  0.00     0.004 C 
ENDROOT
BRANCH   1   2
ATOM      2  C   UNL     1      76.260 -72.475  -3.594  1.00  0.00     0.000 C 
BRANCH   2   3
ATOM      3  C   UNL     1      74.857 -73.029  -3.298  1.00  0.00     0.000 C 
BRANCH   3   4
ATOM      4  C   UNL     1      74.193 -72.250  -2.152  1.00  0.00     0.000 C 
BRANCH   4   5
ATOM      5  C   UNL     1      74.516 -72.840  -0.770  1.00  0.00     0.006 C 
BRANCH   5   6
ATOM      6  C   UNL     1      74.647 -74.368  -0.795  1.00  0.00     0.053 C 
BRANCH   6   7
ATOM      7  C   UNL     1      73.395 -75.008  -0.285  1.00  0.00     0.041 C 
ATOM      8  O   UNL     1      72.339 -74.969  -0.969  1.00  0.00    -0.550 OA
ATOM      9  O   UNL     1      73.407 -75.694   0.924  1.00  0.00    -0.550 OA
ENDBRANCH   6   7
ENDBRANCH   5   6
ENDBRANCH   4   5
ENDBRANCH   3   4
ENDBRANCH   2   3
ENDBRANCH   1   2
BRANCH   1  10
ATOM     10  C   UNL     1      77.883 -73.991  -2.327  1.00  0.00     0.027 C 
BRANCH  10  11
ATOM     11  C   UNL     1      78.189 -75.463  -2.286  1.00  0.00    -0.031 C 
ATOM     12  C   UNL     1      77.966 -76.196  -1.185  1.00  0.00    -0.031 C 
BRANCH  12  13
ATOM     13  C   UNL     1      78.285 -77.666  -1.137  1.00  0.00     0.027 C 
BRANCH  13  14
ATOM     14  C   UNL     1      77.050 -78.547  -1.393  1.00  0.00     0.004 C 
BRANCH  14  15
ATOM     15  C   UNL     1      76.885 -78.999  -2.859  1.00  0.00     0.000 C 
BRANCH  15  16
ATOM     16  C   UNL     1      76.033 -78.062  -3.738  1.00  0.00    -0.000 C 
BRANCH  16  17
ATOM     17  C   UNL     1      74.913 -77.316  -2.994  1.00  0.00    -0.003 C 
ATOM     18  C   UNL     1      74.034 -76.479  -3.924  1.00  0.00     0.004 C 
ENDBRANCH  16  17
ENDBRANCH  15  16
ENDBRANCH  14  15
ENDBRANCH  13  14
ENDBRANCH  12  13
ENDBRANCH  10  11
ENDBRANCH   1  10
TORSDOF 13
ENDMDL
