MODEL 1
REMARK VINA RESULT:    -3.758      0.000      0.000
REMARK INTER + INTRA:          -5.738
REMARK INTER:                  -5.076
REMARK INTRA:                  -0.662
REMARK UNBOUND:                -0.662
REMARK SMILES O=C[C@@H](O)[C@@H](O)[C@@H](O)CO
REMARK SMILES IDX 7 1 9 2 10 3 5 5 3 6 2 7 1 8 4 9 6 11 8 13
REMARK H PARENT 10 4 4 10 6 12 8 14
REMARK Flexibility Score: inf
ROOT
ATOM      1  C   UNL     1      35.518  -5.263  23.298  1.00  0.00     0.171 C 
ENDROOT
BRANCH   1   2
ATOM      2  C   UNL     1      35.984  -6.473  24.129  1.00  0.00     0.190 C 
BRANCH   2   3
ATOM      3  O   UNL     1      34.977  -7.447  24.208  1.00  0.00    -0.394 OA
ATOM      4  H   UNL     1      34.848  -7.651  25.171  1.00  0.00     0.210 HD
ENDBRANCH   2   3
ENDBRANCH   1   2
BRANCH   1   5
ATOM      5  C   UNL     1      35.597  -5.542  21.773  1.00  0.00     0.181 C 
BRANCH   5   6
ATOM      6  C   UNL     1      34.239  -5.980  21.164  1.00  0.00     0.209 C 
BRANCH   6   7
ATOM      7  C   UNL     1      34.249  -5.884  19.662  1.00  0.00     0.258 C 
ATOM      8  O   UNL     1      35.150  -6.383  19.004  1.00  0.00    -0.300 OA
ENDBRANCH   6   7
BRANCH   6   9
ATOM      9  O   UNL     1      33.904  -7.285  21.566  1.00  0.00    -0.383 OA
ATOM     10  H   UNL     1      34.414  -7.906  20.984  1.00  0.00     0.211 HD
ENDBRANCH   6   9
ENDBRANCH   5   6
BRANCH   5  11
ATOM     11  O   UNL     1      36.038  -4.380  21.116  1.00  0.00    -0.387 OA
ATOM     12  H   UNL     1      35.301  -3.716  21.173  1.00  0.00     0.211 HD
ENDBRANCH   5  11
ENDBRANCH   1   5
BRANCH   1  13
ATOM     13  O   UNL     1      34.200  -4.936  23.658  1.00  0.00    -0.388 OA
ATOM     14  H   UNL     1      34.143  -5.013  24.646  1.00  0.00     0.211 HD
ENDBRANCH   1  13
TORSDOF 8
ENDMDL
MODEL 2
REMARK VINA RESULT:    -3.687      1.324      3.683
REMARK INTER + INTRA:          -5.642
REMARK INTER:                  -4.922
REMARK INTRA:                  -0.720
REMARK UNBOUND:                -0.662
REMARK SMILES O=C[C@@H](O)[C@@H](O)[C@@H](O)CO
REMARK SMILES IDX 7 1 9 2 10 3 5 5 3 6 2 7 1 8 4 9 6 11 8 13
REMARK H PARENT 10 4 4 10 6 12 8 14
REMARK Flexibility Score: inf
ROOT
ATOM      1  C   UNL     1      35.335  -6.504  21.121  1.00  0.00     0.171 C 
ENDROOT
BRANCH   1   2
ATOM      2  C   UNL     1      33.974  -6.861  20.496  1.00  0.00     0.190 C 
BRANCH   2   3
ATOM      3  O   UNL     1      33.219  -7.669  21.359  1.00  0.00    -0.394 OA
ATOM      4  H   UNL     1      32.427  -7.978  20.846  1.00  0.00     0.210 HD
ENDBRANCH   2   3
ENDBRANCH   1   2
BRANCH   1   5
ATOM      5  C   UNL     1      35.179  -5.603  22.375  1.00  0.00     0.181 C 
BRANCH   5   6
ATOM      6  C   UNL     1      35.678  -6.283  23.678  1.00  0.00     0.209 C 
BRANCH   6   7
ATOM      7  C   UNL     1      35.650  -5.332  24.844  1.00  0.00     0.258 C 
ATOM      8  O   UNL     1      34.799  -4.459  24.927  1.00  0.00    -0.300 OA
ENDBRANCH   6   7
BRANCH   6   9
ATOM      9  O   UNL     1      34.921  -7.432  23.968  1.00  0.00    -0.383 OA
ATOM     10  H   UNL     1      34.475  -7.704  23.124  1.00  0.00     0.211 HD
ENDBRANCH   6   9
ENDBRANCH   5   6
BRANCH   5  11
ATOM     11  O   UNL     1      35.899  -4.412  22.178  1.00  0.00    -0.387 OA
ATOM     12  H   UNL     1      35.249  -3.664  22.251  1.00  0.00     0.211 HD
ENDBRANCH   5  11
ENDBRANCH   1   5
BRANCH   1  13
ATOM     13  O   UNL     1      36.010  -7.688  21.462  1.00  0.00    -0.388 OA
ATOM     14  H   UNL     1      36.468  -7.521  22.326  1.00  0.00     0.211 HD
ENDBRANCH   1  13
TORSDOF 8
ENDMDL
MODEL 3
REMARK VINA RESULT:    -3.602     16.461     18.396
REMARK INTER + INTRA:          -5.528
REMARK INTER:                  -4.874
REMARK INTRA:                  -0.654
REMARK UNBOUND:                -0.662
REMARK SMILES O=C[C@@H](O)[C@@H](O)[C@@H](O)CO
REMARK SMILES IDX 7 1 9 2 10 3 5 5 3 6 2 7 1 8 4 9 6 11 8 13
REMARK H PARENT 10 4 4 10 6 12 8 14
REMARK Flexibility Score: inf
ROOT
ATOM      1  C   UNL     1      23.585  -3.035   9.952  1.00  0.00     0.171 C 
ENDROOT
BRANCH   1   2
ATOM      2  C   UNL     1      23.366  -2.254  11.262  1.00  0.00     0.190 C 
BRANCH   2   3
ATOM      3  O   UNL     1      23.379  -0.870  11.031  1.00  0.00    -0.394 OA
ATOM      4  H   UNL     1      22.433  -0.574  10.999  1.00  0.00     0.210 HD
ENDBRANCH   2   3
ENDBRANCH   1   2
BRANCH   1   5
ATOM      5  C   UNL     1      22.595  -2.594   8.842  1.00  0.00     0.181 C 
BRANCH   5   6
ATOM      6  C   UNL     1      22.303  -3.715   7.808  1.00  0.00     0.209 C 
BRANCH   6   7
ATOM      7  C   UNL     1      21.047  -3.434   7.027  1.00  0.00     0.258 C 
ATOM      8  O   UNL     1      19.950  -3.752   7.460  1.00  0.00    -0.300 OA
ENDBRANCH   6   7
BRANCH   6   9
ATOM      9  O   UNL     1      23.391  -3.890   6.935  1.00  0.00    -0.383 OA
ATOM     10  H   UNL     1      23.091  -4.512   6.222  1.00  0.00     0.211 HD
ENDBRANCH   6   9
ENDBRANCH   5   6
BRANCH   5  11
ATOM     11  O   UNL     1      21.385  -2.196   9.435  1.00  0.00    -0.387 OA
ATOM     12  H   UNL     1      21.485  -2.324  10.415  1.00  0.00     0.211 HD
ENDBRANCH   5  11
ENDBRANCH   1   5
BRANCH   1  13
ATOM     13  O   UNL     1      24.908  -2.846   9.519  1.00  0.00    -0.388 OA
ATOM     14  H   UNL     1      25.051  -1.867   9.448  1.00  0.00     0.211 HD
ENDBRANCH   1  13
TORSDOF 8
ENDMDL
MODEL 4
REMARK VINA RESULT:    -3.577     14.918     16.708
REMARK INTER + INTRA:          -5.494
REMARK INTER:                  -4.890
REMARK INTRA:                  -0.604
REMARK UNBOUND:                -0.662
REMARK SMILES O=C[C@@H](O)[C@@H](O)[C@@H](O)CO
REMARK SMILES IDX 7 1 9 2 10 3 5 5 3 6 2 7 1 8 4 9 6 11 8 13
REMARK H PARENT 10 4 4 10 6 12 8 14
REMARK Flexibility Score: inf
ROOT
ATOM      1  C   UNL     1      23.138  -1.915  10.890  1.00  0.00     0.171 C 
ENDROOT
BRANCH   1   2
ATOM      2  C   UNL     1      22.242  -1.578   9.683  1.00  0.00     0.190 C 
BRANCH   2   3
ATOM      3  O   UNL     1      21.458  -2.682   9.315  1.00  0.00    -0.394 OA
ATOM      4  H   UNL     1      20.528  -2.352   9.209  1.00  0.00     0.210 HD
ENDBRANCH   2   3
ENDBRANCH   1   2
BRANCH   1   5
ATOM      5  C   UNL     1      24.264  -2.915  10.516  1.00  0.00     0.181 C 
BRANCH   5   6
ATOM      6  C   UNL     1      23.995  -4.353  11.033  1.00  0.00     0.209 C 
BRANCH   6   7
ATOM      7  C   UNL     1      23.291  -4.341  12.363  1.00  0.00     0.258 C 
ATOM      8  O   UNL     1      23.646  -5.075  13.272  1.00  0.00    -0.300 OA
ENDBRANCH   6   7
BRANCH   6   9
ATOM      9  O   UNL     1      23.254  -5.095  10.096  1.00  0.00    -0.383 OA
ATOM     10  H   UNL     1      23.467  -6.052  10.252  1.00  0.00     0.211 HD
ENDBRANCH   6   9
ENDBRANCH   5   6
BRANCH   5  11
ATOM     11  O   UNL     1      24.401  -2.951   9.118  1.00  0.00    -0.387 OA
ATOM     12  H   UNL     1      24.818  -2.092   8.844  1.00  0.00     0.211 HD
ENDBRANCH   5  11
ENDBRANCH   1   5
BRANCH   1  13
ATOM     13  O   UNL     1      23.697  -0.728  11.394  1.00  0.00    -0.388 OA
ATOM     14  H   UNL     1      23.307  -0.585  12.295  1.00  0.00     0.211 HD
ENDBRANCH   1  13
TORSDOF 8
ENDMDL
MODEL 5
REMARK VINA RESULT:    -3.573     15.946     17.764
REMARK INTER + INTRA:          -5.488
REMARK INTER:                  -4.748
REMARK INTRA:                  -0.740
REMARK UNBOUND:                -0.662
REMARK SMILES O=C[C@@H](O)[C@@H](O)[C@@H](O)CO
REMARK SMILES IDX 7 1 9 2 10 3 5 5 3 6 2 7 1 8 4 9 6 11 8 13
REMARK H PARENT 10 4 4 10 6 12 8 14
REMARK Flexibility Score: inf
ROOT
ATOM      1  C   UNL     1      24.047  -2.498   9.954  1.00  0.00     0.171 C 
ENDROOT
BRANCH   1   2
ATOM      2  C   UNL     1      24.984  -3.712  10.088  1.00  0.00     0.190 C 
BRANCH   2   3
ATOM      3  O   UNL     1      25.200  -4.322   8.843  1.00  0.00    -0.394 OA
ATOM      4  H   UNL     1      24.889  -5.262   8.925  1.00  0.00     0.210 HD
ENDBRANCH   2   3
ENDBRANCH   1   2
BRANCH   1   5
ATOM      5  C   UNL     1      22.552  -2.906  10.042  1.00  0.00     0.181 C 
BRANCH   5   6
ATOM      6  C   UNL     1      21.713  -2.405   8.837  1.00  0.00     0.209 C 
BRANCH   6   7
ATOM      7  C   UNL     1      22.461  -2.558   7.540  1.00  0.00     0.258 C 
ATOM      8  O   UNL     1      22.794  -3.660   7.129  1.00  0.00    -0.300 OA
ENDBRANCH   6   7
BRANCH   6   9
ATOM      9  O   UNL     1      20.479  -3.075   8.769  1.00  0.00    -0.383 OA
ATOM     10  H   UNL     1      20.411  -3.464   7.858  1.00  0.00     0.211 HD
ENDBRANCH   6   9
ENDBRANCH   5   6
BRANCH   5  11
ATOM     11  O   UNL     1      22.461  -4.307  10.110  1.00  0.00    -0.387 OA
ATOM     12  H   UNL     1      23.176  -4.615  10.728  1.00  0.00     0.211 HD
ENDBRANCH   5  11
ENDBRANCH   1   5
BRANCH   1  13
ATOM     13  O   UNL     1      24.351  -1.566  10.961  1.00  0.00    -0.388 OA
ATOM     14  H   UNL     1      23.804  -1.809  11.753  1.00  0.00     0.211 HD
ENDBRANCH   1  13
TORSDOF 8
ENDMDL
MODEL 6
REMARK VINA RESULT:    -3.539      1.830      3.745
REMARK INTER + INTRA:          -5.443
REMARK INTER:                  -5.086
REMARK INTRA:                  -0.356
REMARK UNBOUND:                -0.662
REMARK SMILES O=C[C@@H](O)[C@@H](O)[C@@H](O)CO
REMARK SMILES IDX 7 1 9 2 10 3 5 5 3 6 2 7 1 8 4 9 6 11 8 13
REMARK H PARENT 10 4 4 10 6 12 8 14
REMARK Flexibility Score: inf
ROOT
ATOM      1  C   UNL     1      33.210  -6.936  20.400  1.00  0.00     0.171 C 
ENDROOT
BRANCH   1   2
ATOM      2  C   UNL     1      31.775  -6.377  20.407  1.00  0.00     0.190 C 
BRANCH   2   3
ATOM      3  O   UNL     1      30.847  -7.368  20.053  1.00  0.00    -0.394 OA
ATOM      4  H   UNL     1      30.739  -7.958  20.844  1.00  0.00     0.210 HD
ENDBRANCH   2   3
ENDBRANCH   1   2
BRANCH   1   5
ATOM      5  C   UNL     1      34.266  -5.819  20.187  1.00  0.00     0.181 C 
BRANCH   5   6
ATOM      6  C   UNL     1      35.713  -6.283  20.506  1.00  0.00     0.209 C 
BRANCH   6   7
ATOM      7  C   UNL     1      36.125  -5.891  21.900  1.00  0.00     0.258 C 
ATOM      8  O   UNL     1      35.974  -6.655  22.841  1.00  0.00    -0.300 OA
ENDBRANCH   6   7
BRANCH   6   9
ATOM      9  O   UNL     1      35.847  -7.671  20.330  1.00  0.00    -0.383 OA
ATOM     10  H   UNL     1      34.977  -8.004  19.989  1.00  0.00     0.211 HD
ENDBRANCH   6   9
ENDBRANCH   5   6
BRANCH   5  11
ATOM     11  O   UNL     1      34.212  -5.382  18.853  1.00  0.00    -0.387 OA
ATOM     12  H   UNL     1      34.116  -4.394  18.874  1.00  0.00     0.211 HD
ENDBRANCH   5  11
ENDBRANCH   1   5
BRANCH   1  13
ATOM     13  O   UNL     1      33.452  -7.601  21.614  1.00  0.00    -0.388 OA
ATOM     14  H   UNL     1      32.967  -7.099  22.319  1.00  0.00     0.211 HD
ENDBRANCH   1  13
TORSDOF 8
ENDMDL
MODEL 7
REMARK VINA RESULT:    -3.513     16.303     18.352
REMARK INTER + INTRA:          -5.408
REMARK INTER:                  -4.608
REMARK INTRA:                  -0.800
REMARK UNBOUND:                -0.662
REMARK SMILES O=C[C@@H](O)[C@@H](O)[C@@H](O)CO
REMARK SMILES IDX 7 1 9 2 10 3 5 5 3 6 2 7 1 8 4 9 6 11 8 13
REMARK H PARENT 10 4 4 10 6 12 8 14
REMARK Flexibility Score: inf
ROOT
ATOM      1  C   UNL     1      21.200  -3.890   9.073  1.00  0.00     0.171 C 
ENDROOT
BRANCH   1   2
ATOM      2  C   UNL     1      21.727  -4.921   8.057  1.00  0.00     0.190 C 
BRANCH   2   3
ATOM      3  O   UNL     1      22.993  -5.395   8.432  1.00  0.00    -0.394 OA
ATOM      4  H   UNL     1      23.650  -4.699   8.171  1.00  0.00     0.210 HD
ENDBRANCH   2   3
ENDBRANCH   1   2
BRANCH   1   5
ATOM      5  C   UNL     1      21.959  -2.540   8.976  1.00  0.00     0.181 C 
BRANCH   5   6
ATOM      6  C   UNL     1      22.661  -2.141  10.301  1.00  0.00     0.209 C 
BRANCH   6   7
ATOM      7  C   UNL     1      24.155  -2.297  10.204  1.00  0.00     0.258 C 
ATOM      8  O   UNL     1      24.669  -3.398  10.081  1.00  0.00    -0.300 OA
ENDBRANCH   6   7
BRANCH   6   9
ATOM      9  O   UNL     1      22.332  -0.825  10.670  1.00  0.00    -0.383 OA
ATOM     10  H   UNL     1      21.491  -0.874  11.195  1.00  0.00     0.211 HD
ENDBRANCH   6   9
ENDBRANCH   5   6
BRANCH   5  11
ATOM     11  O   UNL     1      22.923  -2.626   7.957  1.00  0.00    -0.387 OA
ATOM     12  H   UNL     1      23.801  -2.765   8.399  1.00  0.00     0.211 HD
ENDBRANCH   5  11
ENDBRANCH   1   5
BRANCH   1  13
ATOM     13  O   UNL     1      19.827  -3.686   8.854  1.00  0.00    -0.388 OA
ATOM     14  H   UNL     1      19.747  -2.981   8.161  1.00  0.00     0.211 HD
ENDBRANCH   1  13
TORSDOF 8
ENDMDL
MODEL 8
REMARK VINA RESULT:    -3.503      2.208      4.681
REMARK INTER + INTRA:          -5.394
REMARK INTER:                  -4.902
REMARK INTRA:                  -0.492
REMARK UNBOUND:                -0.662
REMARK SMILES O=C[C@@H](O)[C@@H](O)[C@@H](O)CO
REMARK SMILES IDX 7 1 9 2 10 3 5 5 3 6 2 7 1 8 4 9 6 11 8 13
REMARK H PARENT 10 4 4 10 6 12 8 14
REMARK Flexibility Score: inf
ROOT
ATOM      1  C   UNL     1      35.234  -5.129  23.032  1.00  0.00     0.171 C 
ENDROOT
BRANCH   1   2
ATOM      2  C   UNL     1      35.531  -6.466  22.327  1.00  0.00     0.190 C 
BRANCH   2   3
ATOM      3  O   UNL     1      34.367  -7.239  22.200  1.00  0.00    -0.394 OA
ATOM      4  H   UNL     1      33.908  -7.214  23.080  1.00  0.00     0.210 HD
ENDBRANCH   2   3
ENDBRANCH   1   2
BRANCH   1   5
ATOM      5  C   UNL     1      35.379  -5.242  24.573  1.00  0.00     0.181 C 
BRANCH   5   6
ATOM      6  C   UNL     1      34.603  -4.138  25.338  1.00  0.00     0.209 C 
BRANCH   6   7
ATOM      7  C   UNL     1      35.293  -3.765  26.623  1.00  0.00     0.258 C 
ATOM      8  O   UNL     1      35.830  -2.677  26.759  1.00  0.00    -0.300 OA
ENDBRANCH   6   7
BRANCH   6   9
ATOM      9  O   UNL     1      34.423  -2.998  24.534  1.00  0.00    -0.383 OA
ATOM     10  H   UNL     1      35.323  -2.726  24.214  1.00  0.00     0.211 HD
ENDBRANCH   6   9
ENDBRANCH   5   6
BRANCH   5  11
ATOM     11  O   UNL     1      34.911  -6.500  24.989  1.00  0.00    -0.387 OA
ATOM     12  H   UNL     1      34.799  -7.053  24.171  1.00  0.00     0.211 HD
ENDBRANCH   5  11
ENDBRANCH   1   5
BRANCH   1  13
ATOM     13  O   UNL     1      36.105  -4.144  22.538  1.00  0.00    -0.388 OA
ATOM     14  H   UNL     1      35.611  -3.648  21.835  1.00  0.00     0.211 HD
ENDBRANCH   1  13
TORSDOF 8
ENDMDL
MODEL 9
REMARK VINA RESULT:    -3.502     15.451     17.354
REMARK INTER + INTRA:          -5.393
REMARK INTER:                  -4.620
REMARK INTRA:                  -0.773
REMARK UNBOUND:                -0.662
REMARK SMILES O=C[C@@H](O)[C@@H](O)[C@@H](O)CO
REMARK SMILES IDX 7 1 9 2 10 3 5 5 3 6 2 7 1 8 4 9 6 11 8 13
REMARK H PARENT 10 4 4 10 6 12 8 14
REMARK Flexibility Score: inf
ROOT
ATOM      1  C   UNL     1      22.200  -2.536   9.246  1.00  0.00     0.171 C 
ENDROOT
BRANCH   1   2
ATOM      2  C   UNL     1      22.651  -2.556   7.774  1.00  0.00     0.190 C 
BRANCH   2   3
ATOM      3  O   UNL     1      23.337  -3.742   7.473  1.00  0.00    -0.394 OA
ATOM      4  H   UNL     1      22.688  -4.486   7.577  1.00  0.00     0.210 HD
ENDBRANCH   2   3
ENDBRANCH   1   2
BRANCH   1   5
ATOM      5  C   UNL     1      23.399  -2.666  10.222  1.00  0.00     0.181 C 
BRANCH   5   6
ATOM      6  C   UNL     1      23.458  -4.044  10.934  1.00  0.00     0.209 C 
BRANCH   6   7
ATOM      7  C   UNL     1      24.715  -4.794  10.585  1.00  0.00     0.258 C 
ATOM      8  O   UNL     1      24.856  -5.316   9.490  1.00  0.00    -0.300 OA
ENDBRANCH   6   7
BRANCH   6   9
ATOM      9  O   UNL     1      23.349  -3.895  12.328  1.00  0.00    -0.383 OA
ATOM     10  H   UNL     1      22.697  -3.165  12.490  1.00  0.00     0.211 HD
ENDBRANCH   6   9
ENDBRANCH   5   6
BRANCH   5  11
ATOM     11  O   UNL     1      24.595  -2.470   9.510  1.00  0.00    -0.387 OA
ATOM     12  H   UNL     1      24.344  -2.242   8.576  1.00  0.00     0.211 HD
ENDBRANCH   5  11
ENDBRANCH   1   5
BRANCH   1  13
ATOM     13  O   UNL     1      21.502  -1.343   9.498  1.00  0.00    -0.388 OA
ATOM     14  H   UNL     1      22.180  -0.653   9.721  1.00  0.00     0.211 HD
ENDBRANCH   1  13
TORSDOF 8
ENDMDL
