MODEL 1
REMARK VINA RESULT:    -4.578      0.000      0.000
REMARK INTER + INTRA:          -5.323
REMARK INTER:                  -5.247
REMARK INTRA:                  -0.075
REMARK UNBOUND:                -0.075
REMARK SMILES CC(C)[C@@H]([NH3+])C(=O)[O-]
REMARK SMILES IDX 4 1 5 2 6 6 7 7 8 8 2 9 1 10 3 11
REMARK H PARENT 5 3 5 4 5 5
REMARK Flexibility Score: inf
ROOT
ATOM      1  C   UNL     1      21.399 -68.910  -0.433  1.00  0.00     0.230 C 
ENDROOT
BRANCH   1   2
ATOM      2  N   UNL     1      22.619 -68.088  -0.476  1.00  0.00    -0.350 N 
ATOM      3  H   UNL     1      23.457 -68.630  -0.168  1.00  0.00     0.345 HD
ATOM      4  H   UNL     1      22.506 -67.249   0.138  1.00  0.00     0.345 HD
ATOM      5  H   UNL     1      22.780 -67.755  -1.454  1.00  0.00     0.345 HD
ENDBRANCH   1   2
BRANCH   1   6
ATOM      6  C   UNL     1      21.361 -69.751   0.821  1.00  0.00     0.099 C 
ATOM      7  O   UNL     1      21.383 -69.212   1.960  1.00  0.00    -0.544 OA
ATOM      8  O   UNL     1      21.270 -71.133   0.723  1.00  0.00    -0.544 OA
ENDBRANCH   1   6
BRANCH   1   9
ATOM      9  C   UNL     1      20.114 -68.047  -0.621  1.00  0.00     0.047 C 
ATOM     10  C   UNL     1      18.827 -68.878  -0.755  1.00  0.00     0.014 C 
ATOM     11  C   UNL     1      20.252 -67.093  -1.817  1.00  0.00     0.014 C 
ENDBRANCH   1   9
TORSDOF 3
ENDMDL
MODEL 2
REMARK VINA RESULT:    -4.564      2.930      3.786
REMARK INTER + INTRA:          -5.306
REMARK INTER:                  -5.233
REMARK INTRA:                  -0.074
REMARK UNBOUND:                -0.075
REMARK SMILES CC(C)[C@@H]([NH3+])C(=O)[O-]
REMARK SMILES IDX 4 1 5 2 6 6 7 7 8 8 2 9 1 10 3 11
REMARK H PARENT 5 3 5 4 5 5
REMARK Flexibility Score: inf
ROOT
ATOM      1  C   UNL     1      19.720 -68.867  -1.173  1.00  0.00     0.230 C 
ENDROOT
BRANCH   1   2
ATOM      2  N   UNL     1      18.389 -69.488  -1.085  1.00  0.00    -0.350 N 
ATOM      3  H   UNL     1      18.441 -70.525  -1.205  1.00  0.00     0.345 HD
ATOM      4  H   UNL     1      17.758 -69.088  -1.816  1.00  0.00     0.345 HD
ATOM      5  H   UNL     1      17.971 -69.283  -0.148  1.00  0.00     0.345 HD
ENDBRANCH   1   2
BRANCH   1   6
ATOM      6  C   UNL     1      19.608 -67.362  -1.222  1.00  0.00     0.099 C 
ATOM      7  O   UNL     1      19.016 -66.728  -0.307  1.00  0.00    -0.544 OA
ATOM      8  O   UNL     1      20.190 -66.660  -2.270  1.00  0.00    -0.544 OA
ENDBRANCH   1   6
BRANCH   1   9
ATOM      9  C   UNL     1      20.666 -69.365  -0.039  1.00  0.00     0.047 C 
ATOM     10  C   UNL     1      22.051 -68.695  -0.050  1.00  0.00     0.014 C 
ATOM     11  C   UNL     1      20.822 -70.894  -0.072  1.00  0.00     0.014 C 
ENDBRANCH   1   9
TORSDOF 3
ENDMDL
MODEL 3
REMARK VINA RESULT:    -4.544      2.557      3.444
REMARK INTER + INTRA:          -5.284
REMARK INTER:                  -5.230
REMARK INTRA:                  -0.054
REMARK UNBOUND:                -0.075
REMARK SMILES CC(C)[C@@H]([NH3+])C(=O)[O-]
REMARK SMILES IDX 4 1 5 2 6 6 7 7 8 8 2 9 1 10 3 11
REMARK H PARENT 5 3 5 4 5 5
REMARK Flexibility Score: inf
ROOT
ATOM      1  C   UNL     1      20.480 -69.569  -0.575  1.00  0.00     0.230 C 
ENDROOT
BRANCH   1   2
ATOM      2  N   UNL     1      20.701 -70.943  -0.098  1.00  0.00    -0.350 N 
ATOM      3  H   UNL     1      20.733 -71.623  -0.891  1.00  0.00     0.345 HD
ATOM      4  H   UNL     1      19.939 -71.219   0.562  1.00  0.00     0.345 HD
ATOM      5  H   UNL     1      21.610 -70.990   0.418  1.00  0.00     0.345 HD
ENDBRANCH   1   2
BRANCH   1   6
ATOM      6  C   UNL     1      19.004 -69.259  -0.659  1.00  0.00     0.099 C 
ATOM      7  O   UNL     1      18.187 -70.121  -1.083  1.00  0.00    -0.544 OA
ATOM      8  O   UNL     1      18.532 -68.024  -0.236  1.00  0.00    -0.544 OA
ENDBRANCH   1   6
BRANCH   1   9
ATOM      9  C   UNL     1      21.267 -68.528   0.278  1.00  0.00     0.047 C 
ATOM     10  C   UNL     1      22.675 -68.224  -0.262  1.00  0.00     0.014 C 
ATOM     11  C   UNL     1      21.350 -68.960   1.750  1.00  0.00     0.014 C 
ENDBRANCH   1   9
TORSDOF 3
ENDMDL
MODEL 4
REMARK VINA RESULT:    -4.537      2.310      3.054
REMARK INTER + INTRA:          -5.275
REMARK INTER:                  -5.216
REMARK INTRA:                  -0.059
REMARK UNBOUND:                -0.075
REMARK SMILES CC(C)[C@@H]([NH3+])C(=O)[O-]
REMARK SMILES IDX 4 1 5 2 6 6 7 7 8 8 2 9 1 10 3 11
REMARK H PARENT 5 3 5 4 5 5
REMARK Flexibility Score: inf
ROOT
ATOM      1  C   UNL     1      20.133 -67.745  -0.394  1.00  0.00     0.230 C 
ENDROOT
BRANCH   1   2
ATOM      2  N   UNL     1      20.514 -67.246  -1.725  1.00  0.00    -0.350 N 
ATOM      3  H   UNL     1      20.595 -68.025  -2.417  1.00  0.00     0.345 HD
ATOM      4  H   UNL     1      21.426 -66.739  -1.669  1.00  0.00     0.345 HD
ATOM      5  H   UNL     1      19.789 -66.574  -2.065  1.00  0.00     0.345 HD
ENDBRANCH   1   2
BRANCH   1   6
ATOM      6  C   UNL     1      18.768 -68.391  -0.432  1.00  0.00     0.099 C 
ATOM      7  O   UNL     1      17.739 -67.745  -0.097  1.00  0.00    -0.544 OA
ATOM      8  O   UNL     1      18.637 -69.702  -0.871  1.00  0.00    -0.544 OA
ENDBRANCH   1   6
BRANCH   1   9
ATOM      9  C   UNL     1      21.226 -68.679   0.208  1.00  0.00     0.047 C 
ATOM     10  C   UNL     1      21.190 -68.762   1.744  1.00  0.00     0.014 C 
ATOM     11  C   UNL     1      22.630 -68.272  -0.264  1.00  0.00     0.014 C 
ENDBRANCH   1   9
TORSDOF 3
ENDMDL
MODEL 5
REMARK VINA RESULT:    -4.524      1.935      2.394
REMARK INTER + INTRA:          -5.260
REMARK INTER:                  -5.204
REMARK INTRA:                  -0.056
REMARK UNBOUND:                -0.075
REMARK SMILES CC(C)[C@@H]([NH3+])C(=O)[O-]
REMARK SMILES IDX 4 1 5 2 6 6 7 7 8 8 2 9 1 10 3 11
REMARK H PARENT 5 3 5 4 5 5
REMARK Flexibility Score: inf
ROOT
ATOM      1  C   UNL     1      20.732 -69.202   0.443  1.00  0.00     0.230 C 
ENDROOT
BRANCH   1   2
ATOM      2  N   UNL     1      20.849 -70.617   0.061  1.00  0.00    -0.350 N 
ATOM      3  H   UNL     1      20.400 -70.803  -0.864  1.00  0.00     0.345 HD
ATOM      4  H   UNL     1      20.404 -71.222   0.788  1.00  0.00     0.345 HD
ATOM      5  H   UNL     1      21.860 -70.878  -0.003  1.00  0.00     0.345 HD
ENDBRANCH   1   2
BRANCH   1   6
ATOM      6  C   UNL     1      22.086 -68.531   0.443  1.00  0.00     0.099 C 
ATOM      7  O   UNL     1      22.554 -68.023  -0.612  1.00  0.00    -0.544 OA
ATOM      8  O   UNL     1      22.812 -68.443   1.623  1.00  0.00    -0.544 OA
ENDBRANCH   1   6
BRANCH   1   9
ATOM      9  C   UNL     1      19.687 -68.450  -0.436  1.00  0.00     0.047 C 
ATOM     10  C   UNL     1      18.998 -67.280   0.287  1.00  0.00     0.014 C 
ATOM     11  C   UNL     1      18.631 -69.416  -0.996  1.00  0.00     0.014 C 
ENDBRANCH   1   9
TORSDOF 3
ENDMDL
MODEL 6
REMARK VINA RESULT:    -4.512      1.979      2.632
REMARK INTER + INTRA:          -5.247
REMARK INTER:                  -5.191
REMARK INTRA:                  -0.056
REMARK UNBOUND:                -0.075
REMARK SMILES CC(C)[C@@H]([NH3+])C(=O)[O-]
REMARK SMILES IDX 4 1 5 2 6 6 7 7 8 8 2 9 1 10 3 11
REMARK H PARENT 5 3 5 4 5 5
REMARK Flexibility Score: inf
ROOT
ATOM      1  C   UNL     1      20.915 -68.245  -0.053  1.00  0.00     0.230 C 
ENDROOT
BRANCH   1   2
ATOM      2  N   UNL     1      20.160 -67.973   1.180  1.00  0.00    -0.350 N 
ATOM      3  H   UNL     1      20.760 -68.080   2.028  1.00  0.00     0.345 HD
ATOM      4  H   UNL     1      19.344 -68.623   1.251  1.00  0.00     0.345 HD
ATOM      5  H   UNL     1      19.793 -66.993   1.154  1.00  0.00     0.345 HD
ENDBRANCH   1   2
BRANCH   1   6
ATOM      6  C   UNL     1      22.400 -68.279   0.222  1.00  0.00     0.099 C 
ATOM      7  O   UNL     1      23.233 -68.118  -0.711  1.00  0.00    -0.544 OA
ATOM      8  O   UNL     1      22.858 -68.457   1.521  1.00  0.00    -0.544 OA
ENDBRANCH   1   6
BRANCH   1   9
ATOM      9  C   UNL     1      20.405 -69.532  -0.770  1.00  0.00     0.047 C 
ATOM     10  C   UNL     1      18.884 -69.551  -0.999  1.00  0.00     0.014 C 
ATOM     11  C   UNL     1      20.840 -70.800  -0.019  1.00  0.00     0.014 C 
ENDBRANCH   1   9
TORSDOF 3
ENDMDL
MODEL 7
REMARK VINA RESULT:    -4.500      0.766      1.369
REMARK INTER + INTRA:          -5.233
REMARK INTER:                  -5.219
REMARK INTRA:                  -0.014
REMARK UNBOUND:                -0.075
REMARK SMILES CC(C)[C@@H]([NH3+])C(=O)[O-]
REMARK SMILES IDX 4 1 5 2 6 6 7 7 8 8 2 9 1 10 3 11
REMARK H PARENT 5 3 5 4 5 5
REMARK Flexibility Score: inf
ROOT
ATOM      1  C   UNL     1      21.437 -68.949  -0.640  1.00  0.00     0.230 C 
ENDROOT
BRANCH   1   2
ATOM      2  N   UNL     1      22.509 -68.045  -0.195  1.00  0.00    -0.350 N 
ATOM      3  H   UNL     1      22.764 -67.357  -0.940  1.00  0.00     0.345 HD
ATOM      4  H   UNL     1      23.356 -68.597   0.069  1.00  0.00     0.345 HD
ATOM      5  H   UNL     1      22.190 -67.516   0.649  1.00  0.00     0.345 HD
ENDBRANCH   1   2
BRANCH   1   6
ATOM      6  C   UNL     1      21.275 -70.104   0.320  1.00  0.00     0.099 C 
ATOM      7  O   UNL     1      21.633 -69.997   1.524  1.00  0.00    -0.544 OA
ATOM      8  O   UNL     1      20.698 -71.289  -0.117  1.00  0.00    -0.544 OA
ENDBRANCH   1   6
BRANCH   1   9
ATOM      9  C   UNL     1      20.103 -68.183  -0.893  1.00  0.00     0.047 C 
ATOM     10  C   UNL     1      20.223 -67.061  -1.938  1.00  0.00     0.014 C 
ATOM     11  C   UNL     1      19.524 -67.624   0.415  1.00  0.00     0.014 C 
ENDBRANCH   1   9
TORSDOF 3
ENDMDL
MODEL 8
REMARK VINA RESULT:    -4.317      2.435      3.110
REMARK INTER + INTRA:          -5.023
REMARK INTER:                  -5.000
REMARK INTRA:                  -0.023
REMARK UNBOUND:                -0.075
REMARK SMILES CC(C)[C@@H]([NH3+])C(=O)[O-]
REMARK SMILES IDX 4 1 5 2 6 6 7 7 8 8 2 9 1 10 3 11
REMARK H PARENT 5 3 5 4 5 5
REMARK Flexibility Score: inf
ROOT
ATOM      1  C   UNL     1      20.612 -68.388  -0.078  1.00  0.00     0.230 C 
ENDROOT
BRANCH   1   2
ATOM      2  N   UNL     1      22.018 -68.032  -0.318  1.00  0.00    -0.350 N 
ATOM      3  H   UNL     1      22.426 -67.514   0.493  1.00  0.00     0.345 HD
ATOM      4  H   UNL     1      22.097 -67.443  -1.178  1.00  0.00     0.345 HD
ATOM      5  H   UNL     1      22.577 -68.903  -0.470  1.00  0.00     0.345 HD
ENDBRANCH   1   2
BRANCH   1   6
ATOM      6  C   UNL     1      19.694 -67.255  -0.476  1.00  0.00     0.099 C 
ATOM      7  O   UNL     1      18.847 -66.796   0.337  1.00  0.00    -0.544 OA
ATOM      8  O   UNL     1      19.803 -66.690  -1.740  1.00  0.00    -0.544 OA
ENDBRANCH   1   6
BRANCH   1   9
ATOM      9  C   UNL     1      20.233 -69.738  -0.760  1.00  0.00     0.047 C 
ATOM     10  C   UNL     1      18.720 -69.924  -0.963  1.00  0.00     0.014 C 
ATOM     11  C   UNL     1      20.811 -70.934   0.012  1.00  0.00     0.014 C 
ENDBRANCH   1   9
TORSDOF 3
ENDMDL
MODEL 9
REMARK VINA RESULT:    -4.316      1.676      2.153
REMARK INTER + INTRA:          -5.022
REMARK INTER:                  -4.966
REMARK INTRA:                  -0.056
REMARK UNBOUND:                -0.075
REMARK SMILES CC(C)[C@@H]([NH3+])C(=O)[O-]
REMARK SMILES IDX 4 1 5 2 6 6 7 7 8 8 2 9 1 10 3 11
REMARK H PARENT 5 3 5 4 5 5
REMARK Flexibility Score: inf
ROOT
ATOM      1  C   UNL     1      20.473 -68.434  -1.050  1.00  0.00     0.230 C 
ENDROOT
BRANCH   1   2
ATOM      2  N   UNL     1      20.393 -67.200  -1.846  1.00  0.00    -0.350 N 
ATOM      3  H   UNL     1      20.058 -67.391  -2.817  1.00  0.00     0.345 HD
ATOM      4  H   UNL     1      21.331 -66.741  -1.890  1.00  0.00     0.345 HD
ATOM      5  H   UNL     1      19.727 -66.534  -1.390  1.00  0.00     0.345 HD
ENDBRANCH   1   2
BRANCH   1   6
ATOM      6  C   UNL     1      21.608 -68.360  -0.056  1.00  0.00     0.099 C 
ATOM      7  O   UNL     1      22.755 -67.980  -0.414  1.00  0.00    -0.544 OA
ATOM      8  O   UNL     1      21.382 -68.684   1.275  1.00  0.00    -0.544 OA
ENDBRANCH   1   6
BRANCH   1   9
ATOM      9  C   UNL     1      19.108 -68.780  -0.382  1.00  0.00     0.047 C 
ATOM     10  C   UNL     1      18.290 -69.829  -1.154  1.00  0.00     0.014 C 
ATOM     11  C   UNL     1      18.262 -67.518  -0.153  1.00  0.00     0.014 C 
ENDBRANCH   1   9
TORSDOF 3
ENDMDL
