MODEL 1
REMARK VINA RESULT:    -4.607      0.000      0.000
REMARK INTER + INTRA:          -6.625
REMARK INTER:                  -6.224
REMARK INTRA:                  -0.402
REMARK UNBOUND:                -0.402
REMARK SMILES CCCCCCCC(=O)[O-]
REMARK SMILES IDX 5 1 6 2 7 3 8 4 9 5 10 6 4 7 3 8 2 9 1 10
REMARK H PARENT
REMARK Flexibility Score: inf
ROOT
ATOM      1  C   UNL     1      57.258  56.801  69.135  1.00  0.00     0.000 C 
ENDROOT
BRANCH   1   2
ATOM      2  C   UNL     1      58.481  56.461  70.005  1.00  0.00     0.006 C 
BRANCH   2   3
ATOM      3  C   UNL     1      59.676  57.378  69.707  1.00  0.00     0.053 C 
BRANCH   3   4
ATOM      4  C   UNL     1      59.328  58.824  69.884  1.00  0.00     0.041 C 
ATOM      5  O   UNL     1      59.050  59.273  71.027  1.00  0.00    -0.550 OA
ATOM      6  O   UNL     1      59.338  59.682  68.792  1.00  0.00    -0.550 OA
ENDBRANCH   3   4
ENDBRANCH   2   3
ENDBRANCH   1   2
BRANCH   1   7
ATOM      7  C   UNL     1      55.981  57.014  69.965  1.00  0.00     0.000 C 
BRANCH   7   8
ATOM      8  C   UNL     1      56.256  57.028  71.479  1.00  0.00    -0.000 C 
BRANCH   8   9
ATOM      9  C   UNL     1      55.342  58.007  72.233  1.00  0.00    -0.003 C 
ATOM     10  C   UNL     1      54.894  57.473  73.594  1.00  0.00     0.004 C 
ENDBRANCH   8   9
ENDBRANCH   7   8
ENDBRANCH   1   7
TORSDOF 6
ENDMDL
MODEL 2
REMARK VINA RESULT:    -4.577      1.168      1.867
REMARK INTER + INTRA:          -6.584
REMARK INTER:                  -6.358
REMARK INTRA:                  -0.226
REMARK UNBOUND:                -0.402
REMARK SMILES CCCCCCCC(=O)[O-]
REMARK SMILES IDX 5 1 6 2 7 3 8 4 9 5 10 6 4 7 3 8 2 9 1 10
REMARK H PARENT
REMARK Flexibility Score: inf
ROOT
ATOM      1  C   UNL     1      56.002  56.906  69.947  1.00  0.00     0.000 C 
ENDROOT
BRANCH   1   2
ATOM      2  C   UNL     1      57.330  56.662  69.210  1.00  0.00     0.006 C 
BRANCH   2   3
ATOM      3  C   UNL     1      58.501  56.456  70.181  1.00  0.00     0.053 C 
BRANCH   3   4
ATOM      4  C   UNL     1      59.664  57.339  69.848  1.00  0.00     0.041 C 
ATOM      5  O   UNL     1      59.617  58.095  68.841  1.00  0.00    -0.550 OA
ATOM      6  O   UNL     1      60.787  57.351  70.665  1.00  0.00    -0.550 OA
ENDBRANCH   3   4
ENDBRANCH   2   3
ENDBRANCH   1   2
BRANCH   1   7
ATOM      7  C   UNL     1      56.206  57.461  71.367  1.00  0.00     0.000 C 
BRANCH   7   8
ATOM      8  C   UNL     1      55.312  56.765  72.408  1.00  0.00    -0.000 C 
BRANCH   8   9
ATOM      9  C   UNL     1      54.877  57.711  73.537  1.00  0.00    -0.003 C 
ATOM     10  C   UNL     1      55.890  57.776  74.681  1.00  0.00     0.004 C 
ENDBRANCH   8   9
ENDBRANCH   7   8
ENDBRANCH   1   7
TORSDOF 6
ENDMDL
MODEL 3
REMARK VINA RESULT:    -4.394      2.618      4.749
REMARK INTER + INTRA:          -6.336
REMARK INTER:                  -6.083
REMARK INTRA:                  -0.254
REMARK UNBOUND:                -0.402
REMARK SMILES CCCCCCCC(=O)[O-]
REMARK SMILES IDX 5 1 6 2 7 3 8 4 9 5 10 6 4 7 3 8 2 9 1 10
REMARK H PARENT
REMARK Flexibility Score: inf
ROOT
ATOM      1  C   UNL     1      56.356  57.371  71.572  1.00  0.00     0.000 C 
ENDROOT
BRANCH   1   2
ATOM      2  C   UNL     1      55.433  56.735  72.627  1.00  0.00     0.006 C 
BRANCH   2   3
ATOM      3  C   UNL     1      54.875  57.774  73.609  1.00  0.00     0.053 C 
BRANCH   3   4
ATOM      4  C   UNL     1      55.919  58.246  74.574  1.00  0.00     0.041 C 
ATOM      5  O   UNL     1      56.464  57.433  75.366  1.00  0.00    -0.550 OA
ATOM      6  O   UNL     1      56.312  59.578  74.579  1.00  0.00    -0.550 OA
ENDBRANCH   3   4
ENDBRANCH   2   3
ENDBRANCH   1   2
BRANCH   1   7
ATOM      7  C   UNL     1      55.956  57.001  70.134  1.00  0.00     0.000 C 
BRANCH   7   8
ATOM      8  C   UNL     1      57.169  56.652  69.255  1.00  0.00    -0.000 C 
BRANCH   8   9
ATOM      9  C   UNL     1      58.356  56.122  70.074  1.00  0.00    -0.003 C 
ATOM     10  C   UNL     1      59.579  57.037  70.006  1.00  0.00     0.004 C 
ENDBRANCH   8   9
ENDBRANCH   7   8
ENDBRANCH   1   7
TORSDOF 6
ENDMDL
MODEL 4
REMARK VINA RESULT:    -4.288      1.564      2.688
REMARK INTER + INTRA:          -6.193
REMARK INTER:                  -5.963
REMARK INTRA:                  -0.230
REMARK UNBOUND:                -0.402
REMARK SMILES CCCCCCCC(=O)[O-]
REMARK SMILES IDX 5 1 6 2 7 3 8 4 9 5 10 6 4 7 3 8 2 9 1 10
REMARK H PARENT
REMARK Flexibility Score: inf
ROOT
ATOM      1  C   UNL     1      56.272  57.579  71.560  1.00  0.00     0.000 C 
ENDROOT
BRANCH   1   2
ATOM      2  C   UNL     1      56.062  57.094  70.115  1.00  0.00     0.006 C 
BRANCH   2   3
ATOM      3  C   UNL     1      57.245  56.256  69.609  1.00  0.00     0.053 C 
BRANCH   3   4
ATOM      4  C   UNL     1      58.518  57.044  69.590  1.00  0.00     0.041 C 
ATOM      5  O   UNL     1      58.601  58.099  68.908  1.00  0.00    -0.550 OA
ATOM      6  O   UNL     1      59.606  56.629  70.349  1.00  0.00    -0.550 OA
ENDBRANCH   3   4
ENDBRANCH   2   3
ENDBRANCH   1   2
BRANCH   1   7
ATOM      7  C   UNL     1      55.406  56.811  72.573  1.00  0.00     0.000 C 
BRANCH   7   8
ATOM      8  C   UNL     1      54.916  57.704  73.727  1.00  0.00    -0.000 C 
BRANCH   8   9
ATOM      9  C   UNL     1      55.959  57.843  74.847  1.00  0.00    -0.003 C 
ATOM     10  C   UNL     1      55.982  59.240  75.467  1.00  0.00     0.004 C 
ENDBRANCH   8   9
ENDBRANCH   7   8
ENDBRANCH   1   7
TORSDOF 6
ENDMDL
MODEL 5
REMARK VINA RESULT:    -4.276      2.420      4.331
REMARK INTER + INTRA:          -6.178
REMARK INTER:                  -5.772
REMARK INTRA:                  -0.406
REMARK UNBOUND:                -0.402
REMARK SMILES CCCCCCCC(=O)[O-]
REMARK SMILES IDX 5 1 6 2 7 3 8 4 9 5 10 6 4 7 3 8 2 9 1 10
REMARK H PARENT
REMARK Flexibility Score: inf
ROOT
ATOM      1  C   UNL     1      56.981  56.995  68.838  1.00  0.00     0.000 C 
ENDROOT
BRANCH   1   2
ATOM      2  C   UNL     1      55.991  56.986  70.016  1.00  0.00     0.006 C 
BRANCH   2   3
ATOM      3  C   UNL     1      56.707  56.918  71.372  1.00  0.00     0.053 C 
BRANCH   3   4
ATOM      4  C   UNL     1      55.840  57.415  72.487  1.00  0.00     0.041 C 
ATOM      5  O   UNL     1      55.057  58.383  72.297  1.00  0.00    -0.550 OA
ATOM      6  O   UNL     1      55.872  56.791  73.727  1.00  0.00    -0.550 OA
ENDBRANCH   3   4
ENDBRANCH   2   3
ENDBRANCH   1   2
BRANCH   1   7
ATOM      7  C   UNL     1      58.390  57.452  69.251  1.00  0.00     0.000 C 
BRANCH   7   8
ATOM      8  C   UNL     1      58.890  58.647  68.422  1.00  0.00    -0.000 C 
BRANCH   8   9
ATOM      9  C   UNL     1      59.348  59.822  69.300  1.00  0.00    -0.003 C 
ATOM     10  C   UNL     1      59.350  59.483  70.791  1.00  0.00     0.004 C 
ENDBRANCH   8   9
ENDBRANCH   7   8
ENDBRANCH   1   7
TORSDOF 6
ENDMDL
MODEL 6
REMARK VINA RESULT:    -4.201      2.595      4.842
REMARK INTER + INTRA:          -6.076
REMARK INTER:                  -5.841
REMARK INTRA:                  -0.235
REMARK UNBOUND:                -0.402
REMARK SMILES CCCCCCCC(=O)[O-]
REMARK SMILES IDX 5 1 6 2 7 3 8 4 9 5 10 6 4 7 3 8 2 9 1 10
REMARK H PARENT
REMARK Flexibility Score: inf
ROOT
ATOM      1  C   UNL     1      55.456  56.670  72.793  1.00  0.00     0.000 C 
ENDROOT
BRANCH   1   2
ATOM      2  C   UNL     1      54.875  57.834  73.616  1.00  0.00     0.006 C 
BRANCH   2   3
ATOM      3  C   UNL     1      55.678  58.093  74.898  1.00  0.00     0.053 C 
BRANCH   3   4
ATOM      4  C   UNL     1      56.465  59.364  74.817  1.00  0.00     0.041 C 
ATOM      5  O   UNL     1      56.790  59.838  73.696  1.00  0.00    -0.550 OA
ATOM      6  O   UNL     1      56.813  60.044  75.977  1.00  0.00    -0.550 OA
ENDBRANCH   3   4
ENDBRANCH   2   3
ENDBRANCH   1   2
BRANCH   1   7
ATOM      7  C   UNL     1      55.595  57.012  71.300  1.00  0.00     0.000 C 
BRANCH   7   8
ATOM      8  C   UNL     1      57.032  56.827  70.783  1.00  0.00    -0.000 C 
BRANCH   8   9
ATOM      9  C   UNL     1      57.094  56.692  69.254  1.00  0.00    -0.003 C 
ATOM     10  C   UNL     1      55.715  56.754  68.595  1.00  0.00     0.004 C 
ENDBRANCH   8   9
ENDBRANCH   7   8
ENDBRANCH   1   7
TORSDOF 6
ENDMDL
MODEL 7
REMARK VINA RESULT:    -4.164      1.696      2.432
REMARK INTER + INTRA:          -6.027
REMARK INTER:                  -5.632
REMARK INTRA:                  -0.395
REMARK UNBOUND:                -0.402
REMARK SMILES CCCCCCCC(=O)[O-]
REMARK SMILES IDX 5 1 6 2 7 3 8 4 9 5 10 6 4 7 3 8 2 9 1 10
REMARK H PARENT
REMARK Flexibility Score: inf
ROOT
ATOM      1  C   UNL     1      59.547  56.184  70.400  1.00  0.00     0.000 C 
ENDROOT
BRANCH   1   2
ATOM      2  C   UNL     1      59.997  57.651  70.290  1.00  0.00     0.006 C 
BRANCH   2   3
ATOM      3  C   UNL     1      60.243  58.073  68.834  1.00  0.00     0.053 C 
BRANCH   3   4
ATOM      4  C   UNL     1      59.399  59.246  68.443  1.00  0.00     0.041 C 
ATOM      5  O   UNL     1      59.141  60.149  69.282  1.00  0.00    -0.550 OA
ATOM      6  O   UNL     1      58.920  59.358  67.144  1.00  0.00    -0.550 OA
ENDBRANCH   3   4
ENDBRANCH   2   3
ENDBRANCH   1   2
BRANCH   1   7
ATOM      7  C   UNL     1      58.063  55.991  70.047  1.00  0.00     0.000 C 
BRANCH   7   8
ATOM      8  C   UNL     1      57.140  56.933  70.840  1.00  0.00    -0.000 C 
BRANCH   8   9
ATOM      9  C   UNL     1      55.790  57.158  70.142  1.00  0.00    -0.003 C 
ATOM     10  C   UNL     1      55.809  56.755  68.667  1.00  0.00     0.004 C 
ENDBRANCH   8   9
ENDBRANCH   7   8
ENDBRANCH   1   7
TORSDOF 6
ENDMDL
MODEL 8
REMARK VINA RESULT:    -4.138      5.889      7.645
REMARK INTER + INTRA:          -5.991
REMARK INTER:                  -5.738
REMARK INTRA:                  -0.253
REMARK UNBOUND:                -0.402
REMARK SMILES CCCCCCCC(=O)[O-]
REMARK SMILES IDX 5 1 6 2 7 3 8 4 9 5 10 6 4 7 3 8 2 9 1 10
REMARK H PARENT
REMARK Flexibility Score: inf
ROOT
ATOM      1  C   UNL     1      58.649  61.333  76.124  1.00  0.00     0.000 C 
ENDROOT
BRANCH   1   2
ATOM      2  C   UNL     1      58.663  60.096  77.040  1.00  0.00     0.006 C 
BRANCH   2   3
ATOM      3  C   UNL     1      57.742  58.983  76.521  1.00  0.00     0.053 C 
BRANCH   3   4
ATOM      4  C   UNL     1      56.401  59.513  76.114  1.00  0.00     0.041 C 
ATOM      5  O   UNL     1      56.011  59.401  74.922  1.00  0.00    -0.550 OA
ATOM      6  O   UNL     1      55.569  60.103  77.057  1.00  0.00    -0.550 OA
ENDBRANCH   3   4
ENDBRANCH   2   3
ENDBRANCH   1   2
BRANCH   1   7
ATOM      7  C   UNL     1      59.649  61.220  74.961  1.00  0.00     0.000 C 
BRANCH   7   8
ATOM      8  C   UNL     1      60.846  60.314  75.296  1.00  0.00    -0.000 C 
BRANCH   8   9
ATOM      9  C   UNL     1      62.017  60.501  74.319  1.00  0.00    -0.003 C 
ATOM     10  C   UNL     1      63.182  61.279  74.930  1.00  0.00     0.004 C 
ENDBRANCH   8   9
ENDBRANCH   7   8
ENDBRANCH   1   7
TORSDOF 6
ENDMDL
MODEL 9
REMARK VINA RESULT:    -4.046      5.457      7.132
REMARK INTER + INTRA:          -5.867
REMARK INTER:                  -5.415
REMARK INTRA:                  -0.452
REMARK UNBOUND:                -0.402
REMARK SMILES CCCCCCCC(=O)[O-]
REMARK SMILES IDX 5 1 6 2 7 3 8 4 9 5 10 6 4 7 3 8 2 9 1 10
REMARK H PARENT
REMARK Flexibility Score: inf
ROOT
ATOM      1  C   UNL     1      59.824  60.875  75.540  1.00  0.00     0.000 C 
ENDROOT
BRANCH   1   2
ATOM      2  C   UNL     1      59.752  62.154  74.686  1.00  0.00     0.006 C 
BRANCH   2   3
ATOM      3  C   UNL     1      58.552  62.142  73.729  1.00  0.00     0.053 C 
BRANCH   3   4
ATOM      4  C   UNL     1      58.410  60.827  73.028  1.00  0.00     0.041 C 
ATOM      5  O   UNL     1      59.227  60.497  72.128  1.00  0.00    -0.550 OA
ATOM      6  O   UNL     1      57.394  59.950  73.388  1.00  0.00    -0.550 OA
ENDBRANCH   3   4
ENDBRANCH   2   3
ENDBRANCH   1   2
BRANCH   1   7
ATOM      7  C   UNL     1      61.130  60.092  75.323  1.00  0.00     0.000 C 
BRANCH   7   8
ATOM      8  C   UNL     1      62.069  60.775  74.314  1.00  0.00    -0.000 C 
BRANCH   8   9
ATOM      9  C   UNL     1      63.386  61.236  74.957  1.00  0.00    -0.003 C 
ATOM     10  C   UNL     1      63.402  62.732  75.273  1.00  0.00     0.004 C 
ENDBRANCH   8   9
ENDBRANCH   7   8
ENDBRANCH   1   7
TORSDOF 6
ENDMDL
