MODEL 1
REMARK VINA RESULT:    -5.441      0.000      0.000
REMARK INTER + INTRA:          -9.393
REMARK INTER:                  -7.509
REMARK INTRA:                  -1.884
REMARK UNBOUND:                -1.884
REMARK SMILES CC[C@H](CC[C@H](C)[C@H]1CC[C@@H]2[C@@H]3CC=C4C[C@@H](O)CC[C@]4(C)[C@@H]3CC[C@]21C)C(C)C
REMARK SMILES IDX 5 1 4 2 3 3 2 4 1 5 28 6 29 7 30 8 6 9 7 10 8 11 9 12 26 13
REMARK SMILES IDX 10 14 11 15 25 16 27 17 12 18 24 19 23 20 13 21 21 22 14 23
REMARK SMILES IDX 15 24 20 25 22 26 16 27 19 28 17 29 18 30
REMARK H PARENT 18 31
REMARK Flexibility Score: inf
ROOT
ATOM      1  C   UNL     1       5.579 106.614 180.914  1.00  0.00     0.004 C 
ENDROOT
BRANCH   1   2
ATOM      2  C   UNL     1       4.090 106.202 180.952  1.00  0.00     0.004 C 
BRANCH   2   3
ATOM      3  C   UNL     1       3.318 106.330 179.605  1.00  0.00    -0.009 C 
BRANCH   3   4
ATOM      4  C   UNL     1       2.486 105.050 179.327  1.00  0.00     0.000 C 
ATOM      5  C   UNL     1       1.730 105.057 177.997  1.00  0.00     0.004 C 
ENDBRANCH   3   4
BRANCH   3   6
ATOM      6  C   UNL     1       2.459 107.637 179.413  1.00  0.00    -0.014 C 
ATOM      7  C   UNL     1       1.765 108.155 180.685  1.00  0.00     0.007 C 
ATOM      8  C   UNL     1       3.260 108.777 178.765  1.00  0.00     0.007 C 
ENDBRANCH   3   6
ENDBRANCH   2   3
ENDBRANCH   1   2
BRANCH   1   9
ATOM      9  C   UNL     1       5.954 108.079 181.343  1.00  0.00    -0.011 C 
ATOM     10  C   UNL     1       7.496 108.208 181.457  1.00  0.00     0.008 C 
BRANCH   9  11
ATOM     11  C   UNL     1       5.215 108.628 182.628  1.00  0.00    -0.002 C 
ATOM     12  C   UNL     1       6.052 108.449 183.941  1.00  0.00     0.005 C 
ATOM     13  C   UNL     1       4.803 110.154 182.644  1.00  0.00    -0.026 C 
ATOM     14  C   UNL     1       6.184 109.814 184.616  1.00  0.00     0.005 C 
ATOM     15  C   UNL     1       5.931 110.778 183.479  1.00  0.00    -0.001 C 
ATOM     16  C   UNL     1       4.770 110.929 181.302  1.00  0.00     0.007 C 
ATOM     17  C   UNL     1       3.401 110.244 183.321  1.00  0.00     0.012 C 
ATOM     18  C   UNL     1       5.811 112.291 183.792  1.00  0.00     0.000 C 
ATOM     19  C   UNL     1       4.580 112.449 181.507  1.00  0.00     0.005 C 
ATOM     20  C   UNL     1       5.634 113.098 182.462  1.00  0.00     0.003 C 
ATOM     21  C   UNL     1       4.822 112.684 184.931  1.00  0.00     0.031 C 
ATOM     22  C   UNL     1       5.324 114.612 182.757  1.00  0.00    -0.008 C 
ATOM     23  C   UNL     1       3.827 113.760 184.566  1.00  0.00    -0.027 C 
ATOM     24  C   UNL     1       4.033 114.670 183.589  1.00  0.00    -0.065 C 
ATOM     25  C   UNL     1       5.259 115.429 181.413  1.00  0.00     0.014 C 
ATOM     26  C   UNL     1       6.464 115.242 183.604  1.00  0.00     0.016 C 
ATOM     27  C   UNL     1       2.885 115.618 183.285  1.00  0.00     0.063 C 
ATOM     28  C   UNL     1       3.846 115.813 180.974  1.00  0.00     0.033 C 
ATOM     29  C   UNL     1       3.127 116.557 182.102  1.00  0.00     0.118 C 
BRANCH  29  30
ATOM     30  O   UNL     1       3.872 117.671 182.525  1.00  0.00    -0.393 OA
ATOM     31  H   UNL     1       4.769 117.333 182.784  1.00  0.00     0.210 HD
ENDBRANCH  29  30
ENDBRANCH   9  11
ENDBRANCH   1   9
TORSDOF 7
ENDMDL
MODEL 2
REMARK VINA RESULT:    -5.297      3.418      8.781
REMARK INTER + INTRA:          -9.194
REMARK INTER:                  -7.679
REMARK INTRA:                  -1.515
REMARK UNBOUND:                -1.884
REMARK SMILES CC[C@H](CC[C@H](C)[C@H]1CC[C@@H]2[C@@H]3CC=C4C[C@@H](O)CC[C@]4(C)[C@@H]3CC[C@]21C)C(C)C
REMARK SMILES IDX 5 1 4 2 3 3 2 4 1 5 28 6 29 7 30 8 6 9 7 10 8 11 9 12 26 13
REMARK SMILES IDX 10 14 11 15 25 16 27 17 12 18 24 19 23 20 13 21 21 22 14 23
REMARK SMILES IDX 15 24 20 25 22 26 16 27 19 28 17 29 18 30
REMARK H PARENT 18 31
REMARK Flexibility Score: inf
ROOT
ATOM      1  C   UNL     1       6.112 111.061 183.496  1.00  0.00     0.004 C 
ENDROOT
BRANCH   1   2
ATOM      2  C   UNL     1       5.321 111.582 184.718  1.00  0.00     0.004 C 
BRANCH   2   3
ATOM      3  C   UNL     1       5.403 113.117 184.972  1.00  0.00    -0.009 C 
BRANCH   3   4
ATOM      4  C   UNL     1       6.474 113.767 184.056  1.00  0.00     0.000 C 
ATOM      5  C   UNL     1       7.608 114.473 184.802  1.00  0.00     0.004 C 
ENDBRANCH   3   4
BRANCH   3   6
ATOM      6  C   UNL     1       4.041 113.907 184.930  1.00  0.00    -0.014 C 
ATOM      7  C   UNL     1       3.989 115.063 183.916  1.00  0.00     0.007 C 
ATOM      8  C   UNL     1       2.832 112.982 184.719  1.00  0.00     0.007 C 
ENDBRANCH   3   6
ENDBRANCH   2   3
ENDBRANCH   1   2
BRANCH   1   9
ATOM      9  C   UNL     1       5.300 110.530 182.259  1.00  0.00    -0.011 C 
ATOM     10  C   UNL     1       4.390 111.661 181.711  1.00  0.00     0.008 C 
BRANCH   9  11
ATOM     11  C   UNL     1       4.504 109.184 182.487  1.00  0.00    -0.002 C 
ATOM     12  C   UNL     1       2.973 109.411 182.738  1.00  0.00     0.005 C 
ATOM     13  C   UNL     1       4.544 108.102 181.334  1.00  0.00    -0.026 C 
ATOM     14  C   UNL     1       2.191 108.574 181.726  1.00  0.00     0.005 C 
ATOM     15  C   UNL     1       3.203 108.344 180.626  1.00  0.00    -0.001 C 
ATOM     16  C   UNL     1       5.642 108.215 180.246  1.00  0.00     0.007 C 
ATOM     17  C   UNL     1       4.647 106.705 182.020  1.00  0.00     0.012 C 
ATOM     18  C   UNL     1       2.844 107.379 179.468  1.00  0.00     0.000 C 
ATOM     19  C   UNL     1       5.410 107.236 179.074  1.00  0.00     0.005 C 
ATOM     20  C   UNL     1       3.998 107.361 178.411  1.00  0.00     0.003 C 
ATOM     21  C   UNL     1       2.312 105.973 179.879  1.00  0.00     0.031 C 
ATOM     22  C   UNL     1       3.749 106.255 177.321  1.00  0.00    -0.008 C 
ATOM     23  C   UNL     1       3.015 104.810 179.220  1.00  0.00    -0.027 C 
ATOM     24  C   UNL     1       3.666 104.900 178.040  1.00  0.00    -0.065 C 
ATOM     25  C   UNL     1       4.860 106.324 176.208  1.00  0.00     0.014 C 
ATOM     26  C   UNL     1       2.391 106.498 176.606  1.00  0.00     0.016 C 
ATOM     27  C   UNL     1       4.404 103.657 177.571  1.00  0.00     0.063 C 
ATOM     28  C   UNL     1       5.902 105.207 176.285  1.00  0.00     0.033 C 
ATOM     29  C   UNL     1       5.212 103.842 176.284  1.00  0.00     0.118 C 
BRANCH  29  30
ATOM     30  O   UNL     1       4.367 103.703 175.170  1.00  0.00    -0.393 OA
ATOM     31  H   UNL     1       3.443 103.866 175.491  1.00  0.00     0.210 HD
ENDBRANCH  29  30
ENDBRANCH   9  11
ENDBRANCH   1   9
TORSDOF 7
ENDMDL
MODEL 3
REMARK VINA RESULT:    -5.214      1.216      2.094
REMARK INTER + INTRA:          -9.079
REMARK INTER:                  -7.725
REMARK INTRA:                  -1.354
REMARK UNBOUND:                -1.884
REMARK SMILES CC[C@H](CC[C@H](C)[C@H]1CC[C@@H]2[C@@H]3CC=C4C[C@@H](O)CC[C@]4(C)[C@@H]3CC[C@]21C)C(C)C
REMARK SMILES IDX 5 1 4 2 3 3 2 4 1 5 28 6 29 7 30 8 6 9 7 10 8 11 9 12 26 13
REMARK SMILES IDX 10 14 11 15 25 16 27 17 12 18 24 19 23 20 13 21 21 22 14 23
REMARK SMILES IDX 15 24 20 25 22 26 16 27 19 28 17 29 18 30
REMARK H PARENT 18 31
REMARK Flexibility Score: inf
ROOT
ATOM      1  C   UNL     1       4.078 105.903 179.992  1.00  0.00     0.004 C 
ENDROOT
BRANCH   1   2
ATOM      2  C   UNL     1       3.123 106.506 178.937  1.00  0.00     0.004 C 
BRANCH   2   3
ATOM      3  C   UNL     1       1.741 105.800 178.793  1.00  0.00    -0.009 C 
BRANCH   3   4
ATOM      4  C   UNL     1       0.588 106.778 179.140  1.00  0.00     0.000 C 
ATOM      5  C   UNL     1       1.037 108.087 179.793  1.00  0.00     0.004 C 
ENDBRANCH   3   4
BRANCH   3   6
ATOM      6  C   UNL     1       1.479 105.048 177.433  1.00  0.00    -0.014 C 
ATOM      7  C   UNL     1       0.205 105.478 176.685  1.00  0.00     0.007 C 
ATOM      8  C   UNL     1       2.684 105.117 176.482  1.00  0.00     0.007 C 
ENDBRANCH   3   6
ENDBRANCH   2   3
ENDBRANCH   1   2
BRANCH   1   9
ATOM      9  C   UNL     1       5.075 106.870 180.729  1.00  0.00    -0.011 C 
ATOM     10  C   UNL     1       6.463 106.189 180.851  1.00  0.00     0.008 C 
BRANCH   9  11
ATOM     11  C   UNL     1       4.572 107.449 182.111  1.00  0.00    -0.002 C 
ATOM     12  C   UNL     1       5.500 107.059 183.313  1.00  0.00     0.005 C 
ATOM     13  C   UNL     1       4.422 109.018 182.240  1.00  0.00    -0.026 C 
ATOM     14  C   UNL     1       5.924 108.341 184.029  1.00  0.00     0.005 C 
ATOM     15  C   UNL     1       5.718 109.401 182.970  1.00  0.00    -0.001 C 
ATOM     16  C   UNL     1       4.380 109.869 180.946  1.00  0.00     0.007 C 
ATOM     17  C   UNL     1       3.132 109.289 183.072  1.00  0.00     0.012 C 
ATOM     18  C   UNL     1       5.883 110.891 183.360  1.00  0.00     0.000 C 
ATOM     19  C   UNL     1       4.466 111.384 181.236  1.00  0.00     0.005 C 
ATOM     20  C   UNL     1       5.706 111.797 182.096  1.00  0.00     0.003 C 
ATOM     21  C   UNL     1       5.095 111.367 184.619  1.00  0.00     0.031 C 
ATOM     22  C   UNL     1       5.682 113.319 182.489  1.00  0.00    -0.008 C 
ATOM     23  C   UNL     1       4.260 112.608 184.415  1.00  0.00    -0.027 C 
ATOM     24  C   UNL     1       4.511 113.532 183.462  1.00  0.00    -0.065 C 
ATOM     25  C   UNL     1       5.615 114.217 181.198  1.00  0.00     0.014 C 
ATOM     26  C   UNL     1       6.991 113.706 183.231  1.00  0.00     0.016 C 
ATOM     27  C   UNL     1       3.511 114.668 183.330  1.00  0.00     0.063 C 
ATOM     28  C   UNL     1       4.247 114.848 180.937  1.00  0.00     0.033 C 
ATOM     29  C   UNL     1       3.782 115.627 182.169  1.00  0.00     0.118 C 
BRANCH  29  30
ATOM     30  O   UNL     1       4.740 116.580 182.556  1.00  0.00    -0.393 OA
ATOM     31  H   UNL     1       4.695 116.645 183.545  1.00  0.00     0.210 HD
ENDBRANCH  29  30
ENDBRANCH   9  11
ENDBRANCH   1   9
TORSDOF 7
ENDMDL
MODEL 4
REMARK VINA RESULT:    -5.147      3.697      8.275
REMARK INTER + INTRA:          -8.987
REMARK INTER:                  -6.902
REMARK INTRA:                  -2.086
REMARK UNBOUND:                -1.884
REMARK SMILES CC[C@H](CC[C@H](C)[C@H]1CC[C@@H]2[C@@H]3CC=C4C[C@@H](O)CC[C@]4(C)[C@@H]3CC[C@]21C)C(C)C
REMARK SMILES IDX 5 1 4 2 3 3 2 4 1 5 28 6 29 7 30 8 6 9 7 10 8 11 9 12 26 13
REMARK SMILES IDX 10 14 11 15 25 16 27 17 12 18 24 19 23 20 13 21 21 22 14 23
REMARK SMILES IDX 15 24 20 25 22 26 16 27 19 28 17 29 18 30
REMARK H PARENT 18 31
REMARK Flexibility Score: inf
ROOT
ATOM      1  C   UNL     1       6.098 110.492 183.741  1.00  0.00     0.004 C 
ENDROOT
BRANCH   1   2
ATOM      2  C   UNL     1       6.605 109.172 184.365  1.00  0.00     0.004 C 
BRANCH   2   3
ATOM      3  C   UNL     1       7.558 108.323 183.471  1.00  0.00    -0.009 C 
BRANCH   3   4
ATOM      4  C   UNL     1       8.759 109.177 182.987  1.00  0.00     0.000 C 
ATOM      5  C   UNL     1       8.913 109.257 181.467  1.00  0.00     0.004 C 
ENDBRANCH   3   4
BRANCH   3   6
ATOM      6  C   UNL     1       8.026 106.940 184.065  1.00  0.00    -0.014 C 
ATOM      7  C   UNL     1       7.696 105.713 183.197  1.00  0.00     0.007 C 
ATOM      8  C   UNL     1       9.520 106.930 184.422  1.00  0.00     0.007 C 
ENDBRANCH   3   6
ENDBRANCH   2   3
ENDBRANCH   1   2
BRANCH   1   9
ATOM      9  C   UNL     1       4.839 110.432 182.801  1.00  0.00    -0.011 C 
ATOM     10  C   UNL     1       3.939 111.669 183.061  1.00  0.00     0.008 C 
BRANCH   9  11
ATOM     11  C   UNL     1       4.019 109.081 182.838  1.00  0.00    -0.002 C 
ATOM     12  C   UNL     1       2.469 109.306 182.888  1.00  0.00     0.005 C 
ATOM     13  C   UNL     1       4.219 108.068 181.641  1.00  0.00    -0.026 C 
ATOM     14  C   UNL     1       1.834 108.536 181.731  1.00  0.00     0.005 C 
ATOM     15  C   UNL     1       2.988 108.361 180.769  1.00  0.00    -0.001 C 
ATOM     16  C   UNL     1       5.456 108.236 180.723  1.00  0.00     0.007 C 
ATOM     17  C   UNL     1       4.226 106.633 182.250  1.00  0.00     0.012 C 
ATOM     18  C   UNL     1       2.793 107.469 179.518  1.00  0.00     0.000 C 
ATOM     19  C   UNL     1       5.389 107.328 179.474  1.00  0.00     0.005 C 
ATOM     20  C   UNL     1       4.083 107.503 178.632  1.00  0.00     0.003 C 
ATOM     21  C   UNL     1       2.210 106.046 179.769  1.00  0.00     0.031 C 
ATOM     22  C   UNL     1       3.987 106.464 177.454  1.00  0.00    -0.008 C 
ATOM     23  C   UNL     1       2.997 104.917 179.146  1.00  0.00    -0.027 C 
ATOM     24  C   UNL     1       3.805 105.070 178.074  1.00  0.00    -0.065 C 
ATOM     25  C   UNL     1       5.241 106.589 176.511  1.00  0.00     0.014 C 
ATOM     26  C   UNL     1       2.740 106.759 176.574  1.00  0.00     0.016 C 
ATOM     27  C   UNL     1       4.600 103.851 177.639  1.00  0.00     0.063 C 
ATOM     28  C   UNL     1       6.262 105.461 176.665  1.00  0.00     0.033 C 
ATOM     29  C   UNL     1       5.579 104.103 176.490  1.00  0.00     0.118 C 
BRANCH  29  30
ATOM     30  O   UNL     1       4.897 104.037 175.263  1.00  0.00    -0.393 OA
ATOM     31  H   UNL     1       3.927 104.036 175.476  1.00  0.00     0.210 HD
ENDBRANCH  29  30
ENDBRANCH   9  11
ENDBRANCH   1   9
TORSDOF 7
ENDMDL
MODEL 5
REMARK VINA RESULT:    -5.144      3.314      8.421
REMARK INTER + INTRA:          -8.983
REMARK INTER:                  -7.094
REMARK INTRA:                  -1.890
REMARK UNBOUND:                -1.884
REMARK SMILES CC[C@H](CC[C@H](C)[C@H]1CC[C@@H]2[C@@H]3CC=C4C[C@@H](O)CC[C@]4(C)[C@@H]3CC[C@]21C)C(C)C
REMARK SMILES IDX 5 1 4 2 3 3 2 4 1 5 28 6 29 7 30 8 6 9 7 10 8 11 9 12 26 13
REMARK SMILES IDX 10 14 11 15 25 16 27 17 12 18 24 19 23 20 13 21 21 22 14 23
REMARK SMILES IDX 15 24 20 25 22 26 16 27 19 28 17 29 18 30
REMARK H PARENT 18 31
REMARK Flexibility Score: inf
ROOT
ATOM      1  C   UNL     1       2.879 111.241 183.825  1.00  0.00     0.004 C 
ENDROOT
BRANCH   1   2
ATOM      2  C   UNL     1       4.223 111.999 183.901  1.00  0.00     0.004 C 
BRANCH   2   3
ATOM      3  C   UNL     1       4.369 113.217 182.940  1.00  0.00    -0.009 C 
BRANCH   3   4
ATOM      4  C   UNL     1       4.584 114.526 183.745  1.00  0.00     0.000 C 
ATOM      5  C   UNL     1       4.787 115.776 182.887  1.00  0.00     0.004 C 
ENDBRANCH   3   4
BRANCH   3   6
ATOM      6  C   UNL     1       5.420 113.067 181.776  1.00  0.00    -0.014 C 
ATOM      7  C   UNL     1       6.606 112.136 182.083  1.00  0.00     0.007 C 
ATOM      8  C   UNL     1       4.770 112.651 180.447  1.00  0.00     0.007 C 
ENDBRANCH   3   6
ENDBRANCH   2   3
ENDBRANCH   1   2
BRANCH   1   9
ATOM      9  C   UNL     1       2.791 109.980 182.889  1.00  0.00    -0.011 C 
ATOM     10  C   UNL     1       1.853 108.924 183.529  1.00  0.00     0.008 C 
BRANCH   9  11
ATOM     11  C   UNL     1       4.174 109.358 182.445  1.00  0.00    -0.002 C 
ATOM     12  C   UNL     1       4.711 108.278 183.447  1.00  0.00     0.005 C 
ATOM     13  C   UNL     1       4.239 108.637 181.039  1.00  0.00    -0.026 C 
ATOM     14  C   UNL     1       4.979 106.991 182.668  1.00  0.00     0.005 C 
ATOM     15  C   UNL     1       4.120 107.158 181.435  1.00  0.00    -0.001 C 
ATOM     16  C   UNL     1       3.110 108.909 180.012  1.00  0.00     0.007 C 
ATOM     17  C   UNL     1       5.612 109.005 180.397  1.00  0.00     0.012 C 
ATOM     18  C   UNL     1       4.240 106.119 180.292  1.00  0.00     0.000 C 
ATOM     19  C   UNL     1       3.186 107.964 178.792  1.00  0.00     0.005 C 
ATOM     20  C   UNL     1       3.204 106.445 179.164  1.00  0.00     0.003 C 
ATOM     21  C   UNL     1       5.681 105.813 179.785  1.00  0.00     0.031 C 
ATOM     22  C   UNL     1       3.425 105.523 177.909  1.00  0.00    -0.008 C 
ATOM     23  C   UNL     1       5.864 105.909 178.289  1.00  0.00    -0.027 C 
ATOM     24  C   UNL     1       4.856 105.763 177.401  1.00  0.00    -0.065 C 
ATOM     25  C   UNL     1       2.309 105.787 176.832  1.00  0.00     0.014 C 
ATOM     26  C   UNL     1       3.309 104.026 178.311  1.00  0.00     0.016 C 
ATOM     27  C   UNL     1       5.196 105.990 175.938  1.00  0.00     0.063 C 
ATOM     28  C   UNL     1       2.779 106.588 175.617  1.00  0.00     0.033 C 
ATOM     29  C   UNL     1       4.001 105.918 174.985  1.00  0.00     0.118 C 
BRANCH  29  30
ATOM     30  O   UNL     1       3.731 104.576 174.664  1.00  0.00    -0.393 OA
ATOM     31  H   UNL     1       2.849 104.359 175.063  1.00  0.00     0.210 HD
ENDBRANCH  29  30
ENDBRANCH   9  11
ENDBRANCH   1   9
TORSDOF 7
ENDMDL
MODEL 6
REMARK VINA RESULT:    -5.088      3.704      8.438
REMARK INTER + INTRA:          -8.905
REMARK INTER:                  -6.890
REMARK INTRA:                  -2.015
REMARK UNBOUND:                -1.884
REMARK SMILES CC[C@H](CC[C@H](C)[C@H]1CC[C@@H]2[C@@H]3CC=C4C[C@@H](O)CC[C@]4(C)[C@@H]3CC[C@]21C)C(C)C
REMARK SMILES IDX 5 1 4 2 3 3 2 4 1 5 28 6 29 7 30 8 6 9 7 10 8 11 9 12 26 13
REMARK SMILES IDX 10 14 11 15 25 16 27 17 12 18 24 19 23 20 13 21 21 22 14 23
REMARK SMILES IDX 15 24 20 25 22 26 16 27 19 28 17 29 18 30
REMARK H PARENT 18 31
REMARK Flexibility Score: inf
ROOT
ATOM      1  C   UNL     1       3.904 110.123 183.231  1.00  0.00     0.004 C 
ENDROOT
BRANCH   1   2
ATOM      2  C   UNL     1       4.606 111.410 182.741  1.00  0.00     0.004 C 
BRANCH   2   3
ATOM      3  C   UNL     1       6.010 111.691 183.356  1.00  0.00    -0.009 C 
BRANCH   3   4
ATOM      4  C   UNL     1       5.879 112.521 184.661  1.00  0.00     0.000 C 
ATOM      5  C   UNL     1       5.487 113.985 184.449  1.00  0.00     0.004 C 
ENDBRANCH   3   4
BRANCH   3   6
ATOM      6  C   UNL     1       6.951 110.442 183.551  1.00  0.00    -0.014 C 
ATOM      7  C   UNL     1       8.368 110.596 182.971  1.00  0.00     0.007 C 
ATOM      8  C   UNL     1       7.041 109.998 185.019  1.00  0.00     0.007 C 
ENDBRANCH   3   6
ENDBRANCH   2   3
ENDBRANCH   1   2
BRANCH   1   9
ATOM      9  C   UNL     1       2.794 109.490 182.316  1.00  0.00    -0.011 C 
ATOM     10  C   UNL     1       1.714 108.816 183.201  1.00  0.00     0.008 C 
BRANCH   9  11
ATOM     11  C   UNL     1       3.313 108.528 181.174  1.00  0.00    -0.002 C 
ATOM     12  C   UNL     1       3.837 109.299 179.913  1.00  0.00     0.005 C 
ATOM     13  C   UNL     1       4.490 107.533 181.528  1.00  0.00    -0.026 C 
ATOM     14  C   UNL     1       5.263 108.833 179.625  1.00  0.00     0.005 C 
ATOM     15  C   UNL     1       5.710 108.269 180.955  1.00  0.00    -0.001 C 
ATOM     16  C   UNL     1       4.805 107.257 183.020  1.00  0.00     0.007 C 
ATOM     17  C   UNL     1       4.180 106.183 180.813  1.00  0.00     0.012 C 
ATOM     18  C   UNL     1       7.070 107.532 181.038  1.00  0.00     0.000 C 
ATOM     19  C   UNL     1       6.115 106.459 183.206  1.00  0.00     0.005 C 
ATOM     20  C   UNL     1       7.359 107.111 182.518  1.00  0.00     0.003 C 
ATOM     21  C   UNL     1       7.314 106.412 179.981  1.00  0.00     0.031 C 
ATOM     22  C   UNL     1       8.638 106.200 182.607  1.00  0.00    -0.008 C 
ATOM     23  C   UNL     1       7.761 105.087 180.550  1.00  0.00    -0.027 C 
ATOM     24  C   UNL     1       8.387 104.956 181.741  1.00  0.00    -0.065 C 
ATOM     25  C   UNL     1       8.977 105.878 184.110  1.00  0.00     0.014 C 
ATOM     26  C   UNL     1       9.872 106.943 182.023  1.00  0.00     0.016 C 
ATOM     27  C   UNL     1       8.676 103.539 182.208  1.00  0.00     0.063 C 
ATOM     28  C   UNL     1       8.630 104.454 184.545  1.00  0.00     0.033 C 
ATOM     29  C   UNL     1       9.288 103.440 183.607  1.00  0.00     0.118 C 
BRANCH  29  30
ATOM     30  O   UNL     1      10.676 103.648 183.533  1.00  0.00    -0.393 OA
ATOM     31  H   UNL     1      10.911 103.662 182.569  1.00  0.00     0.210 HD
ENDBRANCH  29  30
ENDBRANCH   9  11
ENDBRANCH   1   9
TORSDOF 7
ENDMDL
MODEL 7
REMARK VINA RESULT:    -4.965      2.813      6.856
REMARK INTER + INTRA:          -8.736
REMARK INTER:                  -6.722
REMARK INTRA:                  -2.013
REMARK UNBOUND:                -1.884
REMARK SMILES CC[C@H](CC[C@H](C)[C@H]1CC[C@@H]2[C@@H]3CC=C4C[C@@H](O)CC[C@]4(C)[C@@H]3CC[C@]21C)C(C)C
REMARK SMILES IDX 5 1 4 2 3 3 2 4 1 5 28 6 29 7 30 8 6 9 7 10 8 11 9 12 26 13
REMARK SMILES IDX 10 14 11 15 25 16 27 17 12 18 24 19 23 20 13 21 21 22 14 23
REMARK SMILES IDX 15 24 20 25 22 26 16 27 19 28 17 29 18 30
REMARK H PARENT 18 31
REMARK Flexibility Score: inf
ROOT
ATOM      1  C   UNL     1       7.574 113.058 182.430  1.00  0.00     0.004 C 
ENDROOT
BRANCH   1   2
ATOM      2  C   UNL     1       6.630 113.702 183.470  1.00  0.00     0.004 C 
BRANCH   2   3
ATOM      3  C   UNL     1       5.119 113.724 183.090  1.00  0.00    -0.009 C 
BRANCH   3   4
ATOM      4  C   UNL     1       4.878 112.959 181.762  1.00  0.00     0.000 C 
ATOM      5  C   UNL     1       4.497 113.847 180.575  1.00  0.00     0.004 C 
ENDBRANCH   3   4
BRANCH   3   6
ATOM      6  C   UNL     1       4.109 113.276 184.214  1.00  0.00    -0.014 C 
ATOM      7  C   UNL     1       3.109 114.357 184.660  1.00  0.00     0.007 C 
ATOM      8  C   UNL     1       3.349 111.993 183.843  1.00  0.00     0.007 C 
ENDBRANCH   3   6
ENDBRANCH   2   3
ENDBRANCH   1   2
BRANCH   1   9
ATOM      9  C   UNL     1       8.889 112.369 182.947  1.00  0.00    -0.011 C 
ATOM     10  C   UNL     1       9.980 112.440 181.847  1.00  0.00     0.008 C 
BRANCH   9  11
ATOM     11  C   UNL     1       8.717 110.906 183.522  1.00  0.00    -0.002 C 
ATOM     12  C   UNL     1       8.244 110.886 185.017  1.00  0.00     0.005 C 
ATOM     13  C   UNL     1       7.700 109.943 182.788  1.00  0.00    -0.026 C 
ATOM     14  C   UNL     1       6.980 110.033 185.109  1.00  0.00     0.005 C 
ATOM     15  C   UNL     1       6.460 110.046 183.689  1.00  0.00    -0.001 C 
ATOM     16  C   UNL     1       7.234 110.307 181.356  1.00  0.00     0.007 C 
ATOM     17  C   UNL     1       8.345 108.523 182.771  1.00  0.00     0.012 C 
ATOM     18  C   UNL     1       5.257 109.141 183.323  1.00  0.00     0.000 C 
ATOM     19  C   UNL     1       6.076 109.407 180.869  1.00  0.00     0.005 C 
ATOM     20  C   UNL     1       4.844 109.380 181.832  1.00  0.00     0.003 C 
ATOM     21  C   UNL     1       5.369 107.643 183.737  1.00  0.00     0.031 C 
ATOM     22  C   UNL     1       3.750 108.346 181.376  1.00  0.00    -0.008 C 
ATOM     23  C   UNL     1       5.092 106.654 182.630  1.00  0.00    -0.027 C 
ATOM     24  C   UNL     1       4.340 106.937 181.543  1.00  0.00    -0.065 C 
ATOM     25  C   UNL     1       3.267 108.670 179.913  1.00  0.00     0.014 C 
ATOM     26  C   UNL     1       2.496 108.448 182.289  1.00  0.00     0.016 C 
ATOM     27  C   UNL     1       4.248 105.860 180.477  1.00  0.00     0.063 C 
ATOM     28  C   UNL     1       3.801 107.714 178.845  1.00  0.00     0.033 C 
ATOM     29  C   UNL     1       3.473 106.268 179.221  1.00  0.00     0.118 C 
BRANCH  29  30
ATOM     30  O   UNL     1       2.095 106.102 179.440  1.00  0.00    -0.393 OA
ATOM     31  H   UNL     1       1.999 105.398 180.133  1.00  0.00     0.210 HD
ENDBRANCH  29  30
ENDBRANCH   9  11
ENDBRANCH   1   9
TORSDOF 7
ENDMDL
MODEL 8
REMARK VINA RESULT:    -4.960      3.413      8.847
REMARK INTER + INTRA:          -8.729
REMARK INTER:                  -7.476
REMARK INTRA:                  -1.253
REMARK UNBOUND:                -1.884
REMARK SMILES CC[C@H](CC[C@H](C)[C@H]1CC[C@@H]2[C@@H]3CC=C4C[C@@H](O)CC[C@]4(C)[C@@H]3CC[C@]21C)C(C)C
REMARK SMILES IDX 5 1 4 2 3 3 2 4 1 5 28 6 29 7 30 8 6 9 7 10 8 11 9 12 26 13
REMARK SMILES IDX 10 14 11 15 25 16 27 17 12 18 24 19 23 20 13 21 21 22 14 23
REMARK SMILES IDX 15 24 20 25 22 26 16 27 19 28 17 29 18 30
REMARK H PARENT 18 31
REMARK Flexibility Score: inf
ROOT
ATOM      1  C   UNL     1       5.190 110.981 182.466  1.00  0.00     0.004 C 
ENDROOT
BRANCH   1   2
ATOM      2  C   UNL     1       5.515 110.951 183.976  1.00  0.00     0.004 C 
BRANCH   2   3
ATOM      3  C   UNL     1       5.240 112.272 184.754  1.00  0.00    -0.009 C 
BRANCH   3   4
ATOM      4  C   UNL     1       6.571 112.980 185.119  1.00  0.00     0.000 C 
ATOM      5  C   UNL     1       7.825 112.129 184.908  1.00  0.00     0.004 C 
ENDBRANCH   3   4
BRANCH   3   6
ATOM      6  C   UNL     1       4.209 113.268 184.099  1.00  0.00    -0.014 C 
ATOM      7  C   UNL     1       2.821 113.300 184.762  1.00  0.00     0.007 C 
ATOM      8  C   UNL     1       4.761 114.698 183.992  1.00  0.00     0.007 C 
ENDBRANCH   3   6
ENDBRANCH   2   3
ENDBRANCH   1   2
BRANCH   1   9
ATOM      9  C   UNL     1       4.172 109.922 181.904  1.00  0.00    -0.011 C 
ATOM     10  C   UNL     1       2.952 109.821 182.856  1.00  0.00     0.008 C 
BRANCH   9  11
ATOM     11  C   UNL     1       4.779 108.503 181.560  1.00  0.00    -0.002 C 
ATOM     12  C   UNL     1       4.304 107.379 182.544  1.00  0.00     0.005 C 
ATOM     13  C   UNL     1       4.484 107.905 180.127  1.00  0.00    -0.026 C 
ATOM     14  C   UNL     1       3.692 106.247 181.719  1.00  0.00     0.005 C 
ATOM     15  C   UNL     1       3.331 106.933 180.420  1.00  0.00    -0.001 C 
ATOM     16  C   UNL     1       3.980 108.859 179.013  1.00  0.00     0.007 C 
ATOM     17  C   UNL     1       5.789 107.202 179.645  1.00  0.00     0.012 C 
ATOM     18  C   UNL     1       2.826 106.074 179.234  1.00  0.00     0.000 C 
ATOM     19  C   UNL     1       3.518 108.096 177.752  1.00  0.00     0.005 C 
ATOM     20  C   UNL     1       2.438 106.999 178.032  1.00  0.00     0.003 C 
ATOM     21  C   UNL     1       3.700 104.841 178.853  1.00  0.00     0.031 C 
ATOM     22  C   UNL     1       2.100 106.151 176.752  1.00  0.00    -0.008 C 
ATOM     23  C   UNL     1       4.064 104.747 177.390  1.00  0.00    -0.027 C 
ATOM     24  C   UNL     1       3.343 105.319 176.401  1.00  0.00    -0.065 C 
ATOM     25  C   UNL     1       1.606 107.089 175.589  1.00  0.00     0.014 C 
ATOM     26  C   UNL     1       0.936 105.164 177.050  1.00  0.00     0.016 C 
ATOM     27  C   UNL     1       3.907 105.210 174.994  1.00  0.00     0.063 C 
ATOM     28  C   UNL     1       2.631 107.309 174.476  1.00  0.00     0.033 C 
ATOM     29  C   UNL     1       3.110 105.964 173.927  1.00  0.00     0.118 C 
BRANCH  29  30
ATOM     30  O   UNL     1       2.026 105.177 173.501  1.00  0.00    -0.393 OA
ATOM     31  H   UNL     1       2.045 105.178 172.509  1.00  0.00     0.210 HD
ENDBRANCH  29  30
ENDBRANCH   9  11
ENDBRANCH   1   9
TORSDOF 7
ENDMDL
MODEL 9
REMARK VINA RESULT:    -4.922      3.576      6.291
REMARK INTER + INTRA:          -8.676
REMARK INTER:                  -7.665
REMARK INTRA:                  -1.011
REMARK UNBOUND:                -1.884
REMARK SMILES CC[C@H](CC[C@H](C)[C@H]1CC[C@@H]2[C@@H]3CC=C4C[C@@H](O)CC[C@]4(C)[C@@H]3CC[C@]21C)C(C)C
REMARK SMILES IDX 5 1 4 2 3 3 2 4 1 5 28 6 29 7 30 8 6 9 7 10 8 11 9 12 26 13
REMARK SMILES IDX 10 14 11 15 25 16 27 17 12 18 24 19 23 20 13 21 21 22 14 23
REMARK SMILES IDX 15 24 20 25 22 26 16 27 19 28 17 29 18 30
REMARK H PARENT 18 31
REMARK Flexibility Score: inf
ROOT
ATOM      1  C   UNL     1       4.024 105.160 175.437  1.00  0.00     0.004 C 
ENDROOT
BRANCH   1   2
ATOM      2  C   UNL     1       5.084 104.530 174.506  1.00  0.00     0.004 C 
BRANCH   2   3
ATOM      3  C   UNL     1       4.835 103.046 174.103  1.00  0.00    -0.009 C 
BRANCH   3   4
ATOM      4  C   UNL     1       4.924 102.876 172.563  1.00  0.00     0.000 C 
ATOM      5  C   UNL     1       5.412 104.116 171.811  1.00  0.00     0.004 C 
ENDBRANCH   3   4
BRANCH   3   6
ATOM      6  C   UNL     1       5.691 101.962 174.861  1.00  0.00    -0.014 C 
ATOM      7  C   UNL     1       5.104 100.539 174.843  1.00  0.00     0.007 C 
ATOM      8  C   UNL     1       7.149 101.923 174.379  1.00  0.00     0.007 C 
ENDBRANCH   3   6
ENDBRANCH   2   3
ENDBRANCH   1   2
BRANCH   1   9
ATOM      9  C   UNL     1       4.467 105.592 176.882  1.00  0.00    -0.011 C 
ATOM     10  C   UNL     1       5.367 104.490 177.500  1.00  0.00     0.008 C 
BRANCH   9  11
ATOM     11  C   UNL     1       3.301 106.024 177.858  1.00  0.00    -0.002 C 
ATOM     12  C   UNL     1       2.718 104.827 178.685  1.00  0.00     0.005 C 
ATOM     13  C   UNL     1       3.624 107.120 178.951  1.00  0.00    -0.026 C 
ATOM     14  C   UNL     1       2.790 105.187 180.168  1.00  0.00     0.005 C 
ATOM     15  C   UNL     1       3.855 106.260 180.203  1.00  0.00    -0.001 C 
ATOM     16  C   UNL     1       4.894 107.991 178.777  1.00  0.00     0.007 C 
ATOM     17  C   UNL     1       2.377 108.050 179.052  1.00  0.00     0.012 C 
ATOM     18  C   UNL     1       4.113 107.017 181.529  1.00  0.00     0.000 C 
ATOM     19  C   UNL     1       5.198 108.843 180.029  1.00  0.00     0.005 C 
ATOM     20  C   UNL     1       5.307 108.015 181.351  1.00  0.00     0.003 C 
ATOM     21  C   UNL     1       2.861 107.618 182.237  1.00  0.00     0.031 C 
ATOM     22  C   UNL     1       5.473 108.929 182.620  1.00  0.00    -0.008 C 
ATOM     23  C   UNL     1       2.980 109.075 182.612  1.00  0.00    -0.027 C 
ATOM     24  C   UNL     1       4.159 109.703 182.813  1.00  0.00    -0.065 C 
ATOM     25  C   UNL     1       6.743 109.848 182.469  1.00  0.00     0.014 C 
ATOM     26  C   UNL     1       5.703 108.060 183.887  1.00  0.00     0.016 C 
ATOM     27  C   UNL     1       4.101 111.196 183.085  1.00  0.00     0.063 C 
ATOM     28  C   UNL     1       6.430 111.312 182.157  1.00  0.00     0.033 C 
ATOM     29  C   UNL     1       5.466 111.879 183.200  1.00  0.00     0.118 C 
BRANCH  29  30
ATOM     30  O   UNL     1       5.972 111.711 184.501  1.00  0.00    -0.393 OA
ATOM     31  H   UNL     1       6.768 112.298 184.575  1.00  0.00     0.210 HD
ENDBRANCH  29  30
ENDBRANCH   9  11
ENDBRANCH   1   9
TORSDOF 7
ENDMDL
