MODEL 1
REMARK VINA RESULT:    -4.541      0.000      0.000
REMARK INTER + INTRA:          -8.865
REMARK INTER:                  -6.930
REMARK INTRA:                  -1.935
REMARK UNBOUND:                -1.935
REMARK SMILES CC(=O)CCC=C(C)CCC=C(C)CCC=C(C)C
REMARK SMILES IDX 10 1 11 2 12 3 13 4 14 5 15 6 16 7 18 8 17 9 19 10 9 11 7 12
REMARK SMILES IDX 6 13 8 14 5 15 4 16 2 17 3 18 1 19
REMARK H PARENT
REMARK Flexibility Score: inf
ROOT
ATOM      1  C   UNL     1      18.001  -8.976  12.999  1.00  0.00     0.032 C 
ENDROOT
BRANCH   1   2
ATOM      2  C   UNL     1      17.597  -7.974  14.056  1.00  0.00    -0.028 C 
ATOM      3  C   UNL     1      17.744  -6.633  13.946  1.00  0.00    -0.077 C 
ATOM      4  C   UNL     1      18.286  -5.988  12.692  1.00  0.00     0.039 C 
BRANCH   3   5
ATOM      5  C   UNL     1      17.355  -5.753  15.116  1.00  0.00     0.034 C 
BRANCH   5   6
ATOM      6  C   UNL     1      16.990  -6.579  16.358  1.00  0.00     0.032 C 
BRANCH   6   7
ATOM      7  C   UNL     1      17.050  -5.751  17.619  1.00  0.00    -0.028 C 
ATOM      8  C   UNL     1      16.227  -4.263  19.392  1.00  0.00     0.039 C 
ATOM      9  C   UNL     1      16.033  -4.995  18.090  1.00  0.00    -0.080 C 
ATOM     10  C   UNL     1      14.729  -4.851  17.343  1.00  0.00     0.039 C 
ENDBRANCH   6   7
ENDBRANCH   5   6
ENDBRANCH   3   5
ENDBRANCH   1   2
BRANCH   1  11
ATOM     11  C   UNL     1      16.956  -9.054  11.877  1.00  0.00     0.034 C 
BRANCH  11  12
ATOM     12  C   UNL     1      15.649  -9.663  12.356  1.00  0.00    -0.077 C 
ATOM     13  C   UNL     1      14.518  -8.939  12.522  1.00  0.00    -0.028 C 
ATOM     14  C   UNL     1      15.596 -11.143  12.631  1.00  0.00     0.039 C 
BRANCH  13  15
ATOM     15  C   UNL     1      14.413  -7.445  12.342  1.00  0.00     0.035 C 
BRANCH  15  16
ATOM     16  C   UNL     1      14.074  -6.764  13.676  1.00  0.00     0.079 C 
BRANCH  16  17
ATOM     17  C   UNL     1      13.785  -5.283  13.565  1.00  0.00     0.130 C 
ATOM     18  O   UNL     1      12.851  -4.826  14.205  1.00  0.00    -0.300 OA
ATOM     19  C   UNL     1      14.599  -4.351  12.710  1.00  0.00     0.087 C 
ENDBRANCH  16  17
ENDBRANCH  15  16
ENDBRANCH  13  15
ENDBRANCH  11  12
ENDBRANCH   1  11
TORSDOF 9
ENDMDL
MODEL 2
REMARK VINA RESULT:    -4.286      2.585      5.275
REMARK INTER + INTRA:          -8.477
REMARK INTER:                  -7.170
REMARK INTRA:                  -1.306
REMARK UNBOUND:                -1.935
REMARK SMILES CC(=O)CCC=C(C)CCC=C(C)CCC=C(C)C
REMARK SMILES IDX 10 1 11 2 12 3 13 4 14 5 15 6 16 7 18 8 17 9 19 10 9 11 7 12
REMARK SMILES IDX 6 13 8 14 5 15 4 16 2 17 3 18 1 19
REMARK H PARENT
REMARK Flexibility Score: inf
ROOT
ATOM      1  C   UNL     1      18.290  -7.329  13.206  1.00  0.00     0.032 C 
ENDROOT
BRANCH   1   2
ATOM      2  C   UNL     1      17.619  -8.625  12.813  1.00  0.00    -0.028 C 
ATOM      3  C   UNL     1      17.725  -9.788  13.495  1.00  0.00    -0.077 C 
ATOM      4  C   UNL     1      18.499  -9.889  14.788  1.00  0.00     0.039 C 
BRANCH   3   5
ATOM      5  C   UNL     1      17.049 -11.027  12.945  1.00  0.00     0.034 C 
BRANCH   5   6
ATOM      6  C   UNL     1      15.976 -10.680  11.903  1.00  0.00     0.032 C 
BRANCH   6   7
ATOM      7  C   UNL     1      14.608 -11.161  12.325  1.00  0.00    -0.028 C 
ATOM      8  C   UNL     1      12.249 -10.981  12.986  1.00  0.00     0.039 C 
ATOM      9  C   UNL     1      13.570 -10.350  12.629  1.00  0.00    -0.080 C 
ATOM     10  C   UNL     1      13.704  -8.846  12.642  1.00  0.00     0.039 C 
ENDBRANCH   6   7
ENDBRANCH   5   6
ENDBRANCH   3   5
ENDBRANCH   1   2
BRANCH   1  11
ATOM     11  C   UNL     1      18.774  -6.555  11.972  1.00  0.00     0.034 C 
BRANCH  11  12
ATOM     12  C   UNL     1      18.536  -5.061  12.107  1.00  0.00    -0.077 C 
ATOM     13  C   UNL     1      17.300  -4.510  12.105  1.00  0.00    -0.028 C 
ATOM     14  C   UNL     1      19.722  -4.149  12.283  1.00  0.00     0.039 C 
BRANCH  13  15
ATOM     15  C   UNL     1      16.015  -5.270  11.888  1.00  0.00     0.035 C 
BRANCH  15  16
ATOM     16  C   UNL     1      15.245  -5.415  13.209  1.00  0.00     0.079 C 
BRANCH  16  17
ATOM     17  C   UNL     1      14.019  -4.536  13.317  1.00  0.00     0.130 C 
ATOM     18  O   UNL     1      13.693  -3.875  12.342  1.00  0.00    -0.300 OA
ATOM     19  C   UNL     1      13.183  -4.445  14.563  1.00  0.00     0.087 C 
ENDBRANCH  16  17
ENDBRANCH  15  16
ENDBRANCH  13  15
ENDBRANCH  11  12
ENDBRANCH   1  11
TORSDOF 9
ENDMDL
MODEL 3
REMARK VINA RESULT:    -4.266      1.150      5.529
REMARK INTER + INTRA:          -8.445
REMARK INTER:                  -7.327
REMARK INTRA:                  -1.118
REMARK UNBOUND:                -1.935
REMARK SMILES CC(=O)CCC=C(C)CCC=C(C)CCC=C(C)C
REMARK SMILES IDX 10 1 11 2 12 3 13 4 14 5 15 6 16 7 18 8 17 9 19 10 9 11 7 12
REMARK SMILES IDX 6 13 8 14 5 15 4 16 2 17 3 18 1 19
REMARK H PARENT
REMARK Flexibility Score: inf
ROOT
ATOM      1  C   UNL     1      17.365  -6.087  15.678  1.00  0.00     0.032 C 
ENDROOT
BRANCH   1   2
ATOM      2  C   UNL     1      17.465  -7.255  14.724  1.00  0.00    -0.028 C 
ATOM      3  C   UNL     1      17.907  -7.175  13.448  1.00  0.00    -0.077 C 
ATOM      4  C   UNL     1      18.415  -5.881  12.857  1.00  0.00     0.039 C 
BRANCH   3   5
ATOM      5  C   UNL     1      17.891  -8.420  12.585  1.00  0.00     0.034 C 
BRANCH   5   6
ATOM      6  C   UNL     1      16.497  -9.062  12.532  1.00  0.00     0.032 C 
BRANCH   6   7
ATOM      7  C   UNL     1      16.575 -10.570  12.514  1.00  0.00    -0.028 C 
ATOM      8  C   UNL     1      15.742 -12.880  12.443  1.00  0.00     0.039 C 
ATOM      9  C   UNL     1      15.503 -11.394  12.516  1.00  0.00    -0.080 C 
ATOM     10  C   UNL     1      14.090 -10.871  12.610  1.00  0.00     0.039 C 
ENDBRANCH   6   7
ENDBRANCH   5   6
ENDBRANCH   3   5
ENDBRANCH   1   2
BRANCH   1  11
ATOM     11  C   UNL     1      16.691  -6.499  16.994  1.00  0.00     0.034 C 
BRANCH  11  12
ATOM     12  C   UNL     1      15.877  -5.366  17.596  1.00  0.00    -0.077 C 
ATOM     13  C   UNL     1      14.722  -4.919  17.050  1.00  0.00    -0.028 C 
ATOM     14  C   UNL     1      16.354  -4.728  18.875  1.00  0.00     0.039 C 
BRANCH  13  15
ATOM     15  C   UNL     1      14.134  -5.411  15.751  1.00  0.00     0.035 C 
BRANCH  15  16
ATOM     16  C   UNL     1      13.512  -4.247  14.966  1.00  0.00     0.079 C 
BRANCH  16  17
ATOM     17  C   UNL     1      13.619  -4.379  13.463  1.00  0.00     0.130 C 
ATOM     18  O   UNL     1      12.745  -3.875  12.774  1.00  0.00    -0.300 OA
ATOM     19  C   UNL     1      14.753  -5.093  12.782  1.00  0.00     0.087 C 
ENDBRANCH  16  17
ENDBRANCH  15  16
ENDBRANCH  13  15
ENDBRANCH  11  12
ENDBRANCH   1  11
TORSDOF 9
ENDMDL
MODEL 4
REMARK VINA RESULT:    -4.207      1.986      3.533
REMARK INTER + INTRA:          -8.356
REMARK INTER:                  -6.710
REMARK INTRA:                  -1.646
REMARK UNBOUND:                -1.935
REMARK SMILES CC(=O)CCC=C(C)CCC=C(C)CCC=C(C)C
REMARK SMILES IDX 10 1 11 2 12 3 13 4 14 5 15 6 16 7 18 8 17 9 19 10 9 11 7 12
REMARK SMILES IDX 6 13 8 14 5 15 4 16 2 17 3 18 1 19
REMARK H PARENT
REMARK Flexibility Score: inf
ROOT
ATOM      1  C   UNL     1      14.005  -7.228  13.012  1.00  0.00     0.032 C 
ENDROOT
BRANCH   1   2
ATOM      2  C   UNL     1      15.241  -6.923  13.826  1.00  0.00    -0.028 C 
ATOM      3  C   UNL     1      16.144  -5.961  13.528  1.00  0.00    -0.077 C 
ATOM      4  C   UNL     1      15.964  -5.031  12.351  1.00  0.00     0.039 C 
BRANCH   3   5
ATOM      5  C   UNL     1      17.374  -5.813  14.400  1.00  0.00     0.034 C 
BRANCH   5   6
ATOM      6  C   UNL     1      17.147  -6.373  15.812  1.00  0.00     0.032 C 
BRANCH   6   7
ATOM      7  C   UNL     1      16.871  -5.276  16.812  1.00  0.00    -0.028 C 
ATOM      8  C   UNL     1      16.280  -4.285  18.981  1.00  0.00     0.039 C 
ATOM      9  C   UNL     1      16.466  -5.482  18.085  1.00  0.00    -0.080 C 
ATOM     10  C   UNL     1      16.177  -6.864  18.620  1.00  0.00     0.039 C 
ENDBRANCH   6   7
ENDBRANCH   5   6
ENDBRANCH   3   5
ENDBRANCH   1   2
BRANCH   1  11
ATOM     11  C   UNL     1      14.313  -8.216  11.878  1.00  0.00     0.034 C 
BRANCH  11  12
ATOM     12  C   UNL     1      13.806  -9.614  12.188  1.00  0.00    -0.077 C 
ATOM     13  C   UNL     1      14.615 -10.698  12.222  1.00  0.00    -0.028 C 
ATOM     14  C   UNL     1      12.345  -9.804  12.503  1.00  0.00     0.039 C 
BRANCH  13  15
ATOM     15  C   UNL     1      16.085 -10.691  11.882  1.00  0.00     0.035 C 
BRANCH  15  16
ATOM     16  C   UNL     1      16.933 -10.794  13.158  1.00  0.00     0.079 C 
BRANCH  16  17
ATOM     17  C   UNL     1      17.869  -9.626  13.381  1.00  0.00     0.130 C 
ATOM     18  O   UNL     1      18.002  -8.811  12.481  1.00  0.00    -0.300 OA
ATOM     19  C   UNL     1      18.633  -9.421  14.660  1.00  0.00     0.087 C 
ENDBRANCH  16  17
ENDBRANCH  15  16
ENDBRANCH  13  15
ENDBRANCH  11  12
ENDBRANCH   1  11
TORSDOF 9
ENDMDL
MODEL 5
REMARK VINA RESULT:    -3.525      2.653      5.211
REMARK INTER + INTRA:          -7.315
REMARK INTER:                  -5.882
REMARK INTRA:                  -1.433
REMARK UNBOUND:                -1.935
REMARK SMILES CC(=O)CCC=C(C)CCC=C(C)CCC=C(C)C
REMARK SMILES IDX 10 1 11 2 12 3 13 4 14 5 15 6 16 7 18 8 17 9 19 10 9 11 7 12
REMARK SMILES IDX 6 13 8 14 5 15 4 16 2 17 3 18 1 19
REMARK H PARENT
REMARK Flexibility Score: inf
ROOT
ATOM      1  C   UNL     1      13.985  -8.267  12.836  1.00  0.00     0.032 C 
ENDROOT
BRANCH   1   2
ATOM      2  C   UNL     1      14.401  -6.983  12.155  1.00  0.00    -0.028 C 
ATOM      3  C   UNL     1      14.318  -5.753  12.710  1.00  0.00    -0.077 C 
ATOM      4  C   UNL     1      13.843  -5.545  14.130  1.00  0.00     0.039 C 
BRANCH   3   5
ATOM      5  C   UNL     1      14.710  -4.546  11.883  1.00  0.00     0.034 C 
BRANCH   5   6
ATOM      6  C   UNL     1      16.089  -4.001  12.282  1.00  0.00     0.032 C 
BRANCH   6   7
ATOM      7  C   UNL     1      17.200  -4.942  11.878  1.00  0.00    -0.028 C 
ATOM      8  C   UNL     1      18.899  -6.694  12.163  1.00  0.00     0.039 C 
ATOM      9  C   UNL     1      17.844  -5.776  12.725  1.00  0.00    -0.080 C 
ATOM     10  C   UNL     1      17.551  -5.799  14.206  1.00  0.00     0.039 C 
ENDBRANCH   6   7
ENDBRANCH   5   6
ENDBRANCH   3   5
ENDBRANCH   1   2
BRANCH   1  11
ATOM     11  C   UNL     1      14.300  -9.489  11.962  1.00  0.00     0.034 C 
BRANCH  11  12
ATOM     12  C   UNL     1      15.475 -10.287  12.501  1.00  0.00    -0.077 C 
ATOM     13  C   UNL     1      15.545 -11.636  12.426  1.00  0.00    -0.028 C 
ATOM     14  C   UNL     1      16.633  -9.547  13.120  1.00  0.00     0.039 C 
BRANCH  13  15
ATOM     15  C   UNL     1      14.455 -12.529  11.887  1.00  0.00     0.035 C 
BRANCH  15  16
ATOM     16  C   UNL     1      13.465 -12.904  13.000  1.00  0.00     0.079 C 
BRANCH  16  17
ATOM     17  C   UNL     1      12.166 -12.130  12.967  1.00  0.00     0.130 C 
ATOM     18  O   UNL     1      12.059 -11.147  13.686  1.00  0.00    -0.300 OA
ATOM     19  C   UNL     1      11.008 -12.510  12.087  1.00  0.00     0.087 C 
ENDBRANCH  16  17
ENDBRANCH  15  16
ENDBRANCH  13  15
ENDBRANCH  11  12
ENDBRANCH   1  11
TORSDOF 9
ENDMDL
MODEL 6
REMARK VINA RESULT:    -3.517      2.067      6.226
REMARK INTER + INTRA:          -7.303
REMARK INTER:                  -6.431
REMARK INTRA:                  -0.872
REMARK UNBOUND:                -1.935
REMARK SMILES CC(=O)CCC=C(C)CCC=C(C)CCC=C(C)C
REMARK SMILES IDX 10 1 11 2 12 3 13 4 14 5 15 6 16 7 18 8 17 9 19 10 9 11 7 12
REMARK SMILES IDX 6 13 8 14 5 15 4 16 2 17 3 18 1 19
REMARK H PARENT
REMARK Flexibility Score: inf
ROOT
ATOM      1  C   UNL     1      14.741  -5.352  15.045  1.00  0.00     0.032 C 
ENDROOT
BRANCH   1   2
ATOM      2  C   UNL     1      14.350  -6.441  14.073  1.00  0.00    -0.028 C 
ATOM      3  C   UNL     1      14.548  -6.391  12.736  1.00  0.00    -0.077 C 
ATOM      4  C   UNL     1      15.257  -5.232  12.075  1.00  0.00     0.039 C 
BRANCH   3   5
ATOM      5  C   UNL     1      14.043  -7.530  11.875  1.00  0.00     0.034 C 
BRANCH   5   6
ATOM      6  C   UNL     1      13.666  -8.760  12.715  1.00  0.00     0.032 C 
BRANCH   6   7
ATOM      7  C   UNL     1      14.594  -9.923  12.452  1.00  0.00    -0.028 C 
ATOM      8  C   UNL     1      15.263 -12.273  12.203  1.00  0.00     0.039 C 
ATOM      9  C   UNL     1      14.238 -11.223  12.546  1.00  0.00    -0.080 C 
ATOM     10  C   UNL     1      12.862 -11.648  13.000  1.00  0.00     0.039 C 
ENDBRANCH   6   7
ENDBRANCH   5   6
ENDBRANCH   3   5
ENDBRANCH   1   2
BRANCH   1  11
ATOM     11  C   UNL     1      14.856  -5.896  16.476  1.00  0.00     0.034 C 
BRANCH  11  12
ATOM     12  C   UNL     1      16.267  -5.764  17.024  1.00  0.00    -0.077 C 
ATOM     13  C   UNL     1      17.369  -6.051  16.294  1.00  0.00    -0.028 C 
ATOM     14  C   UNL     1      16.455  -5.262  18.432  1.00  0.00     0.039 C 
BRANCH  13  15
ATOM     15  C   UNL     1      17.357  -6.611  14.894  1.00  0.00     0.035 C 
BRANCH  15  16
ATOM     16  C   UNL     1      17.760  -8.093  14.902  1.00  0.00     0.079 C 
BRANCH  16  17
ATOM     17  C   UNL     1      17.940  -8.699  13.528  1.00  0.00     0.130 C 
ATOM     18  O   UNL     1      18.122  -9.905  13.446  1.00  0.00    -0.300 OA
ATOM     19  C   UNL     1      17.898  -7.888  12.262  1.00  0.00     0.087 C 
ENDBRANCH  16  17
ENDBRANCH  15  16
ENDBRANCH  13  15
ENDBRANCH  11  12
ENDBRANCH   1  11
TORSDOF 9
ENDMDL
MODEL 7
REMARK VINA RESULT:    -3.371      2.315      4.403
REMARK INTER + INTRA:          -7.080
REMARK INTER:                  -6.611
REMARK INTRA:                  -0.468
REMARK UNBOUND:                -1.935
REMARK SMILES CC(=O)CCC=C(C)CCC=C(C)CCC=C(C)C
REMARK SMILES IDX 10 1 11 2 12 3 13 4 14 5 15 6 16 7 18 8 17 9 19 10 9 11 7 12
REMARK SMILES IDX 6 13 8 14 5 15 4 16 2 17 3 18 1 19
REMARK H PARENT
REMARK Flexibility Score: inf
ROOT
ATOM      1  C   UNL     1      18.512  -8.692  14.389  1.00  0.00     0.032 C 
ENDROOT
BRANCH   1   2
ATOM      2  C   UNL     1      17.696  -8.005  15.459  1.00  0.00    -0.028 C 
ATOM      3  C   UNL     1      17.385  -6.688  15.468  1.00  0.00    -0.077 C 
ATOM      4  C   UNL     1      17.788  -5.764  14.343  1.00  0.00     0.039 C 
BRANCH   3   5
ATOM      5  C   UNL     1      16.614  -6.123  16.643  1.00  0.00     0.034 C 
BRANCH   5   6
ATOM      6  C   UNL     1      15.296  -5.469  16.202  1.00  0.00     0.032 C 
BRANCH   6   7
ATOM      7  C   UNL     1      15.007  -5.721  14.741  1.00  0.00    -0.028 C 
ATOM      8  C   UNL     1      13.985  -5.349  12.539  1.00  0.00     0.039 C 
ATOM      9  C   UNL     1      14.127  -5.011  14.000  1.00  0.00    -0.080 C 
ATOM     10  C   UNL     1      13.277  -3.915  14.597  1.00  0.00     0.039 C 
ENDBRANCH   6   7
ENDBRANCH   5   6
ENDBRANCH   3   5
ENDBRANCH   1   2
BRANCH   1  11
ATOM     11  C   UNL     1      17.680  -9.742  13.640  1.00  0.00     0.034 C 
BRANCH  11  12
ATOM     12  C   UNL     1      16.866  -9.127  12.515  1.00  0.00    -0.077 C 
ATOM     13  C   UNL     1      15.701  -9.656  12.075  1.00  0.00    -0.028 C 
ATOM     14  C   UNL     1      17.357  -7.854  11.875  1.00  0.00     0.039 C 
BRANCH  13  15
ATOM     15  C   UNL     1      15.098 -10.948  12.569  1.00  0.00     0.035 C 
BRANCH  15  16
ATOM     16  C   UNL     1      13.614 -11.032  12.184  1.00  0.00     0.079 C 
BRANCH  16  17
ATOM     17  C   UNL     1      12.952 -12.348  12.529  1.00  0.00     0.130 C 
ATOM     18  O   UNL     1      11.734 -12.377  12.621  1.00  0.00    -0.300 OA
ATOM     19  C   UNL     1      13.724 -13.618  12.756  1.00  0.00     0.087 C 
ENDBRANCH  16  17
ENDBRANCH  15  16
ENDBRANCH  13  15
ENDBRANCH  11  12
ENDBRANCH   1  11
TORSDOF 9
ENDMDL
