MODEL 1
REMARK VINA RESULT:    -5.385      0.000      0.000
REMARK INTER + INTRA:          -6.883
REMARK INTER:                  -6.644
REMARK INTRA:                  -0.239
REMARK UNBOUND:                -0.239
REMARK SMILES C=CCc1ccc(OC)c(OC)c1
REMARK SMILES IDX 7 1 10 2 13 3 4 4 5 5 6 6 8 7 9 8 11 9 12 10 3 11 2 12 1 13
REMARK H PARENT
REMARK Flexibility Score: inf
ROOT
ATOM      1  C   UNL     1      31.617   8.856 105.859  1.00  0.00     0.160 A 
ATOM      2  C   UNL     1      32.410   8.342 106.896  1.00  0.00     0.160 A 
ATOM      3  C   UNL     1      32.297   6.985 107.253  1.00  0.00     0.054 A 
ATOM      4  C   UNL     1      31.394   6.144 106.586  1.00  0.00    -0.040 A 
ATOM      5  C   UNL     1      30.613   6.662 105.543  1.00  0.00     0.008 A 
ATOM      6  C   UNL     1      30.720   8.007 105.184  1.00  0.00     0.051 A 
ENDROOT
BRANCH   1   7
ATOM      7  O   UNL     1      31.752  10.213 105.525  1.00  0.00    -0.493 OA
ATOM      8  C   UNL     1      30.669  11.067 105.168  1.00  0.00     0.278 C 
ENDBRANCH   1   7
BRANCH   2   9
ATOM      9  O   UNL     1      33.300   9.212 107.547  1.00  0.00    -0.493 OA
ATOM     10  C   UNL     1      34.719   9.141 107.443  1.00  0.00     0.278 C 
ENDBRANCH   2   9
BRANCH   4  11
ATOM     11  C   UNL     1      31.300   4.686 106.955  1.00  0.00     0.062 C 
BRANCH  11  12
ATOM     12  C   UNL     1      32.621   4.181 107.463  1.00  0.00    -0.030 C 
ATOM     13  C   UNL     1      33.550   3.690 106.637  1.00  0.00     0.004 C 
ENDBRANCH  11  12
ENDBRANCH   4  11
TORSDOF 4
ENDMDL
MODEL 2
REMARK VINA RESULT:    -5.244      1.749      4.888
REMARK INTER + INTRA:          -6.709
REMARK INTER:                  -6.552
REMARK INTRA:                  -0.157
REMARK UNBOUND:                -0.239
REMARK SMILES C=CCc1ccc(OC)c(OC)c1
REMARK SMILES IDX 7 1 10 2 13 3 4 4 5 5 6 6 8 7 9 8 11 9 12 10 3 11 2 12 1 13
REMARK H PARENT
REMARK Flexibility Score: inf
ROOT
ATOM      1  C   UNL     1      31.214   6.371 106.442  1.00  0.00     0.160 A 
ATOM      2  C   UNL     1      31.719   7.402 107.250  1.00  0.00     0.160 A 
ATOM      3  C   UNL     1      31.670   8.733 106.793  1.00  0.00     0.054 A 
ATOM      4  C   UNL     1      31.127   9.037 105.536  1.00  0.00    -0.040 A 
ATOM      5  C   UNL     1      30.614   8.003 104.740  1.00  0.00     0.008 A 
ATOM      6  C   UNL     1      30.659   6.682 105.186  1.00  0.00     0.051 A 
ENDROOT
BRANCH   1   7
ATOM      7  O   UNL     1      31.277   5.054 106.923  1.00  0.00    -0.493 OA
ATOM      8  C   UNL     1      32.453   4.250 106.922  1.00  0.00     0.278 C 
ENDBRANCH   1   7
BRANCH   2   9
ATOM      9  O   UNL     1      32.261   7.062 108.501  1.00  0.00    -0.493 OA
ATOM     10  C   UNL     1      33.624   7.249 108.868  1.00  0.00     0.278 C 
ENDBRANCH   2   9
BRANCH   4  11
ATOM     11  C   UNL     1      31.052  10.467 105.069  1.00  0.00     0.062 C 
BRANCH  11  12
ATOM     12  C   UNL     1      29.771  11.108 105.521  1.00  0.00    -0.030 C 
ATOM     13  C   UNL     1      29.613  12.435 105.529  1.00  0.00     0.004 C 
ENDBRANCH  11  12
ENDBRANCH   4  11
TORSDOF 4
ENDMDL
MODEL 3
REMARK VINA RESULT:    -5.085      1.785      2.332
REMARK INTER + INTRA:          -6.514
REMARK INTER:                  -6.188
REMARK INTRA:                  -0.326
REMARK UNBOUND:                -0.239
REMARK SMILES C=CCc1ccc(OC)c(OC)c1
REMARK SMILES IDX 7 1 10 2 13 3 4 4 5 5 6 6 8 7 9 8 11 9 12 10 3 11 2 12 1 13
REMARK H PARENT
REMARK Flexibility Score: inf
ROOT
ATOM      1  C   UNL     1      33.553   9.893 105.823  1.00  0.00     0.160 A 
ATOM      2  C   UNL     1      34.300   9.426 106.917  1.00  0.00     0.160 A 
ATOM      3  C   UNL     1      33.750   8.451 107.771  1.00  0.00     0.054 A 
ATOM      4  C   UNL     1      32.462   7.946 107.543  1.00  0.00    -0.040 A 
ATOM      5  C   UNL     1      31.727   8.409 106.442  1.00  0.00     0.008 A 
ATOM      6  C   UNL     1      32.265   9.376 105.591  1.00  0.00     0.051 A 
ENDROOT
BRANCH   1   7
ATOM      7  O   UNL     1      34.126  10.865 104.990  1.00  0.00    -0.493 OA
ATOM      8  C   UNL     1      33.707  12.226 104.930  1.00  0.00     0.278 C 
ENDBRANCH   1   7
BRANCH   2   9
ATOM      9  O   UNL     1      35.585   9.957 107.119  1.00  0.00    -0.493 OA
ATOM     10  C   UNL     1      35.870  11.098 107.923  1.00  0.00     0.278 C 
ENDBRANCH   2   9
BRANCH   4  11
ATOM     11  C   UNL     1      31.893   6.882 108.445  1.00  0.00     0.062 C 
BRANCH  11  12
ATOM     12  C   UNL     1      32.568   5.562 108.200  1.00  0.00    -0.030 C 
ATOM     13  C   UNL     1      32.092   4.682 107.315  1.00  0.00     0.004 C 
ENDBRANCH  11  12
ENDBRANCH   4  11
TORSDOF 4
ENDMDL
MODEL 4
REMARK VINA RESULT:    -4.779      1.348      2.884
REMARK INTER + INTRA:          -6.136
REMARK INTER:                  -5.865
REMARK INTRA:                  -0.271
REMARK UNBOUND:                -0.239
REMARK SMILES C=CCc1ccc(OC)c(OC)c1
REMARK SMILES IDX 7 1 10 2 13 3 4 4 5 5 6 6 8 7 9 8 11 9 12 10 3 11 2 12 1 13
REMARK H PARENT
REMARK Flexibility Score: inf
ROOT
ATOM      1  C   UNL     1      33.370   9.443 106.369  1.00  0.00     0.160 A 
ATOM      2  C   UNL     1      32.113   8.896 106.067  1.00  0.00     0.160 A 
ATOM      3  C   UNL     1      31.670   7.748 106.751  1.00  0.00     0.054 A 
ATOM      4  C   UNL     1      32.476   7.142 107.726  1.00  0.00    -0.040 A 
ATOM      5  C   UNL     1      33.725   7.701 108.030  1.00  0.00     0.008 A 
ATOM      6  C   UNL     1      34.171   8.839 107.356  1.00  0.00     0.051 A 
ENDROOT
BRANCH   1   7
ATOM      7  O   UNL     1      33.786  10.588 105.671  1.00  0.00    -0.493 OA
ATOM      8  C   UNL     1      34.976  11.318 105.953  1.00  0.00     0.278 C 
ENDBRANCH   1   7
BRANCH   2   9
ATOM      9  O   UNL     1      31.333   9.525 105.082  1.00  0.00    -0.493 OA
ATOM     10  C   UNL     1      30.435  10.603 105.330  1.00  0.00     0.278 C 
ENDBRANCH   2   9
BRANCH   4  11
ATOM     11  C   UNL     1      31.981   5.931 108.473  1.00  0.00     0.062 C 
BRANCH  11  12
ATOM     12  C   UNL     1      31.911   4.737 107.563  1.00  0.00    -0.030 C 
ATOM     13  C   UNL     1      33.013   4.109 107.142  1.00  0.00     0.004 C 
ENDBRANCH  11  12
ENDBRANCH   4  11
TORSDOF 4
ENDMDL
MODEL 5
REMARK VINA RESULT:    -4.768      1.805      3.636
REMARK INTER + INTRA:          -6.122
REMARK INTER:                  -5.781
REMARK INTRA:                  -0.341
REMARK UNBOUND:                -0.239
REMARK SMILES C=CCc1ccc(OC)c(OC)c1
REMARK SMILES IDX 7 1 10 2 13 3 4 4 5 5 6 6 8 7 9 8 11 9 12 10 3 11 2 12 1 13
REMARK H PARENT
REMARK Flexibility Score: inf
ROOT
ATOM      1  C   UNL     1      34.656   9.716 106.825  1.00  0.00     0.160 A 
ATOM      2  C   UNL     1      33.662   9.969 105.868  1.00  0.00     0.160 A 
ATOM      3  C   UNL     1      32.457   9.242 105.905  1.00  0.00     0.054 A 
ATOM      4  C   UNL     1      32.244   8.262 106.886  1.00  0.00    -0.040 A 
ATOM      5  C   UNL     1      33.238   8.022 107.845  1.00  0.00     0.008 A 
ATOM      6  C   UNL     1      34.435   8.739 107.815  1.00  0.00     0.051 A 
ENDROOT
BRANCH   1   7
ATOM      7  O   UNL     1      35.847  10.456 106.763  1.00  0.00    -0.493 OA
ATOM      8  C   UNL     1      36.188  11.513 107.656  1.00  0.00     0.278 C 
ENDBRANCH   1   7
BRANCH   2   9
ATOM      9  O   UNL     1      33.909  10.954 104.897  1.00  0.00    -0.493 OA
ATOM     10  C   UNL     1      33.435  12.295 104.969  1.00  0.00     0.278 C 
ENDBRANCH   2   9
BRANCH   4  11
ATOM     11  C   UNL     1      30.940   7.509 106.935  1.00  0.00     0.062 C 
BRANCH  11  12
ATOM     12  C   UNL     1      30.961   6.347 105.982  1.00  0.00    -0.030 C 
ATOM     13  C   UNL     1      31.320   5.121 106.374  1.00  0.00     0.004 C 
ENDBRANCH  11  12
ENDBRANCH   4  11
TORSDOF 4
ENDMDL
MODEL 6
REMARK VINA RESULT:    -4.467      2.169      5.544
REMARK INTER + INTRA:          -5.751
REMARK INTER:                  -5.480
REMARK INTRA:                  -0.271
REMARK UNBOUND:                -0.239
REMARK SMILES C=CCc1ccc(OC)c(OC)c1
REMARK SMILES IDX 7 1 10 2 13 3 4 4 5 5 6 6 8 7 9 8 11 9 12 10 3 11 2 12 1 13
REMARK H PARENT
REMARK Flexibility Score: inf
ROOT
ATOM      1  C   UNL     1      32.541   7.951 107.409  1.00  0.00     0.160 A 
ATOM      2  C   UNL     1      32.013   8.609 106.286  1.00  0.00     0.160 A 
ATOM      3  C   UNL     1      32.752   9.637 105.670  1.00  0.00     0.054 A 
ATOM      4  C   UNL     1      34.006  10.015 106.171  1.00  0.00    -0.040 A 
ATOM      5  C   UNL     1      34.531   9.346 107.286  1.00  0.00     0.008 A 
ATOM      6  C   UNL     1      33.805   8.326 107.902  1.00  0.00     0.051 A 
ENDROOT
BRANCH   1   7
ATOM      7  O   UNL     1      31.782   6.931 108.002  1.00  0.00    -0.493 OA
ATOM      8  C   UNL     1      32.165   5.559 108.041  1.00  0.00     0.278 C 
ENDBRANCH   1   7
BRANCH   2   9
ATOM      9  O   UNL     1      30.753   8.209 105.813  1.00  0.00    -0.493 OA
ATOM     10  C   UNL     1      30.546   7.252 104.778  1.00  0.00     0.278 C 
ENDBRANCH   2   9
BRANCH   4  11
ATOM     11  C   UNL     1      34.802  11.096 105.488  1.00  0.00     0.062 C 
BRANCH  11  12
ATOM     12  C   UNL     1      33.889  12.074 104.802  1.00  0.00    -0.030 C 
ATOM     13  C   UNL     1      34.278  13.322 104.523  1.00  0.00     0.004 C 
ENDBRANCH  11  12
ENDBRANCH   4  11
TORSDOF 4
ENDMDL
MODEL 7
REMARK VINA RESULT:    -4.397      1.892      4.850
REMARK INTER + INTRA:          -5.665
REMARK INTER:                  -5.345
REMARK INTRA:                  -0.319
REMARK UNBOUND:                -0.239
REMARK SMILES C=CCc1ccc(OC)c(OC)c1
REMARK SMILES IDX 7 1 10 2 13 3 4 4 5 5 6 6 8 7 9 8 11 9 12 10 3 11 2 12 1 13
REMARK H PARENT
REMARK Flexibility Score: inf
ROOT
ATOM      1  C   UNL     1      32.093   8.616 106.237  1.00  0.00     0.160 A 
ATOM      2  C   UNL     1      32.714   8.094 107.383  1.00  0.00     0.160 A 
ATOM      3  C   UNL     1      33.986   8.563 107.762  1.00  0.00     0.054 A 
ATOM      4  C   UNL     1      34.641   9.543 107.001  1.00  0.00    -0.040 A 
ATOM      5  C   UNL     1      34.010  10.067 105.865  1.00  0.00     0.008 A 
ATOM      6  C   UNL     1      32.750   9.607 105.482  1.00  0.00     0.051 A 
ENDROOT
BRANCH   1   7
ATOM      7  O   UNL     1      30.825   8.128 105.883  1.00  0.00    -0.493 OA
ATOM      8  C   UNL     1      30.592   7.124 104.901  1.00  0.00     0.278 C 
ENDBRANCH   1   7
BRANCH   2   9
ATOM      9  O   UNL     1      32.032   7.111 108.119  1.00  0.00    -0.493 OA
ATOM     10  C   UNL     1      32.316   5.717 108.061  1.00  0.00     0.278 C 
ENDBRANCH   2   9
BRANCH   4  11
ATOM     11  C   UNL     1      35.990  10.060 107.431  1.00  0.00     0.062 C 
BRANCH  11  12
ATOM     12  C   UNL     1      35.880  11.468 107.943  1.00  0.00    -0.030 C 
ATOM     13  C   UNL     1      36.564  12.473 107.389  1.00  0.00     0.004 C 
ENDBRANCH  11  12
ENDBRANCH   4  11
TORSDOF 4
ENDMDL
MODEL 8
REMARK VINA RESULT:    -4.279      2.607      5.499
REMARK INTER + INTRA:          -5.518
REMARK INTER:                  -5.236
REMARK INTRA:                  -0.282
REMARK UNBOUND:                -0.239
REMARK SMILES C=CCc1ccc(OC)c(OC)c1
REMARK SMILES IDX 7 1 10 2 13 3 4 4 5 5 6 6 8 7 9 8 11 9 12 10 3 11 2 12 1 13
REMARK H PARENT
REMARK Flexibility Score: inf
ROOT
ATOM      1  C   UNL     1      32.824   8.512 107.200  1.00  0.00     0.160 A 
ATOM      2  C   UNL     1      32.613   9.315 106.068  1.00  0.00     0.160 A 
ATOM      3  C   UNL     1      33.671  10.091 105.558  1.00  0.00     0.054 A 
ATOM      4  C   UNL     1      34.931  10.074 106.174  1.00  0.00    -0.040 A 
ATOM      5  C   UNL     1      35.137   9.261 107.297  1.00  0.00     0.008 A 
ATOM      6  C   UNL     1      34.093   8.489 107.809  1.00  0.00     0.051 A 
ENDROOT
BRANCH   1   7
ATOM      7  O   UNL     1      31.750   7.749 107.687  1.00  0.00    -0.493 OA
ATOM      8  C   UNL     1      31.415   7.615 109.065  1.00  0.00     0.278 C 
ENDBRANCH   1   7
BRANCH   2   9
ATOM      9  O   UNL     1      31.338   9.312 105.479  1.00  0.00    -0.493 OA
ATOM     10  C   UNL     1      30.553  10.479 105.249  1.00  0.00     0.278 C 
ENDBRANCH   2   9
BRANCH   4  11
ATOM     11  C   UNL     1      36.065  10.885 105.604  1.00  0.00     0.062 C 
BRANCH  11  12
ATOM     12  C   UNL     1      36.480  11.966 106.562  1.00  0.00    -0.030 C 
ATOM     13  C   UNL     1      37.715  12.020 107.069  1.00  0.00     0.004 C 
ENDBRANCH  11  12
ENDBRANCH   4  11
TORSDOF 4
ENDMDL
MODEL 9
REMARK VINA RESULT:    -4.231      6.329      8.382
REMARK INTER + INTRA:          -5.459
REMARK INTER:                  -5.206
REMARK INTRA:                  -0.253
REMARK UNBOUND:                -0.239
REMARK SMILES C=CCc1ccc(OC)c(OC)c1
REMARK SMILES IDX 7 1 10 2 13 3 4 4 5 5 6 6 8 7 9 8 11 9 12 10 3 11 2 12 1 13
REMARK H PARENT
REMARK Flexibility Score: inf
ROOT
ATOM      1  C   UNL     1      37.223  11.741 105.003  1.00  0.00     0.160 A 
ATOM      2  C   UNL     1      37.635  12.098 106.296  1.00  0.00     0.160 A 
ATOM      3  C   UNL     1      39.007  12.127 106.608  1.00  0.00     0.054 A 
ATOM      4  C   UNL     1      39.966  11.797 105.638  1.00  0.00    -0.040 A 
ATOM      5  C   UNL     1      39.548  11.453 104.346  1.00  0.00     0.008 A 
ATOM      6  C   UNL     1      38.189  11.421 104.030  1.00  0.00     0.051 A 
ENDROOT
BRANCH   1   7
ATOM      7  O   UNL     1      35.848  11.720 104.722  1.00  0.00    -0.493 OA
ATOM      8  C   UNL     1      35.173  12.686 103.921  1.00  0.00     0.278 C 
ENDBRANCH   1   7
BRANCH   2   9
ATOM      9  O   UNL     1      36.648  12.418 107.244  1.00  0.00    -0.493 OA
ATOM     10  C   UNL     1      36.021  11.473 108.107  1.00  0.00     0.278 C 
ENDBRANCH   2   9
BRANCH   4  11
ATOM     11  C   UNL     1      41.434  11.859 105.972  1.00  0.00     0.062 C 
BRANCH  11  12
ATOM     12  C   UNL     1      41.908  10.547 106.533  1.00  0.00    -0.030 C 
ATOM     13  C   UNL     1      42.323  10.432 107.798  1.00  0.00     0.004 C 
ENDBRANCH  11  12
ENDBRANCH   4  11
TORSDOF 4
ENDMDL
