MODEL 1
REMARK VINA RESULT:    -3.178      0.000      0.000
REMARK INTER + INTRA:          -3.806
REMARK INTER:                  -3.735
REMARK INTRA:                  -0.072
REMARK UNBOUND:                -0.072
REMARK SMILES O=C([O-])CCC(=O)[O-]
REMARK SMILES IDX 4 1 2 2 1 3 3 4 5 5 6 6 7 7 8 8
REMARK H PARENT
REMARK Flexibility Score: inf
ROOT
ATOM      1  C   UNL     1     -20.914 120.521  -0.359  1.00  0.00     0.059 C 
ENDROOT
BRANCH   1   2
ATOM      2  C   UNL     1     -19.960 120.092  -1.431  1.00  0.00     0.042 C 
ATOM      3  O   UNL     1     -19.531 120.930  -2.269  1.00  0.00    -0.550 OA
ATOM      4  O   UNL     1     -19.577 118.761  -1.531  1.00  0.00    -0.550 OA
ENDBRANCH   1   2
BRANCH   1   5
ATOM      5  C   UNL     1     -22.149 121.215  -0.944  1.00  0.00     0.059 C 
BRANCH   5   6
ATOM      6  C   UNL     1     -23.405 120.458  -0.638  1.00  0.00     0.042 C 
ATOM      7  O   UNL     1     -23.343 119.291  -0.170  1.00  0.00    -0.550 OA
ATOM      8  O   UNL     1     -24.644 121.026  -0.910  1.00  0.00    -0.550 OA
ENDBRANCH   5   6
ENDBRANCH   1   5
TORSDOF 3
ENDMDL
MODEL 2
REMARK VINA RESULT:    -3.164      0.081      4.107
REMARK INTER + INTRA:          -3.791
REMARK INTER:                  -3.718
REMARK INTRA:                  -0.072
REMARK UNBOUND:                -0.072
REMARK SMILES O=C([O-])CCC(=O)[O-]
REMARK SMILES IDX 4 1 2 2 1 3 3 4 5 5 6 6 7 7 8 8
REMARK H PARENT
REMARK Flexibility Score: inf
ROOT
ATOM      1  C   UNL     1     -22.095 121.244  -0.829  1.00  0.00     0.059 C 
ENDROOT
BRANCH   1   2
ATOM      2  C   UNL     1     -23.381 120.503  -0.620  1.00  0.00     0.042 C 
ATOM      3  O   UNL     1     -23.367 119.329  -0.163  1.00  0.00    -0.550 OA
ATOM      4  O   UNL     1     -24.589 121.094  -0.967  1.00  0.00    -0.550 OA
ENDBRANCH   1   2
BRANCH   1   5
ATOM      5  C   UNL     1     -20.892 120.447  -0.313  1.00  0.00     0.059 C 
BRANCH   5   6
ATOM      6  C   UNL     1     -19.975 120.046  -1.428  1.00  0.00     0.042 C 
ATOM      7  O   UNL     1     -19.610 120.894  -2.284  1.00  0.00    -0.550 OA
ATOM      8  O   UNL     1     -19.557 118.726  -1.545  1.00  0.00    -0.550 OA
ENDBRANCH   5   6
ENDBRANCH   1   5
TORSDOF 3
ENDMDL
MODEL 3
REMARK VINA RESULT:    -3.078      1.588      2.434
REMARK INTER + INTRA:          -3.689
REMARK INTER:                  -3.500
REMARK INTRA:                  -0.189
REMARK UNBOUND:                -0.072
REMARK SMILES O=C([O-])CCC(=O)[O-]
REMARK SMILES IDX 4 1 2 2 1 3 3 4 5 5 6 6 7 7 8 8
REMARK H PARENT
REMARK Flexibility Score: inf
ROOT
ATOM      1  C   UNL     1     -19.911 120.141  -1.726  1.00  0.00     0.059 C 
ENDROOT
BRANCH   1   2
ATOM      2  C   UNL     1     -20.756 119.409  -2.723  1.00  0.00     0.042 C 
ATOM      3  O   UNL     1     -20.792 118.150  -2.718  1.00  0.00    -0.550 OA
ATOM      4  O   UNL     1     -21.469 120.115  -3.683  1.00  0.00    -0.550 OA
ENDBRANCH   1   2
BRANCH   1   5
ATOM      5  C   UNL     1     -20.750 121.079  -0.852  1.00  0.00     0.059 C 
BRANCH   5   6
ATOM      6  C   UNL     1     -21.846 120.342  -0.144  1.00  0.00     0.042 C 
ATOM      7  O   UNL     1     -23.046 120.685  -0.305  1.00  0.00    -0.550 OA
ATOM      8  O   UNL     1     -21.537 119.304   0.727  1.00  0.00    -0.550 OA
ENDBRANCH   5   6
ENDBRANCH   1   5
TORSDOF 3
ENDMDL
MODEL 4
REMARK VINA RESULT:    -3.063      1.556      3.263
REMARK INTER + INTRA:          -3.672
REMARK INTER:                  -3.482
REMARK INTRA:                  -0.190
REMARK UNBOUND:                -0.072
REMARK SMILES O=C([O-])CCC(=O)[O-]
REMARK SMILES IDX 4 1 2 2 1 3 3 4 5 5 6 6 7 7 8 8
REMARK H PARENT
REMARK Flexibility Score: inf
ROOT
ATOM      1  C   UNL     1     -20.713 121.010  -0.816  1.00  0.00     0.059 C 
ENDROOT
BRANCH   1   2
ATOM      2  C   UNL     1     -21.798 120.271  -0.092  1.00  0.00     0.042 C 
ATOM      3  O   UNL     1     -23.006 120.572  -0.284  1.00  0.00    -0.550 OA
ATOM      4  O   UNL     1     -21.473 119.280   0.826  1.00  0.00    -0.550 OA
ENDBRANCH   1   2
BRANCH   1   5
ATOM      5  C   UNL     1     -19.840 120.062  -1.645  1.00  0.00     0.059 C 
BRANCH   5   6
ATOM      6  C   UNL     1     -20.653 119.282  -2.633  1.00  0.00     0.042 C 
ATOM      7  O   UNL     1     -20.628 118.024  -2.619  1.00  0.00    -0.550 OA
ATOM      8  O   UNL     1     -21.406 119.946  -3.594  1.00  0.00    -0.550 OA
ENDBRANCH   5   6
ENDBRANCH   1   5
TORSDOF 3
ENDMDL
MODEL 5
REMARK VINA RESULT:    -3.040      1.612      2.082
REMARK INTER + INTRA:          -3.645
REMARK INTER:                  -3.459
REMARK INTRA:                  -0.187
REMARK UNBOUND:                -0.072
REMARK SMILES O=C([O-])CCC(=O)[O-]
REMARK SMILES IDX 4 1 2 2 1 3 3 4 5 5 6 6 7 7 8 8
REMARK H PARENT
REMARK Flexibility Score: inf
ROOT
ATOM      1  C   UNL     1     -20.115 120.587  -1.867  1.00  0.00     0.059 C 
ENDROOT
BRANCH   1   2
ATOM      2  C   UNL     1     -20.809 119.684  -2.840  1.00  0.00     0.042 C 
ATOM      3  O   UNL     1     -21.523 120.171  -3.757  1.00  0.00    -0.550 OA
ATOM      4  O   UNL     1     -20.703 118.305  -2.709  1.00  0.00    -0.550 OA
ENDBRANCH   1   2
BRANCH   1   5
ATOM      5  C   UNL     1     -21.114 121.359  -0.999  1.00  0.00     0.059 C 
BRANCH   5   6
ATOM      6  C   UNL     1     -22.031 120.435  -0.256  1.00  0.00     0.042 C 
ATOM      7  O   UNL     1     -23.278 120.533  -0.396  1.00  0.00    -0.550 OA
ATOM      8  O   UNL     1     -21.508 119.494   0.623  1.00  0.00    -0.550 OA
ENDBRANCH   5   6
ENDBRANCH   1   5
TORSDOF 3
ENDMDL
MODEL 6
REMARK VINA RESULT:    -2.939      2.317      2.745
REMARK INTER + INTRA:          -3.526
REMARK INTER:                  -3.459
REMARK INTRA:                  -0.066
REMARK UNBOUND:                -0.072
REMARK SMILES O=C([O-])CCC(=O)[O-]
REMARK SMILES IDX 4 1 2 2 1 3 3 4 5 5 6 6 7 7 8 8
REMARK H PARENT
REMARK Flexibility Score: inf
ROOT
ATOM      1  C   UNL     1     -20.986 120.056  -0.115  1.00  0.00     0.059 C 
ENDROOT
BRANCH   1   2
ATOM      2  C   UNL     1     -20.088 119.879  -1.300  1.00  0.00     0.042 C 
ATOM      3  O   UNL     1     -19.772 120.871  -2.009  1.00  0.00    -0.550 OA
ATOM      4  O   UNL     1     -19.633 118.613  -1.647  1.00  0.00    -0.550 OA
ENDBRANCH   1   2
BRANCH   1   5
ATOM      5  C   UNL     1     -22.058 118.962  -0.048  1.00  0.00     0.059 C 
BRANCH   5   6
ATOM      6  C   UNL     1     -21.686 117.882   0.921  1.00  0.00     0.042 C 
ATOM      7  O   UNL     1     -21.638 118.127   2.155  1.00  0.00    -0.550 OA
ATOM      8  O   UNL     1     -21.351 116.615   0.457  1.00  0.00    -0.550 OA
ENDBRANCH   5   6
ENDBRANCH   1   5
TORSDOF 3
ENDMDL
MODEL 7
REMARK VINA RESULT:    -2.920      1.482      3.389
REMARK INTER + INTRA:          -3.504
REMARK INTER:                  -3.328
REMARK INTRA:                  -0.176
REMARK UNBOUND:                -0.072
REMARK SMILES O=C([O-])CCC(=O)[O-]
REMARK SMILES IDX 4 1 2 2 1 3 3 4 5 5 6 6 7 7 8 8
REMARK H PARENT
REMARK Flexibility Score: inf
ROOT
ATOM      1  C   UNL     1     -22.616 120.677  -0.583  1.00  0.00     0.059 C 
ENDROOT
BRANCH   1   2
ATOM      2  C   UNL     1     -22.402 119.283  -0.078  1.00  0.00     0.042 C 
ATOM      3  O   UNL     1     -23.022 118.318  -0.600  1.00  0.00    -0.550 OA
ATOM      4  O   UNL     1     -21.552 119.055   0.997  1.00  0.00    -0.550 OA
ENDBRANCH   1   2
BRANCH   1   5
ATOM      5  C   UNL     1     -21.292 121.355  -0.952  1.00  0.00     0.059 C 
BRANCH   5   6
ATOM      6  C   UNL     1     -20.520 120.553  -1.955  1.00  0.00     0.042 C 
ATOM      7  O   UNL     1     -19.360 120.148  -1.683  1.00  0.00    -0.550 OA
ATOM      8  O   UNL     1     -21.067 120.290  -3.205  1.00  0.00    -0.550 OA
ENDBRANCH   5   6
ENDBRANCH   1   5
TORSDOF 3
ENDMDL
MODEL 8
REMARK VINA RESULT:    -2.852      1.640      3.725
REMARK INTER + INTRA:          -3.424
REMARK INTER:                  -3.311
REMARK INTRA:                  -0.113
REMARK UNBOUND:                -0.072
REMARK SMILES O=C([O-])CCC(=O)[O-]
REMARK SMILES IDX 4 1 2 2 1 3 3 4 5 5 6 6 7 7 8 8
REMARK H PARENT
REMARK Flexibility Score: inf
ROOT
ATOM      1  C   UNL     1     -22.054 120.216  -2.817  1.00  0.00     0.059 C 
ENDROOT
BRANCH   1   2
ATOM      2  C   UNL     1     -23.322 120.848  -2.330  1.00  0.00     0.042 C 
ATOM      3  O   UNL     1     -24.161 121.300  -3.154  1.00  0.00    -0.550 OA
ATOM      4  O   UNL     1     -23.558 120.976  -0.967  1.00  0.00    -0.550 OA
ENDBRANCH   1   2
BRANCH   1   5
ATOM      5  C   UNL     1     -20.894 120.453  -1.844  1.00  0.00     0.059 C 
BRANCH   5   6
ATOM      6  C   UNL     1     -20.515 119.197  -1.120  1.00  0.00     0.042 C 
ATOM      7  O   UNL     1     -19.625 118.440  -1.589  1.00  0.00    -0.550 OA
ATOM      8  O   UNL     1     -21.173 118.843   0.052  1.00  0.00    -0.550 OA
ENDBRANCH   5   6
ENDBRANCH   1   5
TORSDOF 3
ENDMDL
MODEL 9
REMARK VINA RESULT:    -2.810      2.529      3.068
REMARK INTER + INTRA:          -3.374
REMARK INTER:                  -3.230
REMARK INTRA:                  -0.144
REMARK UNBOUND:                -0.072
REMARK SMILES O=C([O-])CCC(=O)[O-]
REMARK SMILES IDX 4 1 2 2 1 3 3 4 5 5 6 6 7 7 8 8
REMARK H PARENT
REMARK Flexibility Score: inf
ROOT
ATOM      1  C   UNL     1     -21.773 118.732  -1.265  1.00  0.00     0.059 C 
ENDROOT
BRANCH   1   2
ATOM      2  C   UNL     1     -20.306 119.023  -1.357  1.00  0.00     0.042 C 
ATOM      3  O   UNL     1     -19.489 118.091  -1.584  1.00  0.00    -0.550 OA
ATOM      4  O   UNL     1     -19.838 120.315  -1.152  1.00  0.00    -0.550 OA
ENDBRANCH   1   2
BRANCH   1   5
ATOM      5  C   UNL     1     -22.298 118.918   0.163  1.00  0.00     0.059 C 
BRANCH   5   6
ATOM      6  C   UNL     1     -21.916 117.769   1.046  1.00  0.00     0.042 C 
ATOM      7  O   UNL     1     -21.967 116.590   0.608  1.00  0.00    -0.550 OA
ATOM      8  O   UNL     1     -21.543 117.998   2.365  1.00  0.00    -0.550 OA
ENDBRANCH   5   6
ENDBRANCH   1   5
TORSDOF 3
ENDMDL
