MODEL 1
REMARK VINA RESULT:    -2.451      0.000      0.000
REMARK INTER + INTRA:          -2.445
REMARK INTER:                  -3.310
REMARK INTRA:                   0.866
REMARK UNBOUND:                 0.866
REMARK SMILES C=C(C)[C@H]1CC[C@H](C)C2=C(C1)[C@H](C)CC2
REMARK SMILES IDX 10 1 9 2 15 3 14 4 12 5 13 6 7 7 8 8 6 9 11 11 4 12 5 13
REMARK SMILES IDX 2 15 1 16 3 17
REMARK H PARENT
REMARK Flexibility Score: 80.00
ROOT
ATOM      1  C   UNL     1     145.590 145.105 133.222  1.00  0.00    -0.067 C 
ATOM      2  C   UNL     1     144.397 144.581 132.937  1.00  0.00    -0.068 C 
ATOM      3  C   UNL     1     144.473 143.091 132.819  1.00  0.00     0.032 C 
ATOM      4  C   UNL     1     145.889 142.738 133.273  1.00  0.00     0.012 C 
ATOM      5  C   UNL     1     146.661 144.065 133.319  1.00  0.00     0.012 C 
ATOM      6  C   UNL     1     147.649 144.186 132.153  1.00  0.00     0.012 C 
ENDROOT
BRANCH   2   7
ATOM      7  C   UNL     1     143.136 145.409 132.738  1.00  0.00     0.012 C 
ATOM      8  C   UNL     1     142.772 146.216 133.993  1.00  0.00     0.012 C 
BRANCH   7   9
ATOM      9  C   UNL     1     143.293 146.353 131.525  1.00  0.00     0.008 CG0
ATOM     10  G   UNL     1     144.761 146.588 131.130  1.00  0.00     0.000 G0
ENDBRANCH   7   9
ENDBRANCH   2   7
BRANCH   1  11
ATOM     11  C   UNL     1     145.848 146.576 133.437  1.00  0.00     0.039 C 
BRANCH  11  12
ATOM     12  C   UNL     1     145.568 147.397 132.160  1.00  0.00     0.018 C 
BRANCH  12  13
ATOM     13  C   UNL     1     144.752 146.602 131.117  1.00  0.00     0.009 CG0
ATOM     14  G   UNL     1     143.293 146.347 131.531  1.00  0.00     0.000 G0
ENDBRANCH  12  13
BRANCH  12  15
ATOM     15  C   UNL     1     146.879 147.865 131.539  1.00  0.00    -0.077 C 
ATOM     16  C   UNL     1     148.015 147.839 132.254  1.00  0.00     0.008 C 
ATOM     17  C   UNL     1     146.927 148.377 130.121  1.00  0.00     0.039 C 
ENDBRANCH  12  15
ENDBRANCH  11  12
ENDBRANCH   1  11
TORSDOF 1
ENDMDL
MODEL 2
REMARK VINA RESULT:    -2.371      1.720      4.598
REMARK INTER + INTRA:          -2.337
REMARK INTER:                  -3.262
REMARK INTRA:                   0.925
REMARK UNBOUND:                 0.866
REMARK SMILES C=C(C)[C@H]1CC[C@H](C)C2=C(C1)[C@H](C)CC2
REMARK SMILES IDX 10 1 9 2 15 3 14 4 12 5 13 6 7 7 8 8 6 9 11 11 4 12 5 13
REMARK SMILES IDX 2 15 1 16 3 17
REMARK H PARENT
REMARK Flexibility Score: 80.00
ROOT
ATOM      1  C   UNL     1     145.208 145.722 133.244  1.00  0.00    -0.067 C 
ATOM      2  C   UNL     1     146.400 146.215 132.909  1.00  0.00    -0.068 C 
ATOM      3  C   UNL     1     146.367 147.709 132.832  1.00  0.00     0.032 C 
ATOM      4  C   UNL     1     144.989 148.095 133.367  1.00  0.00     0.012 C 
ATOM      5  C   UNL     1     144.178 146.792 133.422  1.00  0.00     0.012 C 
ATOM      6  C   UNL     1     143.127 146.732 132.308  1.00  0.00     0.012 C 
ENDROOT
BRANCH   2   7
ATOM      7  C   UNL     1     147.622 145.353 132.625  1.00  0.00     0.012 C 
ATOM      8  C   UNL     1     148.012 144.488 133.833  1.00  0.00     0.012 C 
BRANCH   7   9
ATOM      9  C   UNL     1     147.379 144.461 131.387  1.00  0.00     0.008 CG0
ATOM     10  G   UNL     1     145.887 144.269 131.066  1.00  0.00     0.000 G0
ENDBRANCH   7   9
ENDBRANCH   2   7
BRANCH   1  11
ATOM     11  C   UNL     1     144.913 144.254 133.437  1.00  0.00     0.039 C 
BRANCH  11  12
ATOM     12  C   UNL     1     145.123 143.454 132.134  1.00  0.00     0.018 C 
BRANCH  12  13
ATOM     13  C   UNL     1     145.886 144.265 131.063  1.00  0.00     0.009 CG0
ATOM     14  G   UNL     1     147.377 144.465 131.379  1.00  0.00     0.000 G0
ENDBRANCH  12  13
BRANCH  12  15
ATOM     15  C   UNL     1     143.780 143.000 131.575  1.00  0.00    -0.077 C 
ATOM     16  C   UNL     1     142.661 143.135 132.305  1.00  0.00     0.008 C 
ATOM     17  C   UNL     1     143.679 142.380 130.203  1.00  0.00     0.039 C 
ENDBRANCH  12  15
ENDBRANCH  11  12
ENDBRANCH   1  11
TORSDOF 1
ENDMDL
MODEL 3
REMARK VINA RESULT:    -1.750      1.462      3.288
REMARK INTER + INTRA:          -1.499
REMARK INTER:                  -2.349
REMARK INTRA:                   0.850
REMARK UNBOUND:                 0.866
REMARK SMILES C=C(C)[C@H]1CC[C@H](C)C2=C(C1)[C@H](C)CC2
REMARK SMILES IDX 10 1 9 2 15 3 14 4 12 5 13 6 7 7 8 8 6 9 11 11 4 12 5 13
REMARK SMILES IDX 2 15 1 16 3 17
REMARK H PARENT
REMARK Flexibility Score: 80.00
ROOT
ATOM      1  C   UNL     1     144.976 145.287 133.233  1.00  0.00    -0.067 C 
ATOM      2  C   UNL     1     144.462 146.459 132.858  1.00  0.00    -0.068 C 
ATOM      3  C   UNL     1     142.969 146.394 132.770  1.00  0.00     0.032 C 
ATOM      4  C   UNL     1     142.606 145.025 133.346  1.00  0.00     0.012 C 
ATOM      5  C   UNL     1     143.925 144.243 133.436  1.00  0.00     0.012 C 
ATOM      6  C   UNL     1     144.015 143.159 132.356  1.00  0.00     0.012 C 
ENDROOT
BRANCH   2   7
ATOM      7  C   UNL     1     145.302 147.688 132.541  1.00  0.00     0.012 C 
ATOM      8  C   UNL     1     146.128 148.150 133.751  1.00  0.00     0.012 C 
BRANCH   7   9
ATOM      9  C   UNL     1     146.229 147.414 131.336  1.00  0.00     0.008 CG0
ATOM     10  G   UNL     1     146.431 145.914 131.059  1.00  0.00     0.000 G0
ENDBRANCH   7   9
ENDBRANCH   2   7
BRANCH   1  11
ATOM     11  C   UNL     1     146.448 145.028 133.447  1.00  0.00     0.039 C 
BRANCH  11  12
ATOM     12  C   UNL     1     147.250 145.184 132.137  1.00  0.00     0.018 C 
BRANCH  12  13
ATOM     13  C   UNL     1     146.445 145.913 131.038  1.00  0.00     0.009 CG0
ATOM     14  G   UNL     1     146.214 147.406 131.324  1.00  0.00     0.000 G0
ENDBRANCH  12  13
BRANCH  12  15
ATOM     15  C   UNL     1     147.693 143.817 131.628  1.00  0.00    -0.077 C 
ATOM     16  C   UNL     1     147.625 142.741 132.428  1.00  0.00     0.008 C 
ATOM     17  C   UNL     1     148.227 143.646 130.228  1.00  0.00     0.039 C 
ENDBRANCH  12  15
ENDBRANCH  11  12
ENDBRANCH   1  11
TORSDOF 1
ENDMDL
MODEL 4
REMARK VINA RESULT:    -1.686      1.492      3.227
REMARK INTER + INTRA:          -1.412
REMARK INTER:                  -2.213
REMARK INTRA:                   0.801
REMARK UNBOUND:                 0.866
REMARK SMILES C=C(C)[C@H]1CC[C@H](C)C2=C(C1)[C@H](C)CC2
REMARK SMILES IDX 10 1 9 2 15 3 14 4 12 5 13 6 7 7 8 8 6 9 11 11 4 12 5 13
REMARK SMILES IDX 2 15 1 16 3 17
REMARK H PARENT
REMARK Flexibility Score: 80.00
ROOT
ATOM      1  C   UNL     1     145.699 145.517 133.185  1.00  0.00    -0.067 C 
ATOM      2  C   UNL     1     146.237 144.338 132.871  1.00  0.00    -0.068 C 
ATOM      3  C   UNL     1     147.730 144.420 132.814  1.00  0.00     0.032 C 
ATOM      4  C   UNL     1     148.062 145.816 133.340  1.00  0.00     0.012 C 
ATOM      5  C   UNL     1     146.732 146.583 133.368  1.00  0.00     0.012 C 
ATOM      6  C   UNL     1     146.653 147.620 132.242  1.00  0.00     0.012 C 
ENDROOT
BRANCH   2   7
ATOM      7  C   UNL     1     145.420 143.085 132.587  1.00  0.00     0.012 C 
ATOM      8  C   UNL     1     144.581 142.656 133.800  1.00  0.00     0.012 C 
BRANCH   7   9
ATOM      9  C   UNL     1     144.508 143.300 131.358  1.00  0.00     0.008 CG0
ATOM     10  G   UNL     1     144.292 144.785 131.020  1.00  0.00     0.000 G0
ENDBRANCH   7   9
ENDBRANCH   2   7
BRANCH   1  11
ATOM     11  C   UNL     1     144.220 145.764 133.355  1.00  0.00     0.039 C 
BRANCH  11  12
ATOM     12  C   UNL     1     143.452 145.557 132.032  1.00  0.00     0.018 C 
BRANCH  12  13
ATOM     13  C   UNL     1     144.280 144.778 130.987  1.00  0.00     0.009 CG0
ATOM     14  G   UNL     1     144.502 143.299 131.345  1.00  0.00     0.000 G0
ENDBRANCH  12  13
BRANCH  12  15
ATOM     15  C   UNL     1     143.030 146.903 131.453  1.00  0.00    -0.077 C 
ATOM     16  C   UNL     1     142.940 147.983 132.246  1.00  0.00     0.008 C 
ATOM     17  C   UNL     1     142.694 147.048 129.990  1.00  0.00     0.039 C 
ENDBRANCH  12  15
ENDBRANCH  11  12
ENDBRANCH   1  11
TORSDOF 1
ENDMDL
MODEL 5
REMARK VINA RESULT:    -1.540      1.767      3.453
REMARK INTER + INTRA:          -1.214
REMARK INTER:                  -2.181
REMARK INTRA:                   0.967
REMARK UNBOUND:                 0.866
REMARK SMILES C=C(C)[C@H]1CC[C@H](C)C2=C(C1)[C@H](C)CC2
REMARK SMILES IDX 10 1 9 2 15 3 14 4 12 5 13 6 7 7 8 8 6 9 11 11 4 12 5 13
REMARK SMILES IDX 2 15 1 16 3 17
REMARK H PARENT
REMARK Flexibility Score: 80.00
ROOT
ATOM      1  C   UNL     1     145.361 144.675 131.713  1.00  0.00    -0.067 C 
ATOM      2  C   UNL     1     145.685 143.718 132.584  1.00  0.00    -0.068 C 
ATOM      3  C   UNL     1     144.468 143.010 133.090  1.00  0.00     0.032 C 
ATOM      4  C   UNL     1     143.321 143.554 132.240  1.00  0.00     0.012 C 
ATOM      5  C   UNL     1     143.883 144.782 131.509  1.00  0.00     0.012 C 
ATOM      6  C   UNL     1     143.342 146.089 132.100  1.00  0.00     0.012 C 
ENDROOT
BRANCH   2   7
ATOM      7  C   UNL     1     147.113 143.415 133.013  1.00  0.00     0.012 C 
ATOM      8  C   UNL     1     148.000 143.011 131.825  1.00  0.00     0.012 C 
BRANCH   7   9
ATOM      9  C   UNL     1     147.727 144.628 133.748  1.00  0.00     0.008 CG0
ATOM     10  G   UNL     1     147.011 145.951 133.430  1.00  0.00     0.000 G0
ENDBRANCH   7   9
ENDBRANCH   2   7
BRANCH   1  11
ATOM     11  C   UNL     1     146.358 145.551 130.995  1.00  0.00     0.039 C 
BRANCH  11  12
ATOM     12  C   UNL     1     147.175 146.412 131.983  1.00  0.00     0.018 C 
BRANCH  12  13
ATOM     13  C   UNL     1     147.015 145.940 133.445  1.00  0.00     0.009 CG0
ATOM     14  G   UNL     1     147.729 144.613 133.752  1.00  0.00     0.000 G0
ENDBRANCH  12  13
BRANCH  12  15
ATOM     15  C   UNL     1     146.765 147.876 131.867  1.00  0.00    -0.077 C 
ATOM     16  C   UNL     1     145.956 148.427 132.786  1.00  0.00     0.008 C 
ATOM     17  C   UNL     1     147.244 148.727 130.718  1.00  0.00     0.039 C 
ENDBRANCH  12  15
ENDBRANCH  11  12
ENDBRANCH   1  11
TORSDOF 1
ENDMDL
MODEL 6
REMARK VINA RESULT:    -1.480      1.498      3.965
REMARK INTER + INTRA:          -1.133
REMARK INTER:                  -2.115
REMARK INTRA:                   0.982
REMARK UNBOUND:                 0.866
REMARK SMILES C=C(C)[C@H]1CC[C@H](C)C2=C(C1)[C@H](C)CC2
REMARK SMILES IDX 10 1 9 2 15 3 14 4 12 5 13 6 7 7 8 8 6 9 11 11 4 12 5 13
REMARK SMILES IDX 2 15 1 16 3 17
REMARK H PARENT
REMARK Flexibility Score: 80.00
ROOT
ATOM      1  C   UNL     1     145.321 146.249 131.736  1.00  0.00    -0.067 C 
ATOM      2  C   UNL     1     144.941 147.207 132.582  1.00  0.00    -0.068 C 
ATOM      3  C   UNL     1     146.115 147.993 133.075  1.00  0.00     0.032 C 
ATOM      4  C   UNL     1     147.295 147.493 132.241  1.00  0.00     0.012 C 
ATOM      5  C   UNL     1     146.804 146.218 131.540  1.00  0.00     0.012 C 
ATOM      6  C   UNL     1     147.413 144.958 132.164  1.00  0.00     0.012 C 
ENDROOT
BRANCH   2   7
ATOM      7  C   UNL     1     143.497 147.441 133.000  1.00  0.00     0.012 C 
ATOM      8  C   UNL     1     142.592 147.751 131.798  1.00  0.00     0.012 C 
BRANCH   7   9
ATOM      9  C   UNL     1     142.953 146.221 133.776  1.00  0.00     0.008 CG0
ATOM     10  G   UNL     1     143.739 144.929 133.496  1.00  0.00     0.000 G0
ENDBRANCH   7   9
ENDBRANCH   2   7
BRANCH   1  11
ATOM     11  C   UNL     1     144.378 145.301 131.037  1.00  0.00     0.039 C 
BRANCH  11  12
ATOM     12  C   UNL     1     143.595 144.430 132.043  1.00  0.00     0.018 C 
BRANCH  12  13
ATOM     13  C   UNL     1     143.737 144.938 133.495  1.00  0.00     0.009 CG0
ATOM     14  G   UNL     1     142.944 146.223 133.785  1.00  0.00     0.000 G0
ENDBRANCH  12  13
BRANCH  12  15
ATOM     15  C   UNL     1     144.063 142.981 131.958  1.00  0.00    -0.077 C 
ATOM     16  C   UNL     1     143.645 142.192 130.955  1.00  0.00     0.008 C 
ATOM     17  C   UNL     1     144.989 142.402 132.998  1.00  0.00     0.039 C 
ENDBRANCH  12  15
ENDBRANCH  11  12
ENDBRANCH   1  11
TORSDOF 1
ENDMDL
MODEL 7
REMARK VINA RESULT:    -1.134      1.729      3.336
REMARK INTER + INTRA:          -0.666
REMARK INTER:                  -4.392
REMARK INTRA:                   3.725
REMARK UNBOUND:                 0.866
REMARK SMILES C=C(C)[C@H]1CC[C@H](C)C2=C(C1)[C@H](C)CC2
REMARK SMILES IDX 10 1 9 2 15 3 14 4 12 5 13 6 7 7 8 8 6 9 11 11 4 12 5 13
REMARK SMILES IDX 2 15 1 16 3 17
REMARK H PARENT
REMARK Flexibility Score: 80.00
ROOT
ATOM      1  C   UNL     1     144.262 145.786 132.155  1.00  0.00    -0.067 C 
ATOM      2  C   UNL     1     144.213 144.604 132.772  1.00  0.00    -0.068 C 
ATOM      3  C   UNL     1     143.507 144.707 134.087  1.00  0.00     0.032 C 
ATOM      4  C   UNL     1     142.941 146.127 134.113  1.00  0.00     0.012 C 
ATOM      5  C   UNL     1     143.624 146.874 132.959  1.00  0.00     0.012 C 
ATOM      6  C   UNL     1     144.674 147.867 133.469  1.00  0.00     0.012 C 
ENDROOT
BRANCH   2   7
ATOM      7  C   UNL     1     144.821 143.329 132.205  1.00  0.00     0.012 C 
ATOM      8  C   UNL     1     144.194 142.939 130.858  1.00  0.00     0.012 C 
BRANCH   7   9
ATOM      9  C   UNL     1     146.352 143.480 132.056  1.00  0.00     0.008 CG0
ATOM     10  G   UNL     1     146.761 144.276 130.805  1.00  0.00     0.000 G0
ENDBRANCH   7   9
ENDBRANCH   2   7
BRANCH   1  11
ATOM     11  C   UNL     1     144.878 146.016 130.797  1.00  0.00     0.039 C 
BRANCH  11  12
ATOM     12  C   UNL     1     146.404 145.783 130.815  1.00  0.00     0.018 C 
BRANCH  12  13
ATOM     13  C   UNL     1     146.770 144.283 130.800  1.00  0.00     0.009 CG0
ATOM     14  G   UNL     1     146.350 143.527 132.073  1.00  0.00     0.000 G0
ENDBRANCH  12  13
BRANCH  12  15
ATOM     15  C   UNL     1     147.022 146.450 132.039  1.00  0.00    -0.077 C 
ATOM     16  C   UNL     1     147.066 147.789 132.131  1.00  0.00     0.008 C 
ATOM     17  C   UNL     1     147.606 145.627 133.159  1.00  0.00     0.039 C 
ENDBRANCH  12  15
ENDBRANCH  11  12
ENDBRANCH   1  11
TORSDOF 1
ENDMDL
MODEL 8
REMARK VINA RESULT:    -1.022      1.218      3.482
REMARK INTER + INTRA:          -0.514
REMARK INTER:                  -4.280
REMARK INTRA:                   3.766
REMARK UNBOUND:                 0.866
REMARK SMILES C=C(C)[C@H]1CC[C@H](C)C2=C(C1)[C@H](C)CC2
REMARK SMILES IDX 10 1 9 2 15 3 14 4 12 5 13 6 7 7 8 8 6 9 11 11 4 12 5 13
REMARK SMILES IDX 2 15 1 16 3 17
REMARK H PARENT
REMARK Flexibility Score: 80.00
ROOT
ATOM      1  C   UNL     1     146.468 144.909 132.057  1.00  0.00    -0.067 C 
ATOM      2  C   UNL     1     146.555 146.057 132.731  1.00  0.00    -0.068 C 
ATOM      3  C   UNL     1     147.367 145.894 133.978  1.00  0.00     0.032 C 
ATOM      4  C   UNL     1     147.947 144.483 133.881  1.00  0.00     0.012 C 
ATOM      5  C   UNL     1     147.181 143.789 132.746  1.00  0.00     0.012 C 
ATOM      6  C   UNL     1     146.186 142.755 133.284  1.00  0.00     0.012 C 
ENDROOT
BRANCH   2   7
ATOM      7  C   UNL     1     145.889 147.351 132.286  1.00  0.00     0.012 C 
ATOM      8  C   UNL     1     146.410 147.828 130.922  1.00  0.00     0.012 C 
BRANCH   7   9
ATOM      9  C   UNL     1     144.354 147.182 132.240  1.00  0.00     0.008 CG0
ATOM     10  G   UNL     1     143.862 146.478 130.964  1.00  0.00     0.000 G0
ENDBRANCH   7   9
ENDBRANCH   2   7
BRANCH   1  11
ATOM     11  C   UNL     1     145.747 144.742 130.742  1.00  0.00     0.039 C 
BRANCH  11  12
ATOM     12  C   UNL     1     144.226 144.964 130.893  1.00  0.00     0.018 C 
BRANCH  12  13
ATOM     13  C   UNL     1     143.855 146.461 130.975  1.00  0.00     0.009 CG0
ATOM     14  G   UNL     1     144.366 147.161 132.246  1.00  0.00     0.000 G0
ENDBRANCH  12  13
BRANCH  12  15
ATOM     15  C   UNL     1     143.711 144.239 132.132  1.00  0.00    -0.077 C 
ATOM     16  C   UNL     1     143.570 142.904 132.126  1.00  0.00     0.008 C 
ATOM     17  C   UNL     1     143.338 145.002 133.378  1.00  0.00     0.039 C 
ENDBRANCH  12  15
ENDBRANCH  11  12
ENDBRANCH   1  11
TORSDOF 1
ENDMDL
MODEL 9
REMARK VINA RESULT:    -0.601      1.715      2.190
REMARK INTER + INTRA:           0.054
REMARK INTER:                  -0.088
REMARK INTRA:                   0.141
REMARK UNBOUND:                 0.866
REMARK SMILES C=C(C)[C@H]1CC[C@H](C)C2=C(C1)[C@H](C)CC2
REMARK SMILES IDX 10 1 9 2 15 3 14 4 12 5 13 6 7 7 8 8 6 9 11 11 4 12 5 13
REMARK SMILES IDX 2 15 1 16 3 17
REMARK H PARENT
REMARK Flexibility Score: 80.00
ROOT
ATOM      1  C   UNL     1     145.118 145.470 131.263  1.00  0.00    -0.067 C 
ATOM      2  C   UNL     1     144.286 145.352 132.298  1.00  0.00    -0.068 C 
ATOM      3  C   UNL     1     143.887 143.926 132.515  1.00  0.00     0.032 C 
ATOM      4  C   UNL     1     144.768 143.127 131.555  1.00  0.00     0.012 C 
ATOM      5  C   UNL     1     145.396 144.156 130.604  1.00  0.00     0.012 C 
ATOM      6  C   UNL     1     144.764 144.098 129.209  1.00  0.00     0.012 C 
ENDROOT
BRANCH   2   7
ATOM      7  C   UNL     1     143.796 146.531 133.127  1.00  0.00     0.012 C 
ATOM      8  C   UNL     1     142.701 146.120 134.124  1.00  0.00     0.012 C 
BRANCH   7   9
ATOM      9  C   UNL     1     144.975 147.194 133.875  1.00  0.00     0.008 CG0
ATOM     10  G   UNL     1     145.810 148.124 132.979  1.00  0.00     0.000 G0
ENDBRANCH   7   9
ENDBRANCH   2   7
BRANCH   1  11
ATOM     11  C   UNL     1     145.731 146.769 130.802  1.00  0.00     0.039 C 
BRANCH  11  12
ATOM     12  C   UNL     1     146.629 147.395 131.891  1.00  0.00     0.018 C 
BRANCH  12  13
ATOM     13  C   UNL     1     145.812 148.123 132.980  1.00  0.00     0.009 CG0
ATOM     14  G   UNL     1     144.975 147.183 133.864  1.00  0.00     0.000 G0
ENDBRANCH  12  13
BRANCH  12  15
ATOM     15  C   UNL     1     147.622 148.364 131.259  1.00  0.00    -0.077 C 
ATOM     16  C   UNL     1     148.621 148.883 131.990  1.00  0.00     0.008 C 
ATOM     17  C   UNL     1     147.496 148.770 129.812  1.00  0.00     0.039 C 
ENDBRANCH  12  15
ENDBRANCH  11  12
ENDBRANCH   1  11
TORSDOF 1
ENDMDL
