MODEL 1
REMARK VINA RESULT:    -6.578      0.000      0.000
REMARK INTER + INTRA:          -8.005
REMARK INTER:                  -7.732
REMARK INTRA:                  -0.273
REMARK UNBOUND:                -0.273
REMARK SMILES O=c1c(O)c(-c2ccc(O)cc2)oc2cc(O)cc(O)c12
REMARK SMILES IDX 5 1 3 2 2 3 1 4 21 5 19 6 18 7 16 8 15 9 14 10 13 11 6 12
REMARK SMILES IDX 7 13 8 14 9 15 12 16 11 17 10 18 4 20 20 22 17 24
REMARK H PARENT 10 19 4 21 20 23 17 25
REMARK Flexibility Score: inf
ROOT
ATOM      1  C   UNL     1      14.555  56.158  32.778  1.00  0.00     0.180 A 
ATOM      2  C   UNL     1      14.472  55.913  31.396  1.00  0.00     0.208 A 
ATOM      3  C   UNL     1      14.924  56.896  30.502  1.00  0.00     0.238 A 
ATOM      4  O   UNL     1      14.898  56.649  29.268  1.00  0.00    -0.285 OA
ATOM      5  C   UNL     1      15.437  58.118  30.999  1.00  0.00     0.111 A 
ATOM      6  C   UNL     1      15.885  59.200  30.183  1.00  0.00     0.134 A 
ATOM      7  C   UNL     1      16.495  60.310  30.782  1.00  0.00     0.093 A 
ATOM      8  C   UNL     1      16.613  60.405  32.171  1.00  0.00     0.123 A 
ATOM      9  C   UNL     1      16.125  59.381  32.978  1.00  0.00     0.094 A 
ATOM     10  C   UNL     1      15.545  58.245  32.408  1.00  0.00     0.146 A 
ATOM     11  O   UNL     1      15.102  57.287  33.214  1.00  0.00    -0.452 OA
ENDROOT
BRANCH   1  12
ATOM     12  C   UNL     1      14.076  55.180  33.782  1.00  0.00     0.021 A 
ATOM     13  C   UNL     1      12.773  55.297  34.294  1.00  0.00     0.016 A 
ATOM     14  C   UNL     1      12.292  54.372  35.225  1.00  0.00     0.047 A 
ATOM     15  C   UNL     1      13.102  53.311  35.646  1.00  0.00     0.115 A 
ATOM     16  C   UNL     1      14.878  54.100  34.193  1.00  0.00     0.016 A 
ATOM     17  C   UNL     1      14.395  53.176  35.125  1.00  0.00     0.047 A 
BRANCH  15  18
ATOM     18  O   UNL     1      12.611  52.398  36.576  1.00  0.00    -0.508 OA
ATOM     19  H   UNL     1      12.666  52.576  37.572  1.00  0.00     0.293 HD
ENDBRANCH  15  18
ENDBRANCH   1  12
BRANCH   2  20
ATOM     20  O   UNL     1      13.983  54.690  30.927  1.00  0.00    -0.502 OA
ATOM     21  H   UNL     1      13.030  54.387  31.090  1.00  0.00     0.293 HD
ENDBRANCH   2  20
BRANCH   6  22
ATOM     22  O   UNL     1      15.732  59.247  28.794  1.00  0.00    -0.507 OA
ATOM     23  H   UNL     1      16.493  59.275  28.133  1.00  0.00     0.293 HD
ENDBRANCH   6  22
BRANCH   8  24
ATOM     24  O   UNL     1      17.207  61.520  32.759  1.00  0.00    -0.508 OA
ATOM     25  H   UNL     1      16.809  62.446  32.659  1.00  0.00     0.293 HD
ENDBRANCH   8  24
TORSDOF 5
ENDMDL
MODEL 2
REMARK VINA RESULT:    -5.793      1.571      6.449
REMARK INTER + INTRA:          -7.082
REMARK INTER:                  -6.795
REMARK INTRA:                  -0.286
REMARK UNBOUND:                -0.273
REMARK SMILES O=c1c(O)c(-c2ccc(O)cc2)oc2cc(O)cc(O)c12
REMARK SMILES IDX 5 1 3 2 2 3 1 4 21 5 19 6 18 7 16 8 15 9 14 10 13 11 6 12
REMARK SMILES IDX 7 13 8 14 9 15 12 16 11 17 10 18 4 20 20 22 17 24
REMARK H PARENT 10 19 4 21 20 23 17 25
REMARK Flexibility Score: inf
ROOT
ATOM      1  C   UNL     1      15.612  56.632  32.216  1.00  0.00     0.180 A 
ATOM      2  C   UNL     1      15.569  55.999  30.962  1.00  0.00     0.208 A 
ATOM      3  C   UNL     1      15.263  54.630  30.900  1.00  0.00     0.238 A 
ATOM      4  O   UNL     1      15.172  54.081  29.771  1.00  0.00    -0.285 OA
ATOM      5  C   UNL     1      15.021  53.908  32.093  1.00  0.00     0.111 A 
ATOM      6  C   UNL     1      14.743  52.509  32.151  1.00  0.00     0.134 A 
ATOM      7  C   UNL     1      14.391  51.925  33.375  1.00  0.00     0.093 A 
ATOM      8  C   UNL     1      14.371  52.677  34.552  1.00  0.00     0.123 A 
ATOM      9  C   UNL     1      14.700  54.029  34.515  1.00  0.00     0.094 A 
ATOM     10  C   UNL     1      15.019  54.648  33.304  1.00  0.00     0.146 A 
ATOM     11  O   UNL     1      15.316  55.942  33.312  1.00  0.00    -0.452 OA
ENDROOT
BRANCH   1  12
ATOM     12  C   UNL     1      15.951  58.066  32.364  1.00  0.00     0.021 A 
ATOM     13  C   UNL     1      17.300  58.454  32.433  1.00  0.00     0.016 A 
ATOM     14  C   UNL     1      17.643  59.804  32.550  1.00  0.00     0.047 A 
ATOM     15  C   UNL     1      16.645  60.784  32.585  1.00  0.00     0.115 A 
ATOM     16  C   UNL     1      14.953  59.057  32.379  1.00  0.00     0.016 A 
ATOM     17  C   UNL     1      15.299  60.407  32.497  1.00  0.00     0.047 A 
BRANCH  15  18
ATOM     18  O   UNL     1      17.002  62.125  32.703  1.00  0.00    -0.508 OA
ATOM     19  H   UNL     1      17.818  62.499  32.232  1.00  0.00     0.293 HD
ENDBRANCH  15  18
ENDBRANCH   1  12
BRANCH   2  20
ATOM     20  O   UNL     1      15.789  56.736  29.795  1.00  0.00    -0.502 OA
ATOM     21  H   UNL     1      16.574  57.367  29.690  1.00  0.00     0.293 HD
ENDBRANCH   2  20
BRANCH   6  22
ATOM     22  O   UNL     1      14.824  51.650  31.051  1.00  0.00    -0.507 OA
ATOM     23  H   UNL     1      14.648  50.657  31.083  1.00  0.00     0.293 HD
ENDBRANCH   6  22
BRANCH   8  24
ATOM     24  O   UNL     1      14.035  52.084  35.768  1.00  0.00    -0.508 OA
ATOM     25  H   UNL     1      13.968  52.627  36.621  1.00  0.00     0.293 HD
ENDBRANCH   8  24
TORSDOF 5
ENDMDL
MODEL 3
REMARK VINA RESULT:    -5.628      2.047      2.455
REMARK INTER + INTRA:          -6.889
REMARK INTER:                  -6.755
REMARK INTRA:                  -0.133
REMARK UNBOUND:                -0.273
REMARK SMILES O=c1c(O)c(-c2ccc(O)cc2)oc2cc(O)cc(O)c12
REMARK SMILES IDX 5 1 3 2 2 3 1 4 21 5 19 6 18 7 16 8 15 9 14 10 13 11 6 12
REMARK SMILES IDX 7 13 8 14 9 15 12 16 11 17 10 18 4 20 20 22 17 24
REMARK H PARENT 10 19 4 21 20 23 17 25
REMARK Flexibility Score: inf
ROOT
ATOM      1  C   UNL     1      14.330  56.179  33.126  1.00  0.00     0.180 A 
ATOM      2  C   UNL     1      13.082  56.640  32.674  1.00  0.00     0.208 A 
ATOM      3  C   UNL     1      12.949  57.984  32.291  1.00  0.00     0.238 A 
ATOM      4  O   UNL     1      11.844  58.377  31.835  1.00  0.00    -0.285 OA
ATOM      5  C   UNL     1      14.062  58.855  32.380  1.00  0.00     0.111 A 
ATOM      6  C   UNL     1      14.031  60.245  32.056  1.00  0.00     0.134 A 
ATOM      7  C   UNL     1      15.223  60.980  32.057  1.00  0.00     0.093 A 
ATOM      8  C   UNL     1      16.433  60.392  32.432  1.00  0.00     0.123 A 
ATOM      9  C   UNL     1      16.463  59.051  32.807  1.00  0.00     0.094 A 
ATOM     10  C   UNL     1      15.297  58.282  32.781  1.00  0.00     0.146 A 
ATOM     11  O   UNL     1      15.371  57.005  33.137  1.00  0.00    -0.452 OA
ENDROOT
BRANCH   1  12
ATOM     12  C   UNL     1      14.542  54.783  33.572  1.00  0.00     0.021 A 
ATOM     13  C   UNL     1      15.500  53.987  32.922  1.00  0.00     0.016 A 
ATOM     14  C   UNL     1      15.732  52.674  33.340  1.00  0.00     0.047 A 
ATOM     15  C   UNL     1      15.021  52.144  34.422  1.00  0.00     0.115 A 
ATOM     16  C   UNL     1      13.845  54.251  34.672  1.00  0.00     0.016 A 
ATOM     17  C   UNL     1      14.078  52.937  35.089  1.00  0.00     0.047 A 
BRANCH  15  18
ATOM     18  O   UNL     1      15.261  50.833  34.827  1.00  0.00    -0.508 OA
ATOM     19  H   UNL     1      16.193  50.516  35.069  1.00  0.00     0.293 HD
ENDBRANCH  15  18
ENDBRANCH   1  12
BRANCH   2  20
ATOM     20  O   UNL     1      12.002  55.758  32.573  1.00  0.00    -0.502 OA
ATOM     21  H   UNL     1      11.668  55.407  31.684  1.00  0.00     0.293 HD
ENDBRANCH   2  20
BRANCH   6  22
ATOM     22  O   UNL     1      12.862  60.951  31.756  1.00  0.00    -0.507 OA
ATOM     23  H   UNL     1      12.837  61.890  31.388  1.00  0.00     0.293 HD
ENDBRANCH   6  22
BRANCH   8  24
ATOM     24  O   UNL     1      17.611  61.136  32.445  1.00  0.00    -0.508 OA
ATOM     25  H   UNL     1      17.614  62.119  32.688  1.00  0.00     0.293 HD
ENDBRANCH   8  24
TORSDOF 5
ENDMDL
MODEL 4
REMARK VINA RESULT:    -5.201      6.568     10.162
REMARK INTER + INTRA:          -6.386
REMARK INTER:                  -6.120
REMARK INTRA:                  -0.266
REMARK UNBOUND:                -0.273
REMARK SMILES O=c1c(O)c(-c2ccc(O)cc2)oc2cc(O)cc(O)c12
REMARK SMILES IDX 5 1 3 2 2 3 1 4 21 5 19 6 18 7 16 8 15 9 14 10 13 11 6 12
REMARK SMILES IDX 7 13 8 14 9 15 12 16 11 17 10 18 4 20 20 22 17 24
REMARK H PARENT 10 19 4 21 20 23 17 25
REMARK Flexibility Score: inf
ROOT
ATOM      1  C   UNL     1      15.081  49.390  31.561  1.00  0.00     0.180 A 
ATOM      2  C   UNL     1      15.829  48.915  30.470  1.00  0.00     0.208 A 
ATOM      3  C   UNL     1      15.773  47.549  30.149  1.00  0.00     0.238 A 
ATOM      4  O   UNL     1      16.401  47.139  29.138  1.00  0.00    -0.285 OA
ATOM      5  C   UNL     1      14.983  46.673  30.932  1.00  0.00     0.111 A 
ATOM      6  C   UNL     1      14.885  45.265  30.722  1.00  0.00     0.134 A 
ATOM      7  C   UNL     1      13.972  44.517  31.476  1.00  0.00     0.093 A 
ATOM      8  C   UNL     1      13.202  45.115  32.477  1.00  0.00     0.123 A 
ATOM      9  C   UNL     1      13.336  46.478  32.730  1.00  0.00     0.094 A 
ATOM     10  C   UNL     1      14.211  47.257  31.969  1.00  0.00     0.146 A 
ATOM     11  O   UNL     1      14.299  48.555  32.236  1.00  0.00    -0.452 OA
ENDROOT
BRANCH   1  12
ATOM     12  C   UNL     1      15.109  50.811  31.976  1.00  0.00     0.021 A 
ATOM     13  C   UNL     1      14.294  51.742  31.311  1.00  0.00     0.016 A 
ATOM     14  C   UNL     1      14.287  53.084  31.701  1.00  0.00     0.047 A 
ATOM     15  C   UNL     1      15.083  53.510  32.771  1.00  0.00     0.115 A 
ATOM     16  C   UNL     1      15.891  51.242  33.063  1.00  0.00     0.016 A 
ATOM     17  C   UNL     1      15.883  52.585  33.452  1.00  0.00     0.047 A 
BRANCH  15  18
ATOM     18  O   UNL     1      15.068  54.851  33.148  1.00  0.00    -0.508 OA
ATOM     19  H   UNL     1      14.455  55.188  33.882  1.00  0.00     0.293 HD
ENDBRANCH  15  18
ENDBRANCH   1  12
BRANCH   2  20
ATOM     20  O   UNL     1      16.584  49.800  29.696  1.00  0.00    -0.502 OA
ATOM     21  H   UNL     1      16.183  50.340  28.939  1.00  0.00     0.293 HD
ENDBRANCH   2  20
BRANCH   6  22
ATOM     22  O   UNL     1      15.673  44.554  29.812  1.00  0.00    -0.507 OA
ATOM     23  H   UNL     1      15.474  44.465  28.827  1.00  0.00     0.293 HD
ENDBRANCH   6  22
BRANCH   8  24
ATOM     24  O   UNL     1      12.308  44.360  33.234  1.00  0.00    -0.508 OA
ATOM     25  H   UNL     1      12.611  43.542  33.750  1.00  0.00     0.293 HD
ENDBRANCH   8  24
TORSDOF 5
ENDMDL
MODEL 5
REMARK VINA RESULT:    -5.159      2.629      6.594
REMARK INTER + INTRA:          -6.336
REMARK INTER:                  -6.037
REMARK INTRA:                  -0.299
REMARK UNBOUND:                -0.273
REMARK SMILES O=c1c(O)c(-c2ccc(O)cc2)oc2cc(O)cc(O)c12
REMARK SMILES IDX 5 1 3 2 2 3 1 4 21 5 19 6 18 7 16 8 15 9 14 10 13 11 6 12
REMARK SMILES IDX 7 13 8 14 9 15 12 16 11 17 10 18 4 20 20 22 17 24
REMARK H PARENT 10 19 4 21 20 23 17 25
REMARK Flexibility Score: inf
ROOT
ATOM      1  C   UNL     1      15.387  55.903  32.056  1.00  0.00     0.180 A 
ATOM      2  C   UNL     1      15.146  54.979  33.088  1.00  0.00     0.208 A 
ATOM      3  C   UNL     1      14.869  53.643  32.755  1.00  0.00     0.238 A 
ATOM      4  O   UNL     1      14.708  52.810  33.684  1.00  0.00    -0.285 OA
ATOM      5  C   UNL     1      14.821  53.251  31.396  1.00  0.00     0.111 A 
ATOM      6  C   UNL     1      14.510  51.934  30.943  1.00  0.00     0.134 A 
ATOM      7  C   UNL     1      14.619  51.628  29.581  1.00  0.00     0.093 A 
ATOM      8  C   UNL     1      14.965  52.609  28.648  1.00  0.00     0.123 A 
ATOM      9  C   UNL     1      15.211  53.912  29.073  1.00  0.00     0.094 A 
ATOM     10  C   UNL     1      15.146  54.238  30.430  1.00  0.00     0.146 A 
ATOM     11  O   UNL     1      15.399  55.490  30.793  1.00  0.00    -0.452 OA
ENDROOT
BRANCH   1  12
ATOM     12  C   UNL     1      15.660  57.332  32.326  1.00  0.00     0.021 A 
ATOM     13  C   UNL     1      16.990  57.780  32.401  1.00  0.00     0.016 A 
ATOM     14  C   UNL     1      17.271  59.130  32.633  1.00  0.00     0.047 A 
ATOM     15  C   UNL     1      16.228  60.051  32.777  1.00  0.00     0.115 A 
ATOM     16  C   UNL     1      14.616  58.267  32.452  1.00  0.00     0.016 A 
ATOM     17  C   UNL     1      14.900  59.617  32.683  1.00  0.00     0.047 A 
BRANCH  15  18
ATOM     18  O   UNL     1      16.523  61.393  33.009  1.00  0.00    -0.508 OA
ATOM     19  H   UNL     1      16.508  62.075  32.260  1.00  0.00     0.293 HD
ENDBRANCH  15  18
ENDBRANCH   1  12
BRANCH   2  20
ATOM     20  O   UNL     1      15.220  55.382  34.424  1.00  0.00    -0.502 OA
ATOM     21  H   UNL     1      15.725  54.853  35.124  1.00  0.00     0.293 HD
ENDBRANCH   2  20
BRANCH   6  22
ATOM     22  O   UNL     1      14.066  50.905  31.779  1.00  0.00    -0.507 OA
ATOM     23  H   UNL     1      13.181  50.430  31.686  1.00  0.00     0.293 HD
ENDBRANCH   6  22
BRANCH   8  24
ATOM     24  O   UNL     1      15.055  52.300  27.292  1.00  0.00    -0.508 OA
ATOM     25  H   UNL     1      14.503  52.791  26.598  1.00  0.00     0.293 HD
ENDBRANCH   8  24
TORSDOF 5
ENDMDL
MODEL 6
REMARK VINA RESULT:    -5.079      5.401      7.370
REMARK INTER + INTRA:          -6.243
REMARK INTER:                  -5.960
REMARK INTRA:                  -0.283
REMARK UNBOUND:                -0.273
REMARK SMILES O=c1c(O)c(-c2ccc(O)cc2)oc2cc(O)cc(O)c12
REMARK SMILES IDX 5 1 3 2 2 3 1 4 21 5 19 6 18 7 16 8 15 9 14 10 13 11 6 12
REMARK SMILES IDX 7 13 8 14 9 15 12 16 11 17 10 18 4 20 20 22 17 24
REMARK H PARENT 10 19 4 21 20 23 17 25
REMARK Flexibility Score: inf
ROOT
ATOM      1  C   UNL     1      14.883  50.205  31.113  1.00  0.00     0.180 A 
ATOM      2  C   UNL     1      13.653  50.569  30.537  1.00  0.00     0.208 A 
ATOM      3  C   UNL     1      12.970  51.687  31.040  1.00  0.00     0.238 A 
ATOM      4  O   UNL     1      11.897  52.040  30.486  1.00  0.00    -0.285 OA
ATOM      5  C   UNL     1      13.516  52.419  32.123  1.00  0.00     0.111 A 
ATOM      6  C   UNL     1      12.889  53.544  32.738  1.00  0.00     0.134 A 
ATOM      7  C   UNL     1      13.581  54.270  33.716  1.00  0.00     0.093 A 
ATOM      8  C   UNL     1      14.849  53.872  34.146  1.00  0.00     0.123 A 
ATOM      9  C   UNL     1      15.443  52.740  33.594  1.00  0.00     0.094 A 
ATOM     10  C   UNL     1      14.793  52.017  32.591  1.00  0.00     0.146 A 
ATOM     11  O   UNL     1      15.400  50.950  32.084  1.00  0.00    -0.452 OA
ENDROOT
BRANCH   1  12
ATOM     12  C   UNL     1      15.649  49.025  30.654  1.00  0.00     0.021 A 
ATOM     13  C   UNL     1      15.449  47.784  31.281  1.00  0.00     0.016 A 
ATOM     14  C   UNL     1      16.146  46.651  30.850  1.00  0.00     0.047 A 
ATOM     15  C   UNL     1      17.039  46.741  29.777  1.00  0.00     0.115 A 
ATOM     16  C   UNL     1      16.534  49.104  29.563  1.00  0.00     0.016 A 
ATOM     17  C   UNL     1      17.230  47.970  29.133  1.00  0.00     0.047 A 
BRANCH  15  18
ATOM     18  O   UNL     1      17.728  45.605  29.358  1.00  0.00    -0.508 OA
ATOM     19  H   UNL     1      18.525  45.249  29.874  1.00  0.00     0.293 HD
ENDBRANCH  15  18
ENDBRANCH   1  12
BRANCH   2  20
ATOM     20  O   UNL     1      13.143  49.847  29.455  1.00  0.00    -0.502 OA
ATOM     21  H   UNL     1      13.398  48.884  29.275  1.00  0.00     0.293 HD
ENDBRANCH   2  20
BRANCH   6  22
ATOM     22  O   UNL     1      11.590  53.970  32.448  1.00  0.00    -0.507 OA
ATOM     23  H   UNL     1      10.887  54.183  33.139  1.00  0.00     0.293 HD
ENDBRANCH   6  22
BRANCH   8  24
ATOM     24  O   UNL     1      15.524  54.591  35.131  1.00  0.00    -0.508 OA
ATOM     25  H   UNL     1      16.524  54.748  35.081  1.00  0.00     0.293 HD
ENDBRANCH   8  24
TORSDOF 5
ENDMDL
MODEL 7
REMARK VINA RESULT:    -5.030      4.778      6.307
REMARK INTER + INTRA:          -6.185
REMARK INTER:                  -5.937
REMARK INTRA:                  -0.249
REMARK UNBOUND:                -0.273
REMARK SMILES O=c1c(O)c(-c2ccc(O)cc2)oc2cc(O)cc(O)c12
REMARK SMILES IDX 5 1 3 2 2 3 1 4 21 5 19 6 18 7 16 8 15 9 14 10 13 11 6 12
REMARK SMILES IDX 7 13 8 14 9 15 12 16 11 17 10 18 4 20 20 22 17 24
REMARK H PARENT 10 19 4 21 20 23 17 25
REMARK Flexibility Score: inf
ROOT
ATOM      1  C   UNL     1      15.110  50.882  31.328  1.00  0.00     0.180 A 
ATOM      2  C   UNL     1      14.757  51.713  30.250  1.00  0.00     0.208 A 
ATOM      3  C   UNL     1      14.543  53.080  30.485  1.00  0.00     0.238 A 
ATOM      4  O   UNL     1      14.281  53.828  29.507  1.00  0.00    -0.285 OA
ATOM      5  C   UNL     1      14.669  53.598  31.797  1.00  0.00     0.111 A 
ATOM      6  C   UNL     1      14.436  54.959  32.156  1.00  0.00     0.134 A 
ATOM      7  C   UNL     1      14.718  55.387  33.460  1.00  0.00     0.093 A 
ATOM      8  C   UNL     1      15.161  54.488  34.433  1.00  0.00     0.123 A 
ATOM      9  C   UNL     1      15.334  53.145  34.107  1.00  0.00     0.094 A 
ATOM     10  C   UNL     1      15.096  52.696  32.805  1.00  0.00     0.146 A 
ATOM     11  O   UNL     1      15.284  51.410  32.535  1.00  0.00    -0.452 OA
ENDROOT
BRANCH   1  12
ATOM     12  C   UNL     1      15.326  49.427  31.164  1.00  0.00     0.021 A 
ATOM     13  C   UNL     1      14.299  48.532  31.505  1.00  0.00     0.016 A 
ATOM     14  C   UNL     1      14.473  47.155  31.337  1.00  0.00     0.047 A 
ATOM     15  C   UNL     1      15.670  46.656  30.812  1.00  0.00     0.115 A 
ATOM     16  C   UNL     1      16.520  48.921  30.618  1.00  0.00     0.016 A 
ATOM     17  C   UNL     1      16.692  47.543  30.451  1.00  0.00     0.047 A 
BRANCH  15  18
ATOM     18  O   UNL     1      15.831  45.282  30.652  1.00  0.00    -0.508 OA
ATOM     19  H   UNL     1      15.188  44.622  31.073  1.00  0.00     0.293 HD
ENDBRANCH  15  18
ENDBRANCH   1  12
BRANCH   2  20
ATOM     20  O   UNL     1      14.660  51.185  28.959  1.00  0.00    -0.502 OA
ATOM     21  H   UNL     1      15.314  50.501  28.600  1.00  0.00     0.293 HD
ENDBRANCH   2  20
BRANCH   6  22
ATOM     22  O   UNL     1      13.908  55.918  31.286  1.00  0.00    -0.507 OA
ATOM     23  H   UNL     1      12.978  55.890  30.896  1.00  0.00     0.293 HD
ENDBRANCH   6  22
BRANCH   8  24
ATOM     24  O   UNL     1      15.423  54.919  35.732  1.00  0.00    -0.508 OA
ATOM     25  H   UNL     1      15.817  54.296  36.427  1.00  0.00     0.293 HD
ENDBRANCH   8  24
TORSDOF 5
ENDMDL
MODEL 8
REMARK VINA RESULT:    -5.022      2.597      3.392
REMARK INTER + INTRA:          -6.175
REMARK INTER:                  -5.877
REMARK INTRA:                  -0.299
REMARK UNBOUND:                -0.273
REMARK SMILES O=c1c(O)c(-c2ccc(O)cc2)oc2cc(O)cc(O)c12
REMARK SMILES IDX 5 1 3 2 2 3 1 4 21 5 19 6 18 7 16 8 15 9 14 10 13 11 6 12
REMARK SMILES IDX 7 13 8 14 9 15 12 16 11 17 10 18 4 20 20 22 17 24
REMARK H PARENT 10 19 4 21 20 23 17 25
REMARK Flexibility Score: inf
ROOT
ATOM      1  C   UNL     1      15.081  56.377  32.140  1.00  0.00     0.180 A 
ATOM      2  C   UNL     1      16.158  57.132  31.643  1.00  0.00     0.208 A 
ATOM      3  C   UNL     1      16.046  58.531  31.600  1.00  0.00     0.238 A 
ATOM      4  O   UNL     1      17.033  59.204  31.205  1.00  0.00    -0.285 OA
ATOM      5  C   UNL     1      14.855  59.157  32.039  1.00  0.00     0.111 A 
ATOM      6  C   UNL     1      14.618  60.564  32.002  1.00  0.00     0.134 A 
ATOM      7  C   UNL     1      13.454  61.083  32.583  1.00  0.00     0.093 A 
ATOM      8  C   UNL     1      12.490  60.241  33.141  1.00  0.00     0.123 A 
ATOM      9  C   UNL     1      12.684  58.862  33.128  1.00  0.00     0.094 A 
ATOM     10  C   UNL     1      13.852  58.317  32.588  1.00  0.00     0.146 A 
ATOM     11  O   UNL     1      14.002  56.998  32.605  1.00  0.00    -0.452 OA
ENDROOT
BRANCH   1  12
ATOM     12  C   UNL     1      15.114  54.898  32.194  1.00  0.00     0.021 A 
ATOM     13  C   UNL     1      15.499  54.257  33.383  1.00  0.00     0.016 A 
ATOM     14  C   UNL     1      15.515  52.862  33.463  1.00  0.00     0.047 A 
ATOM     15  C   UNL     1      15.133  52.089  32.361  1.00  0.00     0.115 A 
ATOM     16  C   UNL     1      14.711  54.116  31.096  1.00  0.00     0.016 A 
ATOM     17  C   UNL     1      14.728  52.720  31.178  1.00  0.00     0.047 A 
BRANCH  15  18
ATOM     18  O   UNL     1      15.155  50.700  32.455  1.00  0.00    -0.508 OA
ATOM     19  H   UNL     1      15.921  50.156  32.073  1.00  0.00     0.293 HD
ENDBRANCH  15  18
ENDBRANCH   1  12
BRANCH   2  20
ATOM     20  O   UNL     1      17.334  56.496  31.235  1.00  0.00    -0.502 OA
ATOM     21  H   UNL     1      17.392  55.494  31.102  1.00  0.00     0.293 HD
ENDBRANCH   2  20
BRANCH   6  22
ATOM     22  O   UNL     1      15.472  61.484  31.388  1.00  0.00    -0.507 OA
ATOM     23  H   UNL     1      15.169  62.246  30.800  1.00  0.00     0.293 HD
ENDBRANCH   6  22
BRANCH   8  24
ATOM     24  O   UNL     1      11.327  60.765  33.703  1.00  0.00    -0.508 OA
ATOM     25  H   UNL     1      10.537  60.174  33.934  1.00  0.00     0.293 HD
ENDBRANCH   8  24
TORSDOF 5
ENDMDL
MODEL 9
REMARK VINA RESULT:    -5.011      3.123      3.930
REMARK INTER + INTRA:          -6.163
REMARK INTER:                  -6.064
REMARK INTRA:                  -0.099
REMARK UNBOUND:                -0.273
REMARK SMILES O=c1c(O)c(-c2ccc(O)cc2)oc2cc(O)cc(O)c12
REMARK SMILES IDX 5 1 3 2 2 3 1 4 21 5 19 6 18 7 16 8 15 9 14 10 13 11 6 12
REMARK SMILES IDX 7 13 8 14 9 15 12 16 11 17 10 18 4 20 20 22 17 24
REMARK H PARENT 10 19 4 21 20 23 17 25
REMARK Flexibility Score: inf
ROOT
ATOM      1  C   UNL     1      14.341  53.854  31.916  1.00  0.00     0.180 A 
ATOM      2  C   UNL     1      13.178  54.542  32.303  1.00  0.00     0.208 A 
ATOM      3  C   UNL     1      13.228  55.938  32.446  1.00  0.00     0.238 A 
ATOM      4  O   UNL     1      12.171  56.554  32.739  1.00  0.00    -0.285 OA
ATOM      5  C   UNL     1      14.444  56.626  32.217  1.00  0.00     0.111 A 
ATOM      6  C   UNL     1      14.619  58.034  32.372  1.00  0.00     0.134 A 
ATOM      7  C   UNL     1      15.831  58.625  31.992  1.00  0.00     0.093 A 
ATOM      8  C   UNL     1      16.895  57.850  31.525  1.00  0.00     0.123 A 
ATOM      9  C   UNL     1      16.753  56.468  31.427  1.00  0.00     0.094 A 
ATOM     10  C   UNL     1      15.545  55.854  31.764  1.00  0.00     0.146 A 
ATOM     11  O   UNL     1      15.449  54.535  31.646  1.00  0.00    -0.452 OA
ENDROOT
BRANCH   1  12
ATOM     12  C   UNL     1      14.374  52.381  31.769  1.00  0.00     0.021 A 
ATOM     13  C   UNL     1      15.182  51.618  32.628  1.00  0.00     0.016 A 
ATOM     14  C   UNL     1      15.210  50.224  32.522  1.00  0.00     0.047 A 
ATOM     15  C   UNL     1      14.421  49.575  31.567  1.00  0.00     0.115 A 
ATOM     16  C   UNL     1      13.566  51.721  30.825  1.00  0.00     0.016 A 
ATOM     17  C   UNL     1      13.597  50.327  30.720  1.00  0.00     0.047 A 
BRANCH  15  18
ATOM     18  O   UNL     1      14.460  48.186  31.471  1.00  0.00    -0.508 OA
ATOM     19  H   UNL     1      13.767  47.672  30.939  1.00  0.00     0.293 HD
ENDBRANCH  15  18
ENDBRANCH   1  12
BRANCH   2  20
ATOM     20  O   UNL     1      11.983  53.845  32.502  1.00  0.00    -0.502 OA
ATOM     21  H   UNL     1      11.753  53.002  31.991  1.00  0.00     0.293 HD
ENDBRANCH   2  20
BRANCH   6  22
ATOM     22  O   UNL     1      13.653  58.886  32.915  1.00  0.00    -0.507 OA
ATOM     23  H   UNL     1      13.130  58.700  33.757  1.00  0.00     0.293 HD
ENDBRANCH   6  22
BRANCH   8  24
ATOM     24  O   UNL     1      18.103  58.445  31.164  1.00  0.00    -0.508 OA
ATOM     25  H   UNL     1      18.147  59.162  30.450  1.00  0.00     0.293 HD
ENDBRANCH   8  24
TORSDOF 5
ENDMDL
