MODEL 1
REMARK VINA RESULT:    -3.655      0.000      0.000
REMARK INTER + INTRA:          -3.632
REMARK INTER:                  -5.150
REMARK INTRA:                   1.518
REMARK UNBOUND:                 1.518
REMARK SMILES CC1=CCC(=C(C)C)C(=O)CC(C)=CCC1
REMARK SMILES IDX 12 1 14 2 13 3 15 4 16 5 2 6 1 7 3 8 11 10 9 11 10 12 5 13
REMARK SMILES IDX 6 14 7 15 8 16 4 17
REMARK H PARENT
REMARK Flexibility Score: 60.00
ROOT
ATOM      1  C   UNL     1       3.070 142.642  -8.349  1.00  0.00    -0.070 C 
ATOM      2  C   UNL     1       4.338 142.344  -8.718  1.00  0.00    -0.027 C 
ATOM      3  C   UNL     1       1.950 141.963  -9.098  1.00  0.00     0.039 C 
ENDROOT
BRANCH   2   4
ATOM      4  C   UNL     1       5.598 142.979  -8.181  1.00  0.00     0.032 C 
BRANCH   4   5
ATOM      5  C   UNL     1       5.528 144.518  -8.168  1.00  0.00     0.034 C 
BRANCH   5   6
ATOM      6  C   UNL     1       5.630 145.084  -6.765  1.00  0.00    -0.077 C 
ATOM      7  C   UNL     1       6.597 144.440  -5.803  1.00  0.00     0.039 C 
ATOM      8  C   UNL     1       4.922 146.151  -6.332  1.00  0.00    -0.023 CG0
ATOM      9  G   UNL     1       3.936 146.946  -7.152  1.00  0.00     0.000 G0
ENDBRANCH   5   6
ENDBRANCH   4   5
ENDBRANCH   2   4
BRANCH   1  10
ATOM     10  C   UNL     1       2.719 143.663  -7.278  1.00  0.00     0.111 C 
BRANCH  10  11
ATOM     11  C   UNL     1       2.399 145.008  -7.880  1.00  0.00     0.163 C 
ATOM     12  O   UNL     1       1.930 145.039  -9.050  1.00  0.00    -0.294 OA
BRANCH  11  13
ATOM     13  C   UNL     1       2.572 146.281  -7.112  1.00  0.00    -0.002 C 
ATOM     14  C   UNL     1       1.533 146.867  -6.446  1.00  0.00    -0.069 C 
ATOM     15  C   UNL     1       0.132 146.299  -6.507  1.00  0.00     0.039 C 
ATOM     16  C   UNL     1       1.725 148.135  -5.642  1.00  0.00     0.039 C 
BRANCH  13  17
ATOM     17  C   UNL     1       3.939 146.940  -7.169  1.00  0.00     0.066 CG0
ATOM     18  G   UNL     1       4.924 146.148  -6.343  1.00  0.00     0.000 G0
ENDBRANCH  13  17
ENDBRANCH  11  13
ENDBRANCH  10  11
ENDBRANCH   1  10
TORSDOF 0
ENDMDL
MODEL 2
REMARK VINA RESULT:    -3.296      1.586      3.282
REMARK INTER + INTRA:          -3.126
REMARK INTER:                  -4.517
REMARK INTRA:                   1.391
REMARK UNBOUND:                 1.518
REMARK SMILES CC1=CCC(=C(C)C)C(=O)CC(C)=CCC1
REMARK SMILES IDX 12 1 14 2 13 3 15 4 16 5 2 6 1 7 3 8 11 10 9 11 10 12 5 13
REMARK SMILES IDX 6 14 7 15 8 16 4 17
REMARK H PARENT
REMARK Flexibility Score: 60.00
ROOT
ATOM      1  C   UNL     1       5.862 144.648  -6.404  1.00  0.00    -0.070 C 
ATOM      2  C   UNL     1       5.630 143.599  -7.229  1.00  0.00    -0.027 C 
ATOM      3  C   UNL     1       5.965 144.360  -4.926  1.00  0.00     0.039 C 
ENDROOT
BRANCH   2   4
ATOM      4  C   UNL     1       5.389 143.669  -8.717  1.00  0.00     0.032 C 
BRANCH   4   5
ATOM      5  C   UNL     1       3.981 143.187  -9.114  1.00  0.00     0.034 C 
BRANCH   5   6
ATOM      6  C   UNL     1       3.029 143.167  -7.934  1.00  0.00    -0.077 C 
ATOM      7  C   UNL     1       2.858 141.875  -7.175  1.00  0.00     0.039 C 
ATOM      8  C   UNL     1       2.341 144.249  -7.506  1.00  0.00    -0.023 CG0
ATOM      9  G   UNL     1       2.406 145.631  -8.109  1.00  0.00     0.000 G0
ENDBRANCH   5   6
ENDBRANCH   4   5
ENDBRANCH   2   4
BRANCH   1  10
ATOM     10  C   UNL     1       5.954 146.089  -6.876  1.00  0.00     0.111 C 
BRANCH  10  11
ATOM     11  C   UNL     1       4.818 146.443  -7.803  1.00  0.00     0.163 C 
ATOM     12  O   UNL     1       5.086 146.662  -9.015  1.00  0.00    -0.294 OA
BRANCH  11  13
ATOM     13  C   UNL     1       3.397 146.487  -7.334  1.00  0.00    -0.002 C 
ATOM     14  C   UNL     1       3.026 147.201  -6.229  1.00  0.00    -0.069 C 
ATOM     15  C   UNL     1       4.043 147.927  -5.376  1.00  0.00     0.039 C 
ATOM     16  C   UNL     1       1.581 147.271  -5.783  1.00  0.00     0.039 C 
BRANCH  13  17
ATOM     17  C   UNL     1       2.393 145.640  -8.096  1.00  0.00     0.066 CG0
ATOM     18  G   UNL     1       2.348 144.249  -7.512  1.00  0.00     0.000 G0
ENDBRANCH  13  17
ENDBRANCH  11  13
ENDBRANCH  10  11
ENDBRANCH   1  10
TORSDOF 0
ENDMDL
MODEL 3
REMARK VINA RESULT:    -2.433      1.972      3.512
REMARK INTER + INTRA:          -1.910
REMARK INTER:                  -2.574
REMARK INTRA:                   0.664
REMARK UNBOUND:                 1.518
REMARK SMILES CC1=CCC(=C(C)C)C(=O)CC(C)=CCC1
REMARK SMILES IDX 12 1 14 2 13 3 15 4 16 5 2 6 1 7 3 8 11 10 9 11 10 12 5 13
REMARK SMILES IDX 6 14 7 15 8 16 4 17
REMARK H PARENT
REMARK Flexibility Score: 60.00
ROOT
ATOM      1  C   UNL     1       5.065 146.637  -7.526  1.00  0.00    -0.070 C 
ATOM      2  C   UNL     1       5.643 145.429  -7.724  1.00  0.00    -0.027 C 
ATOM      3  C   UNL     1       4.869 147.521  -8.733  1.00  0.00     0.039 C 
ENDROOT
BRANCH   2   4
ATOM      4  C   UNL     1       6.027 144.436  -6.655  1.00  0.00     0.032 C 
BRANCH   4   5
ATOM      5  C   UNL     1       5.163 143.161  -6.690  1.00  0.00     0.034 C 
BRANCH   5   6
ATOM      6  C   UNL     1       4.063 143.244  -7.730  1.00  0.00    -0.077 C 
ATOM      7  C   UNL     1       4.357 142.744  -9.122  1.00  0.00     0.039 C 
ATOM      8  C   UNL     1       2.822 143.716  -7.475  1.00  0.00    -0.023 CG0
ATOM      9  G   UNL     1       2.329 144.225  -6.142  1.00  0.00     0.000 G0
ENDBRANCH   5   6
ENDBRANCH   4   5
ENDBRANCH   2   4
BRANCH   1  10
ATOM     10  C   UNL     1       4.670 147.171  -6.158  1.00  0.00     0.111 C 
BRANCH  10  11
ATOM     11  C   UNL     1       3.760 146.212  -5.431  1.00  0.00     0.163 C 
ATOM     12  O   UNL     1       4.088 145.848  -4.269  1.00  0.00    -0.294 OA
BRANCH  11  13
ATOM     13  C   UNL     1       2.474 145.733  -6.027  1.00  0.00    -0.002 C 
ATOM     14  C   UNL     1       1.475 146.599  -6.374  1.00  0.00    -0.069 C 
ATOM     15  C   UNL     1       1.585 148.085  -6.107  1.00  0.00     0.039 C 
ATOM     16  C   UNL     1       0.192 146.110  -7.010  1.00  0.00     0.039 C 
BRANCH  13  17
ATOM     17  C   UNL     1       2.292 144.232  -6.161  1.00  0.00     0.066 CG0
ATOM     18  G   UNL     1       2.848 143.763  -7.483  1.00  0.00     0.000 G0
ENDBRANCH  13  17
ENDBRANCH  11  13
ENDBRANCH  10  11
ENDBRANCH   1  10
TORSDOF 0
ENDMDL
MODEL 4
REMARK VINA RESULT:    -2.218      1.771      4.735
REMARK INTER + INTRA:          -1.608
REMARK INTER:                  -2.194
REMARK INTRA:                   0.587
REMARK UNBOUND:                 1.518
REMARK SMILES CC1=CCC(=C(C)C)C(=O)CC(C)=CCC1
REMARK SMILES IDX 12 1 14 2 13 3 15 4 16 5 2 6 1 7 3 8 11 10 9 11 10 12 5 13
REMARK SMILES IDX 6 14 7 15 8 16 4 17
REMARK H PARENT
REMARK Flexibility Score: 60.00
ROOT
ATOM      1  C   UNL     1       4.777 145.873  -5.856  1.00  0.00    -0.070 C 
ATOM      2  C   UNL     1       3.713 146.291  -5.130  1.00  0.00    -0.027 C 
ATOM      3  C   UNL     1       5.582 144.720  -5.308  1.00  0.00     0.039 C 
ENDROOT
BRANCH   2   4
ATOM      4  C   UNL     1       2.838 147.483  -5.432  1.00  0.00     0.032 C 
BRANCH   4   5
ATOM      5  C   UNL     1       2.257 147.446  -6.858  1.00  0.00     0.034 C 
BRANCH   5   6
ATOM      6  C   UNL     1       1.401 146.218  -7.096  1.00  0.00    -0.077 C 
ATOM      7  C   UNL     1       0.192 146.008  -6.220  1.00  0.00     0.039 C 
ATOM      8  C   UNL     1       1.644 145.309  -8.068  1.00  0.00    -0.023 CG0
ATOM      9  G   UNL     1       2.779 145.364  -9.062  1.00  0.00     0.000 G0
ENDBRANCH   5   6
ENDBRANCH   4   5
ENDBRANCH   2   4
BRANCH   1  10
ATOM     10  C   UNL     1       5.238 146.539  -7.141  1.00  0.00     0.111 C 
BRANCH  10  11
ATOM     11  C   UNL     1       5.197 145.582  -8.307  1.00  0.00     0.163 C 
ATOM     12  O   UNL     1       6.212 145.512  -9.052  1.00  0.00    -0.294 OA
BRANCH  11  13
ATOM     13  C   UNL     1       4.021 144.693  -8.562  1.00  0.00    -0.002 C 
ATOM     14  C   UNL     1       4.093 143.339  -8.392  1.00  0.00    -0.069 C 
ATOM     15  C   UNL     1       5.386 142.656  -8.006  1.00  0.00     0.039 C 
ATOM     16  C   UNL     1       2.888 142.451  -8.617  1.00  0.00     0.039 C 
BRANCH  13  17
ATOM     17  C   UNL     1       2.761 145.352  -9.095  1.00  0.00     0.066 CG0
ATOM     18  G   UNL     1       1.664 145.272  -8.062  1.00  0.00     0.000 G0
ENDBRANCH  13  17
ENDBRANCH  11  13
ENDBRANCH  10  11
ENDBRANCH   1  10
TORSDOF 0
ENDMDL
MODEL 5
REMARK VINA RESULT:    -1.927      1.621      4.168
REMARK INTER + INTRA:          -1.197
REMARK INTER:                  -2.498
REMARK INTRA:                   1.302
REMARK UNBOUND:                 1.518
REMARK SMILES CC1=CCC(=C(C)C)C(=O)CC(C)=CCC1
REMARK SMILES IDX 12 1 14 2 13 3 15 4 16 5 2 6 1 7 3 8 11 10 9 11 10 12 5 13
REMARK SMILES IDX 6 14 7 15 8 16 4 17
REMARK H PARENT
REMARK Flexibility Score: 60.00
ROOT
ATOM      1  C   UNL     1       2.467 145.421  -8.086  1.00  0.00    -0.070 C 
ATOM      2  C   UNL     1       1.694 145.765  -7.028  1.00  0.00    -0.027 C 
ATOM      3  C   UNL     1       2.424 143.982  -8.539  1.00  0.00     0.039 C 
ENDROOT
BRANCH   2   4
ATOM      4  C   UNL     1       1.660 147.111  -6.347  1.00  0.00     0.032 C 
BRANCH   4   5
ATOM      5  C   UNL     1       2.623 147.194  -5.147  1.00  0.00     0.034 C 
BRANCH   5   6
ATOM      6  C   UNL     1       3.963 147.791  -5.528  1.00  0.00    -0.077 C 
ATOM      7  C   UNL     1       4.112 149.291  -5.493  1.00  0.00     0.039 C 
ATOM      8  C   UNL     1       5.043 147.055  -5.875  1.00  0.00    -0.023 CG0
ATOM      9  G   UNL     1       5.100 145.548  -5.934  1.00  0.00     0.000 G0
ENDBRANCH   5   6
ENDBRANCH   4   5
ENDBRANCH   2   4
BRANCH   1  10
ATOM     10  C   UNL     1       3.413 146.380  -8.788  1.00  0.00     0.111 C 
BRANCH  10  11
ATOM     11  C   UNL     1       4.853 146.082  -8.453  1.00  0.00     0.163 C 
ATOM     12  O   UNL     1       5.750 146.722  -9.067  1.00  0.00    -0.294 OA
BRANCH  11  13
ATOM     13  C   UNL     1       5.234 145.099  -7.392  1.00  0.00    -0.002 C 
ATOM     14  C   UNL     1       5.624 143.825  -7.697  1.00  0.00    -0.069 C 
ATOM     15  C   UNL     1       5.625 143.316  -9.122  1.00  0.00     0.039 C 
ATOM     16  C   UNL     1       6.043 142.848  -6.619  1.00  0.00     0.039 C 
BRANCH  13  17
ATOM     17  C   UNL     1       5.092 145.552  -5.949  1.00  0.00     0.066 CG0
ATOM     18  G   UNL     1       5.043 147.059  -5.888  1.00  0.00     0.000 G0
ENDBRANCH  13  17
ENDBRANCH  11  13
ENDBRANCH  10  11
ENDBRANCH   1  10
TORSDOF 0
ENDMDL
MODEL 6
REMARK VINA RESULT:    -1.908      1.756      4.703
REMARK INTER + INTRA:          -1.170
REMARK INTER:                  -2.876
REMARK INTRA:                   1.706
REMARK UNBOUND:                 1.518
REMARK SMILES CC1=CCC(=C(C)C)C(=O)CC(C)=CCC1
REMARK SMILES IDX 12 1 14 2 13 3 15 4 16 5 2 6 1 7 3 8 11 10 9 11 10 12 5 13
REMARK SMILES IDX 6 14 7 15 8 16 4 17
REMARK H PARENT
REMARK Flexibility Score: 60.00
ROOT
ATOM      1  C   UNL     1       2.765 147.132  -6.133  1.00  0.00    -0.070 C 
ATOM      2  C   UNL     1       1.880 146.189  -6.536  1.00  0.00    -0.027 C 
ATOM      3  C   UNL     1       2.240 148.530  -5.914  1.00  0.00     0.039 C 
ENDROOT
BRANCH   2   4
ATOM      4  C   UNL     1       2.204 144.764  -6.912  1.00  0.00     0.032 C 
BRANCH   4   5
ATOM      5  C   UNL     1       2.127 144.519  -8.430  1.00  0.00     0.034 C 
BRANCH   5   6
ATOM      6  C   UNL     1       2.988 143.349  -8.866  1.00  0.00    -0.077 C 
ATOM      7  C   UNL     1       2.328 142.006  -9.053  1.00  0.00     0.039 C 
ATOM      8  C   UNL     1       4.312 143.445  -9.122  1.00  0.00    -0.023 CG0
ATOM      9  G   UNL     1       5.140 144.704  -9.027  1.00  0.00     0.000 G0
ENDBRANCH   5   6
ENDBRANCH   4   5
ENDBRANCH   2   4
BRANCH   1  10
ATOM     10  C   UNL     1       4.253 146.876  -5.959  1.00  0.00     0.111 C 
BRANCH  10  11
ATOM     11  C   UNL     1       4.913 146.530  -7.270  1.00  0.00     0.163 C 
ATOM     12  O   UNL     1       5.151 147.467  -8.080  1.00  0.00    -0.294 OA
BRANCH  11  13
ATOM     13  C   UNL     1       5.332 145.133  -7.603  1.00  0.00    -0.002 C 
ATOM     14  C   UNL     1       5.891 144.307  -6.667  1.00  0.00    -0.069 C 
ATOM     15  C   UNL     1       6.182 144.784  -5.262  1.00  0.00     0.039 C 
ATOM     16  C   UNL     1       6.277 142.882  -7.003  1.00  0.00     0.039 C 
BRANCH  13  17
ATOM     17  C   UNL     1       5.182 144.694  -9.048  1.00  0.00     0.066 CG0
ATOM     18  G   UNL     1       4.319 143.457  -9.122  1.00  0.00     0.000 G0
ENDBRANCH  13  17
ENDBRANCH  11  13
ENDBRANCH  10  11
ENDBRANCH   1  10
TORSDOF 0
ENDMDL
MODEL 7
REMARK VINA RESULT:    -1.546      1.179      3.847
REMARK INTER + INTRA:          -0.661
REMARK INTER:                  -2.535
REMARK INTRA:                   1.874
REMARK UNBOUND:                 1.518
REMARK SMILES CC1=CCC(=C(C)C)C(=O)CC(C)=CCC1
REMARK SMILES IDX 12 1 14 2 13 3 15 4 16 5 2 6 1 7 3 8 11 10 9 11 10 12 5 13
REMARK SMILES IDX 6 14 7 15 8 16 4 17
REMARK H PARENT
REMARK Flexibility Score: 60.00
ROOT
ATOM      1  C   UNL     1       1.675 146.614  -6.214  1.00  0.00    -0.070 C 
ATOM      2  C   UNL     1       2.736 147.405  -5.927  1.00  0.00    -0.027 C 
ATOM      3  C   UNL     1       0.298 147.201  -6.021  1.00  0.00     0.039 C 
ENDROOT
BRANCH   2   4
ATOM      4  C   UNL     1       4.188 146.993  -5.947  1.00  0.00     0.032 C 
BRANCH   4   5
ATOM      5  C   UNL     1       4.389 145.506  -5.601  1.00  0.00     0.034 C 
BRANCH   5   6
ATOM      6  C   UNL     1       5.620 144.924  -6.267  1.00  0.00    -0.077 C 
ATOM      7  C   UNL     1       6.749 144.445  -5.389  1.00  0.00     0.039 C 
ATOM      8  C   UNL     1       5.755 144.784  -7.605  1.00  0.00    -0.023 CG0
ATOM      9  G   UNL     1       4.726 145.169  -8.640  1.00  0.00     0.000 G0
ENDBRANCH   5   6
ENDBRANCH   4   5
ENDBRANCH   2   4
BRANCH   1  10
ATOM     10  C   UNL     1       1.796 145.163  -6.649  1.00  0.00     0.111 C 
BRANCH  10  11
ATOM     11  C   UNL     1       2.217 145.051  -8.093  1.00  0.00     0.163 C 
ATOM     12  O   UNL     1       1.503 145.618  -8.965  1.00  0.00    -0.294 OA
BRANCH  11  13
ATOM     13  C   UNL     1       3.468 144.339  -8.502  1.00  0.00    -0.002 C 
ATOM     14  C   UNL     1       3.502 142.983  -8.669  1.00  0.00    -0.069 C 
ATOM     15  C   UNL     1       2.295 142.118  -8.380  1.00  0.00     0.039 C 
ATOM     16  C   UNL     1       4.762 142.275  -9.119  1.00  0.00     0.039 C 
BRANCH  13  17
ATOM     17  C   UNL     1       4.723 145.181  -8.649  1.00  0.00     0.066 CG0
ATOM     18  G   UNL     1       5.737 144.776  -7.607  1.00  0.00     0.000 G0
ENDBRANCH  13  17
ENDBRANCH  11  13
ENDBRANCH  10  11
ENDBRANCH   1  10
TORSDOF 0
ENDMDL
