MODEL 1
REMARK VINA RESULT:    -3.557      0.000      0.000
REMARK INTER + INTRA:          -4.924
REMARK INTER:                  -4.597
REMARK INTRA:                  -0.327
REMARK UNBOUND:                -0.327
REMARK SMILES C=CC(=O)CCCCC
REMARK SMILES IDX 6 1 7 2 8 3 9 4 5 5 3 6 4 7 2 8 1 9
REMARK H PARENT
REMARK Flexibility Score: inf
ROOT
ATOM      1  C   UNL     1      -1.494   7.689  -8.890  1.00  0.00     0.008 C 
ENDROOT
BRANCH   1   2
ATOM      2  C   UNL     1      -1.830   8.360 -10.237  1.00  0.00     0.000 C 
BRANCH   2   3
ATOM      3  C   UNL     1      -3.104   7.789 -10.879  1.00  0.00    -0.003 C 
ATOM      4  C   UNL     1      -2.786   6.583 -11.756  1.00  0.00     0.004 C 
ENDBRANCH   2   3
ENDBRANCH   1   2
BRANCH   1   5
ATOM      5  C   UNL     1      -0.290   6.735  -8.959  1.00  0.00     0.080 C 
BRANCH   5   6
ATOM      6  C   UNL     1       0.954   7.330  -8.367  1.00  0.00     0.155 C 
ATOM      7  O   UNL     1       1.058   7.425  -7.114  1.00  0.00    -0.295 OA
BRANCH   6   8
ATOM      8  C   UNL     1       2.033   7.816  -9.250  1.00  0.00     0.039 C 
ATOM      9  C   UNL     1       1.908   7.857 -10.575  1.00  0.00     0.012 C 
ENDBRANCH   6   8
ENDBRANCH   5   6
ENDBRANCH   1   5
TORSDOF 5
ENDMDL
MODEL 2
REMARK VINA RESULT:    -3.538      2.260      4.413
REMARK INTER + INTRA:          -4.899
REMARK INTER:                  -4.361
REMARK INTRA:                  -0.538
REMARK UNBOUND:                -0.327
REMARK SMILES C=CC(=O)CCCCC
REMARK SMILES IDX 6 1 7 2 8 3 9 4 5 5 3 6 4 7 2 8 1 9
REMARK H PARENT
REMARK Flexibility Score: inf
ROOT
ATOM      1  C   UNL     1       1.040   8.345 -10.800  1.00  0.00     0.008 C 
ENDROOT
BRANCH   1   2
ATOM      2  C   UNL     1       2.166   8.147  -9.766  1.00  0.00     0.000 C 
BRANCH   2   3
ATOM      3  C   UNL     1       1.695   7.384  -8.519  1.00  0.00    -0.003 C 
ATOM      4  C   UNL     1       0.743   8.232  -7.681  1.00  0.00     0.004 C 
ENDBRANCH   2   3
ENDBRANCH   1   2
BRANCH   1   5
ATOM      5  C   UNL     1       0.741   7.090 -11.637  1.00  0.00     0.080 C 
BRANCH   5   6
ATOM      6  C   UNL     1      -0.677   6.623 -11.491  1.00  0.00     0.155 C 
ATOM      7  O   UNL     1      -1.025   5.529 -12.013  1.00  0.00    -0.295 OA
BRANCH   6   8
ATOM      8  C   UNL     1      -1.656   7.448 -10.755  1.00  0.00     0.039 C 
ATOM      9  C   UNL     1      -2.237   7.034  -9.631  1.00  0.00     0.012 C 
ENDBRANCH   6   8
ENDBRANCH   5   6
ENDBRANCH   1   5
TORSDOF 5
ENDMDL
MODEL 3
REMARK VINA RESULT:    -3.495      1.712      2.511
REMARK INTER + INTRA:          -4.844
REMARK INTER:                  -4.324
REMARK INTRA:                  -0.520
REMARK UNBOUND:                -0.327
REMARK SMILES C=CC(=O)CCCCC
REMARK SMILES IDX 6 1 7 2 8 3 9 4 5 5 3 6 4 7 2 8 1 9
REMARK H PARENT
REMARK Flexibility Score: inf
ROOT
ATOM      1  C   UNL     1      -0.028   7.952 -11.101  1.00  0.00     0.008 C 
ENDROOT
BRANCH   1   2
ATOM      2  C   UNL     1      -1.033   6.784 -11.060  1.00  0.00     0.000 C 
BRANCH   2   3
ATOM      3  C   UNL     1      -2.056   6.925  -9.922  1.00  0.00    -0.003 C 
ATOM      4  C   UNL     1      -2.315   8.391  -9.592  1.00  0.00     0.004 C 
ENDBRANCH   2   3
ENDBRANCH   1   2
BRANCH   1   5
ATOM      5  C   UNL     1       1.440   7.509 -10.987  1.00  0.00     0.080 C 
BRANCH   5   6
ATOM      6  C   UNL     1       2.078   7.948  -9.701  1.00  0.00     0.155 C 
ATOM      7  O   UNL     1       3.046   8.755  -9.736  1.00  0.00    -0.295 OA
BRANCH   6   8
ATOM      8  C   UNL     1       1.583   7.423  -8.413  1.00  0.00     0.039 C 
ATOM      9  C   UNL     1       0.822   8.146  -7.593  1.00  0.00     0.012 C 
ENDBRANCH   6   8
ENDBRANCH   5   6
ENDBRANCH   1   5
TORSDOF 5
ENDMDL
MODEL 4
REMARK VINA RESULT:    -3.495      1.524      3.539
REMARK INTER + INTRA:          -4.844
REMARK INTER:                  -4.236
REMARK INTRA:                  -0.608
REMARK UNBOUND:                -0.327
REMARK SMILES C=CC(=O)CCCCC
REMARK SMILES IDX 6 1 7 2 8 3 9 4 5 5 3 6 4 7 2 8 1 9
REMARK H PARENT
REMARK Flexibility Score: inf
ROOT
ATOM      1  C   UNL     1       1.971   7.764  -9.193  1.00  0.00     0.008 C 
ENDROOT
BRANCH   1   2
ATOM      2  C   UNL     1       1.990   9.067 -10.017  1.00  0.00     0.000 C 
BRANCH   2   3
ATOM      3  C   UNL     1       1.469   8.868 -11.448  1.00  0.00    -0.003 C 
ATOM      4  C   UNL     1       1.572   7.407 -11.875  1.00  0.00     0.004 C 
ENDBRANCH   2   3
ENDBRANCH   1   2
BRANCH   1   5
ATOM      5  C   UNL     1       0.828   7.699  -8.165  1.00  0.00     0.080 C 
BRANCH   5   6
ATOM      6  C   UNL     1      -0.446   7.167  -8.752  1.00  0.00     0.155 C 
ATOM      7  O   UNL     1      -0.491   5.971  -9.149  1.00  0.00    -0.295 OA
BRANCH   6   8
ATOM      8  C   UNL     1      -1.627   8.044  -8.875  1.00  0.00     0.039 C 
ATOM      9  C   UNL     1      -2.027   8.542 -10.044  1.00  0.00     0.012 C 
ENDBRANCH   6   8
ENDBRANCH   5   6
ENDBRANCH   1   5
TORSDOF 5
ENDMDL
MODEL 5
REMARK VINA RESULT:    -3.472      2.365      3.394
REMARK INTER + INTRA:          -4.814
REMARK INTER:                  -4.220
REMARK INTRA:                  -0.594
REMARK UNBOUND:                -0.327
REMARK SMILES C=CC(=O)CCCCC
REMARK SMILES IDX 6 1 7 2 8 3 9 4 5 5 3 6 4 7 2 8 1 9
REMARK H PARENT
REMARK Flexibility Score: inf
ROOT
ATOM      1  C   UNL     1       1.741   7.376  -8.727  1.00  0.00     0.008 C 
ENDROOT
BRANCH   1   2
ATOM      2  C   UNL     1       0.693   8.127  -7.883  1.00  0.00     0.000 C 
BRANCH   2   3
ATOM      3  C   UNL     1      -0.746   7.858  -8.350  1.00  0.00    -0.003 C 
ATOM      4  C   UNL     1      -0.801   6.675  -9.311  1.00  0.00     0.004 C 
ENDBRANCH   2   3
ENDBRANCH   1   2
BRANCH   1   5
ATOM      5  C   UNL     1       2.515   8.281  -9.700  1.00  0.00     0.080 C 
BRANCH   5   6
ATOM      6  C   UNL     1       2.148   8.034 -11.134  1.00  0.00     0.155 C 
ATOM      7  O   UNL     1       2.583   7.004 -11.715  1.00  0.00    -0.295 OA
BRANCH   6   8
ATOM      8  C   UNL     1       1.298   9.002 -11.857  1.00  0.00     0.039 C 
ATOM      9  C   UNL     1       0.543   9.900 -11.227  1.00  0.00     0.012 C 
ENDBRANCH   6   8
ENDBRANCH   5   6
ENDBRANCH   1   5
TORSDOF 5
ENDMDL
MODEL 6
REMARK VINA RESULT:    -3.460      1.857      3.701
REMARK INTER + INTRA:          -4.798
REMARK INTER:                  -4.186
REMARK INTRA:                  -0.611
REMARK UNBOUND:                -0.327
REMARK SMILES C=CC(=O)CCCCC
REMARK SMILES IDX 6 1 7 2 8 3 9 4 5 5 3 6 4 7 2 8 1 9
REMARK H PARENT
REMARK Flexibility Score: inf
ROOT
ATOM      1  C   UNL     1       0.291   8.674 -11.255  1.00  0.00     0.008 C 
ENDROOT
BRANCH   1   2
ATOM      2  C   UNL     1       1.076   7.458 -11.785  1.00  0.00     0.000 C 
BRANCH   2   3
ATOM      3  C   UNL     1       2.597   7.664 -11.724  1.00  0.00    -0.003 C 
ATOM      4  C   UNL     1       2.955   8.878 -10.873  1.00  0.00     0.004 C 
ENDBRANCH   2   3
ENDBRANCH   1   2
BRANCH   1   5
ATOM      5  C   UNL     1      -0.907   8.298 -10.368  1.00  0.00     0.080 C 
BRANCH   5   6
ATOM      6  C   UNL     1      -0.519   7.417  -9.216  1.00  0.00     0.155 C 
ATOM      7  O   UNL     1      -0.941   6.230  -9.176  1.00  0.00    -0.295 OA
BRANCH   6   8
ATOM      8  C   UNL     1       0.335   7.947  -8.135  1.00  0.00     0.039 C 
ATOM      9  C   UNL     1       1.494   7.383  -7.800  1.00  0.00     0.012 C 
ENDBRANCH   6   8
ENDBRANCH   5   6
ENDBRANCH   1   5
TORSDOF 5
ENDMDL
MODEL 7
REMARK VINA RESULT:    -3.443      2.216      3.506
REMARK INTER + INTRA:          -4.775
REMARK INTER:                  -4.159
REMARK INTRA:                  -0.617
REMARK UNBOUND:                -0.327
REMARK SMILES C=CC(=O)CCCCC
REMARK SMILES IDX 6 1 7 2 8 3 9 4 5 5 3 6 4 7 2 8 1 9
REMARK H PARENT
REMARK Flexibility Score: inf
ROOT
ATOM      1  C   UNL     1      -0.757   7.588 -10.588  1.00  0.00     0.008 C 
ENDROOT
BRANCH   1   2
ATOM      2  C   UNL     1      -0.724   7.038  -9.148  1.00  0.00     0.000 C 
BRANCH   2   3
ATOM      3  C   UNL     1       0.034   7.959  -8.181  1.00  0.00    -0.003 C 
ATOM      4  C   UNL     1       1.406   7.388  -7.838  1.00  0.00     0.004 C 
ENDBRANCH   2   3
ENDBRANCH   1   2
BRANCH   1   5
ATOM      5  C   UNL     1       0.245   6.905 -11.533  1.00  0.00     0.080 C 
BRANCH   5   6
ATOM      6  C   UNL     1       1.563   7.619 -11.590  1.00  0.00     0.155 C 
ATOM      7  O   UNL     1       2.617   6.957 -11.795  1.00  0.00    -0.295 OA
BRANCH   6   8
ATOM      8  C   UNL     1       1.622   9.081 -11.389  1.00  0.00     0.039 C 
ATOM      9  C   UNL     1       2.544   9.660 -10.622  1.00  0.00     0.012 C 
ENDBRANCH   6   8
ENDBRANCH   5   6
ENDBRANCH   1   5
TORSDOF 5
ENDMDL
MODEL 8
REMARK VINA RESULT:    -3.390      1.353      2.077
REMARK INTER + INTRA:          -4.708
REMARK INTER:                  -4.502
REMARK INTRA:                  -0.206
REMARK UNBOUND:                -0.327
REMARK SMILES C=CC(=O)CCCCC
REMARK SMILES IDX 6 1 7 2 8 3 9 4 5 5 3 6 4 7 2 8 1 9
REMARK H PARENT
REMARK Flexibility Score: inf
ROOT
ATOM      1  C   UNL     1      -1.998   8.490 -10.176  1.00  0.00     0.008 C 
ENDROOT
BRANCH   1   2
ATOM      2  C   UNL     1      -3.015   7.563 -10.872  1.00  0.00     0.000 C 
BRANCH   2   3
ATOM      3  C   UNL     1      -4.198   8.333 -11.478  1.00  0.00    -0.003 C 
ATOM      4  C   UNL     1      -4.596   9.514 -10.598  1.00  0.00     0.004 C 
ENDBRANCH   2   3
ENDBRANCH   1   2
BRANCH   1   5
ATOM      5  C   UNL     1      -1.625   8.041  -8.754  1.00  0.00     0.080 C 
BRANCH   5   6
ATOM      6  C   UNL     1      -0.425   7.139  -8.730  1.00  0.00     0.155 C 
ATOM      7  O   UNL     1      -0.549   5.937  -9.089  1.00  0.00    -0.295 OA
BRANCH   6   8
ATOM      8  C   UNL     1       0.880   7.656  -8.273  1.00  0.00     0.039 C 
ATOM      9  C   UNL     1       1.913   7.816  -9.097  1.00  0.00     0.012 C 
ENDBRANCH   6   8
ENDBRANCH   5   6
ENDBRANCH   1   5
TORSDOF 5
ENDMDL
MODEL 9
REMARK VINA RESULT:    -3.381      1.690      2.429
REMARK INTER + INTRA:          -4.695
REMARK INTER:                  -4.149
REMARK INTRA:                  -0.546
REMARK UNBOUND:                -0.327
REMARK SMILES C=CC(=O)CCCCC
REMARK SMILES IDX 6 1 7 2 8 3 9 4 5 5 3 6 4 7 2 8 1 9
REMARK H PARENT
REMARK Flexibility Score: inf
ROOT
ATOM      1  C   UNL     1       0.367   7.818  -8.560  1.00  0.00     0.008 C 
ENDROOT
BRANCH   1   2
ATOM      2  C   UNL     1      -0.590   6.689  -8.991  1.00  0.00     0.000 C 
BRANCH   2   3
ATOM      3  C   UNL     1      -1.663   7.168  -9.980  1.00  0.00    -0.003 C 
ATOM      4  C   UNL     1      -1.509   8.656 -10.281  1.00  0.00     0.004 C 
ENDBRANCH   2   3
ENDBRANCH   1   2
BRANCH   1   5
ATOM      5  C   UNL     1       1.843   7.535  -8.884  1.00  0.00     0.080 C 
BRANCH   5   6
ATOM      6  C   UNL     1       2.375   8.419  -9.974  1.00  0.00     0.155 C 
ATOM      7  O   UNL     1       2.673   9.615  -9.709  1.00  0.00    -0.295 OA
BRANCH   6   8
ATOM      8  C   UNL     1       2.528   7.893 -11.345  1.00  0.00     0.039 C 
ATOM      9  C   UNL     1       1.516   7.346 -12.016  1.00  0.00     0.012 C 
ENDBRANCH   6   8
ENDBRANCH   5   6
ENDBRANCH   1   5
TORSDOF 5
ENDMDL
