MODEL 1
REMARK VINA RESULT:    -4.482      0.000      0.000
REMARK INTER + INTRA:         -13.978
REMARK INTER:                 -10.246
REMARK INTRA:                  -3.731
REMARK UNBOUND:                -3.731
REMARK SMILES CCCCCCCCCCCCCCCCCCCCCCCC(=O)[O-]
REMARK SMILES IDX 13 1 14 2 15 3 16 4 17 5 18 6 19 7 20 8 21 9 22 10 23 11
REMARK SMILES IDX 24 12 25 13 26 14 12 15 11 16 10 17 9 18 8 19 7 20 6 21 5 22
REMARK SMILES IDX 4 23 3 24 2 25 1 26
REMARK H PARENT
REMARK Flexibility Score: inf
ROOT
ATOM      1  C   UNL     1      53.484  27.263  33.671  1.00  0.00     0.000 C 
ENDROOT
BRANCH   1   2
ATOM      2  C   UNL     1      53.989  28.518  34.416  1.00  0.00     0.000 C 
BRANCH   2   3
ATOM      3  C   UNL     1      52.841  29.438  34.867  1.00  0.00     0.000 C 
BRANCH   3   4
ATOM      4  C   UNL     1      52.741  29.549  36.396  1.00  0.00     0.000 C 
BRANCH   4   5
ATOM      5  C   UNL     1      53.609  30.684  36.970  1.00  0.00     0.000 C 
BRANCH   5   6
ATOM      6  C   UNL     1      54.519  30.211  38.113  1.00  0.00     0.000 C 
BRANCH   6   7
ATOM      7  C   UNL     1      54.742  28.688  38.093  1.00  0.00     0.000 C 
BRANCH   7   8
ATOM      8  C   UNL     1      56.231  28.299  38.062  1.00  0.00     0.000 C 
BRANCH   8   9
ATOM      9  C   UNL     1      56.900  28.403  36.677  1.00  0.00     0.000 C 
BRANCH   9  10
ATOM     10  C   UNL     1      58.239  29.162  36.710  1.00  0.00     0.006 C 
BRANCH  10  11
ATOM     11  C   UNL     1      58.278  30.217  37.824  1.00  0.00     0.053 C 
BRANCH  11  12
ATOM     12  C   UNL     1      57.908  31.577  37.317  1.00  0.00     0.041 C 
ATOM     13  O   UNL     1      58.225  31.929  36.152  1.00  0.00    -0.550 OA
ATOM     14  O   UNL     1      57.236  32.469  38.145  1.00  0.00    -0.550 OA
ENDBRANCH  11  12
ENDBRANCH  10  11
ENDBRANCH   9  10
ENDBRANCH   8   9
ENDBRANCH   7   8
ENDBRANCH   6   7
ENDBRANCH   5   6
ENDBRANCH   4   5
ENDBRANCH   3   4
ENDBRANCH   2   3
ENDBRANCH   1   2
BRANCH   1  15
ATOM     15  C   UNL     1      54.294  25.989  33.981  1.00  0.00     0.000 C 
BRANCH  15  16
ATOM     16  C   UNL     1      54.479  25.676  35.475  1.00  0.00     0.000 C 
BRANCH  16  17
ATOM     17  C   UNL     1      53.199  25.779  36.330  1.00  0.00     0.000 C 
BRANCH  17  18
ATOM     18  C   UNL     1      52.129  24.724  35.978  1.00  0.00    -0.000 C 
BRANCH  18  19
ATOM     19  C   UNL     1      50.698  25.225  36.238  1.00  0.00    -0.000 C 
BRANCH  19  20
ATOM     20  C   UNL     1      50.438  26.626  35.658  1.00  0.00    -0.000 C 
BRANCH  20  21
ATOM     21  C   UNL     1      49.409  26.670  34.513  1.00  0.00    -0.000 C 
BRANCH  21  22
ATOM     22  C   UNL     1      49.974  26.159  33.174  1.00  0.00    -0.000 C 
BRANCH  22  23
ATOM     23  C   UNL     1      49.808  24.641  32.995  1.00  0.00    -0.000 C 
BRANCH  23  24
ATOM     24  C   UNL     1      48.462  24.072  33.487  1.00  0.00    -0.000 C 
BRANCH  24  25
ATOM     25  C   UNL     1      48.485  22.554  33.759  1.00  0.00    -0.003 C 
ATOM     26  C   UNL     1      49.055  22.207  35.133  1.00  0.00     0.004 C 
ENDBRANCH  24  25
ENDBRANCH  23  24
ENDBRANCH  22  23
ENDBRANCH  21  22
ENDBRANCH  20  21
ENDBRANCH  19  20
ENDBRANCH  18  19
ENDBRANCH  17  18
ENDBRANCH  16  17
ENDBRANCH  15  16
ENDBRANCH   1  15
TORSDOF 22
ENDMDL
MODEL 2
REMARK VINA RESULT:    -4.470      1.463      3.115
REMARK INTER + INTRA:         -13.951
REMARK INTER:                  -9.979
REMARK INTRA:                  -3.972
REMARK UNBOUND:                -3.731
REMARK SMILES CCCCCCCCCCCCCCCCCCCCCCCC(=O)[O-]
REMARK SMILES IDX 13 1 14 2 15 3 16 4 17 5 18 6 19 7 20 8 21 9 22 10 23 11
REMARK SMILES IDX 24 12 25 13 26 14 12 15 11 16 10 17 9 18 8 19 7 20 6 21 5 22
REMARK SMILES IDX 4 23 3 24 2 25 1 26
REMARK H PARENT
REMARK Flexibility Score: inf
ROOT
ATOM      1  C   UNL     1      56.080  27.957  35.465  1.00  0.00     0.000 C 
ENDROOT
BRANCH   1   2
ATOM      2  C   UNL     1      55.639  27.561  34.040  1.00  0.00     0.000 C 
BRANCH   2   3
ATOM      3  C   UNL     1      54.311  28.220  33.628  1.00  0.00     0.000 C 
BRANCH   3   4
ATOM      4  C   UNL     1      53.086  27.444  34.135  1.00  0.00     0.000 C 
BRANCH   4   5
ATOM      5  C   UNL     1      52.191  28.284  35.064  1.00  0.00     0.000 C 
BRANCH   5   6
ATOM      6  C   UNL     1      52.736  29.704  35.284  1.00  0.00     0.000 C 
BRANCH   6   7
ATOM      7  C   UNL     1      52.788  30.088  36.773  1.00  0.00     0.000 C 
BRANCH   7   8
ATOM      8  C   UNL     1      54.218  30.360  37.273  1.00  0.00     0.000 C 
BRANCH   8   9
ATOM      9  C   UNL     1      54.477  29.972  38.742  1.00  0.00     0.000 C 
BRANCH   9  10
ATOM     10  C   UNL     1      55.789  30.553  39.298  1.00  0.00     0.006 C 
BRANCH  10  11
ATOM     11  C   UNL     1      56.945  30.434  38.295  1.00  0.00     0.053 C 
BRANCH  11  12
ATOM     12  C   UNL     1      57.429  31.776  37.840  1.00  0.00     0.041 C 
ATOM     13  O   UNL     1      56.987  32.826  38.375  1.00  0.00    -0.550 OA
ATOM     14  O   UNL     1      58.347  31.870  36.801  1.00  0.00    -0.550 OA
ENDBRANCH  11  12
ENDBRANCH  10  11
ENDBRANCH   9  10
ENDBRANCH   8   9
ENDBRANCH   7   8
ENDBRANCH   6   7
ENDBRANCH   5   6
ENDBRANCH   4   5
ENDBRANCH   3   4
ENDBRANCH   2   3
ENDBRANCH   1   2
BRANCH   1  15
ATOM     15  C   UNL     1      56.155  26.771  36.446  1.00  0.00     0.000 C 
BRANCH  15  16
ATOM     16  C   UNL     1      54.924  26.590  37.350  1.00  0.00     0.000 C 
BRANCH  16  17
ATOM     17  C   UNL     1      53.962  25.459  36.928  1.00  0.00     0.000 C 
BRANCH  17  18
ATOM     18  C   UNL     1      54.610  24.399  36.014  1.00  0.00    -0.000 C 
BRANCH  18  19
ATOM     19  C   UNL     1      53.663  23.923  34.898  1.00  0.00    -0.000 C 
BRANCH  19  20
ATOM     20  C   UNL     1      53.023  22.557  35.196  1.00  0.00    -0.000 C 
BRANCH  20  21
ATOM     21  C   UNL     1      51.595  22.624  35.768  1.00  0.00    -0.000 C 
BRANCH  21  22
ATOM     22  C   UNL     1      50.754  23.761  35.158  1.00  0.00    -0.000 C 
BRANCH  22  23
ATOM     23  C   UNL     1      50.258  24.767  36.210  1.00  0.00    -0.000 C 
BRANCH  23  24
ATOM     24  C   UNL     1      49.493  25.979  35.640  1.00  0.00    -0.000 C 
BRANCH  24  25
ATOM     25  C   UNL     1      48.829  25.714  34.272  1.00  0.00    -0.003 C 
ATOM     26  C   UNL     1      49.506  26.469  33.130  1.00  0.00     0.004 C 
ENDBRANCH  24  25
ENDBRANCH  23  24
ENDBRANCH  22  23
ENDBRANCH  21  22
ENDBRANCH  20  21
ENDBRANCH  19  20
ENDBRANCH  18  19
ENDBRANCH  17  18
ENDBRANCH  16  17
ENDBRANCH  15  16
ENDBRANCH   1  15
TORSDOF 22
ENDMDL
MODEL 3
REMARK VINA RESULT:    -4.432      3.634      8.641
REMARK INTER + INTRA:         -13.864
REMARK INTER:                 -10.208
REMARK INTRA:                  -3.655
REMARK UNBOUND:                -3.731
REMARK SMILES CCCCCCCCCCCCCCCCCCCCCCCC(=O)[O-]
REMARK SMILES IDX 13 1 14 2 15 3 16 4 17 5 18 6 19 7 20 8 21 9 22 10 23 11
REMARK SMILES IDX 24 12 25 13 26 14 12 15 11 16 10 17 9 18 8 19 7 20 6 21 5 22
REMARK SMILES IDX 4 23 3 24 2 25 1 26
REMARK H PARENT
REMARK Flexibility Score: inf
ROOT
ATOM      1  C   UNL     1      53.251  28.536  34.410  1.00  0.00     0.000 C 
ENDROOT
BRANCH   1   2
ATOM      2  C   UNL     1      54.739  28.131  34.463  1.00  0.00     0.000 C 
BRANCH   2   3
ATOM      3  C   UNL     1      54.936  26.661  34.872  1.00  0.00     0.000 C 
BRANCH   3   4
ATOM      4  C   UNL     1      53.822  25.747  34.341  1.00  0.00     0.000 C 
BRANCH   4   5
ATOM      5  C   UNL     1      53.919  24.310  34.886  1.00  0.00     0.000 C 
BRANCH   5   6
ATOM      6  C   UNL     1      52.578  23.794  35.431  1.00  0.00     0.000 C 
BRANCH   6   7
ATOM      7  C   UNL     1      51.981  24.727  36.500  1.00  0.00     0.000 C 
BRANCH   7   8
ATOM      8  C   UNL     1      50.517  25.105  36.217  1.00  0.00     0.000 C 
BRANCH   8   9
ATOM      9  C   UNL     1      50.317  26.493  35.577  1.00  0.00     0.000 C 
BRANCH   9  10
ATOM     10  C   UNL     1      49.502  26.444  34.272  1.00  0.00     0.006 C 
BRANCH  10  11
ATOM     11  C   UNL     1      50.384  26.152  33.050  1.00  0.00     0.053 C 
BRANCH  11  12
ATOM     12  C   UNL     1      50.446  24.687  32.745  1.00  0.00     0.041 C 
ATOM     13  O   UNL     1      51.402  24.217  32.076  1.00  0.00    -0.550 OA
ATOM     14  O   UNL     1      49.428  23.843  33.173  1.00  0.00    -0.550 OA
ENDBRANCH  11  12
ENDBRANCH  10  11
ENDBRANCH   9  10
ENDBRANCH   8   9
ENDBRANCH   7   8
ENDBRANCH   6   7
ENDBRANCH   5   6
ENDBRANCH   4   5
ENDBRANCH   3   4
ENDBRANCH   2   3
ENDBRANCH   1   2
BRANCH   1  15
ATOM     15  C   UNL     1      52.715  29.112  35.736  1.00  0.00     0.000 C 
BRANCH  15  16
ATOM     16  C   UNL     1      52.932  30.623  35.930  1.00  0.00     0.000 C 
BRANCH  16  17
ATOM     17  C   UNL     1      53.902  31.004  37.067  1.00  0.00     0.000 C 
BRANCH  17  18
ATOM     18  C   UNL     1      54.214  29.845  38.035  1.00  0.00    -0.000 C 
BRANCH  18  19
ATOM     19  C   UNL     1      55.686  29.403  37.973  1.00  0.00    -0.000 C 
BRANCH  19  20
ATOM     20  C   UNL     1      56.578  30.392  37.204  1.00  0.00    -0.000 C 
BRANCH  20  21
ATOM     21  C   UNL     1      57.469  31.281  38.091  1.00  0.00    -0.000 C 
BRANCH  21  22
ATOM     22  C   UNL     1      56.827  32.642  38.419  1.00  0.00    -0.000 C 
BRANCH  22  23
ATOM     23  C   UNL     1      56.801  32.942  39.927  1.00  0.00    -0.000 C 
BRANCH  23  24
ATOM     24  C   UNL     1      56.794  31.698  40.837  1.00  0.00    -0.000 C 
BRANCH  24  25
ATOM     25  C   UNL     1      55.404  31.347  41.408  1.00  0.00    -0.003 C 
ATOM     26  C   UNL     1      55.223  29.848  41.643  1.00  0.00     0.004 C 
ENDBRANCH  24  25
ENDBRANCH  23  24
ENDBRANCH  22  23
ENDBRANCH  21  22
ENDBRANCH  20  21
ENDBRANCH  19  20
ENDBRANCH  18  19
ENDBRANCH  17  18
ENDBRANCH  16  17
ENDBRANCH  15  16
ENDBRANCH   1  15
TORSDOF 22
ENDMDL
MODEL 4
REMARK VINA RESULT:    -4.364      3.616      8.283
REMARK INTER + INTRA:         -13.707
REMARK INTER:                  -9.491
REMARK INTRA:                  -4.216
REMARK UNBOUND:                -3.731
REMARK SMILES CCCCCCCCCCCCCCCCCCCCCCCC(=O)[O-]
REMARK SMILES IDX 13 1 14 2 15 3 16 4 17 5 18 6 19 7 20 8 21 9 22 10 23 11
REMARK SMILES IDX 24 12 25 13 26 14 12 15 11 16 10 17 9 18 8 19 7 20 6 21 5 22
REMARK SMILES IDX 4 23 3 24 2 25 1 26
REMARK H PARENT
REMARK Flexibility Score: inf
ROOT
ATOM      1  C   UNL     1      52.893  28.924  35.632  1.00  0.00     0.000 C 
ENDROOT
BRANCH   1   2
ATOM      2  C   UNL     1      53.758  28.511  34.422  1.00  0.00     0.000 C 
BRANCH   2   3
ATOM      3  C   UNL     1      55.185  28.103  34.828  1.00  0.00     0.000 C 
BRANCH   3   4
ATOM      4  C   UNL     1      55.217  27.291  36.132  1.00  0.00     0.000 C 
BRANCH   4   5
ATOM      5  C   UNL     1      55.822  25.887  35.946  1.00  0.00     0.000 C 
BRANCH   5   6
ATOM      6  C   UNL     1      54.753  24.784  35.919  1.00  0.00     0.000 C 
BRANCH   6   7
ATOM      7  C   UNL     1      53.387  25.277  36.427  1.00  0.00     0.000 C 
BRANCH   7   8
ATOM      8  C   UNL     1      52.237  24.973  35.450  1.00  0.00     0.000 C 
BRANCH   8   9
ATOM      9  C   UNL     1      52.630  24.989  33.960  1.00  0.00     0.000 C 
BRANCH   9  10
ATOM     10  C   UNL     1      51.604  25.719  33.074  1.00  0.00     0.006 C 
BRANCH  10  11
ATOM     11  C   UNL     1      50.600  26.533  33.902  1.00  0.00     0.053 C 
BRANCH  11  12
ATOM     12  C   UNL     1      49.194  26.061  33.696  1.00  0.00     0.041 C 
ATOM     13  O   UNL     1      48.673  26.101  32.551  1.00  0.00    -0.550 OA
ATOM     14  O   UNL     1      48.448  25.605  34.775  1.00  0.00    -0.550 OA
ENDBRANCH  11  12
ENDBRANCH  10  11
ENDBRANCH   9  10
ENDBRANCH   8   9
ENDBRANCH   7   8
ENDBRANCH   6   7
ENDBRANCH   5   6
ENDBRANCH   4   5
ENDBRANCH   3   4
ENDBRANCH   2   3
ENDBRANCH   1   2
BRANCH   1  15
ATOM     15  C   UNL     1      53.168  30.356  36.132  1.00  0.00     0.000 C 
BRANCH  15  16
ATOM     16  C   UNL     1      53.540  30.470  37.620  1.00  0.00     0.000 C 
BRANCH  16  17
ATOM     17  C   UNL     1      55.026  30.209  37.945  1.00  0.00     0.000 C 
BRANCH  17  18
ATOM     18  C   UNL     1      55.823  31.486  38.283  1.00  0.00    -0.000 C 
BRANCH  18  19
ATOM     19  C   UNL     1      57.055  31.669  37.380  1.00  0.00    -0.000 C 
BRANCH  19  20
ATOM     20  C   UNL     1      57.435  30.389  36.616  1.00  0.00    -0.000 C 
BRANCH  20  21
ATOM     21  C   UNL     1      58.691  29.672  37.143  1.00  0.00    -0.000 C 
BRANCH  21  22
ATOM     22  C   UNL     1      58.714  28.169  36.806  1.00  0.00    -0.000 C 
BRANCH  22  23
ATOM     23  C   UNL     1      58.620  27.275  38.053  1.00  0.00    -0.000 C 
BRANCH  23  24
ATOM     24  C   UNL     1      57.556  27.705  39.082  1.00  0.00    -0.000 C 
BRANCH  24  25
ATOM     25  C   UNL     1      58.140  28.148  40.440  1.00  0.00    -0.003 C 
ATOM     26  C   UNL     1      57.854  29.614  40.757  1.00  0.00     0.004 C 
ENDBRANCH  24  25
ENDBRANCH  23  24
ENDBRANCH  22  23
ENDBRANCH  21  22
ENDBRANCH  20  21
ENDBRANCH  19  20
ENDBRANCH  18  19
ENDBRANCH  17  18
ENDBRANCH  16  17
ENDBRANCH  15  16
ENDBRANCH   1  15
TORSDOF 22
ENDMDL
MODEL 5
REMARK VINA RESULT:    -4.355      2.691      5.412
REMARK INTER + INTRA:         -13.688
REMARK INTER:                 -10.242
REMARK INTRA:                  -3.446
REMARK UNBOUND:                -3.731
REMARK SMILES CCCCCCCCCCCCCCCCCCCCCCCC(=O)[O-]
REMARK SMILES IDX 13 1 14 2 15 3 16 4 17 5 18 6 19 7 20 8 21 9 22 10 23 11
REMARK SMILES IDX 24 12 25 13 26 14 12 15 11 16 10 17 9 18 8 19 7 20 6 21 5 22
REMARK SMILES IDX 4 23 3 24 2 25 1 26
REMARK H PARENT
REMARK Flexibility Score: inf
ROOT
ATOM      1  C   UNL     1      56.872  31.396  37.415  1.00  0.00     0.000 C 
ENDROOT
BRANCH   1   2
ATOM      2  C   UNL     1      58.222  30.716  37.101  1.00  0.00     0.000 C 
BRANCH   2   3
ATOM      3  C   UNL     1      58.689  29.781  38.230  1.00  0.00     0.000 C 
BRANCH   3   4
ATOM      4  C   UNL     1      58.584  28.297  37.848  1.00  0.00     0.000 C 
BRANCH   4   5
ATOM      5  C   UNL     1      58.335  28.085  36.343  1.00  0.00     0.000 C 
BRANCH   5   6
ATOM      6  C   UNL     1      56.980  27.420  36.057  1.00  0.00     0.000 C 
BRANCH   6   7
ATOM      7  C   UNL     1      56.122  28.235  35.073  1.00  0.00     0.000 C 
BRANCH   7   8
ATOM      8  C   UNL     1      56.165  27.682  33.638  1.00  0.00     0.000 C 
BRANCH   8   9
ATOM      9  C   UNL     1      56.159  26.144  33.534  1.00  0.00     0.000 C 
BRANCH   9  10
ATOM     10  C   UNL     1      57.382  25.585  32.784  1.00  0.00     0.006 C 
BRANCH  10  11
ATOM     11  C   UNL     1      58.578  25.355  33.718  1.00  0.00     0.053 C 
BRANCH  11  12
ATOM     12  C   UNL     1      59.782  26.133  33.283  1.00  0.00     0.041 C 
ATOM     13  O   UNL     1      59.885  26.533  32.094  1.00  0.00    -0.550 OA
ATOM     14  O   UNL     1      60.808  26.389  34.185  1.00  0.00    -0.550 OA
ENDBRANCH  11  12
ENDBRANCH  10  11
ENDBRANCH   9  10
ENDBRANCH   8   9
ENDBRANCH   7   8
ENDBRANCH   6   7
ENDBRANCH   5   6
ENDBRANCH   4   5
ENDBRANCH   3   4
ENDBRANCH   2   3
ENDBRANCH   1   2
BRANCH   1  15
ATOM     15  C   UNL     1      56.468  31.321  38.901  1.00  0.00     0.000 C 
BRANCH  15  16
ATOM     16  C   UNL     1      55.204  30.496  39.196  1.00  0.00     0.000 C 
BRANCH  16  17
ATOM     17  C   UNL     1      54.638  29.712  37.994  1.00  0.00     0.000 C 
BRANCH  17  18
ATOM     18  C   UNL     1      53.204  30.125  37.601  1.00  0.00    -0.000 C 
BRANCH  18  19
ATOM     19  C   UNL     1      53.128  30.718  36.183  1.00  0.00    -0.000 C 
BRANCH  19  20
ATOM     20  C   UNL     1      52.888  29.654  35.099  1.00  0.00    -0.000 C 
BRANCH  20  21
ATOM     21  C   UNL     1      52.052  28.444  35.557  1.00  0.00    -0.000 C 
BRANCH  21  22
ATOM     22  C   UNL     1      52.759  27.097  35.317  1.00  0.00    -0.000 C 
BRANCH  22  23
ATOM     23  C   UNL     1      52.565  26.565  33.888  1.00  0.00    -0.000 C 
BRANCH  23  24
ATOM     24  C   UNL     1      51.522  25.439  33.749  1.00  0.00    -0.000 C 
BRANCH  24  25
ATOM     25  C   UNL     1      50.314  25.810  32.863  1.00  0.00    -0.003 C 
ATOM     26  C   UNL     1      49.015  25.936  33.657  1.00  0.00     0.004 C 
ENDBRANCH  24  25
ENDBRANCH  23  24
ENDBRANCH  22  23
ENDBRANCH  21  22
ENDBRANCH  20  21
ENDBRANCH  19  20
ENDBRANCH  18  19
ENDBRANCH  17  18
ENDBRANCH  16  17
ENDBRANCH  15  16
ENDBRANCH   1  15
TORSDOF 22
ENDMDL
MODEL 6
REMARK VINA RESULT:    -4.354      3.639      8.230
REMARK INTER + INTRA:         -13.684
REMARK INTER:                  -9.627
REMARK INTRA:                  -4.057
REMARK UNBOUND:                -3.731
REMARK SMILES CCCCCCCCCCCCCCCCCCCCCCCC(=O)[O-]
REMARK SMILES IDX 13 1 14 2 15 3 16 4 17 5 18 6 19 7 20 8 21 9 22 10 23 11
REMARK SMILES IDX 24 12 25 13 26 14 12 15 11 16 10 17 9 18 8 19 7 20 6 21 5 22
REMARK SMILES IDX 4 23 3 24 2 25 1 26
REMARK H PARENT
REMARK Flexibility Score: inf
ROOT
ATOM      1  C   UNL     1      55.058  25.585  34.857  1.00  0.00     0.000 C 
ENDROOT
BRANCH   1   2
ATOM      2  C   UNL     1      55.978  26.386  33.910  1.00  0.00     0.000 C 
BRANCH   2   3
ATOM      3  C   UNL     1      55.613  27.880  33.856  1.00  0.00     0.000 C 
BRANCH   3   4
ATOM      4  C   UNL     1      54.095  28.116  33.854  1.00  0.00     0.000 C 
BRANCH   4   5
ATOM      5  C   UNL     1      53.637  29.059  34.981  1.00  0.00     0.000 C 
BRANCH   5   6
ATOM      6  C   UNL     1      52.300  28.629  35.604  1.00  0.00     0.000 C 
BRANCH   6   7
ATOM      7  C   UNL     1      51.640  27.470  34.834  1.00  0.00     0.000 C 
BRANCH   7   8
ATOM      8  C   UNL     1      51.435  26.214  35.699  1.00  0.00     0.000 C 
BRANCH   8   9
ATOM      9  C   UNL     1      49.965  25.794  35.895  1.00  0.00     0.000 C 
BRANCH   9  10
ATOM     10  C   UNL     1      49.072  26.144  34.691  1.00  0.00     0.006 C 
BRANCH  10  11
ATOM     11  C   UNL     1      48.543  24.890  33.979  1.00  0.00     0.053 C 
BRANCH  11  12
ATOM     12  C   UNL     1      49.628  24.169  33.241  1.00  0.00     0.041 C 
ATOM     13  O   UNL     1      49.690  22.912  33.272  1.00  0.00    -0.550 OA
ATOM     14  O   UNL     1      50.591  24.887  32.543  1.00  0.00    -0.550 OA
ENDBRANCH  11  12
ENDBRANCH  10  11
ENDBRANCH   9  10
ENDBRANCH   8   9
ENDBRANCH   7   8
ENDBRANCH   6   7
ENDBRANCH   5   6
ENDBRANCH   4   5
ENDBRANCH   3   4
ENDBRANCH   2   3
ENDBRANCH   1   2
BRANCH   1  15
ATOM     15  C   UNL     1      55.576  25.504  36.306  1.00  0.00     0.000 C 
BRANCH  15  16
ATOM     16  C   UNL     1      54.891  26.455  37.302  1.00  0.00     0.000 C 
BRANCH  16  17
ATOM     17  C   UNL     1      55.731  27.679  37.723  1.00  0.00     0.000 C 
BRANCH  17  18
ATOM     18  C   UNL     1      57.254  27.450  37.632  1.00  0.00    -0.000 C 
BRANCH  18  19
ATOM     19  C   UNL     1      57.948  28.459  36.700  1.00  0.00    -0.000 C 
BRANCH  19  20
ATOM     20  C   UNL     1      57.111  29.726  36.457  1.00  0.00    -0.000 C 
BRANCH  20  21
ATOM     21  C   UNL     1      57.820  31.046  36.814  1.00  0.00    -0.000 C 
BRANCH  21  22
ATOM     22  C   UNL     1      57.900  31.296  38.332  1.00  0.00    -0.000 C 
BRANCH  22  23
ATOM     23  C   UNL     1      56.531  31.209  39.026  1.00  0.00    -0.000 C 
BRANCH  23  24
ATOM     24  C   UNL     1      56.487  30.291  40.263  1.00  0.00    -0.000 C 
BRANCH  24  25
ATOM     25  C   UNL     1      55.066  29.835  40.656  1.00  0.00    -0.003 C 
ATOM     26  C   UNL     1      55.065  28.551  41.483  1.00  0.00     0.004 C 
ENDBRANCH  24  25
ENDBRANCH  23  24
ENDBRANCH  22  23
ENDBRANCH  21  22
ENDBRANCH  20  21
ENDBRANCH  19  20
ENDBRANCH  18  19
ENDBRANCH  17  18
ENDBRANCH  16  17
ENDBRANCH  15  16
ENDBRANCH   1  15
TORSDOF 22
ENDMDL
MODEL 7
REMARK VINA RESULT:    -4.346      1.763      3.329
REMARK INTER + INTRA:         -13.667
REMARK INTER:                  -9.422
REMARK INTRA:                  -4.245
REMARK UNBOUND:                -3.731
REMARK SMILES CCCCCCCCCCCCCCCCCCCCCCCC(=O)[O-]
REMARK SMILES IDX 13 1 14 2 15 3 16 4 17 5 18 6 19 7 20 8 21 9 22 10 23 11
REMARK SMILES IDX 24 12 25 13 26 14 12 15 11 16 10 17 9 18 8 19 7 20 6 21 5 22
REMARK SMILES IDX 4 23 3 24 2 25 1 26
REMARK H PARENT
REMARK Flexibility Score: inf
ROOT
ATOM      1  C   UNL     1      53.340  29.215  34.828  1.00  0.00     0.000 C 
ENDROOT
BRANCH   1   2
ATOM      2  C   UNL     1      54.089  28.199  33.939  1.00  0.00     0.000 C 
BRANCH   2   3
ATOM      3  C   UNL     1      55.529  27.943  34.419  1.00  0.00     0.000 C 
BRANCH   3   4
ATOM      4  C   UNL     1      55.767  26.478  34.814  1.00  0.00     0.000 C 
BRANCH   4   5
ATOM      5  C   UNL     1      56.096  26.309  36.308  1.00  0.00     0.000 C 
BRANCH   5   6
ATOM      6  C   UNL     1      54.970  26.818  37.221  1.00  0.00     0.000 C 
BRANCH   6   7
ATOM      7  C   UNL     1      55.501  27.366  38.558  1.00  0.00     0.000 C 
BRANCH   7   8
ATOM      8  C   UNL     1      55.072  28.819  38.825  1.00  0.00     0.000 C 
BRANCH   8   9
ATOM      9  C   UNL     1      55.420  29.816  37.702  1.00  0.00     0.000 C 
BRANCH   9  10
ATOM     10  C   UNL     1      56.840  30.396  37.829  1.00  0.00     0.006 C 
BRANCH  10  11
ATOM     11  C   UNL     1      57.754  29.944  36.680  1.00  0.00     0.053 C 
BRANCH  11  12
ATOM     12  C   UNL     1      58.704  28.871  37.113  1.00  0.00     0.041 C 
ATOM     13  O   UNL     1      59.144  28.038  36.279  1.00  0.00    -0.550 OA
ATOM     14  O   UNL     1      59.081  28.770  38.447  1.00  0.00    -0.550 OA
ENDBRANCH  11  12
ENDBRANCH  10  11
ENDBRANCH   9  10
ENDBRANCH   8   9
ENDBRANCH   7   8
ENDBRANCH   6   7
ENDBRANCH   5   6
ENDBRANCH   4   5
ENDBRANCH   3   4
ENDBRANCH   2   3
ENDBRANCH   1   2
BRANCH   1  15
ATOM     15  C   UNL     1      52.115  28.624  35.552  1.00  0.00     0.000 C 
BRANCH  15  16
ATOM     16  C   UNL     1      51.827  27.143  35.253  1.00  0.00     0.000 C 
BRANCH  16  17
ATOM     17  C   UNL     1      50.432  26.646  35.686  1.00  0.00     0.000 C 
BRANCH  17  18
ATOM     18  C   UNL     1      49.402  26.605  34.539  1.00  0.00    -0.000 C 
BRANCH  18  19
ATOM     19  C   UNL     1      48.487  25.370  34.611  1.00  0.00    -0.000 C 
BRANCH  19  20
ATOM     20  C   UNL     1      48.721  24.380  33.458  1.00  0.00    -0.000 C 
BRANCH  20  21
ATOM     21  C   UNL     1      49.675  23.217  33.789  1.00  0.00    -0.000 C 
BRANCH  21  22
ATOM     22  C   UNL     1      50.844  23.093  32.793  1.00  0.00    -0.000 C 
BRANCH  22  23
ATOM     23  C   UNL     1      51.609  24.413  32.603  1.00  0.00    -0.000 C 
BRANCH  23  24
ATOM     24  C   UNL     1      52.971  24.484  33.323  1.00  0.00    -0.000 C 
BRANCH  24  25
ATOM     25  C   UNL     1      53.208  23.339  34.329  1.00  0.00    -0.003 C 
ATOM     26  C   UNL     1      53.224  23.819  35.779  1.00  0.00     0.004 C 
ENDBRANCH  24  25
ENDBRANCH  23  24
ENDBRANCH  22  23
ENDBRANCH  21  22
ENDBRANCH  20  21
ENDBRANCH  19  20
ENDBRANCH  18  19
ENDBRANCH  17  18
ENDBRANCH  16  17
ENDBRANCH  15  16
ENDBRANCH   1  15
TORSDOF 22
ENDMDL
MODEL 8
REMARK VINA RESULT:    -4.344      1.580      3.880
REMARK INTER + INTRA:         -13.662
REMARK INTER:                  -9.513
REMARK INTRA:                  -4.149
REMARK UNBOUND:                -3.731
REMARK SMILES CCCCCCCCCCCCCCCCCCCCCCCC(=O)[O-]
REMARK SMILES IDX 13 1 14 2 15 3 16 4 17 5 18 6 19 7 20 8 21 9 22 10 23 11
REMARK SMILES IDX 24 12 25 13 26 14 12 15 11 16 10 17 9 18 8 19 7 20 6 21 5 22
REMARK SMILES IDX 4 23 3 24 2 25 1 26
REMARK H PARENT
REMARK Flexibility Score: inf
ROOT
ATOM      1  C   UNL     1      53.156  25.169  36.133  1.00  0.00     0.000 C 
ENDROOT
BRANCH   1   2
ATOM      2  C   UNL     1      54.547  24.530  35.931  1.00  0.00     0.000 C 
BRANCH   2   3
ATOM      3  C   UNL     1      55.000  24.555  34.461  1.00  0.00     0.000 C 
BRANCH   3   4
ATOM      4  C   UNL     1      54.584  25.845  33.738  1.00  0.00     0.000 C 
BRANCH   4   5
ATOM      5  C   UNL     1      55.509  27.033  34.059  1.00  0.00     0.000 C 
BRANCH   5   6
ATOM      6  C   UNL     1      54.730  28.322  34.366  1.00  0.00     0.000 C 
BRANCH   6   7
ATOM      7  C   UNL     1      53.207  28.119  34.286  1.00  0.00     0.000 C 
BRANCH   7   8
ATOM      8  C   UNL     1      52.448  28.811  35.432  1.00  0.00     0.000 C 
BRANCH   8   9
ATOM      9  C   UNL     1      53.027  30.171  35.867  1.00  0.00     0.000 C 
BRANCH   9  10
ATOM     10  C   UNL     1      53.259  30.271  37.385  1.00  0.00     0.006 C 
BRANCH  10  11
ATOM     11  C   UNL     1      54.555  29.572  37.820  1.00  0.00     0.053 C 
BRANCH  11  12
ATOM     12  C   UNL     1      55.760  30.423  37.565  1.00  0.00     0.041 C 
ATOM     13  O   UNL     1      55.842  31.574  38.065  1.00  0.00    -0.550 OA
ATOM     14  O   UNL     1      56.782  29.955  36.746  1.00  0.00    -0.550 OA
ENDBRANCH  11  12
ENDBRANCH  10  11
ENDBRANCH   9  10
ENDBRANCH   8   9
ENDBRANCH   7   8
ENDBRANCH   6   7
ENDBRANCH   5   6
ENDBRANCH   4   5
ENDBRANCH   3   4
ENDBRANCH   2   3
ENDBRANCH   1   2
BRANCH   1  15
ATOM     15  C   UNL     1      52.088  24.185  36.648  1.00  0.00     0.000 C 
BRANCH  15  16
ATOM     16  C   UNL     1      52.600  22.771  36.972  1.00  0.00     0.000 C 
BRANCH  16  17
ATOM     17  C   UNL     1      52.079  21.656  36.041  1.00  0.00     0.000 C 
BRANCH  17  18
ATOM     18  C   UNL     1      50.759  22.009  35.325  1.00  0.00    -0.000 C 
BRANCH  18  19
ATOM     19  C   UNL     1      50.863  21.875  33.795  1.00  0.00    -0.000 C 
BRANCH  19  20
ATOM     20  C   UNL     1      51.906  22.822  33.179  1.00  0.00    -0.000 C 
BRANCH  20  21
ATOM     21  C   UNL     1      51.324  23.911  32.258  1.00  0.00    -0.000 C 
BRANCH  21  22
ATOM     22  C   UNL     1      51.428  25.326  32.858  1.00  0.00    -0.000 C 
BRANCH  22  23
ATOM     23  C   UNL     1      50.088  26.081  32.845  1.00  0.00    -0.000 C 
BRANCH  23  24
ATOM     24  C   UNL     1      49.611  26.580  34.224  1.00  0.00    -0.000 C 
BRANCH  24  25
ATOM     25  C   UNL     1      48.950  25.488  35.091  1.00  0.00    -0.003 C 
ATOM     26  C   UNL     1      48.178  24.462  34.263  1.00  0.00     0.004 C 
ENDBRANCH  24  25
ENDBRANCH  23  24
ENDBRANCH  22  23
ENDBRANCH  21  22
ENDBRANCH  20  21
ENDBRANCH  19  20
ENDBRANCH  18  19
ENDBRANCH  17  18
ENDBRANCH  16  17
ENDBRANCH  15  16
ENDBRANCH   1  15
TORSDOF 22
ENDMDL
MODEL 9
REMARK VINA RESULT:    -4.315      3.341      8.451
REMARK INTER + INTRA:         -13.595
REMARK INTER:                  -9.655
REMARK INTRA:                  -3.941
REMARK UNBOUND:                -3.731
REMARK SMILES CCCCCCCCCCCCCCCCCCCCCCCC(=O)[O-]
REMARK SMILES IDX 13 1 14 2 15 3 16 4 17 5 18 6 19 7 20 8 21 9 22 10 23 11
REMARK SMILES IDX 24 12 25 13 26 14 12 15 11 16 10 17 9 18 8 19 7 20 6 21 5 22
REMARK SMILES IDX 4 23 3 24 2 25 1 26
REMARK H PARENT
REMARK Flexibility Score: inf
ROOT
ATOM      1  C   UNL     1      53.588  30.715  36.996  1.00  0.00     0.000 C 
ENDROOT
BRANCH   1   2
ATOM      2  C   UNL     1      52.842  29.641  36.176  1.00  0.00     0.000 C 
BRANCH   2   3
ATOM      3  C   UNL     1      53.763  28.490  35.733  1.00  0.00     0.000 C 
BRANCH   3   4
ATOM      4  C   UNL     1      54.081  28.534  34.231  1.00  0.00     0.000 C 
BRANCH   4   5
ATOM      5  C   UNL     1      55.505  28.047  33.909  1.00  0.00     0.000 C 
BRANCH   5   6
ATOM      6  C   UNL     1      55.720  26.569  34.269  1.00  0.00     0.000 C 
BRANCH   6   7
ATOM      7  C   UNL     1      54.764  25.634  33.506  1.00  0.00     0.000 C 
BRANCH   7   8
ATOM      8  C   UNL     1      54.047  24.628  34.423  1.00  0.00     0.000 C 
BRANCH   8   9
ATOM      9  C   UNL     1      52.652  25.070  34.907  1.00  0.00     0.000 C 
BRANCH   9  10
ATOM     10  C   UNL     1      51.692  25.407  33.753  1.00  0.00     0.006 C 
BRANCH  10  11
ATOM     11  C   UNL     1      50.928  26.716  34.000  1.00  0.00     0.053 C 
BRANCH  11  12
ATOM     12  C   UNL     1      49.693  26.495  34.818  1.00  0.00     0.041 C 
ATOM     13  O   UNL     1      48.621  26.136  34.265  1.00  0.00    -0.550 OA
ATOM     14  O   UNL     1      49.717  26.717  36.189  1.00  0.00    -0.550 OA
ENDBRANCH  11  12
ENDBRANCH  10  11
ENDBRANCH   9  10
ENDBRANCH   8   9
ENDBRANCH   7   8
ENDBRANCH   6   7
ENDBRANCH   5   6
ENDBRANCH   4   5
ENDBRANCH   3   4
ENDBRANCH   2   3
ENDBRANCH   1   2
BRANCH   1  15
ATOM     15  C   UNL     1      53.890  30.292  38.447  1.00  0.00     0.000 C 
BRANCH  15  16
ATOM     16  C   UNL     1      55.260  30.735  38.987  1.00  0.00     0.000 C 
BRANCH  16  17
ATOM     17  C   UNL     1      56.004  31.769  38.118  1.00  0.00     0.000 C 
BRANCH  17  18
ATOM     18  C   UNL     1      57.463  31.381  37.800  1.00  0.00    -0.000 C 
BRANCH  18  19
ATOM     19  C   UNL     1      57.582  30.520  36.530  1.00  0.00    -0.000 C 
BRANCH  19  20
ATOM     20  C   UNL     1      58.088  29.096  36.815  1.00  0.00    -0.000 C 
BRANCH  20  21
ATOM     21  C   UNL     1      57.021  28.130  37.363  1.00  0.00    -0.000 C 
BRANCH  21  22
ATOM     22  C   UNL     1      57.544  27.241  38.508  1.00  0.00    -0.000 C 
BRANCH  22  23
ATOM     23  C   UNL     1      58.565  27.960  39.405  1.00  0.00    -0.000 C 
BRANCH  23  24
ATOM     24  C   UNL     1      57.988  28.534  40.715  1.00  0.00    -0.000 C 
BRANCH  24  25
ATOM     25  C   UNL     1      58.370  30.007  40.975  1.00  0.00    -0.003 C 
ATOM     26  C   UNL     1      59.823  30.313  40.618  1.00  0.00     0.004 C 
ENDBRANCH  24  25
ENDBRANCH  23  24
ENDBRANCH  22  23
ENDBRANCH  21  22
ENDBRANCH  20  21
ENDBRANCH  19  20
ENDBRANCH  18  19
ENDBRANCH  17  18
ENDBRANCH  16  17
ENDBRANCH  15  16
ENDBRANCH   1  15
TORSDOF 22
ENDMDL
