MODEL 1
REMARK VINA RESULT:    -5.243      0.000      0.000
REMARK INTER + INTRA:          -7.506
REMARK INTER:                  -8.002
REMARK INTRA:                   0.496
REMARK UNBOUND:                 0.496
REMARK SMILES CC1=CCC[C@H](C)C(=O)C[C@@H](C(C)C)C(=O)C1
REMARK SMILES IDX 8 1 9 2 6 3 7 4 5 5 4 6 3 7 2 8 1 9 10 11 11 12 15 13 16 14
REMARK SMILES IDX 17 15 12 17 13 18 14 19
REMARK H PARENT
REMARK Flexibility Score: 70.00
ROOT
ATOM      1  C   UNL     1      -4.313 -12.969  28.946  1.00  0.00     0.136 C 
ATOM      2  O   UNL     1      -4.522 -11.771  28.814  1.00  0.00    -0.299 OA
ENDROOT
BRANCH   1   3
ATOM      3  C   UNL     1      -3.423 -13.663  27.929  1.00  0.00     0.053 C 
ATOM      4  C   UNL     1      -4.008 -13.553  26.516  1.00  0.00     0.016 C 
BRANCH   3   5
ATOM      5  C   UNL     1      -1.973 -13.142  27.971  1.00  0.00     0.015 C 
BRANCH   5   6
ATOM      6  C   UNL     1      -1.008 -14.120  28.679  1.00  0.00     0.028 C 
BRANCH   6   7
ATOM      7  C   UNL     1      -0.165 -13.398  29.702  1.00  0.00    -0.028 C 
ATOM      8  C   UNL     1      -0.540 -13.128  30.976  1.00  0.00    -0.070 CG0
ATOM      9  C   UNL     1       0.420 -12.346  31.838  1.00  0.00     0.039 C 
ATOM     10  G   UNL     1      -1.841 -13.628  31.589  1.00  0.00     0.000 G0
ENDBRANCH   6   7
ENDBRANCH   5   6
ENDBRANCH   3   5
ENDBRANCH   1   3
BRANCH   1  11
ATOM     11  C   UNL     1      -4.950 -13.687  30.120  1.00  0.00     0.087 C 
BRANCH  11  12
ATOM     12  C   UNL     1      -4.480 -13.165  31.505  1.00  0.00     0.066 C 
BRANCH  12  13
ATOM     13  C   UNL     1      -3.027 -12.694  31.489  1.00  0.00     0.140 C 
ATOM     14  O   UNL     1      -2.801 -11.499  31.378  1.00  0.00    -0.299 OA
BRANCH  13  15
ATOM     15  C   UNL     1      -1.830 -13.621  31.604  1.00  0.00     0.106 CG0
ATOM     16  G   UNL     1      -0.535 -13.131  30.972  1.00  0.00     0.000 G0
ENDBRANCH  13  15
ENDBRANCH  12  13
BRANCH  12  17
ATOM     17  C   UNL     1      -4.762 -14.206  32.636  1.00  0.00    -0.006 C 
ATOM     18  C   UNL     1      -5.400 -13.610  33.904  1.00  0.00     0.008 C 
ATOM     19  C   UNL     1      -5.627 -15.365  32.121  1.00  0.00     0.008 C 
ENDBRANCH  12  17
ENDBRANCH  11  12
ENDBRANCH   1  11
TORSDOF 1
ENDMDL
MODEL 2
REMARK VINA RESULT:    -4.655      1.599      3.822
REMARK INTER + INTRA:          -6.609
REMARK INTER:                  -7.430
REMARK INTRA:                   0.822
REMARK UNBOUND:                 0.496
REMARK SMILES CC1=CCC[C@H](C)C(=O)C[C@@H](C(C)C)C(=O)C1
REMARK SMILES IDX 8 1 9 2 6 3 7 4 5 5 4 6 3 7 2 8 1 9 10 11 11 12 15 13 16 14
REMARK SMILES IDX 17 15 12 17 13 18 14 19
REMARK H PARENT
REMARK Flexibility Score: 70.00
ROOT
ATOM      1  C   UNL     1      -3.642 -10.926  30.228  1.00  0.00     0.136 C 
ATOM      2  O   UNL     1      -2.850 -10.056  29.896  1.00  0.00    -0.299 OA
ENDROOT
BRANCH   1   3
ATOM      3  C   UNL     1      -3.737 -11.293  31.700  1.00  0.00     0.053 C 
ATOM      4  C   UNL     1      -4.538 -10.244  32.480  1.00  0.00     0.016 C 
BRANCH   3   5
ATOM      5  C   UNL     1      -4.319 -12.705  31.911  1.00  0.00     0.015 C 
BRANCH   5   6
ATOM      6  C   UNL     1      -3.245 -13.813  31.818  1.00  0.00     0.028 C 
BRANCH   6   7
ATOM      7  C   UNL     1      -1.862 -13.215  31.726  1.00  0.00    -0.028 C 
ATOM      8  C   UNL     1      -1.057 -13.264  30.637  1.00  0.00    -0.070 CG0
ATOM      9  C   UNL     1       0.318 -12.655  30.752  1.00  0.00     0.039 C 
ATOM     10  G   UNL     1      -1.496 -13.843  29.299  1.00  0.00     0.000 G0
ENDBRANCH   6   7
ENDBRANCH   5   6
ENDBRANCH   3   5
ENDBRANCH   1   3
BRANCH   1  11
ATOM     11  C   UNL     1      -4.486 -11.582  29.153  1.00  0.00     0.087 C 
BRANCH  11  12
ATOM     12  C   UNL     1      -3.974 -12.983  28.721  1.00  0.00     0.066 C 
BRANCH  12  13
ATOM     13  C   UNL     1      -2.467 -13.007  28.482  1.00  0.00     0.140 C 
ATOM     14  O   UNL     1      -2.005 -12.306  27.593  1.00  0.00    -0.299 OA
BRANCH  13  15
ATOM     15  C   UNL     1      -1.490 -13.849  29.282  1.00  0.00     0.106 CG0
ATOM     16  G   UNL     1      -1.049 -13.278  30.623  1.00  0.00     0.000 G0
ENDBRANCH  13  15
ENDBRANCH  12  13
BRANCH  12  17
ATOM     17  C   UNL     1      -4.784 -13.540  27.506  1.00  0.00    -0.006 C 
ATOM     18  C   UNL     1      -3.938 -14.312  26.477  1.00  0.00     0.008 C 
ATOM     19  C   UNL     1      -5.953 -14.420  27.973  1.00  0.00     0.008 C 
ENDBRANCH  12  17
ENDBRANCH  11  12
ENDBRANCH   1  11
TORSDOF 1
ENDMDL
MODEL 3
REMARK VINA RESULT:    -4.507      2.441      4.569
REMARK INTER + INTRA:          -6.383
REMARK INTER:                  -6.301
REMARK INTRA:                  -0.082
REMARK UNBOUND:                 0.496
REMARK SMILES CC1=CCC[C@H](C)C(=O)C[C@@H](C(C)C)C(=O)C1
REMARK SMILES IDX 8 1 9 2 6 3 7 4 5 5 4 6 3 7 2 8 1 9 10 11 11 12 15 13 16 14
REMARK SMILES IDX 17 15 12 17 13 18 14 19
REMARK H PARENT
REMARK Flexibility Score: 70.00
ROOT
ATOM      1  C   UNL     1      -2.156 -13.600  30.298  1.00  0.00     0.136 C 
ATOM      2  O   UNL     1      -2.798 -13.813  31.316  1.00  0.00    -0.299 OA
ENDROOT
BRANCH   1   3
ATOM      3  C   UNL     1      -0.663 -13.344  30.425  1.00  0.00     0.053 C 
ATOM      4  C   UNL     1      -0.016 -13.154  29.047  1.00  0.00     0.016 C 
BRANCH   3   5
ATOM      5  C   UNL     1      -0.353 -12.152  31.352  1.00  0.00     0.015 C 
BRANCH   5   6
ATOM      6  C   UNL     1      -1.076 -10.856  30.919  1.00  0.00     0.028 C 
BRANCH   6   7
ATOM      7  C   UNL     1      -2.240 -10.559  31.832  1.00  0.00    -0.028 C 
ATOM      8  C   UNL     1      -3.478 -10.185  31.427  1.00  0.00    -0.070 CG0
ATOM      9  C   UNL     1      -4.501  -9.878  32.492  1.00  0.00     0.039 C 
ATOM     10  G   UNL     1      -3.897 -10.124  29.964  1.00  0.00     0.000 G0
ENDBRANCH   6   7
ENDBRANCH   5   6
ENDBRANCH   3   5
ENDBRANCH   1   3
BRANCH   1  11
ATOM     11  C   UNL     1      -2.886 -13.611  28.969  1.00  0.00     0.087 C 
BRANCH  11  12
ATOM     12  C   UNL     1      -3.199 -12.194  28.413  1.00  0.00     0.066 C 
BRANCH  12  13
ATOM     13  C   UNL     1      -4.197 -11.433  29.283  1.00  0.00     0.140 C 
ATOM     14  O   UNL     1      -5.311 -11.907  29.445  1.00  0.00    -0.299 OA
BRANCH  13  15
ATOM     15  C   UNL     1      -3.895 -10.113  29.970  1.00  0.00     0.106 CG0
ATOM     16  G   UNL     1      -3.476 -10.194  31.431  1.00  0.00     0.000 G0
ENDBRANCH  13  15
ENDBRANCH  12  13
BRANCH  12  17
ATOM     17  C   UNL     1      -3.630 -12.249  26.913  1.00  0.00    -0.006 C 
ATOM     18  C   UNL     1      -2.811 -11.337  25.981  1.00  0.00     0.008 C 
ATOM     19  C   UNL     1      -3.599 -13.689  26.378  1.00  0.00     0.008 C 
ENDBRANCH  12  17
ENDBRANCH  11  12
ENDBRANCH   1  11
TORSDOF 1
ENDMDL
MODEL 4
REMARK VINA RESULT:    -4.329      1.409      3.868
REMARK INTER + INTRA:          -6.111
REMARK INTER:                  -6.784
REMARK INTRA:                   0.673
REMARK UNBOUND:                 0.496
REMARK SMILES CC1=CCC[C@H](C)C(=O)C[C@@H](C(C)C)C(=O)C1
REMARK SMILES IDX 8 1 9 2 6 3 7 4 5 5 4 6 3 7 2 8 1 9 10 11 11 12 15 13 16 14
REMARK SMILES IDX 17 15 12 17 13 18 14 19
REMARK H PARENT
REMARK Flexibility Score: 70.00
ROOT
ATOM      1  C   UNL     1      -3.121 -11.722  27.405  1.00  0.00     0.136 C 
ATOM      2  O   UNL     1      -2.643 -11.257  26.380  1.00  0.00    -0.299 OA
ENDROOT
BRANCH   1   3
ATOM      3  C   UNL     1      -4.346 -12.614  27.292  1.00  0.00     0.053 C 
ATOM      4  C   UNL     1      -3.975 -13.992  26.730  1.00  0.00     0.016 C 
BRANCH   3   5
ATOM      5  C   UNL     1      -5.097 -12.745  28.632  1.00  0.00     0.015 C 
BRANCH   5   6
ATOM      6  C   UNL     1      -4.828 -14.095  29.336  1.00  0.00     0.028 C 
BRANCH   6   7
ATOM      7  C   UNL     1      -5.294 -14.054  30.771  1.00  0.00    -0.028 C 
ATOM      8  C   UNL     1      -4.486 -13.955  31.855  1.00  0.00    -0.070 CG0
ATOM      9  C   UNL     1      -5.134 -13.984  33.217  1.00  0.00     0.039 C 
ATOM     10  G   UNL     1      -2.980 -13.753  31.760  1.00  0.00     0.000 G0
ENDBRANCH   6   7
ENDBRANCH   5   6
ENDBRANCH   3   5
ENDBRANCH   1   3
BRANCH   1  11
ATOM     11  C   UNL     1      -2.459 -11.384  28.727  1.00  0.00     0.087 C 
BRANCH  11  12
ATOM     12  C   UNL     1      -2.011 -12.629  29.541  1.00  0.00     0.066 C 
BRANCH  12  13
ATOM     13  C   UNL     1      -2.459 -12.565  30.998  1.00  0.00     0.140 C 
ATOM     14  O   UNL     1      -2.412 -11.491  31.578  1.00  0.00    -0.299 OA
BRANCH  13  15
ATOM     15  C   UNL     1      -2.968 -13.759  31.786  1.00  0.00     0.106 CG0
ATOM     16  G   UNL     1      -4.480 -13.926  31.857  1.00  0.00     0.000 G0
ENDBRANCH  13  15
ENDBRANCH  12  13
BRANCH  12  17
ATOM     17  C   UNL     1      -0.477 -12.888  29.394  1.00  0.00    -0.006 C 
ATOM     18  C   UNL     1       0.293 -12.924  30.727  1.00  0.00     0.008 C 
ATOM     19  C   UNL     1      -0.204 -14.179  28.609  1.00  0.00     0.008 C 
ENDBRANCH  12  17
ENDBRANCH  11  12
ENDBRANCH   1  11
TORSDOF 1
ENDMDL
MODEL 5
REMARK VINA RESULT:    -4.296      1.265      3.868
REMARK INTER + INTRA:          -6.060
REMARK INTER:                  -6.580
REMARK INTRA:                   0.520
REMARK UNBOUND:                 0.496
REMARK SMILES CC1=CCC[C@H](C)C(=O)C[C@@H](C(C)C)C(=O)C1
REMARK SMILES IDX 8 1 9 2 6 3 7 4 5 5 4 6 3 7 2 8 1 9 10 11 11 12 15 13 16 14
REMARK SMILES IDX 17 15 12 17 13 18 14 19
REMARK H PARENT
REMARK Flexibility Score: 70.00
ROOT
ATOM      1  C   UNL     1      -5.252 -13.870  30.139  1.00  0.00     0.136 C 
ATOM      2  O   UNL     1      -5.890 -14.796  29.660  1.00  0.00    -0.299 OA
ENDROOT
BRANCH   1   3
ATOM      3  C   UNL     1      -5.114 -13.793  31.650  1.00  0.00     0.053 C 
ATOM      4  C   UNL     1      -5.295 -15.173  32.293  1.00  0.00     0.016 C 
BRANCH   3   5
ATOM      5  C   UNL     1      -3.780 -13.152  32.082  1.00  0.00     0.015 C 
BRANCH   5   6
ATOM      6  C   UNL     1      -2.572 -14.094  31.876  1.00  0.00     0.028 C 
BRANCH   6   7
ATOM      7  C   UNL     1      -1.272 -13.343  32.036  1.00  0.00    -0.028 C 
ATOM      8  C   UNL     1      -0.459 -12.958  31.023  1.00  0.00    -0.070 CG0
ATOM      9  C   UNL     1       0.830 -12.263  31.383  1.00  0.00     0.039 C 
ATOM     10  G   UNL     1      -0.814 -13.136  29.553  1.00  0.00     0.000 G0
ENDBRANCH   6   7
ENDBRANCH   5   6
ENDBRANCH   3   5
ENDBRANCH   1   3
BRANCH   1  11
ATOM     11  C   UNL     1      -4.631 -12.858  29.196  1.00  0.00     0.087 C 
BRANCH  11  12
ATOM     12  C   UNL     1      -3.296 -13.331  28.557  1.00  0.00     0.066 C 
BRANCH  12  13
ATOM     13  C   UNL     1      -2.096 -12.529  29.052  1.00  0.00     0.140 C 
ATOM     14  O   UNL     1      -2.170 -11.309  29.057  1.00  0.00    -0.299 OA
BRANCH  13  15
ATOM     15  C   UNL     1      -0.801 -13.149  29.546  1.00  0.00     0.106 CG0
ATOM     16  G   UNL     1      -0.471 -12.939  31.017  1.00  0.00     0.000 G0
ENDBRANCH  13  15
ENDBRANCH  12  13
BRANCH  12  17
ATOM     17  C   UNL     1      -3.390 -13.373  26.998  1.00  0.00    -0.006 C 
ATOM     18  C   UNL     1      -4.507 -14.281  26.452  1.00  0.00     0.008 C 
ATOM     19  C   UNL     1      -3.543 -11.962  26.413  1.00  0.00     0.008 C 
ENDBRANCH  12  17
ENDBRANCH  11  12
ENDBRANCH   1  11
TORSDOF 1
ENDMDL
MODEL 6
REMARK VINA RESULT:    -4.256      1.614      3.483
REMARK INTER + INTRA:          -5.999
REMARK INTER:                  -6.605
REMARK INTRA:                   0.606
REMARK UNBOUND:                 0.496
REMARK SMILES CC1=CCC[C@H](C)C(=O)C[C@@H](C(C)C)C(=O)C1
REMARK SMILES IDX 8 1 9 2 6 3 7 4 5 5 4 6 3 7 2 8 1 9 10 11 11 12 15 13 16 14
REMARK SMILES IDX 17 15 12 17 13 18 14 19
REMARK H PARENT
REMARK Flexibility Score: 70.00
ROOT
ATOM      1  C   UNL     1      -2.093 -11.692  31.065  1.00  0.00     0.136 C 
ATOM      2  O   UNL     1      -2.291 -10.557  30.653  1.00  0.00    -0.299 OA
ENDROOT
BRANCH   1   3
ATOM      3  C   UNL     1      -0.730 -12.320  30.827  1.00  0.00     0.053 C 
ATOM      4  C   UNL     1       0.169 -12.170  32.060  1.00  0.00     0.016 C 
BRANCH   3   5
ATOM      5  C   UNL     1      -0.836 -13.795  30.394  1.00  0.00     0.015 C 
BRANCH   5   6
ATOM      6  C   UNL     1      -0.586 -13.992  28.882  1.00  0.00     0.028 C 
BRANCH   6   7
ATOM      7  C   UNL     1      -1.185 -12.858  28.086  1.00  0.00    -0.028 C 
ATOM      8  C   UNL     1      -2.499 -12.724  27.779  1.00  0.00    -0.070 CG0
ATOM      9  C   UNL     1      -2.903 -11.548  26.925  1.00  0.00     0.039 C 
ATOM     10  G   UNL     1      -3.579 -13.659  28.304  1.00  0.00     0.000 G0
ENDBRANCH   6   7
ENDBRANCH   5   6
ENDBRANCH   3   5
ENDBRANCH   1   3
BRANCH   1  11
ATOM     11  C   UNL     1      -3.219 -12.401  31.792  1.00  0.00     0.087 C 
BRANCH  11  12
ATOM     12  C   UNL     1      -3.832 -13.587  30.998  1.00  0.00     0.066 C 
BRANCH  12  13
ATOM     13  C   UNL     1      -4.274 -13.182  29.594  1.00  0.00     0.140 C 
ATOM     14  O   UNL     1      -5.239 -12.441  29.475  1.00  0.00    -0.299 OA
BRANCH  13  15
ATOM     15  C   UNL     1      -3.587 -13.640  28.319  1.00  0.00     0.106 CG0
ATOM     16  G   UNL     1      -2.502 -12.724  27.771  1.00  0.00     0.000 G0
ENDBRANCH  13  15
ENDBRANCH  12  13
BRANCH  12  17
ATOM     17  C   UNL     1      -4.968 -14.292  31.805  1.00  0.00    -0.006 C 
ATOM     18  C   UNL     1      -5.981 -15.062  30.939  1.00  0.00     0.008 C 
ATOM     19  C   UNL     1      -4.389 -15.230  32.875  1.00  0.00     0.008 C 
ENDBRANCH  12  17
ENDBRANCH  11  12
ENDBRANCH   1  11
TORSDOF 1
ENDMDL
MODEL 7
REMARK VINA RESULT:    -4.135      1.740      4.820
REMARK INTER + INTRA:          -5.815
REMARK INTER:                  -7.578
REMARK INTRA:                   1.763
REMARK UNBOUND:                 0.496
REMARK SMILES CC1=CCC[C@H](C)C(=O)C[C@@H](C(C)C)C(=O)C1
REMARK SMILES IDX 8 1 9 2 6 3 7 4 5 5 4 6 3 7 2 8 1 9 10 11 11 12 15 13 16 14
REMARK SMILES IDX 17 15 12 17 13 18 14 19
REMARK H PARENT
REMARK Flexibility Score: 70.00
ROOT
ATOM      1  C   UNL     1      -0.831 -13.081  29.558  1.00  0.00     0.136 C 
ATOM      2  O   UNL     1       0.284 -13.127  29.058  1.00  0.00    -0.299 OA
ENDROOT
BRANCH   1   3
ATOM      3  C   UNL     1      -0.977 -12.475  30.943  1.00  0.00     0.053 C 
ATOM      4  C   UNL     1       0.359 -12.485  31.695  1.00  0.00     0.016 C 
BRANCH   3   5
ATOM      5  C   UNL     1      -1.578 -11.056  30.898  1.00  0.00     0.015 C 
BRANCH   5   6
ATOM      6  C   UNL     1      -3.100 -11.044  31.164  1.00  0.00     0.028 C 
BRANCH   6   7
ATOM      7  C   UNL     1      -3.554 -12.358  31.750  1.00  0.00    -0.028 C 
ATOM      8  C   UNL     1      -4.373 -13.248  31.139  1.00  0.00    -0.070 CG0
ATOM      9  C   UNL     1      -4.761 -14.487  31.907  1.00  0.00     0.039 C 
ATOM     10  G   UNL     1      -4.862 -13.087  29.705  1.00  0.00     0.000 G0
ENDBRANCH   6   7
ENDBRANCH   5   6
ENDBRANCH   3   5
ENDBRANCH   1   3
BRANCH   1  11
ATOM     11  C   UNL     1      -2.001 -13.626  28.762  1.00  0.00     0.087 C 
BRANCH  11  12
ATOM     12  C   UNL     1      -2.828 -12.532  28.033  1.00  0.00     0.066 C 
BRANCH  12  13
ATOM     13  C   UNL     1      -4.085 -12.139  28.805  1.00  0.00     0.140 C 
ATOM     14  O   UNL     1      -4.492 -10.991  28.714  1.00  0.00    -0.299 OA
BRANCH  13  15
ATOM     15  C   UNL     1      -4.874 -13.090  29.688  1.00  0.00     0.106 CG0
ATOM     16  G   UNL     1      -4.380 -13.249  31.119  1.00  0.00     0.000 G0
ENDBRANCH  13  15
ENDBRANCH  12  13
BRANCH  12  17
ATOM     17  C   UNL     1      -3.132 -12.932  26.554  1.00  0.00    -0.006 C 
ATOM     18  C   UNL     1      -4.285 -13.940  26.391  1.00  0.00     0.008 C 
ATOM     19  C   UNL     1      -3.406 -11.694  25.688  1.00  0.00     0.008 C 
ENDBRANCH  12  17
ENDBRANCH  11  12
ENDBRANCH   1  11
TORSDOF 1
ENDMDL
MODEL 8
REMARK VINA RESULT:    -3.969      1.851      2.374
REMARK INTER + INTRA:          -5.561
REMARK INTER:                  -6.480
REMARK INTRA:                   0.918
REMARK UNBOUND:                 0.496
REMARK SMILES CC1=CCC[C@H](C)C(=O)C[C@@H](C(C)C)C(=O)C1
REMARK SMILES IDX 8 1 9 2 6 3 7 4 5 5 4 6 3 7 2 8 1 9 10 11 11 12 15 13 16 14
REMARK SMILES IDX 17 15 12 17 13 18 14 19
REMARK H PARENT
REMARK Flexibility Score: 70.00
ROOT
ATOM      1  C   UNL     1      -4.011 -12.007  28.229  1.00  0.00     0.136 C 
ATOM      2  O   UNL     1      -3.284 -12.353  27.309  1.00  0.00    -0.299 OA
ENDROOT
BRANCH   1   3
ATOM      3  C   UNL     1      -4.077 -10.531  28.582  1.00  0.00     0.053 C 
ATOM      4  C   UNL     1      -5.243 -10.242  29.535  1.00  0.00     0.016 C 
BRANCH   3   5
ATOM      5  C   UNL     1      -2.747 -10.010  29.162  1.00  0.00     0.015 C 
BRANCH   5   6
ATOM      6  C   UNL     1      -2.568 -10.363  30.656  1.00  0.00     0.028 C 
BRANCH   6   7
ATOM      7  C   UNL     1      -1.172 -10.868  30.926  1.00  0.00    -0.028 C 
ATOM      8  C   UNL     1      -0.861 -12.100  31.394  1.00  0.00    -0.070 CG0
ATOM      9  C   UNL     1       0.594 -12.406  31.654  1.00  0.00     0.039 C 
ATOM     10  G   UNL     1      -1.893 -13.199  31.607  1.00  0.00     0.000 G0
ENDBRANCH   6   7
ENDBRANCH   5   6
ENDBRANCH   3   5
ENDBRANCH   1   3
BRANCH   1  11
ATOM     11  C   UNL     1      -4.807 -13.072  28.958  1.00  0.00     0.087 C 
BRANCH  11  12
ATOM     12  C   UNL     1      -4.280 -13.383  30.386  1.00  0.00     0.066 C 
BRANCH  12  13
ATOM     13  C   UNL     1      -2.762 -13.539  30.426  1.00  0.00     0.140 C 
ATOM     14  O   UNL     1      -2.192 -13.972  29.435  1.00  0.00    -0.299 OA
BRANCH  13  15
ATOM     15  C   UNL     1      -1.901 -13.189  31.626  1.00  0.00     0.106 CG0
ATOM     16  G   UNL     1      -0.851 -12.107  31.411  1.00  0.00     0.000 G0
ENDBRANCH  13  15
ENDBRANCH  12  13
BRANCH  12  17
ATOM     17  C   UNL     1      -5.026 -14.599  31.020  1.00  0.00    -0.006 C 
ATOM     18  C   UNL     1      -5.250 -14.488  32.540  1.00  0.00     0.008 C 
ATOM     19  C   UNL     1      -6.370 -14.853  30.322  1.00  0.00     0.008 C 
ENDBRANCH  12  17
ENDBRANCH  11  12
ENDBRANCH   1  11
TORSDOF 1
ENDMDL
MODEL 9
REMARK VINA RESULT:    -3.744      1.951      3.597
REMARK INTER + INTRA:          -5.218
REMARK INTER:                  -6.182
REMARK INTRA:                   0.963
REMARK UNBOUND:                 0.496
REMARK SMILES CC1=CCC[C@H](C)C(=O)C[C@@H](C(C)C)C(=O)C1
REMARK SMILES IDX 8 1 9 2 6 3 7 4 5 5 4 6 3 7 2 8 1 9 10 11 11 12 15 13 16 14
REMARK SMILES IDX 17 15 12 17 13 18 14 19
REMARK H PARENT
REMARK Flexibility Score: 70.00
ROOT
ATOM      1  C   UNL     1      -4.123 -12.301  32.163  1.00  0.00     0.136 C 
ATOM      2  O   UNL     1      -4.816 -12.525  33.145  1.00  0.00    -0.299 OA
ENDROOT
BRANCH   1   3
ATOM      3  C   UNL     1      -4.024 -10.870  31.660  1.00  0.00     0.053 C 
ATOM      4  C   UNL     1      -4.676  -9.892  32.644  1.00  0.00     0.016 C 
BRANCH   3   5
ATOM      5  C   UNL     1      -2.570 -10.460  31.354  1.00  0.00     0.015 C 
BRANCH   5   6
ATOM      6  C   UNL     1      -2.231 -10.545  29.848  1.00  0.00     0.028 C 
BRANCH   6   7
ATOM      7  C   UNL     1      -1.246 -11.657  29.580  1.00  0.00    -0.028 C 
ATOM      8  C   UNL     1      -1.515 -12.795  28.895  1.00  0.00    -0.070 CG0
ATOM      9  C   UNL     1      -0.414 -13.819  28.776  1.00  0.00     0.039 C 
ATOM     10  G   UNL     1      -2.842 -13.055  28.194  1.00  0.00     0.000 G0
ENDBRANCH   6   7
ENDBRANCH   5   6
ENDBRANCH   3   5
ENDBRANCH   1   3
BRANCH   1  11
ATOM     11  C   UNL     1      -3.400 -13.462  31.511  1.00  0.00     0.087 C 
BRANCH  11  12
ATOM     12  C   UNL     1      -4.157 -14.073  30.300  1.00  0.00     0.066 C 
BRANCH  12  13
ATOM     13  C   UNL     1      -4.077 -13.191  29.057  1.00  0.00     0.140 C 
ATOM     14  O   UNL     1      -5.061 -12.541  28.737  1.00  0.00    -0.299 OA
BRANCH  13  15
ATOM     15  C   UNL     1      -2.843 -13.062  28.181  1.00  0.00     0.106 CG0
ATOM     16  G   UNL     1      -1.528 -12.799  28.902  1.00  0.00     0.000 G0
ENDBRANCH  13  15
ENDBRANCH  12  13
BRANCH  12  17
ATOM     17  C   UNL     1      -5.625 -14.453  30.674  1.00  0.00    -0.006 C 
ATOM     18  C   UNL     1      -6.413 -15.139  29.543  1.00  0.00     0.008 C 
ATOM     19  C   UNL     1      -5.669 -15.329  31.934  1.00  0.00     0.008 C 
ENDBRANCH  12  17
ENDBRANCH  11  12
ENDBRANCH   1  11
TORSDOF 1
ENDMDL
