MODEL 1
REMARK VINA RESULT:    -3.757      0.000      0.000
REMARK INTER + INTRA:          -6.025
REMARK INTER:                  -5.733
REMARK INTRA:                  -0.292
REMARK UNBOUND:                -0.292
REMARK SMILES CC1=CCC[C@H](C)C(=O)C[C@H](C(C)C)C(=O)C1
REMARK SMILES IDX 8 1 9 2 6 3 7 4 5 5 4 6 3 7 2 8 1 9 10 11 11 12 15 13 16 14
REMARK SMILES IDX 17 15 12 17 13 18 14 19
REMARK H PARENT
REMARK Flexibility Score: 70.00
ROOT
ATOM      1  C   UNL     1       7.132   1.926  65.385  1.00  0.00     0.136 C 
ATOM      2  O   UNL     1       7.632   2.030  66.496  1.00  0.00    -0.299 OA
ENDROOT
BRANCH   1   3
ATOM      3  C   UNL     1       5.634   2.138  65.243  1.00  0.00     0.053 C 
ATOM      4  C   UNL     1       4.882   1.540  66.440  1.00  0.00     0.016 C 
BRANCH   3   5
ATOM      5  C   UNL     1       5.324   3.647  65.083  1.00  0.00     0.015 C 
BRANCH   5   6
ATOM      6  C   UNL     1       5.275   4.097  63.605  1.00  0.00     0.028 C 
BRANCH   6   7
ATOM      7  C   UNL     1       6.508   4.876  63.208  1.00  0.00    -0.028 C 
ATOM      8  C   UNL     1       7.342   4.552  62.193  1.00  0.00    -0.070 CG0
ATOM      9  C   UNL     1       8.544   5.430  61.955  1.00  0.00     0.039 C 
ATOM     10  G   UNL     1       7.127   3.350  61.287  1.00  0.00     0.000 G0
ENDBRANCH   6   7
ENDBRANCH   5   6
ENDBRANCH   3   5
ENDBRANCH   1   3
BRANCH   1  11
ATOM     11  C   UNL     1       8.060   1.616  64.221  1.00  0.00     0.087 C 
BRANCH  11  12
ATOM     12  C   UNL     1       7.392   1.255  62.864  1.00  0.00     0.066 C 
BRANCH  12  13
ATOM     13  C   UNL     1       7.920   2.120  61.728  1.00  0.00     0.140 C 
ATOM     14  O   UNL     1       8.932   1.785  61.129  1.00  0.00    -0.299 OA
BRANCH  13  15
ATOM     15  C   UNL     1       7.155   3.345  61.282  1.00  0.00     0.106 CG0
ATOM     16  G   UNL     1       7.359   4.533  62.208  1.00  0.00     0.000 G0
ENDBRANCH  13  15
ENDBRANCH  12  13
BRANCH  12  17
ATOM     17  C   UNL     1       7.504  -0.259  62.496  1.00  0.00    -0.006 C 
ATOM     18  C   UNL     1       6.297  -1.064  63.006  1.00  0.00     0.008 C 
ATOM     19  C   UNL     1       8.809  -0.931  62.957  1.00  0.00     0.008 C 
ENDBRANCH  12  17
ENDBRANCH  11  12
ENDBRANCH   1  11
TORSDOF 1
ENDMDL
MODEL 2
REMARK VINA RESULT:    -3.749      2.356      3.753
REMARK INTER + INTRA:          -6.013
REMARK INTER:                  -5.987
REMARK INTRA:                  -0.027
REMARK UNBOUND:                -0.292
REMARK SMILES CC1=CCC[C@H](C)C(=O)C[C@H](C(C)C)C(=O)C1
REMARK SMILES IDX 8 1 9 2 6 3 7 4 5 5 4 6 3 7 2 8 1 9 10 11 11 12 15 13 16 14
REMARK SMILES IDX 17 15 12 17 13 18 14 19
REMARK H PARENT
REMARK Flexibility Score: 70.00
ROOT
ATOM      1  C   UNL     1       9.232   0.662  62.640  1.00  0.00     0.136 C 
ATOM      2  O   UNL     1       9.270  -0.449  62.130  1.00  0.00    -0.299 OA
ENDROOT
BRANCH   1   3
ATOM      3  C   UNL     1       8.147   0.952  63.663  1.00  0.00     0.053 C 
ATOM      4  C   UNL     1       8.380   2.312  64.336  1.00  0.00     0.016 C 
BRANCH   3   5
ATOM      5  C   UNL     1       6.753   0.891  62.989  1.00  0.00     0.015 C 
BRANCH   5   6
ATOM      6  C   UNL     1       6.211   2.286  62.603  1.00  0.00     0.028 C 
BRANCH   6   7
ATOM      7  C   UNL     1       6.369   2.566  61.126  1.00  0.00    -0.028 C 
ATOM      8  C   UNL     1       7.242   3.450  60.590  1.00  0.00    -0.070 CG0
ATOM      9  C   UNL     1       7.246   3.623  59.092  1.00  0.00     0.039 C 
ATOM     10  G   UNL     1       8.213   4.274  61.420  1.00  0.00     0.000 G0
ENDBRANCH   6   7
ENDBRANCH   5   6
ENDBRANCH   3   5
ENDBRANCH   1   3
BRANCH   1  11
ATOM     11  C   UNL     1      10.299   1.663  62.225  1.00  0.00     0.087 C 
BRANCH  11  12
ATOM     12  C   UNL     1      10.052   2.451  60.908  1.00  0.00     0.066 C 
BRANCH  12  13
ATOM     13  C   UNL     1       9.677   3.901  61.179  1.00  0.00     0.140 C 
ATOM     14  O   UNL     1      10.536   4.770  61.134  1.00  0.00    -0.299 OA
BRANCH  13  15
ATOM     15  C   UNL     1       8.234   4.284  61.421  1.00  0.00     0.106 CG0
ATOM     16  G   UNL     1       7.262   3.458  60.594  1.00  0.00     0.000 G0
ENDBRANCH  13  15
ENDBRANCH  12  13
BRANCH  12  17
ATOM     17  C   UNL     1      11.244   2.374  59.901  1.00  0.00    -0.006 C 
ATOM     18  C   UNL     1      10.788   2.626  58.453  1.00  0.00     0.008 C 
ATOM     19  C   UNL     1      12.053   1.067  59.972  1.00  0.00     0.008 C 
ENDBRANCH  12  17
ENDBRANCH  11  12
ENDBRANCH   1  11
TORSDOF 1
ENDMDL
MODEL 3
REMARK VINA RESULT:    -3.712     13.224     15.745
REMARK INTER + INTRA:          -5.958
REMARK INTER:                  -6.390
REMARK INTRA:                   0.432
REMARK UNBOUND:                -0.292
REMARK SMILES CC1=CCC[C@H](C)C(=O)C[C@H](C(C)C)C(=O)C1
REMARK SMILES IDX 8 1 9 2 6 3 7 4 5 5 4 6 3 7 2 8 1 9 10 11 11 12 15 13 16 14
REMARK SMILES IDX 17 15 12 17 13 18 14 19
REMARK H PARENT
REMARK Flexibility Score: 70.00
ROOT
ATOM      1  C   UNL     1      17.531 -10.078  63.945  1.00  0.00     0.136 C 
ATOM      2  O   UNL     1      18.533 -10.024  63.246  1.00  0.00    -0.299 OA
ENDROOT
BRANCH   1   3
ATOM      3  C   UNL     1      17.548 -10.981  65.167  1.00  0.00     0.053 C 
ATOM      4  C   UNL     1      17.403 -10.159  66.455  1.00  0.00     0.016 C 
BRANCH   3   5
ATOM      5  C   UNL     1      16.432 -12.049  65.054  1.00  0.00     0.015 C 
BRANCH   5   6
ATOM      6  C   UNL     1      15.059 -11.537  65.544  1.00  0.00     0.028 C 
BRANCH   6   7
ATOM      7  C   UNL     1      13.913 -12.235  64.848  1.00  0.00    -0.028 C 
ATOM      8  C   UNL     1      13.213 -11.734  63.804  1.00  0.00    -0.070 CG0
ATOM      9  C   UNL     1      12.080 -12.558  63.248  1.00  0.00     0.039 C 
ATOM     10  G   UNL     1      13.513 -10.386  63.168  1.00  0.00     0.000 G0
ENDBRANCH   6   7
ENDBRANCH   5   6
ENDBRANCH   3   5
ENDBRANCH   1   3
BRANCH   1  11
ATOM     11  C   UNL     1      16.347  -9.210  63.545  1.00  0.00     0.087 C 
BRANCH  11  12
ATOM     12  C   UNL     1      15.763  -9.429  62.121  1.00  0.00     0.066 C 
BRANCH  12  13
ATOM     13  C   UNL     1      14.632 -10.448  62.126  1.00  0.00     0.140 C 
ATOM     14  O   UNL     1      14.646 -11.375  61.329  1.00  0.00    -0.299 OA
BRANCH  13  15
ATOM     15  C   UNL     1      13.536 -10.368  63.164  1.00  0.00     0.106 CG0
ATOM     16  G   UNL     1      13.216 -11.719  63.783  1.00  0.00     0.000 G0
ENDBRANCH  13  15
ENDBRANCH  12  13
BRANCH  12  17
ATOM     17  C   UNL     1      15.305  -8.108  61.424  1.00  0.00    -0.006 C 
ATOM     18  C   UNL     1      14.762  -7.084  62.437  1.00  0.00     0.008 C 
ATOM     19  C   UNL     1      14.284  -8.308  60.290  1.00  0.00     0.008 C 
ENDBRANCH  12  17
ENDBRANCH  11  12
ENDBRANCH   1  11
TORSDOF 1
ENDMDL
MODEL 4
REMARK VINA RESULT:    -3.684     16.844     19.494
REMARK INTER + INTRA:          -5.914
REMARK INTER:                  -6.641
REMARK INTRA:                   0.727
REMARK UNBOUND:                -0.292
REMARK SMILES CC1=CCC[C@H](C)C(=O)C[C@H](C(C)C)C(=O)C1
REMARK SMILES IDX 8 1 9 2 6 3 7 4 5 5 4 6 3 7 2 8 1 9 10 11 11 12 15 13 16 14
REMARK SMILES IDX 17 15 12 17 13 18 14 19
REMARK H PARENT
REMARK Flexibility Score: 70.00
ROOT
ATOM      1  C   UNL     1      19.537 -11.721  68.683  1.00  0.00     0.136 C 
ATOM      2  O   UNL     1      19.526 -10.958  69.638  1.00  0.00    -0.299 OA
ENDROOT
BRANCH   1   3
ATOM      3  C   UNL     1      20.695 -12.696  68.549  1.00  0.00     0.053 C 
ATOM      4  C   UNL     1      21.272 -13.050  69.927  1.00  0.00     0.016 C 
BRANCH   3   5
ATOM      5  C   UNL     1      20.235 -13.965  67.790  1.00  0.00     0.015 C 
BRANCH   5   6
ATOM      6  C   UNL     1      20.682 -13.976  66.311  1.00  0.00     0.028 C 
BRANCH   6   7
ATOM      7  C   UNL     1      21.725 -12.919  66.027  1.00  0.00    -0.028 C 
ATOM      8  C   UNL     1      21.476 -11.700  65.496  1.00  0.00    -0.070 CG0
ATOM      9  C   UNL     1      22.644 -10.779  65.254  1.00  0.00     0.039 C 
ATOM     10  G   UNL     1      20.081 -11.218  65.131  1.00  0.00     0.000 G0
ENDBRANCH   6   7
ENDBRANCH   5   6
ENDBRANCH   3   5
ENDBRANCH   1   3
BRANCH   1  11
ATOM     11  C   UNL     1      18.369 -11.649  67.712  1.00  0.00     0.087 C 
BRANCH  11  12
ATOM     12  C   UNL     1      18.268 -10.377  66.823  1.00  0.00     0.066 C 
BRANCH  12  13
ATOM     13  C   UNL     1      19.544 -10.142  66.027  1.00  0.00     0.140 C 
ATOM     14  O   UNL     1      20.171  -9.103  66.176  1.00  0.00    -0.299 OA
BRANCH  13  15
ATOM     15  C   UNL     1      20.085 -11.220  65.115  1.00  0.00     0.106 CG0
ATOM     16  G   UNL     1      21.476 -11.683  65.517  1.00  0.00     0.000 G0
ENDBRANCH  13  15
ENDBRANCH  12  13
BRANCH  12  17
ATOM     17  C   UNL     1      17.025 -10.372  65.878  1.00  0.00    -0.006 C 
ATOM     18  C   UNL     1      16.252 -11.701  65.941  1.00  0.00     0.008 C 
ATOM     19  C   UNL     1      17.342 -10.025  64.413  1.00  0.00     0.008 C 
ENDBRANCH  12  17
ENDBRANCH  11  12
ENDBRANCH   1  11
TORSDOF 1
ENDMDL
MODEL 5
REMARK VINA RESULT:    -3.665     16.106     17.601
REMARK INTER + INTRA:          -5.886
REMARK INTER:                  -6.250
REMARK INTRA:                   0.364
REMARK UNBOUND:                -0.292
REMARK SMILES CC1=CCC[C@H](C)C(=O)C[C@H](C(C)C)C(=O)C1
REMARK SMILES IDX 8 1 9 2 6 3 7 4 5 5 4 6 3 7 2 8 1 9 10 11 11 12 15 13 16 14
REMARK SMILES IDX 17 15 12 17 13 18 14 19
REMARK H PARENT
REMARK Flexibility Score: 70.00
ROOT
ATOM      1  C   UNL     1      17.563 -10.415  67.212  1.00  0.00     0.136 C 
ATOM      2  O   UNL     1      17.252  -9.271  67.513  1.00  0.00    -0.299 OA
ENDROOT
BRANCH   1   3
ATOM      3  C   UNL     1      18.913 -10.941  67.671  1.00  0.00     0.053 C 
ATOM      4  C   UNL     1      19.135 -10.650  69.161  1.00  0.00     0.016 C 
BRANCH   3   5
ATOM      5  C   UNL     1      19.021 -12.457  67.373  1.00  0.00     0.015 C 
BRANCH   5   6
ATOM      6  C   UNL     1      19.635 -12.755  65.987  1.00  0.00     0.028 C 
BRANCH   6   7
ATOM      7  C   UNL     1      20.285 -11.532  65.381  1.00  0.00    -0.028 C 
ATOM      8  C   UNL     1      19.761 -10.783  64.384  1.00  0.00    -0.070 CG0
ATOM      9  C   UNL     1      20.562  -9.609  63.881  1.00  0.00     0.039 C 
ATOM     10  G   UNL     1      18.409 -11.067  63.749  1.00  0.00     0.000 G0
ENDBRANCH   6   7
ENDBRANCH   5   6
ENDBRANCH   3   5
ENDBRANCH   1   3
BRANCH   1  11
ATOM     11  C   UNL     1      16.556 -11.233  66.420  1.00  0.00     0.087 C 
BRANCH  11  12
ATOM     12  C   UNL     1      16.122 -10.669  65.037  1.00  0.00     0.066 C 
BRANCH  12  13
ATOM     13  C   UNL     1      17.306 -10.118  64.256  1.00  0.00     0.140 C 
ATOM     14  O   UNL     1      17.417  -8.911  64.091  1.00  0.00    -0.299 OA
BRANCH  13  15
ATOM     15  C   UNL     1      18.388 -11.046  63.753  1.00  0.00     0.106 CG0
ATOM     16  G   UNL     1      19.740 -10.770  64.392  1.00  0.00     0.000 G0
ENDBRANCH  13  15
ENDBRANCH  12  13
BRANCH  12  17
ATOM     17  C   UNL     1      15.322 -11.691  64.169  1.00  0.00    -0.006 C 
ATOM     18  C   UNL     1      15.018 -11.138  62.766  1.00  0.00     0.008 C 
ATOM     19  C   UNL     1      14.023 -12.199  64.820  1.00  0.00     0.008 C 
ENDBRANCH  12  17
ENDBRANCH  11  12
ENDBRANCH   1  11
TORSDOF 1
ENDMDL
MODEL 6
REMARK VINA RESULT:    -3.644      6.794      9.063
REMARK INTER + INTRA:          -5.854
REMARK INTER:                  -5.692
REMARK INTRA:                  -0.162
REMARK UNBOUND:                -0.292
REMARK SMILES CC1=CCC[C@H](C)C(=O)C[C@H](C(C)C)C(=O)C1
REMARK SMILES IDX 8 1 9 2 6 3 7 4 5 5 4 6 3 7 2 8 1 9 10 11 11 12 15 13 16 14
REMARK SMILES IDX 17 15 12 17 13 18 14 19
REMARK H PARENT
REMARK Flexibility Score: 70.00
ROOT
ATOM      1  C   UNL     1      10.673   2.634  58.320  1.00  0.00     0.136 C 
ATOM      2  O   UNL     1       9.456   2.755  58.317  1.00  0.00    -0.299 OA
ENDROOT
BRANCH   1   3
ATOM      3  C   UNL     1      11.368   2.361  59.643  1.00  0.00     0.053 C 
ATOM      4  C   UNL     1      10.450   2.703  60.824  1.00  0.00     0.016 C 
BRANCH   3   5
ATOM      5  C   UNL     1      11.835   0.885  59.703  1.00  0.00     0.015 C 
BRANCH   5   6
ATOM      6  C   UNL     1      13.351   0.724  59.452  1.00  0.00     0.028 C 
BRANCH   6   7
ATOM      7  C   UNL     1      13.637  -0.174  58.270  1.00  0.00    -0.028 C 
ATOM      8  C   UNL     1      14.261   0.210  57.132  1.00  0.00    -0.070 CG0
ATOM      9  C   UNL     1      14.439  -0.814  56.041  1.00  0.00     0.039 C 
ATOM     10  G   UNL     1      14.786   1.618  56.902  1.00  0.00     0.000 G0
ENDBRANCH   6   7
ENDBRANCH   5   6
ENDBRANCH   3   5
ENDBRANCH   1   3
BRANCH   1  11
ATOM     11  C   UNL     1      11.394   2.743  56.986  1.00  0.00     0.087 C 
BRANCH  11  12
ATOM     12  C   UNL     1      12.822   3.359  57.006  1.00  0.00     0.066 C 
BRANCH  12  13
ATOM     13  C   UNL     1      13.808   2.525  56.200  1.00  0.00     0.140 C 
ATOM     14  O   UNL     1      13.848   2.639  54.983  1.00  0.00    -0.299 OA
BRANCH  13  15
ATOM     15  C   UNL     1      14.794   1.619  56.901  1.00  0.00     0.106 CG0
ATOM     16  G   UNL     1      14.244   0.220  57.128  1.00  0.00     0.000 G0
ENDBRANCH  13  15
ENDBRANCH  12  13
BRANCH  12  17
ATOM     17  C   UNL     1      12.864   4.852  56.545  1.00  0.00    -0.006 C 
ATOM     18  C   UNL     1      12.553   5.817  57.702  1.00  0.00     0.008 C 
ATOM     19  C   UNL     1      11.959   5.171  55.343  1.00  0.00     0.008 C 
ENDBRANCH  12  17
ENDBRANCH  11  12
ENDBRANCH   1  11
TORSDOF 1
ENDMDL
MODEL 7
REMARK VINA RESULT:    -3.619     12.458     15.227
REMARK INTER + INTRA:          -5.815
REMARK INTER:                  -5.453
REMARK INTRA:                  -0.363
REMARK UNBOUND:                -0.292
REMARK SMILES CC1=CCC[C@H](C)C(=O)C[C@H](C(C)C)C(=O)C1
REMARK SMILES IDX 8 1 9 2 6 3 7 4 5 5 4 6 3 7 2 8 1 9 10 11 11 12 15 13 16 14
REMARK SMILES IDX 17 15 12 17 13 18 14 19
REMARK H PARENT
REMARK Flexibility Score: 70.00
ROOT
ATOM      1  C   UNL     1      13.408 -11.873  63.181  1.00  0.00     0.136 C 
ATOM      2  O   UNL     1      12.378 -12.335  63.650  1.00  0.00    -0.299 OA
ENDROOT
BRANCH   1   3
ATOM      3  C   UNL     1      13.750 -12.188  61.734  1.00  0.00     0.053 C 
ATOM      4  C   UNL     1      13.643 -13.695  61.465  1.00  0.00     0.016 C 
BRANCH   3   5
ATOM      5  C   UNL     1      12.830 -11.382  60.784  1.00  0.00     0.015 C 
BRANCH   5   6
ATOM      6  C   UNL     1      13.549 -10.182  60.128  1.00  0.00     0.028 C 
BRANCH   6   7
ATOM      7  C   UNL     1      13.358  -8.906  60.916  1.00  0.00    -0.028 C 
ATOM      8  C   UNL     1      14.300  -8.320  61.690  1.00  0.00    -0.070 CG0
ATOM      9  C   UNL     1      13.926  -7.060  62.430  1.00  0.00     0.039 C 
ATOM     10  G   UNL     1      15.709  -8.867  61.851  1.00  0.00     0.000 G0
ENDBRANCH   6   7
ENDBRANCH   5   6
ENDBRANCH   3   5
ENDBRANCH   1   3
BRANCH   1  11
ATOM     11  C   UNL     1      14.258 -10.992  64.083  1.00  0.00     0.087 C 
BRANCH  11  12
ATOM     12  C   UNL     1      15.743 -10.784  63.668  1.00  0.00     0.066 C 
BRANCH  12  13
ATOM     13  C   UNL     1      16.021  -9.341  63.271  1.00  0.00     0.140 C 
ATOM     14  O   UNL     1      16.543  -8.580  64.073  1.00  0.00    -0.299 OA
BRANCH  13  15
ATOM     15  C   UNL     1      15.733  -8.867  61.865  1.00  0.00     0.106 CG0
ATOM     16  G   UNL     1      14.316  -8.341  61.703  1.00  0.00     0.000 G0
ENDBRANCH  13  15
ENDBRANCH  12  13
BRANCH  12  17
ATOM     17  C   UNL     1      16.766 -11.260  64.749  1.00  0.00    -0.006 C 
ATOM     18  C   UNL     1      17.381 -12.625  64.393  1.00  0.00     0.008 C 
ATOM     19  C   UNL     1      16.205 -11.300  66.181  1.00  0.00     0.008 C 
ENDBRANCH  12  17
ENDBRANCH  11  12
ENDBRANCH   1  11
TORSDOF 1
ENDMDL
MODEL 8
REMARK VINA RESULT:    -3.557     12.209     15.209
REMARK INTER + INTRA:          -5.720
REMARK INTER:                  -5.801
REMARK INTRA:                   0.080
REMARK UNBOUND:                -0.292
REMARK SMILES CC1=CCC[C@H](C)C(=O)C[C@H](C(C)C)C(=O)C1
REMARK SMILES IDX 8 1 9 2 6 3 7 4 5 5 4 6 3 7 2 8 1 9 10 11 11 12 15 13 16 14
REMARK SMILES IDX 17 15 12 17 13 18 14 19
REMARK H PARENT
REMARK Flexibility Score: 70.00
ROOT
ATOM      1  C   UNL     1      16.227 -11.781  62.544  1.00  0.00     0.136 C 
ATOM      2  O   UNL     1      17.164 -12.475  62.176  1.00  0.00    -0.299 OA
ENDROOT
BRANCH   1   3
ATOM      3  C   UNL     1      16.313 -11.115  63.908  1.00  0.00     0.053 C 
ATOM      4  C   UNL     1      17.089 -11.995  64.897  1.00  0.00     0.016 C 
BRANCH   3   5
ATOM      5  C   UNL     1      16.960  -9.715  63.775  1.00  0.00     0.015 C 
BRANCH   5   6
ATOM      6  C   UNL     1      16.494  -8.955  62.512  1.00  0.00     0.028 C 
BRANCH   6   7
ATOM      7  C   UNL     1      15.377  -7.983  62.816  1.00  0.00    -0.028 C 
ATOM      8  C   UNL     1      14.131  -8.037  62.290  1.00  0.00    -0.070 CG0
ATOM      9  C   UNL     1      13.147  -6.966  62.685  1.00  0.00     0.039 C 
ATOM     10  G   UNL     1      13.679  -9.121  61.325  1.00  0.00     0.000 G0
ENDBRANCH   6   7
ENDBRANCH   5   6
ENDBRANCH   3   5
ENDBRANCH   1   3
BRANCH   1  11
ATOM     11  C   UNL     1      15.054 -11.619  61.591  1.00  0.00     0.087 C 
BRANCH  11  12
ATOM     12  C   UNL     1      13.632 -11.600  62.220  1.00  0.00     0.066 C 
BRANCH  12  13
ATOM     13  C   UNL     1      12.943 -10.258  62.016  1.00  0.00     0.140 C 
ATOM     14  O   UNL     1      11.827 -10.071  62.479  1.00  0.00    -0.299 OA
BRANCH  13  15
ATOM     15  C   UNL     1      13.664  -9.127  61.317  1.00  0.00     0.106 CG0
ATOM     16  G   UNL     1      14.135  -8.049  62.280  1.00  0.00     0.000 G0
ENDBRANCH  13  15
ENDBRANCH  12  13
BRANCH  12  17
ATOM     17  C   UNL     1      12.716 -12.765  61.729  1.00  0.00    -0.006 C 
ATOM     18  C   UNL     1      13.086 -14.104  62.390  1.00  0.00     0.008 C 
ATOM     19  C   UNL     1      12.669 -12.936  60.200  1.00  0.00     0.008 C 
ENDBRANCH  12  17
ENDBRANCH  11  12
ENDBRANCH   1  11
TORSDOF 1
ENDMDL
MODEL 9
REMARK VINA RESULT:    -3.544     11.476     14.019
REMARK INTER + INTRA:          -5.701
REMARK INTER:                  -5.772
REMARK INTRA:                   0.071
REMARK UNBOUND:                -0.292
REMARK SMILES CC1=CCC[C@H](C)C(=O)C[C@H](C(C)C)C(=O)C1
REMARK SMILES IDX 8 1 9 2 6 3 7 4 5 5 4 6 3 7 2 8 1 9 10 11 11 12 15 13 16 14
REMARK SMILES IDX 17 15 12 17 13 18 14 19
REMARK H PARENT
REMARK Flexibility Score: 70.00
ROOT
ATOM      1  C   UNL     1       7.546  -8.773  58.798  1.00  0.00     0.136 C 
ATOM      2  O   UNL     1       7.083  -8.728  59.930  1.00  0.00    -0.299 OA
ENDROOT
BRANCH   1   3
ATOM      3  C   UNL     1       8.974  -8.303  58.582  1.00  0.00     0.053 C 
ATOM      4  C   UNL     1       9.230  -6.978  59.313  1.00  0.00     0.016 C 
BRANCH   3   5
ATOM      5  C   UNL     1       9.968  -9.399  59.040  1.00  0.00     0.015 C 
BRANCH   5   6
ATOM      6  C   UNL     1      10.132 -10.533  58.003  1.00  0.00     0.028 C 
BRANCH   6   7
ATOM      7  C   UNL     1      10.461 -10.000  56.628  1.00  0.00    -0.028 C 
ATOM      8  C   UNL     1       9.737 -10.232  55.508  1.00  0.00    -0.070 CG0
ATOM      9  C   UNL     1      10.228  -9.641  54.211  1.00  0.00     0.039 C 
ATOM     10  G   UNL     1       8.461 -11.057  55.495  1.00  0.00     0.000 G0
ENDBRANCH   6   7
ENDBRANCH   5   6
ENDBRANCH   3   5
ENDBRANCH   1   3
BRANCH   1  11
ATOM     11  C   UNL     1       6.655  -9.323  57.695  1.00  0.00     0.087 C 
BRANCH  11  12
ATOM     12  C   UNL     1       7.044  -8.966  56.232  1.00  0.00     0.066 C 
BRANCH  12  13
ATOM     13  C   UNL     1       7.212 -10.212  55.374  1.00  0.00     0.140 C 
ATOM     14  O   UNL     1       6.363 -10.495  54.540  1.00  0.00    -0.299 OA
BRANCH  13  15
ATOM     15  C   UNL     1       8.462 -11.055  55.487  1.00  0.00     0.106 CG0
ATOM     16  G   UNL     1       9.732 -10.219  55.504  1.00  0.00     0.000 G0
ENDBRANCH  13  15
ENDBRANCH  12  13
BRANCH  12  17
ATOM     17  C   UNL     1       6.059  -7.962  55.551  1.00  0.00    -0.006 C 
ATOM     18  C   UNL     1       6.640  -7.384  54.250  1.00  0.00     0.008 C 
ATOM     19  C   UNL     1       5.588  -6.817  56.464  1.00  0.00     0.008 C 
ENDBRANCH  12  17
ENDBRANCH  11  12
ENDBRANCH   1  11
TORSDOF 1
ENDMDL
