MODEL 1
REMARK VINA RESULT:    -4.417      0.000      0.000
REMARK INTER + INTRA:          -5.236
REMARK INTER:                  -5.192
REMARK INTRA:                  -0.045
REMARK UNBOUND:                -0.045
REMARK SMILES COc1cc2ccc(=O)oc2c(OC)c1OC
REMARK SMILES IDX 3 1 15 2 12 3 11 4 5 5 4 6 6 7 7 8 8 9 9 10 10 11 2 12 1 13
REMARK SMILES IDX 16 14 17 15 13 16 14 17
REMARK H PARENT
REMARK Flexibility Score: inf
ROOT
ATOM      1  C   UNL     1      12.378 -17.259   6.949  1.00  0.00     0.165 A 
ATOM      2  C   UNL     1      12.347 -15.857   7.037  1.00  0.00     0.207 A 
ATOM      3  C   UNL     1      11.168 -15.193   7.478  1.00  0.00     0.208 A 
ATOM      4  C   UNL     1      10.031 -15.968   7.825  1.00  0.00     0.184 A 
ATOM      5  C   UNL     1      10.083 -17.377   7.730  1.00  0.00     0.025 A 
ATOM      6  C   UNL     1      11.246 -18.012   7.296  1.00  0.00     0.062 A 
ATOM      7  C   UNL     1       8.949 -18.119   8.077  1.00  0.00     0.020 A 
ATOM      8  C   UNL     1       7.801 -17.460   8.507  1.00  0.00     0.094 A 
ATOM      9  C   UNL     1       7.815 -16.067   8.579  1.00  0.00     0.336 A 
ATOM     10  O   UNL     1       6.790 -15.446   8.965  1.00  0.00    -0.246 OA
ATOM     11  O   UNL     1       8.907 -15.388   8.243  1.00  0.00    -0.419 OA
ENDROOT
BRANCH   1  12
ATOM     12  O   UNL     1      13.564 -17.869   6.508  1.00  0.00    -0.493 OA
ATOM     13  C   UNL     1      14.701 -18.119   7.328  1.00  0.00     0.278 C 
ENDBRANCH   1  12
BRANCH   2  14
ATOM     14  O   UNL     1      13.532 -15.187   6.668  1.00  0.00    -0.490 OA
ATOM     15  C   UNL     1      14.422 -14.484   7.528  1.00  0.00     0.278 C 
ENDBRANCH   2  14
BRANCH   3  16
ATOM     16  O   UNL     1      11.175 -13.787   7.554  1.00  0.00    -0.490 OA
ATOM     17  C   UNL     1      11.151 -12.869   6.466  1.00  0.00     0.278 C 
ENDBRANCH   3  16
TORSDOF 3
ENDMDL
MODEL 2
REMARK VINA RESULT:    -2.760      1.427      4.753
REMARK INTER + INTRA:          -3.289
REMARK INTER:                  -3.314
REMARK INTRA:                   0.025
REMARK UNBOUND:                -0.045
REMARK SMILES COc1cc2ccc(=O)oc2c(OC)c1OC
REMARK SMILES IDX 3 1 15 2 12 3 11 4 5 5 4 6 6 7 7 8 8 9 9 10 10 11 2 12 1 13
REMARK SMILES IDX 16 14 17 15 13 16 14 17
REMARK H PARENT
REMARK Flexibility Score: inf
ROOT
ATOM      1  C   UNL     1       9.666 -17.456   6.924  1.00  0.00     0.165 A 
ATOM      2  C   UNL     1       9.612 -16.080   7.206  1.00  0.00     0.207 A 
ATOM      3  C   UNL     1      10.808 -15.359   7.478  1.00  0.00     0.208 A 
ATOM      4  C   UNL     1      12.047 -16.050   7.459  1.00  0.00     0.184 A 
ATOM      5  C   UNL     1      12.079 -17.432   7.173  1.00  0.00     0.025 A 
ATOM      6  C   UNL     1      10.898 -18.125   6.909  1.00  0.00     0.062 A 
ATOM      7  C   UNL     1      13.314 -18.091   7.161  1.00  0.00     0.020 A 
ATOM      8  C   UNL     1      14.477 -17.376   7.428  1.00  0.00     0.094 A 
ATOM      9  C   UNL     1      14.377 -16.012   7.703  1.00  0.00     0.336 A 
ATOM     10  O   UNL     1      15.415 -15.341   7.949  1.00  0.00    -0.246 OA
ATOM     11  O   UNL     1      13.191 -15.413   7.708  1.00  0.00    -0.419 OA
ENDROOT
BRANCH   1  12
ATOM     12  O   UNL     1       8.458 -18.125   6.663  1.00  0.00    -0.493 OA
ATOM     13  C   UNL     1       7.779 -18.115   5.411  1.00  0.00     0.278 C 
ENDBRANCH   1  12
BRANCH   2  14
ATOM     14  O   UNL     1       8.329 -15.495   7.198  1.00  0.00    -0.490 OA
ATOM     15  C   UNL     1       7.392 -15.471   8.269  1.00  0.00     0.278 C 
ENDBRANCH   2  14
BRANCH   3  16
ATOM     16  O   UNL     1      10.716 -13.982   7.756  1.00  0.00    -0.490 OA
ATOM     17  C   UNL     1      11.198 -12.909   6.953  1.00  0.00     0.278 C 
ENDBRANCH   3  16
TORSDOF 3
ENDMDL
MODEL 3
REMARK VINA RESULT:    -2.555      1.648      2.989
REMARK INTER + INTRA:          -3.048
REMARK INTER:                  -3.542
REMARK INTRA:                   0.495
REMARK UNBOUND:                -0.045
REMARK SMILES COc1cc2ccc(=O)oc2c(OC)c1OC
REMARK SMILES IDX 3 1 15 2 12 3 11 4 5 5 4 6 6 7 7 8 8 9 9 10 10 11 2 12 1 13
REMARK SMILES IDX 16 14 17 15 13 16 14 17
REMARK H PARENT
REMARK Flexibility Score: inf
ROOT
ATOM      1  C   UNL     1      12.263 -15.344   8.181  1.00  0.00     0.165 A 
ATOM      2  C   UNL     1      12.410 -16.357   7.219  1.00  0.00     0.207 A 
ATOM      3  C   UNL     1      11.281 -17.113   6.797  1.00  0.00     0.208 A 
ATOM      4  C   UNL     1      10.012 -16.828   7.363  1.00  0.00     0.184 A 
ATOM      5  C   UNL     1       9.885 -15.805   8.329  1.00  0.00     0.025 A 
ATOM      6  C   UNL     1      11.001 -15.073   8.732  1.00  0.00     0.062 A 
ATOM      7  C   UNL     1       8.623 -15.542   8.873  1.00  0.00     0.020 A 
ATOM      8  C   UNL     1       7.525 -16.288   8.454  1.00  0.00     0.094 A 
ATOM      9  C   UNL     1       7.717 -17.284   7.496  1.00  0.00     0.336 A 
ATOM     10  O   UNL     1       6.741 -17.974   7.100  1.00  0.00    -0.246 OA
ATOM     11  O   UNL     1       8.928 -17.511   6.997  1.00  0.00    -0.419 OA
ENDROOT
BRANCH   1  12
ATOM     12  O   UNL     1      13.407 -14.625   8.566  1.00  0.00    -0.493 OA
ATOM     13  C   UNL     1      14.025 -13.606   7.786  1.00  0.00     0.278 C 
ENDBRANCH   1  12
BRANCH   2  14
ATOM     14  O   UNL     1      13.716 -16.556   6.723  1.00  0.00    -0.490 OA
ATOM     15  C   UNL     1      14.706 -17.434   7.246  1.00  0.00     0.278 C 
ENDBRANCH   2  14
BRANCH   3  16
ATOM     16  O   UNL     1      11.467 -18.120   5.831  1.00  0.00    -0.490 OA
ATOM     17  C   UNL     1      12.369 -18.097   4.729  1.00  0.00     0.278 C 
ENDBRANCH   3  16
TORSDOF 3
ENDMDL
MODEL 4
REMARK VINA RESULT:    -1.864      2.094      3.298
REMARK INTER + INTRA:          -2.235
REMARK INTER:                  -2.832
REMARK INTRA:                   0.597
REMARK UNBOUND:                -0.045
REMARK SMILES COc1cc2ccc(=O)oc2c(OC)c1OC
REMARK SMILES IDX 3 1 15 2 12 3 11 4 5 5 4 6 6 7 7 8 8 9 9 10 10 11 2 12 1 13
REMARK SMILES IDX 16 14 17 15 13 16 14 17
REMARK H PARENT
REMARK Flexibility Score: inf
ROOT
ATOM      1  C   UNL     1      10.948 -16.128   8.439  1.00  0.00     0.165 A 
ATOM      2  C   UNL     1      10.865 -16.847   7.235  1.00  0.00     0.207 A 
ATOM      3  C   UNL     1       9.626 -17.411   6.823  1.00  0.00     0.208 A 
ATOM      4  C   UNL     1       8.483 -17.235   7.645  1.00  0.00     0.184 A 
ATOM      5  C   UNL     1       8.587 -16.509   8.852  1.00  0.00     0.025 A 
ATOM      6  C   UNL     1       9.809 -15.963   9.242  1.00  0.00     0.062 A 
ATOM      7  C   UNL     1       7.446 -16.350   9.645  1.00  0.00     0.020 A 
ATOM      8  C   UNL     1       6.239 -16.906   9.233  1.00  0.00     0.094 A 
ATOM      9  C   UNL     1       6.202 -17.612   8.030  1.00  0.00     0.336 A 
ATOM     10  O   UNL     1       5.122 -18.125   7.633  1.00  0.00    -0.246 OA
ATOM     11  O   UNL     1       7.302 -17.747   7.296  1.00  0.00    -0.419 OA
ENDROOT
BRANCH   1  12
ATOM     12  O   UNL     1      12.194 -15.591   8.805  1.00  0.00    -0.493 OA
ATOM     13  C   UNL     1      12.949 -14.681   8.010  1.00  0.00     0.278 C 
ENDBRANCH   1  12
BRANCH   2  14
ATOM     14  O   UNL     1      12.061 -16.960   6.497  1.00  0.00    -0.490 OA
ATOM     15  C   UNL     1      12.884 -18.114   6.369  1.00  0.00     0.278 C 
ENDBRANCH   2  14
BRANCH   3  16
ATOM     16  O   UNL     1       9.580 -18.124   5.609  1.00  0.00    -0.490 OA
ATOM     17  C   UNL     1       8.526 -18.125   4.652  1.00  0.00     0.278 C 
ENDBRANCH   3  16
TORSDOF 3
ENDMDL
MODEL 5
REMARK VINA RESULT:    -1.790      2.008      5.334
REMARK INTER + INTRA:          -2.149
REMARK INTER:                  -2.550
REMARK INTRA:                   0.401
REMARK UNBOUND:                -0.045
REMARK SMILES COc1cc2ccc(=O)oc2c(OC)c1OC
REMARK SMILES IDX 3 1 15 2 12 3 11 4 5 5 4 6 6 7 7 8 8 9 9 10 10 11 2 12 1 13
REMARK SMILES IDX 16 14 17 15 13 16 14 17
REMARK H PARENT
REMARK Flexibility Score: inf
ROOT
ATOM      1  C   UNL     1       9.097 -16.868   7.974  1.00  0.00     0.165 A 
ATOM      2  C   UNL     1       9.632 -17.498   6.837  1.00  0.00     0.207 A 
ATOM      3  C   UNL     1      11.035 -17.483   6.605  1.00  0.00     0.208 A 
ATOM      4  C   UNL     1      11.880 -16.825   7.536  1.00  0.00     0.184 A 
ATOM      5  C   UNL     1      11.322 -16.198   8.672  1.00  0.00     0.025 A 
ATOM      6  C   UNL     1       9.945 -16.221   8.886  1.00  0.00     0.062 A 
ATOM      7  C   UNL     1      12.176 -15.555   9.576  1.00  0.00     0.020 A 
ATOM      8  C   UNL     1      13.547 -15.547   9.340  1.00  0.00     0.094 A 
ATOM      9  C   UNL     1      14.034 -16.185   8.198  1.00  0.00     0.336 A 
ATOM     10  O   UNL     1      15.271 -16.192   7.960  1.00  0.00    -0.246 OA
ATOM     11  O   UNL     1      13.200 -16.787   7.357  1.00  0.00    -0.419 OA
ENDROOT
BRANCH   1  12
ATOM     12  O   UNL     1       7.705 -16.909   8.159  1.00  0.00    -0.493 OA
ATOM     13  C   UNL     1       6.966 -15.990   8.959  1.00  0.00     0.278 C 
ENDBRANCH   1  12
BRANCH   2  14
ATOM     14  O   UNL     1       8.702 -18.121   5.979  1.00  0.00    -0.490 OA
ATOM     15  C   UNL     1       8.152 -17.588   4.780  1.00  0.00     0.278 C 
ENDBRANCH   2  14
BRANCH   3  16
ATOM     16  O   UNL     1      11.535 -18.125   5.456  1.00  0.00    -0.490 OA
ATOM     17  C   UNL     1      12.880 -18.123   4.987  1.00  0.00     0.278 C 
ENDBRANCH   3  16
TORSDOF 3
ENDMDL
MODEL 6
REMARK VINA RESULT:    -1.719      1.823      5.668
REMARK INTER + INTRA:          -2.065
REMARK INTER:                  -2.850
REMARK INTRA:                   0.785
REMARK UNBOUND:                -0.045
REMARK SMILES COc1cc2ccc(=O)oc2c(OC)c1OC
REMARK SMILES IDX 3 1 15 2 12 3 11 4 5 5 4 6 6 7 7 8 8 9 9 10 10 11 2 12 1 13
REMARK SMILES IDX 16 14 17 15 13 16 14 17
REMARK H PARENT
REMARK Flexibility Score: inf
ROOT
ATOM      1  C   UNL     1       8.481 -15.907   8.633  1.00  0.00     0.165 A 
ATOM      2  C   UNL     1       8.328 -16.780   7.543  1.00  0.00     0.207 A 
ATOM      3  C   UNL     1       9.471 -17.251   6.838  1.00  0.00     0.208 A 
ATOM      4  C   UNL     1      10.759 -16.824   7.253  1.00  0.00     0.184 A 
ATOM      5  C   UNL     1      10.891 -15.946   8.352  1.00  0.00     0.025 A 
ATOM      6  C   UNL     1       9.761 -15.494   9.032  1.00  0.00     0.062 A 
ATOM      7  C   UNL     1      12.172 -15.540   8.742  1.00  0.00     0.020 A 
ATOM      8  C   UNL     1      13.283 -16.006   8.046  1.00  0.00     0.094 A 
ATOM      9  C   UNL     1      13.085 -16.872   6.970  1.00  0.00     0.336 A 
ATOM     10  O   UNL     1      14.073 -17.309   6.322  1.00  0.00    -0.246 OA
ATOM     11  O   UNL     1      11.856 -17.241   6.621  1.00  0.00    -0.419 OA
ENDROOT
BRANCH   1  12
ATOM     12  O   UNL     1       7.323 -15.469   9.297  1.00  0.00    -0.493 OA
ATOM     13  C   UNL     1       6.194 -14.881   8.656  1.00  0.00     0.278 C 
ENDBRANCH   1  12
BRANCH   2  14
ATOM     14  O   UNL     1       7.004 -17.138   7.217  1.00  0.00    -0.490 OA
ATOM     15  C   UNL     1       6.201 -18.125   7.856  1.00  0.00     0.278 C 
ENDBRANCH   2  14
BRANCH   3  16
ATOM     16  O   UNL     1       9.280 -18.125   5.751  1.00  0.00    -0.490 OA
ATOM     17  C   UNL     1       8.509 -17.881   4.579  1.00  0.00     0.278 C 
ENDBRANCH   3  16
TORSDOF 3
ENDMDL
