MODEL 1
REMARK VINA RESULT:    -4.718      0.000      0.000
REMARK INTER + INTRA:          -5.496
REMARK INTER:                  -5.269
REMARK INTRA:                  -0.227
REMARK UNBOUND:                -0.227
REMARK SMILES O=C([O-])c1ccccc1C(=O)[O-]
REMARK SMILES IDX 4 1 9 2 5 3 8 4 6 5 7 6 2 7 1 8 3 9 10 10 11 11 12 12
REMARK H PARENT
REMARK Flexibility Score: inf
ROOT
ATOM      1  C   UNL     1      18.739   9.892   5.516  1.00  0.00     0.006 A 
ATOM      2  C   UNL     1      19.106   8.593   5.968  1.00  0.00     0.006 A 
ATOM      3  C   UNL     1      19.237  11.020   6.196  1.00  0.00     0.010 A 
ATOM      4  C   UNL     1      19.903   8.471   7.121  1.00  0.00     0.010 A 
ATOM      5  C   UNL     1      20.045  10.874   7.323  1.00  0.00     0.001 A 
ATOM      6  C   UNL     1      20.368   9.603   7.792  1.00  0.00     0.001 A 
ENDROOT
BRANCH   1   7
ATOM      7  C   UNL     1      17.795  10.121   4.397  1.00  0.00     0.072 C 
ATOM      8  O   UNL     1      18.217  10.393   3.243  1.00  0.00    -0.545 OA
ATOM      9  O   UNL     1      16.427   9.971   4.597  1.00  0.00    -0.545 OA
ENDBRANCH   1   7
BRANCH   2  10
ATOM     10  C   UNL     1      18.745   7.353   5.243  1.00  0.00     0.072 C 
ATOM     11  O   UNL     1      17.766   6.652   5.613  1.00  0.00    -0.545 OA
ATOM     12  O   UNL     1      19.444   6.987   4.099  1.00  0.00    -0.545 OA
ENDBRANCH   2  10
TORSDOF 2
ENDMDL
MODEL 2
REMARK VINA RESULT:    -4.693      0.182      3.143
REMARK INTER + INTRA:          -5.468
REMARK INTER:                  -5.241
REMARK INTRA:                  -0.227
REMARK UNBOUND:                -0.227
REMARK SMILES O=C([O-])c1ccccc1C(=O)[O-]
REMARK SMILES IDX 4 1 9 2 5 3 8 4 6 5 7 6 2 7 1 8 3 9 10 10 11 11 12 12
REMARK H PARENT
REMARK Flexibility Score: inf
ROOT
ATOM      1  C   UNL     1      19.014   8.657   6.080  1.00  0.00     0.006 A 
ATOM      2  C   UNL     1      18.644   9.943   5.595  1.00  0.00     0.006 A 
ATOM      3  C   UNL     1      19.856   8.566   7.205  1.00  0.00     0.010 A 
ATOM      4  C   UNL     1      19.182  11.087   6.213  1.00  0.00     0.010 A 
ATOM      5  C   UNL     1      20.359   9.715   7.815  1.00  0.00     0.001 A 
ATOM      6  C   UNL     1      20.033  10.972   7.313  1.00  0.00     0.001 A 
ENDROOT
BRANCH   1   7
ATOM      7  C   UNL     1      18.610   7.396   5.415  1.00  0.00     0.072 C 
ATOM      8  O   UNL     1      17.642   6.719   5.850  1.00  0.00    -0.545 OA
ATOM      9  O   UNL     1      19.258   6.980   4.258  1.00  0.00    -0.545 OA
ENDBRANCH   1   7
BRANCH   2  10
ATOM     10  C   UNL     1      17.659  10.143   4.507  1.00  0.00     0.072 C 
ATOM     11  O   UNL     1      18.039  10.363   3.326  1.00  0.00    -0.545 OA
ATOM     12  O   UNL     1      16.299  10.022   4.768  1.00  0.00    -0.545 OA
ENDBRANCH   2  10
TORSDOF 2
ENDMDL
MODEL 3
REMARK VINA RESULT:    -4.551      1.958      3.398
REMARK INTER + INTRA:          -5.310
REMARK INTER:                  -5.080
REMARK INTRA:                  -0.230
REMARK UNBOUND:                -0.227
REMARK SMILES O=C([O-])c1ccccc1C(=O)[O-]
REMARK SMILES IDX 4 1 9 2 5 3 8 4 6 5 7 6 2 7 1 8 3 9 10 10 11 11 12 12
REMARK H PARENT
REMARK Flexibility Score: inf
ROOT
ATOM      1  C   UNL     1      18.293   8.334   6.635  1.00  0.00     0.006 A 
ATOM      2  C   UNL     1      17.992   8.222   5.248  1.00  0.00     0.006 A 
ATOM      3  C   UNL     1      18.798   9.552   7.129  1.00  0.00     0.010 A 
ATOM      4  C   UNL     1      18.269   9.308   4.398  1.00  0.00     0.010 A 
ATOM      5  C   UNL     1      19.043  10.623   6.271  1.00  0.00     0.001 A 
ATOM      6  C   UNL     1      18.791  10.498   4.907  1.00  0.00     0.001 A 
ENDROOT
BRANCH   1   7
ATOM      7  C   UNL     1      18.165   7.203   7.583  1.00  0.00     0.072 C 
ATOM      8  O   UNL     1      17.116   7.044   8.260  1.00  0.00    -0.545 OA
ATOM      9  O   UNL     1      19.184   6.262   7.687  1.00  0.00    -0.545 OA
ENDBRANCH   1   7
BRANCH   2  10
ATOM     10  C   UNL     1      17.333   7.033   4.658  1.00  0.00     0.072 C 
ATOM     11  O   UNL     1      18.012   6.128   4.105  1.00  0.00    -0.545 OA
ATOM     12  O   UNL     1      15.958   6.872   4.771  1.00  0.00    -0.545 OA
ENDBRANCH   2  10
TORSDOF 2
ENDMDL
MODEL 4
REMARK VINA RESULT:    -4.501      1.921      2.920
REMARK INTER + INTRA:          -5.254
REMARK INTER:                  -5.067
REMARK INTRA:                  -0.186
REMARK UNBOUND:                -0.227
REMARK SMILES O=C([O-])c1ccccc1C(=O)[O-]
REMARK SMILES IDX 4 1 9 2 5 3 8 4 6 5 7 6 2 7 1 8 3 9 10 10 11 11 12 12
REMARK H PARENT
REMARK Flexibility Score: inf
ROOT
ATOM      1  C   UNL     1      18.528   8.191   4.760  1.00  0.00     0.006 A 
ATOM      2  C   UNL     1      19.183   8.353   6.014  1.00  0.00     0.006 A 
ATOM      3  C   UNL     1      18.149   9.336   4.034  1.00  0.00     0.010 A 
ATOM      4  C   UNL     1      19.376   9.650   6.523  1.00  0.00     0.010 A 
ATOM      5  C   UNL     1      18.370  10.613   4.549  1.00  0.00     0.001 A 
ATOM      6  C   UNL     1      18.971  10.770   5.795  1.00  0.00     0.001 A 
ENDROOT
BRANCH   1   7
ATOM      7  C   UNL     1      18.159   6.868   4.206  1.00  0.00     0.072 C 
ATOM      8  O   UNL     1      17.157   6.243   4.640  1.00  0.00    -0.545 OA
ATOM      9  O   UNL     1      18.882   6.329   3.147  1.00  0.00    -0.545 OA
ENDBRANCH   1   7
BRANCH   2  10
ATOM     10  C   UNL     1      19.740   7.217   6.786  1.00  0.00     0.072 C 
ATOM     11  O   UNL     1      19.008   6.542   7.557  1.00  0.00    -0.545 OA
ATOM     12  O   UNL     1      21.067   6.843   6.614  1.00  0.00    -0.545 OA
ENDBRANCH   2  10
TORSDOF 2
ENDMDL
MODEL 5
REMARK VINA RESULT:    -4.347      2.398      3.852
REMARK INTER + INTRA:          -5.082
REMARK INTER:                  -4.869
REMARK INTRA:                  -0.214
REMARK UNBOUND:                -0.227
REMARK SMILES O=C([O-])c1ccccc1C(=O)[O-]
REMARK SMILES IDX 4 1 9 2 5 3 8 4 6 5 7 6 2 7 1 8 3 9 10 10 11 11 12 12
REMARK H PARENT
REMARK Flexibility Score: inf
ROOT
ATOM      1  C   UNL     1      17.128   8.793   5.569  1.00  0.00     0.006 A 
ATOM      2  C   UNL     1      17.168   7.427   5.967  1.00  0.00     0.006 A 
ATOM      3  C   UNL     1      16.458   9.140   4.381  1.00  0.00     0.010 A 
ATOM      4  C   UNL     1      16.593   6.453   5.129  1.00  0.00     0.010 A 
ATOM      5  C   UNL     1      15.875   8.161   3.577  1.00  0.00     0.001 A 
ATOM      6  C   UNL     1      15.953   6.820   3.943  1.00  0.00     0.001 A 
ENDROOT
BRANCH   1   7
ATOM      7  C   UNL     1      17.821   9.871   6.312  1.00  0.00     0.072 C 
ATOM      8  O   UNL     1      18.931  10.315   5.919  1.00  0.00    -0.545 OA
ATOM      9  O   UNL     1      17.216  10.454   7.421  1.00  0.00    -0.545 OA
ENDBRANCH   1   7
BRANCH   2  10
ATOM     10  C   UNL     1      17.729   6.979   7.263  1.00  0.00     0.072 C 
ATOM     11  O   UNL     1      18.944   6.662   7.364  1.00  0.00    -0.545 OA
ATOM     12  O   UNL     1      16.931   6.969   8.400  1.00  0.00    -0.545 OA
ENDBRANCH   2  10
TORSDOF 2
ENDMDL
MODEL 6
REMARK VINA RESULT:    -4.295      2.237      3.148
REMARK INTER + INTRA:          -5.024
REMARK INTER:                  -4.810
REMARK INTRA:                  -0.214
REMARK UNBOUND:                -0.227
REMARK SMILES O=C([O-])c1ccccc1C(=O)[O-]
REMARK SMILES IDX 4 1 9 2 5 3 8 4 6 5 7 6 2 7 1 8 3 9 10 10 11 11 12 12
REMARK H PARENT
REMARK Flexibility Score: inf
ROOT
ATOM      1  C   UNL     1      18.872   9.539   5.771  1.00  0.00     0.006 A 
ATOM      2  C   UNL     1      18.930   8.124   5.622  1.00  0.00     0.006 A 
ATOM      3  C   UNL     1      18.610  10.336   4.641  1.00  0.00     0.010 A 
ATOM      4  C   UNL     1      18.787   7.566   4.338  1.00  0.00     0.010 A 
ATOM      5  C   UNL     1      18.449   9.758   3.382  1.00  0.00     0.001 A 
ATOM      6  C   UNL     1      18.550   8.378   3.228  1.00  0.00     0.001 A 
ENDROOT
BRANCH   1   7
ATOM      7  C   UNL     1      19.144  10.228   7.055  1.00  0.00     0.072 C 
ATOM      8  O   UNL     1      20.294  10.666   7.320  1.00  0.00    -0.545 OA
ATOM      9  O   UNL     1      18.110  10.457   7.956  1.00  0.00    -0.545 OA
ENDBRANCH   1   7
BRANCH   2  10
ATOM     10  C   UNL     1      19.065   7.196   6.769  1.00  0.00     0.072 C 
ATOM     11  O   UNL     1      18.052   6.642   7.273  1.00  0.00    -0.545 OA
ATOM     12  O   UNL     1      20.325   6.872   7.258  1.00  0.00    -0.545 OA
ENDBRANCH   2  10
TORSDOF 2
ENDMDL
MODEL 7
REMARK VINA RESULT:    -4.293      2.249      4.312
REMARK INTER + INTRA:          -5.022
REMARK INTER:                  -4.803
REMARK INTRA:                  -0.219
REMARK UNBOUND:                -0.227
REMARK SMILES O=C([O-])c1ccccc1C(=O)[O-]
REMARK SMILES IDX 4 1 9 2 5 3 8 4 6 5 7 6 2 7 1 8 3 9 10 10 11 11 12 12
REMARK H PARENT
REMARK Flexibility Score: inf
ROOT
ATOM      1  C   UNL     1      18.756   7.752   5.832  1.00  0.00     0.006 A 
ATOM      2  C   UNL     1      18.740   9.173   5.746  1.00  0.00     0.006 A 
ATOM      3  C   UNL     1      18.660   6.994   4.650  1.00  0.00     0.010 A 
ATOM      4  C   UNL     1      18.564   9.780   4.489  1.00  0.00     0.010 A 
ATOM      5  C   UNL     1      18.509   7.618   3.412  1.00  0.00     0.001 A 
ATOM      6  C   UNL     1      18.449   9.007   3.333  1.00  0.00     0.001 A 
ENDROOT
BRANCH   1   7
ATOM      7  C   UNL     1      18.799   7.021   7.120  1.00  0.00     0.072 C 
ATOM      8  O   UNL     1      19.886   6.581   7.576  1.00  0.00    -0.545 OA
ATOM      9  O   UNL     1      17.641   6.872   7.876  1.00  0.00    -0.545 OA
ENDBRANCH   1   7
BRANCH   2  10
ATOM     10  C   UNL     1      18.970  10.056   6.914  1.00  0.00     0.072 C 
ATOM     11  O   UNL     1      20.105  10.557   7.129  1.00  0.00    -0.545 OA
ATOM     12  O   UNL     1      17.913  10.395   7.749  1.00  0.00    -0.545 OA
ENDBRANCH   2  10
TORSDOF 2
ENDMDL
MODEL 8
REMARK VINA RESULT:    -4.237      1.875      3.707
REMARK INTER + INTRA:          -4.960
REMARK INTER:                  -4.729
REMARK INTRA:                  -0.231
REMARK UNBOUND:                -0.227
REMARK SMILES O=C([O-])c1ccccc1C(=O)[O-]
REMARK SMILES IDX 4 1 9 2 5 3 8 4 6 5 7 6 2 7 1 8 3 9 10 10 11 11 12 12
REMARK H PARENT
REMARK Flexibility Score: inf
ROOT
ATOM      1  C   UNL     1      17.620   7.129   5.227  1.00  0.00     0.006 A 
ATOM      2  C   UNL     1      17.777   8.530   5.430  1.00  0.00     0.006 A 
ATOM      3  C   UNL     1      17.586   6.276   6.346  1.00  0.00     0.010 A 
ATOM      4  C   UNL     1      17.959   9.015   6.738  1.00  0.00     0.010 A 
ATOM      5  C   UNL     1      17.746   6.782   7.635  1.00  0.00     0.001 A 
ATOM      6  C   UNL     1      17.944   8.147   7.830  1.00  0.00     0.001 A 
ENDROOT
BRANCH   1   7
ATOM      7  C   UNL     1      17.558   6.510   3.883  1.00  0.00     0.072 C 
ATOM      8  O   UNL     1      16.451   6.232   3.351  1.00  0.00    -0.545 OA
ATOM      9  O   UNL     1      18.727   6.289   3.163  1.00  0.00    -0.545 OA
ENDBRANCH   1   7
BRANCH   2  10
ATOM     10  C   UNL     1      17.689   9.520   4.331  1.00  0.00     0.072 C 
ATOM     11  O   UNL     1      18.730   9.968   3.783  1.00  0.00    -0.545 OA
ATOM     12  O   UNL     1      16.447   9.914   3.847  1.00  0.00    -0.545 OA
ENDBRANCH   2  10
TORSDOF 2
ENDMDL
MODEL 9
REMARK VINA RESULT:    -4.144      2.441      3.591
REMARK INTER + INTRA:          -4.855
REMARK INTER:                  -4.669
REMARK INTRA:                  -0.186
REMARK UNBOUND:                -0.227
REMARK SMILES O=C([O-])c1ccccc1C(=O)[O-]
REMARK SMILES IDX 4 1 9 2 5 3 8 4 6 5 7 6 2 7 1 8 3 9 10 10 11 11 12 12
REMARK H PARENT
REMARK Flexibility Score: inf
ROOT
ATOM      1  C   UNL     1      18.542   8.216   4.699  1.00  0.00     0.006 A 
ATOM      2  C   UNL     1      18.285   7.992   3.317  1.00  0.00     0.006 A 
ATOM      3  C   UNL     1      18.618   9.538   5.175  1.00  0.00     0.010 A 
ATOM      4  C   UNL     1      18.177   9.098   2.453  1.00  0.00     0.010 A 
ATOM      5  C   UNL     1      18.484  10.619   4.304  1.00  0.00     0.001 A 
ATOM      6  C   UNL     1      18.277  10.400   2.945  1.00  0.00     0.001 A 
ENDROOT
BRANCH   1   7
ATOM      7  C   UNL     1      18.807   7.119   5.659  1.00  0.00     0.072 C 
ATOM      8  O   UNL     1      19.974   6.889   6.070  1.00  0.00    -0.545 OA
ATOM      9  O   UNL     1      17.752   6.372   6.172  1.00  0.00    -0.545 OA
ENDBRANCH   1   7
BRANCH   2  10
ATOM     10  C   UNL     1      18.054   6.644   2.746  1.00  0.00     0.072 C 
ATOM     11  O   UNL     1      16.886   6.230   2.523  1.00  0.00    -0.545 OA
ATOM     12  O   UNL     1      19.134   5.847   2.386  1.00  0.00    -0.545 OA
ENDBRANCH   2  10
TORSDOF 2
ENDMDL
