MODEL 1
REMARK VINA RESULT:    -4.825      0.000      0.000
REMARK INTER + INTRA:          -5.614
REMARK INTER:                  -5.530
REMARK INTRA:                  -0.084
REMARK UNBOUND:                -0.084
REMARK SMILES COc1cc(C(=O)[O-])ccc1O
REMARK SMILES IDX 5 1 9 2 4 3 10 4 3 5 11 6 6 7 7 8 8 9 2 10 1 11 12 12
REMARK H PARENT 12 13
REMARK Flexibility Score: inf
ROOT
ATOM      1  C   UNL     1       2.646 -19.035  31.720  1.00  0.00     0.001 A 
ATOM      2  C   UNL     1       3.533 -20.006  32.212  1.00  0.00     0.014 A 
ATOM      3  C   UNL     1       3.094 -18.138  30.731  1.00  0.00     0.060 A 
ATOM      4  C   UNL     1       4.841 -20.080  31.727  1.00  0.00     0.051 A 
ATOM      5  C   UNL     1       4.414 -18.209  30.241  1.00  0.00     0.161 A 
ATOM      6  C   UNL     1       5.283 -19.186  30.745  1.00  0.00     0.157 A 
ENDROOT
BRANCH   1   7
ATOM      7  C   UNL     1       1.261 -18.962  32.236  1.00  0.00     0.072 C 
ATOM      8  O   UNL     1       0.333 -19.603  31.675  1.00  0.00    -0.545 OA
ATOM      9  O   UNL     1       0.964 -18.184  33.349  1.00  0.00    -0.545 OA
ENDBRANCH   1   7
BRANCH   5  10
ATOM     10  O   UNL     1       4.894 -17.331  29.256  1.00  0.00    -0.493 OA
ATOM     11  C   UNL     1       4.727 -15.918  29.284  1.00  0.00     0.278 C 
ENDBRANCH   5  10
BRANCH   6  12
ATOM     12  O   UNL     1       6.588 -19.261  30.263  1.00  0.00    -0.504 OA
ATOM     13  H   UNL     1       7.336 -18.709  30.667  1.00  0.00     0.293 HD
ENDBRANCH   6  12
TORSDOF 3
ENDMDL
MODEL 2
REMARK VINA RESULT:    -4.800      1.646      2.844
REMARK INTER + INTRA:          -5.585
REMARK INTER:                  -5.494
REMARK INTRA:                  -0.092
REMARK UNBOUND:                -0.084
REMARK SMILES COc1cc(C(=O)[O-])ccc1O
REMARK SMILES IDX 5 1 9 2 4 3 10 4 3 5 11 6 6 7 7 8 8 9 2 10 1 11 12 12
REMARK H PARENT 12 13
REMARK Flexibility Score: inf
ROOT
ATOM      1  C   UNL     1       3.658 -18.858  31.126  1.00  0.00     0.001 A 
ATOM      2  C   UNL     1       3.218 -17.867  30.234  1.00  0.00     0.014 A 
ATOM      3  C   UNL     1       5.034 -18.970  31.398  1.00  0.00     0.060 A 
ATOM      4  C   UNL     1       4.133 -17.005  29.626  1.00  0.00     0.051 A 
ATOM      5  C   UNL     1       5.962 -18.103  30.786  1.00  0.00     0.161 A 
ATOM      6  C   UNL     1       5.502 -17.120  29.898  1.00  0.00     0.157 A 
ENDROOT
BRANCH   1   7
ATOM      7  C   UNL     1       2.683 -19.768  31.768  1.00  0.00     0.072 C 
ATOM      8  O   UNL     1       2.936 -20.996  31.888  1.00  0.00    -0.545 OA
ATOM      9  O   UNL     1       1.473 -19.280  32.248  1.00  0.00    -0.545 OA
ENDBRANCH   1   7
BRANCH   5  10
ATOM     10  O   UNL     1       7.341 -18.186  31.034  1.00  0.00    -0.493 OA
ATOM     11  C   UNL     1       8.125 -19.360  30.850  1.00  0.00     0.278 C 
ENDBRANCH   5  10
BRANCH   6  12
ATOM     12  O   UNL     1       6.414 -16.259  29.290  1.00  0.00    -0.504 OA
ATOM     13  H   UNL     1       6.831 -15.486  29.796  1.00  0.00     0.293 HD
ENDBRANCH   6  12
TORSDOF 3
ENDMDL
MODEL 3
REMARK VINA RESULT:    -4.772      1.511      4.209
REMARK INTER + INTRA:          -5.553
REMARK INTER:                  -5.518
REMARK INTRA:                  -0.036
REMARK UNBOUND:                -0.084
REMARK SMILES COc1cc(C(=O)[O-])ccc1O
REMARK SMILES IDX 5 1 9 2 4 3 10 4 3 5 11 6 6 7 7 8 8 9 2 10 1 11 12 12
REMARK H PARENT 12 13
REMARK Flexibility Score: inf
ROOT
ATOM      1  C   UNL     1       4.608 -17.656  30.287  1.00  0.00     0.001 A 
ATOM      2  C   UNL     1       5.480 -18.515  30.975  1.00  0.00     0.014 A 
ATOM      3  C   UNL     1       3.237 -17.971  30.235  1.00  0.00     0.060 A 
ATOM      4  C   UNL     1       4.993 -19.665  31.599  1.00  0.00     0.051 A 
ATOM      5  C   UNL     1       2.742 -19.132  30.863  1.00  0.00     0.161 A 
ATOM      6  C   UNL     1       3.629 -19.976  31.545  1.00  0.00     0.157 A 
ENDROOT
BRANCH   1   7
ATOM      7  C   UNL     1       5.129 -16.437  29.628  1.00  0.00     0.072 C 
ATOM      8  O   UNL     1       4.369 -15.707  28.938  1.00  0.00    -0.545 OA
ATOM      9  O   UNL     1       6.466 -16.080  29.762  1.00  0.00    -0.545 OA
ENDBRANCH   1   7
BRANCH   5  10
ATOM     10  O   UNL     1       1.382 -19.478  30.831  1.00  0.00    -0.493 OA
ATOM     11  C   UNL     1       0.451 -19.186  31.867  1.00  0.00     0.278 C 
ENDBRANCH   5  10
BRANCH   6  12
ATOM     12  O   UNL     1       3.145 -21.125  32.168  1.00  0.00    -0.504 OA
ATOM     13  H   UNL     1       2.447 -21.076  32.902  1.00  0.00     0.293 HD
ENDBRANCH   6  12
TORSDOF 3
ENDMDL
MODEL 4
REMARK VINA RESULT:    -4.726      2.698      4.591
REMARK INTER + INTRA:          -5.500
REMARK INTER:                  -5.407
REMARK INTRA:                  -0.093
REMARK UNBOUND:                -0.084
REMARK SMILES COc1cc(C(=O)[O-])ccc1O
REMARK SMILES IDX 5 1 9 2 4 3 10 4 3 5 11 6 6 7 7 8 8 9 2 10 1 11 12 12
REMARK H PARENT 12 13
REMARK Flexibility Score: inf
ROOT
ATOM      1  C   UNL     1       5.508 -17.361  30.394  1.00  0.00     0.001 A 
ATOM      2  C   UNL     1       4.401 -16.945  29.637  1.00  0.00     0.014 A 
ATOM      3  C   UNL     1       6.659 -16.551  30.425  1.00  0.00     0.060 A 
ATOM      4  C   UNL     1       4.442 -15.745  28.924  1.00  0.00     0.051 A 
ATOM      5  C   UNL     1       6.704 -15.339  29.706  1.00  0.00     0.161 A 
ATOM      6  C   UNL     1       5.588 -14.943  28.956  1.00  0.00     0.157 A 
ENDROOT
BRANCH   1   7
ATOM      7  C   UNL     1       5.459 -18.634  31.148  1.00  0.00     0.072 C 
ATOM      8  O   UNL     1       4.511 -18.871  31.944  1.00  0.00    -0.545 OA
ATOM      9  O   UNL     1       6.458 -19.587  30.989  1.00  0.00    -0.545 OA
ENDBRANCH   1   7
BRANCH   5  10
ATOM     10  O   UNL     1       7.835 -14.507  29.713  1.00  0.00    -0.493 OA
ATOM     11  C   UNL     1       8.125 -13.549  30.725  1.00  0.00     0.278 C 
ENDBRANCH   5  10
BRANCH   6  12
ATOM     12  O   UNL     1       5.627 -13.745  28.244  1.00  0.00    -0.504 OA
ATOM     13  H   UNL     1       6.467 -13.179  28.204  1.00  0.00     0.293 HD
ENDBRANCH   6  12
TORSDOF 3
ENDMDL
MODEL 5
REMARK VINA RESULT:    -4.581      3.069      5.762
REMARK INTER + INTRA:          -5.335
REMARK INTER:                  -5.257
REMARK INTRA:                  -0.077
REMARK UNBOUND:                -0.084
REMARK SMILES COc1cc(C(=O)[O-])ccc1O
REMARK SMILES IDX 5 1 9 2 4 3 10 4 3 5 11 6 6 7 7 8 8 9 2 10 1 11 12 12
REMARK H PARENT 12 13
REMARK Flexibility Score: inf
ROOT
ATOM      1  C   UNL     1       6.098 -15.091  29.225  1.00  0.00     0.001 A 
ATOM      2  C   UNL     1       4.772 -15.473  28.969  1.00  0.00     0.014 A 
ATOM      3  C   UNL     1       6.946 -15.980  29.912  1.00  0.00     0.060 A 
ATOM      4  C   UNL     1       4.300 -16.718  29.390  1.00  0.00     0.051 A 
ATOM      5  C   UNL     1       6.473 -17.237  30.341  1.00  0.00     0.161 A 
ATOM      6  C   UNL     1       5.145 -17.600  30.075  1.00  0.00     0.157 A 
ENDROOT
BRANCH   1   7
ATOM      7  C   UNL     1       6.593 -13.771  28.774  1.00  0.00     0.072 C 
ATOM      8  O   UNL     1       6.888 -12.877  29.612  1.00  0.00    -0.545 OA
ATOM      9  O   UNL     1       6.740 -13.497  27.419  1.00  0.00    -0.545 OA
ENDBRANCH   1   7
BRANCH   5  10
ATOM     10  O   UNL     1       7.290 -18.149  31.029  1.00  0.00    -0.493 OA
ATOM     11  C   UNL     1       8.118 -19.123  30.403  1.00  0.00     0.278 C 
ENDBRANCH   5  10
BRANCH   6  12
ATOM     12  O   UNL     1       4.673 -18.842  30.495  1.00  0.00    -0.504 OA
ATOM     13  H   UNL     1       4.448 -19.576  29.833  1.00  0.00     0.293 HD
ENDBRANCH   6  12
TORSDOF 3
ENDMDL
MODEL 6
REMARK VINA RESULT:    -4.438      2.000      4.690
REMARK INTER + INTRA:          -5.170
REMARK INTER:                  -5.079
REMARK INTRA:                  -0.091
REMARK UNBOUND:                -0.084
REMARK SMILES COc1cc(C(=O)[O-])ccc1O
REMARK SMILES IDX 5 1 9 2 4 3 10 4 3 5 11 6 6 7 7 8 8 9 2 10 1 11 12 12
REMARK H PARENT 12 13
REMARK Flexibility Score: inf
ROOT
ATOM      1  C   UNL     1       5.503 -16.183  29.600  1.00  0.00     0.001 A 
ATOM      2  C   UNL     1       6.657 -16.589  30.288  1.00  0.00     0.014 A 
ATOM      3  C   UNL     1       4.339 -16.970  29.693  1.00  0.00     0.060 A 
ATOM      4  C   UNL     1       6.652 -17.756  31.053  1.00  0.00     0.051 A 
ATOM      5  C   UNL     1       4.330 -18.150  30.464  1.00  0.00     0.161 A 
ATOM      6  C   UNL     1       5.493 -18.538  31.143  1.00  0.00     0.157 A 
ENDROOT
BRANCH   1   7
ATOM      7  C   UNL     1       5.514 -14.943  28.791  1.00  0.00     0.072 C 
ATOM      8  O   UNL     1       4.438 -14.355  28.505  1.00  0.00    -0.545 OA
ATOM      9  O   UNL     1       6.715 -14.410  28.336  1.00  0.00    -0.545 OA
ENDBRANCH   1   7
BRANCH   5  10
ATOM     10  O   UNL     1       3.188 -18.959  30.579  1.00  0.00    -0.493 OA
ATOM     11  C   UNL     1       2.149 -18.758  31.531  1.00  0.00     0.278 C 
ENDBRANCH   5  10
BRANCH   6  12
ATOM     12  O   UNL     1       5.489 -19.703  31.907  1.00  0.00    -0.504 OA
ATOM     13  H   UNL     1       5.412 -19.675  32.917  1.00  0.00     0.293 HD
ENDBRANCH   6  12
TORSDOF 3
ENDMDL
