MODEL 1
REMARK VINA RESULT:    27.621      0.000      0.000
REMARK INTER + INTRA:          33.731
REMARK INTER:                  33.272
REMARK INTRA:                   0.459
REMARK UNBOUND:                 0.459
REMARK SMILES O=c1c(O)c(-c2ccc(O)c(O)c2)oc2cc(O)cc(O)c12
REMARK SMILES IDX 5 1 3 2 2 3 1 4 22 5 20 6 19 7 17 8 16 9 15 10 14 11 6 12
REMARK SMILES IDX 7 13 8 14 9 15 13 16 11 17 10 18 12 20 4 22 21 24 18 26
REMARK H PARENT 10 19 12 21 4 23 21 25 18 27
REMARK Flexibility Score: inf
ROOT
ATOM      1  C   UNL     1     -10.503   8.455  19.254  1.00  0.00     0.180 A 
ATOM      2  C   UNL     1      -9.161   8.720  19.578  1.00  0.00     0.208 A 
ATOM      3  C   UNL     1      -8.585   9.929  19.158  1.00  0.00     0.238 A 
ATOM      4  O   UNL     1      -7.400  10.183  19.498  1.00  0.00    -0.285 OA
ATOM      5  C   UNL     1      -9.350  10.851  18.405  1.00  0.00     0.111 A 
ATOM      6  C   UNL     1      -8.856  12.087  17.892  1.00  0.00     0.134 A 
ATOM      7  C   UNL     1      -9.739  12.980  17.272  1.00  0.00     0.093 A 
ATOM      8  C   UNL     1     -11.085  12.652  17.088  1.00  0.00     0.123 A 
ATOM      9  C   UNL     1     -11.563  11.421  17.531  1.00  0.00     0.094 A 
ATOM     10  C   UNL     1     -10.715  10.525  18.186  1.00  0.00     0.146 A 
ATOM     11  O   UNL     1     -11.214   9.368  18.603  1.00  0.00    -0.452 OA
ENDROOT
BRANCH   1  12
ATOM     12  C   UNL     1     -11.173   7.192  19.640  1.00  0.00     0.025 A 
ATOM     13  C   UNL     1     -12.369   6.783  19.029  1.00  0.00     0.016 A 
ATOM     14  C   UNL     1     -12.995   5.600  19.428  1.00  0.00     0.051 A 
ATOM     15  C   UNL     1     -12.451   4.811  20.447  1.00  0.00     0.157 A 
ATOM     16  C   UNL     1     -10.637   6.414  20.678  1.00  0.00     0.062 A 
ATOM     17  C   UNL     1     -11.258   5.226  21.084  1.00  0.00     0.158 A 
BRANCH  15  18
ATOM     18  O   UNL     1     -13.125   3.638  20.795  1.00  0.00    -0.504 OA
ATOM     19  H   UNL     1     -14.092   3.608  21.085  1.00  0.00     0.293 HD
ENDBRANCH  15  18
BRANCH  17  20
ATOM     20  O   UNL     1     -10.661   4.498  22.116  1.00  0.00    -0.504 OA
ATOM     21  H   UNL     1     -10.860   4.640  23.096  1.00  0.00     0.293 HD
ENDBRANCH  17  20
ENDBRANCH   1  12
BRANCH   2  22
ATOM     22  O   UNL     1      -8.430   7.806  20.342  1.00  0.00    -0.502 OA
ATOM     23  H   UNL     1      -7.443   7.634  20.187  1.00  0.00     0.293 HD
ENDBRANCH   2  22
BRANCH   6  24
ATOM     24  O   UNL     1      -7.512  12.470  17.942  1.00  0.00    -0.507 OA
ATOM     25  H   UNL     1      -7.068  13.093  17.286  1.00  0.00     0.293 HD
ENDBRANCH   6  24
BRANCH   8  26
ATOM     26  O   UNL     1     -11.952  13.540  16.456  1.00  0.00    -0.508 OA
ATOM     27  H   UNL     1     -11.837  14.544  16.538  1.00  0.00     0.293 HD
ENDBRANCH   8  26
TORSDOF 6
ENDMDL
MODEL 2
REMARK VINA RESULT:    27.754      5.387      8.423
REMARK INTER + INTRA:          33.892
REMARK INTER:                  34.167
REMARK INTRA:                  -0.275
REMARK UNBOUND:                 0.459
REMARK SMILES O=c1c(O)c(-c2ccc(O)c(O)c2)oc2cc(O)cc(O)c12
REMARK SMILES IDX 5 1 3 2 2 3 1 4 22 5 20 6 19 7 17 8 16 9 15 10 14 11 6 12
REMARK SMILES IDX 7 13 8 14 9 15 13 16 11 17 10 18 12 20 4 22 21 24 18 26
REMARK H PARENT 10 19 12 21 4 23 21 25 18 27
REMARK Flexibility Score: inf
ROOT
ATOM      1  C   UNL     1      -5.916   7.448  16.574  1.00  0.00     0.180 A 
ATOM      2  C   UNL     1      -5.494   6.520  17.541  1.00  0.00     0.208 A 
ATOM      3  C   UNL     1      -5.752   5.155  17.335  1.00  0.00     0.238 A 
ATOM      4  O   UNL     1      -5.324   4.325  18.178  1.00  0.00    -0.285 OA
ATOM      5  C   UNL     1      -6.443   4.737  16.172  1.00  0.00     0.111 A 
ATOM      6  C   UNL     1      -6.794   3.386  15.880  1.00  0.00     0.134 A 
ATOM      7  C   UNL     1      -7.361   3.072  14.639  1.00  0.00     0.093 A 
ATOM      8  C   UNL     1      -7.650   4.071  13.706  1.00  0.00     0.123 A 
ATOM      9  C   UNL     1      -7.367   5.401  14.006  1.00  0.00     0.094 A 
ATOM     10  C   UNL     1      -6.767   5.741  15.221  1.00  0.00     0.146 A 
ATOM     11  O   UNL     1      -6.503   7.018  15.463  1.00  0.00    -0.452 OA
ENDROOT
BRANCH   1  12
ATOM     12  C   UNL     1      -5.702   8.905  16.733  1.00  0.00     0.025 A 
ATOM     13  C   UNL     1      -4.444   9.487  16.512  1.00  0.00     0.016 A 
ATOM     14  C   UNL     1      -4.261  10.860  16.692  1.00  0.00     0.051 A 
ATOM     15  C   UNL     1      -5.320  11.674  17.107  1.00  0.00     0.157 A 
ATOM     16  C   UNL     1      -6.761   9.716  17.171  1.00  0.00     0.062 A 
ATOM     17  C   UNL     1      -6.587  11.093  17.354  1.00  0.00     0.158 A 
BRANCH  15  18
ATOM     18  O   UNL     1      -5.071  13.039  17.264  1.00  0.00    -0.504 OA
ATOM     19  H   UNL     1      -4.932  13.487  18.158  1.00  0.00     0.293 HD
ENDBRANCH  15  18
BRANCH  17  20
ATOM     20  O   UNL     1      -7.688  11.839  17.780  1.00  0.00    -0.504 OA
ATOM     21  H   UNL     1      -8.178  11.677  18.648  1.00  0.00     0.293 HD
ENDBRANCH  17  20
ENDBRANCH   1  12
BRANCH   2  22
ATOM     22  O   UNL     1      -4.794   6.952  18.672  1.00  0.00    -0.502 OA
ATOM     23  H   UNL     1      -4.763   6.415  19.530  1.00  0.00     0.293 HD
ENDBRANCH   2  22
BRANCH   6  24
ATOM     24  O   UNL     1      -6.632   2.326  16.778  1.00  0.00    -0.507 OA
ATOM     25  H   UNL     1      -7.386   1.784  17.169  1.00  0.00     0.293 HD
ENDBRANCH   6  24
BRANCH   8  26
ATOM     26  O   UNL     1      -8.229   3.752  12.480  1.00  0.00    -0.508 OA
ATOM     27  H   UNL     1      -7.878   2.992  11.908  1.00  0.00     0.293 HD
ENDBRANCH   8  26
TORSDOF 6
ENDMDL
MODEL 3
REMARK VINA RESULT:    28.262      5.637      8.927
REMARK INTER + INTRA:          34.504
REMARK INTER:                  34.809
REMARK INTRA:                  -0.305
REMARK UNBOUND:                 0.459
REMARK SMILES O=c1c(O)c(-c2ccc(O)c(O)c2)oc2cc(O)cc(O)c12
REMARK SMILES IDX 5 1 3 2 2 3 1 4 22 5 20 6 19 7 17 8 16 9 15 10 14 11 6 12
REMARK SMILES IDX 7 13 8 14 9 15 13 16 11 17 10 18 12 20 4 22 21 24 18 26
REMARK H PARENT 10 19 12 21 4 23 21 25 18 27
REMARK Flexibility Score: inf
ROOT
ATOM      1  C   UNL     1      -6.152   7.225  15.984  1.00  0.00     0.180 A 
ATOM      2  C   UNL     1      -6.721   6.908  14.738  1.00  0.00     0.208 A 
ATOM      3  C   UNL     1      -6.958   5.562  14.420  1.00  0.00     0.238 A 
ATOM      4  O   UNL     1      -7.517   5.289  13.326  1.00  0.00    -0.285 OA
ATOM      5  C   UNL     1      -6.609   4.547  15.344  1.00  0.00     0.111 A 
ATOM      6  C   UNL     1      -6.767   3.149  15.110  1.00  0.00     0.134 A 
ATOM      7  C   UNL     1      -6.510   2.242  16.146  1.00  0.00     0.093 A 
ATOM      8  C   UNL     1      -6.037   2.680  17.385  1.00  0.00     0.123 A 
ATOM      9  C   UNL     1      -5.823   4.038  17.604  1.00  0.00     0.094 A 
ATOM     10  C   UNL     1      -6.105   4.970  16.602  1.00  0.00     0.146 A 
ATOM     11  O   UNL     1      -5.897   6.256  16.855  1.00  0.00    -0.452 OA
ENDROOT
BRANCH   1  12
ATOM     12  C   UNL     1      -5.850   8.619  16.380  1.00  0.00     0.025 A 
ATOM     13  C   UNL     1      -4.554   9.146  16.267  1.00  0.00     0.016 A 
ATOM     14  C   UNL     1      -4.288  10.457  16.670  1.00  0.00     0.051 A 
ATOM     15  C   UNL     1      -5.300  11.261  17.204  1.00  0.00     0.157 A 
ATOM     16  C   UNL     1      -6.864   9.416  16.936  1.00  0.00     0.062 A 
ATOM     17  C   UNL     1      -6.606  10.731  17.342  1.00  0.00     0.158 A 
BRANCH  15  18
ATOM     18  O   UNL     1      -4.969  12.563  17.584  1.00  0.00    -0.504 OA
ATOM     19  H   UNL     1      -5.119  12.935  18.510  1.00  0.00     0.293 HD
ENDBRANCH  15  18
BRANCH  17  20
ATOM     20  O   UNL     1      -7.666  11.468  17.876  1.00  0.00    -0.504 OA
ATOM     21  H   UNL     1      -8.433  11.062  18.390  1.00  0.00     0.293 HD
ENDBRANCH  17  20
ENDBRANCH   1  12
BRANCH   2  22
ATOM     22  O   UNL     1      -7.078   7.926  13.849  1.00  0.00    -0.502 OA
ATOM     23  H   UNL     1      -7.026   7.814  12.844  1.00  0.00     0.293 HD
ENDBRANCH   2  22
BRANCH   6  24
ATOM     24  O   UNL     1      -7.145   2.601  13.880  1.00  0.00    -0.507 OA
ATOM     25  H   UNL     1      -7.897   1.943  13.751  1.00  0.00     0.293 HD
ENDBRANCH   6  24
BRANCH   8  26
ATOM     26  O   UNL     1      -5.769   1.769  18.405  1.00  0.00    -0.508 OA
ATOM     27  H   UNL     1      -4.910   1.811  18.942  1.00  0.00     0.293 HD
ENDBRANCH   8  26
TORSDOF 6
ENDMDL
MODEL 4
REMARK VINA RESULT:    28.512      0.813      1.488
REMARK INTER + INTRA:          34.805
REMARK INTER:                  34.828
REMARK INTRA:                  -0.023
REMARK UNBOUND:                 0.459
REMARK SMILES O=c1c(O)c(-c2ccc(O)c(O)c2)oc2cc(O)cc(O)c12
REMARK SMILES IDX 5 1 3 2 2 3 1 4 22 5 20 6 19 7 17 8 16 9 15 10 14 11 6 12
REMARK SMILES IDX 7 13 8 14 9 15 13 16 11 17 10 18 12 20 4 22 21 24 18 26
REMARK H PARENT 10 19 12 21 4 23 21 25 18 27
REMARK Flexibility Score: inf
ROOT
ATOM      1  C   UNL     1     -10.411   8.689  19.059  1.00  0.00     0.180 A 
ATOM      2  C   UNL     1      -9.043   8.890  19.313  1.00  0.00     0.208 A 
ATOM      3  C   UNL     1      -8.436  10.078  18.878  1.00  0.00     0.238 A 
ATOM      4  O   UNL     1      -7.225  10.274  19.156  1.00  0.00    -0.285 OA
ATOM      5  C   UNL     1      -9.199  11.044  18.179  1.00  0.00     0.111 A 
ATOM      6  C   UNL     1      -8.677  12.265  17.655  1.00  0.00     0.134 A 
ATOM      7  C   UNL     1      -9.551  13.205  17.096  1.00  0.00     0.093 A 
ATOM      8  C   UNL     1     -10.918  12.940  16.981  1.00  0.00     0.123 A 
ATOM      9  C   UNL     1     -11.427  11.726  17.434  1.00  0.00     0.094 A 
ATOM     10  C   UNL     1     -10.587  10.783  18.031  1.00  0.00     0.146 A 
ATOM     11  O   UNL     1     -11.114   9.643  18.459  1.00  0.00    -0.452 OA
ENDROOT
BRANCH   1  12
ATOM     12  C   UNL     1     -11.116   7.452  19.466  1.00  0.00     0.025 A 
ATOM     13  C   UNL     1     -11.068   6.986  20.789  1.00  0.00     0.016 A 
ATOM     14  C   UNL     1     -11.722   5.803  21.143  1.00  0.00     0.051 A 
ATOM     15  C   UNL     1     -12.421   5.058  20.187  1.00  0.00     0.157 A 
ATOM     16  C   UNL     1     -11.799   6.696  18.500  1.00  0.00     0.062 A 
ATOM     17  C   UNL     1     -12.456   5.509  18.846  1.00  0.00     0.158 A 
BRANCH  15  18
ATOM     18  O   UNL     1     -13.055   3.888  20.608  1.00  0.00    -0.504 OA
ATOM     19  H   UNL     1     -13.828   3.459  20.120  1.00  0.00     0.293 HD
ENDBRANCH  15  18
BRANCH  17  20
ATOM     20  O   UNL     1     -13.125   4.815  17.835  1.00  0.00    -0.504 OA
ATOM     21  H   UNL     1     -12.661   4.277  17.117  1.00  0.00     0.293 HD
ENDBRANCH  17  20
ENDBRANCH   1  12
BRANCH   2  22
ATOM     22  O   UNL     1      -8.314   7.932  20.024  1.00  0.00    -0.502 OA
ATOM     23  H   UNL     1      -8.436   6.937  19.879  1.00  0.00     0.293 HD
ENDBRANCH   2  22
BRANCH   6  24
ATOM     24  O   UNL     1      -7.317  12.587  17.637  1.00  0.00    -0.507 OA
ATOM     25  H   UNL     1      -6.913  13.347  17.112  1.00  0.00     0.293 HD
ENDBRANCH   6  24
BRANCH   8  26
ATOM     26  O   UNL     1     -11.777  13.875  16.409  1.00  0.00    -0.508 OA
ATOM     27  H   UNL     1     -11.425  14.695  15.927  1.00  0.00     0.293 HD
ENDBRANCH   8  26
TORSDOF 6
ENDMDL
MODEL 5
REMARK VINA RESULT:    30.286     13.307     14.553
REMARK INTER + INTRA:          36.942
REMARK INTER:                  36.456
REMARK INTRA:                   0.486
REMARK UNBOUND:                 0.459
REMARK SMILES O=c1c(O)c(-c2ccc(O)c(O)c2)oc2cc(O)cc(O)c12
REMARK SMILES IDX 5 1 3 2 2 3 1 4 22 5 20 6 19 7 17 8 16 9 15 10 14 11 6 12
REMARK SMILES IDX 7 13 8 14 9 15 13 16 11 17 10 18 12 20 4 22 21 24 18 26
REMARK H PARENT 10 19 12 21 4 23 21 25 18 27
REMARK Flexibility Score: inf
ROOT
ATOM      1  C   UNL     1      -6.172  -2.586  13.152  1.00  0.00     0.180 A 
ATOM      2  C   UNL     1      -6.006  -1.760  12.027  1.00  0.00     0.208 A 
ATOM      3  C   UNL     1      -4.709  -1.507  11.553  1.00  0.00     0.238 A 
ATOM      4  O   UNL     1      -4.571  -0.811  10.513  1.00  0.00    -0.285 OA
ATOM      5  C   UNL     1      -3.593  -2.069  12.218  1.00  0.00     0.111 A 
ATOM      6  C   UNL     1      -2.233  -1.846  11.850  1.00  0.00     0.134 A 
ATOM      7  C   UNL     1      -1.216  -2.558  12.498  1.00  0.00     0.093 A 
ATOM      8  C   UNL     1      -1.507  -3.433  13.548  1.00  0.00     0.123 A 
ATOM      9  C   UNL     1      -2.826  -3.612  13.955  1.00  0.00     0.094 A 
ATOM     10  C   UNL     1      -3.866  -2.944  13.302  1.00  0.00     0.146 A 
ATOM     11  O   UNL     1      -5.110  -3.151  13.715  1.00  0.00    -0.452 OA
ENDROOT
BRANCH   1  12
ATOM     12  C   UNL     1      -7.506  -2.878  13.725  1.00  0.00     0.025 A 
ATOM     13  C   UNL     1      -7.643  -3.460  14.996  1.00  0.00     0.016 A 
ATOM     14  C   UNL     1      -8.911  -3.749  15.505  1.00  0.00     0.051 A 
ATOM     15  C   UNL     1     -10.062  -3.477  14.757  1.00  0.00     0.157 A 
ATOM     16  C   UNL     1      -8.657  -2.624  12.963  1.00  0.00     0.062 A 
ATOM     17  C   UNL     1      -9.932  -2.911  13.466  1.00  0.00     0.158 A 
BRANCH  15  18
ATOM     18  O   UNL     1     -11.299  -3.786  15.326  1.00  0.00    -0.504 OA
ATOM     19  H   UNL     1     -11.688  -4.718  15.357  1.00  0.00     0.293 HD
ENDBRANCH  15  18
BRANCH  17  20
ATOM     20  O   UNL     1     -11.033  -2.621  12.657  1.00  0.00    -0.504 OA
ATOM     21  H   UNL     1     -11.443  -1.702  12.568  1.00  0.00     0.293 HD
ENDBRANCH  17  20
ENDBRANCH   1  12
BRANCH   2  22
ATOM     22  O   UNL     1      -7.123  -1.233  11.372  1.00  0.00    -0.502 OA
ATOM     23  H   UNL     1      -7.961  -0.952  11.866  1.00  0.00     0.293 HD
ENDBRANCH   2  22
BRANCH   6  24
ATOM     24  O   UNL     1      -1.829  -0.925  10.878  1.00  0.00    -0.507 OA
ATOM     25  H   UNL     1      -2.156   0.026  10.817  1.00  0.00     0.293 HD
ENDBRANCH   6  24
BRANCH   8  26
ATOM     26  O   UNL     1      -0.487  -4.125  14.198  1.00  0.00    -0.508 OA
ATOM     27  H   UNL     1      -0.652  -4.621  15.067  1.00  0.00     0.293 HD
ENDBRANCH   8  26
TORSDOF 6
ENDMDL
