MODEL 1
REMARK VINA RESULT:    -6.740      0.000      0.000
REMARK INTER + INTRA:          -8.338
REMARK INTER:                  -8.119
REMARK INTRA:                  -0.219
REMARK UNBOUND:                -0.219
REMARK SMILES O=c1c(O)c(-c2ccc(O)c(O)c2)oc2cc(O)cc(O)c12
REMARK SMILES IDX 5 1 3 2 2 3 1 4 22 5 20 6 19 7 17 8 16 9 15 10 14 11 6 12
REMARK SMILES IDX 7 13 8 14 9 15 13 16 11 17 10 18 12 20 4 22 21 24 18 26
REMARK H PARENT 10 19 12 21 4 23 21 25 18 27
REMARK Flexibility Score: inf
ROOT
ATOM      1  C   UNL     1      28.752  47.659 140.044  1.00  0.00     0.180 A 
ATOM      2  C   UNL     1      28.210  48.859 140.535  1.00  0.00     0.208 A 
ATOM      3  C   UNL     1      29.076  49.837 141.051  1.00  0.00     0.238 A 
ATOM      4  O   UNL     1      28.581  50.886 141.540  1.00  0.00    -0.285 OA
ATOM      5  C   UNL     1      30.473  49.608 141.056  1.00  0.00     0.111 A 
ATOM      6  C   UNL     1      31.446  50.545 141.518  1.00  0.00     0.134 A 
ATOM      7  C   UNL     1      32.790  50.162 141.597  1.00  0.00     0.093 A 
ATOM      8  C   UNL     1      33.206  48.899 141.170  1.00  0.00     0.123 A 
ATOM      9  C   UNL     1      32.272  47.999 140.662  1.00  0.00     0.094 A 
ATOM     10  C   UNL     1      30.918  48.339 140.603  1.00  0.00     0.146 A 
ATOM     11  O   UNL     1      30.061  47.448 140.122  1.00  0.00    -0.452 OA
ENDROOT
BRANCH   1  12
ATOM     12  C   UNL     1      27.906  46.593 139.461  1.00  0.00     0.025 A 
ATOM     13  C   UNL     1      27.222  46.782 138.247  1.00  0.00     0.016 A 
ATOM     14  C   UNL     1      26.449  45.753 137.704  1.00  0.00     0.051 A 
ATOM     15  C   UNL     1      26.355  44.519 138.354  1.00  0.00     0.157 A 
ATOM     16  C   UNL     1      27.826  45.345 140.102  1.00  0.00     0.062 A 
ATOM     17  C   UNL     1      27.051  44.311 139.558  1.00  0.00     0.158 A 
BRANCH  15  18
ATOM     18  O   UNL     1      25.575  43.512 137.789  1.00  0.00    -0.504 OA
ATOM     19  H   UNL     1      25.842  42.536 137.833  1.00  0.00     0.293 HD
ENDBRANCH  15  18
BRANCH  17  20
ATOM     20  O   UNL     1      26.967  43.081 140.208  1.00  0.00    -0.504 OA
ATOM     21  H   UNL     1      27.734  42.722 140.765  1.00  0.00     0.293 HD
ENDBRANCH  17  20
ENDBRANCH   1  12
BRANCH   2  22
ATOM     22  O   UNL     1      26.827  49.055 140.541  1.00  0.00    -0.502 OA
ATOM     23  H   UNL     1      26.327  49.382 141.360  1.00  0.00     0.293 HD
ENDBRANCH   2  22
BRANCH   6  24
ATOM     24  O   UNL     1      31.149  51.862 141.882  1.00  0.00    -0.507 OA
ATOM     25  H   UNL     1      30.535  52.126 142.637  1.00  0.00     0.293 HD
ENDBRANCH   6  24
BRANCH   8  26
ATOM     26  O   UNL     1      34.549  48.531 141.237  1.00  0.00    -0.508 OA
ATOM     27  H   UNL     1      34.936  47.827 140.621  1.00  0.00     0.293 HD
ENDBRANCH   8  26
TORSDOF 6
ENDMDL
MODEL 2
REMARK VINA RESULT:    -6.436      1.009      1.166
REMARK INTER + INTRA:          -7.971
REMARK INTER:                  -7.883
REMARK INTRA:                  -0.088
REMARK UNBOUND:                -0.219
REMARK SMILES O=c1c(O)c(-c2ccc(O)c(O)c2)oc2cc(O)cc(O)c12
REMARK SMILES IDX 5 1 3 2 2 3 1 4 22 5 20 6 19 7 17 8 16 9 15 10 14 11 6 12
REMARK SMILES IDX 7 13 8 14 9 15 13 16 11 17 10 18 12 20 4 22 21 24 18 26
REMARK H PARENT 10 19 12 21 4 23 21 25 18 27
REMARK Flexibility Score: inf
ROOT
ATOM      1  C   UNL     1      29.494  47.427 140.221  1.00  0.00     0.180 A 
ATOM      2  C   UNL     1      29.266  48.759 140.604  1.00  0.00     0.208 A 
ATOM      3  C   UNL     1      30.342  49.524 141.083  1.00  0.00     0.238 A 
ATOM      4  O   UNL     1      30.122  50.699 141.477  1.00  0.00    -0.285 OA
ATOM      5  C   UNL     1      31.635  48.951 141.157  1.00  0.00     0.111 A 
ATOM      6  C   UNL     1      32.805  49.645 141.589  1.00  0.00     0.134 A 
ATOM      7  C   UNL     1      34.006  48.942 141.745  1.00  0.00     0.093 A 
ATOM      8  C   UNL     1      34.094  47.585 141.424  1.00  0.00     0.123 A 
ATOM      9  C   UNL     1      32.972  46.913 140.946  1.00  0.00     0.094 A 
ATOM     10  C   UNL     1      31.750  47.579 140.812  1.00  0.00     0.146 A 
ATOM     11  O   UNL     1      30.704  46.898 140.363  1.00  0.00    -0.452 OA
ENDROOT
BRANCH   1  12
ATOM     12  C   UNL     1      28.414  46.567 139.683  1.00  0.00     0.025 A 
ATOM     13  C   UNL     1      27.653  46.958 138.567  1.00  0.00     0.016 A 
ATOM     14  C   UNL     1      26.657  46.119 138.062  1.00  0.00     0.051 A 
ATOM     15  C   UNL     1      26.412  44.875 138.653  1.00  0.00     0.157 A 
ATOM     16  C   UNL     1      28.181  45.308 140.260  1.00  0.00     0.062 A 
ATOM     17  C   UNL     1      27.181  44.465 139.755  1.00  0.00     0.158 A 
BRANCH  15  18
ATOM     18  O   UNL     1      25.410  44.061 138.127  1.00  0.00    -0.504 OA
ATOM     19  H   UNL     1      24.492  43.998 138.551  1.00  0.00     0.293 HD
ENDBRANCH  15  18
BRANCH  17  20
ATOM     20  O   UNL     1      26.947  43.222 140.344  1.00  0.00    -0.504 OA
ATOM     21  H   UNL     1      27.448  42.393 140.048  1.00  0.00     0.293 HD
ENDBRANCH  17  20
ENDBRANCH   1  12
BRANCH   2  22
ATOM     22  O   UNL     1      27.978  49.298 140.544  1.00  0.00    -0.502 OA
ATOM     23  H   UNL     1      27.802  50.261 140.282  1.00  0.00     0.293 HD
ENDBRANCH   2  22
BRANCH   6  24
ATOM     24  O   UNL     1      32.847  51.018 141.846  1.00  0.00    -0.507 OA
ATOM     25  H   UNL     1      32.567  51.735 141.194  1.00  0.00     0.293 HD
ENDBRANCH   6  24
BRANCH   8  26
ATOM     26  O   UNL     1      35.297  46.896 141.569  1.00  0.00    -0.508 OA
ATOM     27  H   UNL     1      35.833  46.592 140.765  1.00  0.00     0.293 HD
ENDBRANCH   8  26
TORSDOF 6
ENDMDL
MODEL 3
REMARK VINA RESULT:    -6.298      2.497      4.682
REMARK INTER + INTRA:          -7.806
REMARK INTER:                  -7.479
REMARK INTRA:                  -0.327
REMARK UNBOUND:                -0.219
REMARK SMILES O=c1c(O)c(-c2ccc(O)c(O)c2)oc2cc(O)cc(O)c12
REMARK SMILES IDX 5 1 3 2 2 3 1 4 22 5 20 6 19 7 17 8 16 9 15 10 14 11 6 12
REMARK SMILES IDX 7 13 8 14 9 15 13 16 11 17 10 18 12 20 4 22 21 24 18 26
REMARK H PARENT 10 19 12 21 4 23 21 25 18 27
REMARK Flexibility Score: inf
ROOT
ATOM      1  C   UNL     1      28.827  48.442 139.773  1.00  0.00     0.180 A 
ATOM      2  C   UNL     1      28.619  47.056 139.860  1.00  0.00     0.208 A 
ATOM      3  C   UNL     1      29.679  46.232 140.273  1.00  0.00     0.238 A 
ATOM      4  O   UNL     1      29.504  44.986 140.295  1.00  0.00    -0.285 OA
ATOM      5  C   UNL     1      30.928  46.808 140.609  1.00  0.00     0.111 A 
ATOM      6  C   UNL     1      32.059  46.074 141.077  1.00  0.00     0.134 A 
ATOM      7  C   UNL     1      33.283  46.731 141.256  1.00  0.00     0.093 A 
ATOM      8  C   UNL     1      33.400  48.107 141.045  1.00  0.00     0.123 A 
ATOM      9  C   UNL     1      32.286  48.842 140.644  1.00  0.00     0.094 A 
ATOM     10  C   UNL     1      31.060  48.209 140.424  1.00  0.00     0.146 A 
ATOM     11  O   UNL     1      30.028  48.946 140.033  1.00  0.00    -0.452 OA
ENDROOT
BRANCH   1  12
ATOM     12  C   UNL     1      27.750  49.377 139.371  1.00  0.00     0.025 A 
ATOM     13  C   UNL     1      26.814  49.860 140.302  1.00  0.00     0.016 A 
ATOM     14  C   UNL     1      25.822  50.760 139.903  1.00  0.00     0.051 A 
ATOM     15  C   UNL     1      25.756  51.200 138.578  1.00  0.00     0.157 A 
ATOM     16  C   UNL     1      27.694  49.837 138.045  1.00  0.00     0.062 A 
ATOM     17  C   UNL     1      26.699  50.740 137.644  1.00  0.00     0.158 A 
BRANCH  15  18
ATOM     18  O   UNL     1      24.753  52.096 138.210  1.00  0.00    -0.504 OA
ATOM     19  H   UNL     1      24.603  52.369 137.246  1.00  0.00     0.293 HD
ENDBRANCH  15  18
BRANCH  17  20
ATOM     20  O   UNL     1      26.643  51.180 136.322  1.00  0.00    -0.504 OA
ATOM     21  H   UNL     1      27.452  51.134 135.713  1.00  0.00     0.293 HD
ENDBRANCH  17  20
ENDBRANCH   1  12
BRANCH   2  22
ATOM     22  O   UNL     1      27.386  46.505 139.502  1.00  0.00    -0.502 OA
ATOM     23  H   UNL     1      26.895  46.772 138.656  1.00  0.00     0.293 HD
ENDBRANCH   2  22
BRANCH   6  24
ATOM     24  O   UNL     1      32.026  44.716 141.407  1.00  0.00    -0.507 OA
ATOM     25  H   UNL     1      31.219  44.232 141.770  1.00  0.00     0.293 HD
ENDBRANCH   6  24
BRANCH   8  26
ATOM     26  O   UNL     1      34.618  48.756 141.239  1.00  0.00    -0.508 OA
ATOM     27  H   UNL     1      34.774  49.359 142.038  1.00  0.00     0.293 HD
ENDBRANCH   8  26
TORSDOF 6
ENDMDL
MODEL 4
REMARK VINA RESULT:    -6.168      6.841      9.257
REMARK INTER + INTRA:          -7.648
REMARK INTER:                  -7.313
REMARK INTRA:                  -0.335
REMARK UNBOUND:                -0.219
REMARK SMILES O=c1c(O)c(-c2ccc(O)c(O)c2)oc2cc(O)cc(O)c12
REMARK SMILES IDX 5 1 3 2 2 3 1 4 22 5 20 6 19 7 17 8 16 9 15 10 14 11 6 12
REMARK SMILES IDX 7 13 8 14 9 15 13 16 11 17 10 18 12 20 4 22 21 24 18 26
REMARK H PARENT 10 19 12 21 4 23 21 25 18 27
REMARK Flexibility Score: inf
ROOT
ATOM      1  C   UNL     1      34.808  44.809 144.507  1.00  0.00     0.180 A 
ATOM      2  C   UNL     1      34.145  44.925 145.740  1.00  0.00     0.208 A 
ATOM      3  C   UNL     1      34.529  44.087 146.801  1.00  0.00     0.238 A 
ATOM      4  O   UNL     1      33.895  44.157 147.886  1.00  0.00    -0.285 OA
ATOM      5  C   UNL     1      35.580  43.157 146.619  1.00  0.00     0.111 A 
ATOM      6  C   UNL     1      36.077  42.287 147.635  1.00  0.00     0.134 A 
ATOM      7  C   UNL     1      37.032  41.316 147.307  1.00  0.00     0.093 A 
ATOM      8  C   UNL     1      37.554  41.227 146.014  1.00  0.00     0.123 A 
ATOM      9  C   UNL     1      37.118  42.111 145.030  1.00  0.00     0.094 A 
ATOM     10  C   UNL     1      36.140  43.067 145.318  1.00  0.00     0.146 A 
ATOM     11  O   UNL     1      35.745  43.881 144.347  1.00  0.00    -0.452 OA
ENDROOT
BRANCH   1  12
ATOM     12  C   UNL     1      34.477  45.674 143.351  1.00  0.00     0.025 A 
ATOM     13  C   UNL     1      35.112  46.913 143.158  1.00  0.00     0.016 A 
ATOM     14  C   UNL     1      34.801  47.701 142.047  1.00  0.00     0.051 A 
ATOM     15  C   UNL     1      33.865  47.261 141.107  1.00  0.00     0.157 A 
ATOM     16  C   UNL     1      33.553  45.225 142.393  1.00  0.00     0.062 A 
ATOM     17  C   UNL     1      33.240  46.014 141.278  1.00  0.00     0.158 A 
BRANCH  15  18
ATOM     18  O   UNL     1      33.575  48.070 140.009  1.00  0.00    -0.504 OA
ATOM     19  H   UNL     1      33.021  47.738 139.228  1.00  0.00     0.293 HD
ENDBRANCH  15  18
BRANCH  17  20
ATOM     20  O   UNL     1      32.311  45.566 140.340  1.00  0.00    -0.504 OA
ATOM     21  H   UNL     1      31.364  45.928 140.315  1.00  0.00     0.293 HD
ENDBRANCH  17  20
ENDBRANCH   1  12
BRANCH   2  22
ATOM     22  O   UNL     1      33.096  45.834 145.892  1.00  0.00    -0.502 OA
ATOM     23  H   UNL     1      32.687  46.048 146.794  1.00  0.00     0.293 HD
ENDBRANCH   2  22
BRANCH   6  24
ATOM     24  O   UNL     1      35.690  42.353 148.977  1.00  0.00    -0.507 OA
ATOM     25  H   UNL     1      34.753  42.543 149.296  1.00  0.00     0.293 HD
ENDBRANCH   6  24
BRANCH   8  26
ATOM     26  O   UNL     1      38.515  40.268 145.700  1.00  0.00    -0.508 OA
ATOM     27  H   UNL     1      38.637  39.436 146.264  1.00  0.00     0.293 HD
ENDBRANCH   8  26
TORSDOF 6
ENDMDL
MODEL 5
REMARK VINA RESULT:    -6.088      2.901      4.798
REMARK INTER + INTRA:          -7.553
REMARK INTER:                  -7.819
REMARK INTRA:                   0.266
REMARK UNBOUND:                -0.219
REMARK SMILES O=c1c(O)c(-c2ccc(O)c(O)c2)oc2cc(O)cc(O)c12
REMARK SMILES IDX 5 1 3 2 2 3 1 4 22 5 20 6 19 7 17 8 16 9 15 10 14 11 6 12
REMARK SMILES IDX 7 13 8 14 9 15 13 16 11 17 10 18 12 20 4 22 21 24 18 26
REMARK H PARENT 10 19 12 21 4 23 21 25 18 27
REMARK Flexibility Score: inf
ROOT
ATOM      1  C   UNL     1      27.339  44.959 138.613  1.00  0.00     0.180 A 
ATOM      2  C   UNL     1      28.276  45.263 139.614  1.00  0.00     0.208 A 
ATOM      3  C   UNL     1      28.550  46.610 139.904  1.00  0.00     0.238 A 
ATOM      4  O   UNL     1      29.431  46.877 140.763  1.00  0.00    -0.285 OA
ATOM      5  C   UNL     1      27.872  47.634 139.201  1.00  0.00     0.111 A 
ATOM      6  C   UNL     1      28.041  49.031 139.440  1.00  0.00     0.134 A 
ATOM      7  C   UNL     1      27.416  49.957 138.596  1.00  0.00     0.093 A 
ATOM      8  C   UNL     1      26.575  49.537 137.563  1.00  0.00     0.123 A 
ATOM      9  C   UNL     1      26.357  48.176 137.358  1.00  0.00     0.094 A 
ATOM     10  C   UNL     1      26.995  47.227 138.161  1.00  0.00     0.146 A 
ATOM     11  O   UNL     1      26.767  45.942 137.926  1.00  0.00    -0.452 OA
ENDROOT
BRANCH   1  12
ATOM     12  C   UNL     1      26.979  43.564 138.268  1.00  0.00     0.025 A 
ATOM     13  C   UNL     1      26.684  43.190 136.945  1.00  0.00     0.016 A 
ATOM     14  C   UNL     1      26.371  41.862 136.641  1.00  0.00     0.051 A 
ATOM     15  C   UNL     1      26.359  40.889 137.644  1.00  0.00     0.157 A 
ATOM     16  C   UNL     1      26.987  42.581 139.271  1.00  0.00     0.062 A 
ATOM     17  C   UNL     1      26.673  41.248 138.966  1.00  0.00     0.158 A 
BRANCH  15  18
ATOM     18  O   UNL     1      26.041  39.574 137.309  1.00  0.00    -0.504 OA
ATOM     19  H   UNL     1      26.573  39.050 136.624  1.00  0.00     0.293 HD
ENDBRANCH  15  18
BRANCH  17  20
ATOM     20  O   UNL     1      26.669  40.281 139.971  1.00  0.00    -0.504 OA
ATOM     21  H   UNL     1      25.806  39.947 140.382  1.00  0.00     0.293 HD
ENDBRANCH  17  20
ENDBRANCH   1  12
BRANCH   2  22
ATOM     22  O   UNL     1      28.951  44.238 140.281  1.00  0.00    -0.502 OA
ATOM     23  H   UNL     1      29.660  43.670 139.831  1.00  0.00     0.293 HD
ENDBRANCH   2  22
BRANCH   6  24
ATOM     24  O   UNL     1      28.784  49.556 140.502  1.00  0.00    -0.507 OA
ATOM     25  H   UNL     1      29.791  49.605 140.530  1.00  0.00     0.293 HD
ENDBRANCH   6  24
BRANCH   8  26
ATOM     26  O   UNL     1      25.945  50.465 136.737  1.00  0.00    -0.508 OA
ATOM     27  H   UNL     1      26.022  51.461 136.904  1.00  0.00     0.293 HD
ENDBRANCH   8  26
TORSDOF 6
ENDMDL
MODEL 6
REMARK VINA RESULT:    -5.928      4.434      7.896
REMARK INTER + INTRA:          -7.359
REMARK INTER:                  -7.582
REMARK INTRA:                   0.222
REMARK UNBOUND:                -0.219
REMARK SMILES O=c1c(O)c(-c2ccc(O)c(O)c2)oc2cc(O)cc(O)c12
REMARK SMILES IDX 5 1 3 2 2 3 1 4 22 5 20 6 19 7 17 8 16 9 15 10 14 11 6 12
REMARK SMILES IDX 7 13 8 14 9 15 13 16 11 17 10 18 12 20 4 22 21 24 18 26
REMARK H PARENT 10 19 12 21 4 23 21 25 18 27
REMARK Flexibility Score: inf
ROOT
ATOM      1  C   UNL     1      26.482  40.906 138.493  1.00  0.00     0.180 A 
ATOM      2  C   UNL     1      26.094  41.396 137.235  1.00  0.00     0.208 A 
ATOM      3  C   UNL     1      26.186  42.775 136.984  1.00  0.00     0.238 A 
ATOM      4  O   UNL     1      25.785  43.216 135.875  1.00  0.00    -0.285 OA
ATOM      5  C   UNL     1      26.679  43.643 137.988  1.00  0.00     0.111 A 
ATOM      6  C   UNL     1      26.852  45.051 137.829  1.00  0.00     0.134 A 
ATOM      7  C   UNL     1      27.225  45.829 138.931  1.00  0.00     0.093 A 
ATOM      8  C   UNL     1      27.494  45.242 140.170  1.00  0.00     0.123 A 
ATOM      9  C   UNL     1      27.385  43.862 140.320  1.00  0.00     0.094 A 
ATOM     10  C   UNL     1      26.981  43.062 139.247  1.00  0.00     0.146 A 
ATOM     11  O   UNL     1      26.879  41.753 139.436  1.00  0.00    -0.452 OA
ENDROOT
BRANCH   1  12
ATOM     12  C   UNL     1      26.439  39.463 138.824  1.00  0.00     0.025 A 
ATOM     13  C   UNL     1      26.041  39.015 140.096  1.00  0.00     0.016 A 
ATOM     14  C   UNL     1      25.984  37.647 140.377  1.00  0.00     0.051 A 
ATOM     15  C   UNL     1      26.309  36.708 139.393  1.00  0.00     0.157 A 
ATOM     16  C   UNL     1      26.744  38.516 137.831  1.00  0.00     0.062 A 
ATOM     17  C   UNL     1      26.687  37.144 138.112  1.00  0.00     0.158 A 
BRANCH  15  18
ATOM     18  O   UNL     1      26.244  35.350 139.705  1.00  0.00    -0.504 OA
ATOM     19  H   UNL     1      25.411  34.928 140.098  1.00  0.00     0.293 HD
ENDBRANCH  15  18
BRANCH  17  20
ATOM     20  O   UNL     1      27.005  36.212 137.124  1.00  0.00    -0.504 OA
ATOM     21  H   UNL     1      27.872  36.268 136.602  1.00  0.00     0.293 HD
ENDBRANCH  17  20
ENDBRANCH   1  12
BRANCH   2  22
ATOM     22  O   UNL     1      25.589  40.526 136.266  1.00  0.00    -0.502 OA
ATOM     23  H   UNL     1      25.651  40.720 135.274  1.00  0.00     0.293 HD
ENDBRANCH   2  22
BRANCH   6  24
ATOM     24  O   UNL     1      26.699  45.723 136.613  1.00  0.00    -0.507 OA
ATOM     25  H   UNL     1      25.903  45.630 136.000  1.00  0.00     0.293 HD
ENDBRANCH   6  24
BRANCH   8  26
ATOM     26  O   UNL     1      27.879  46.023 141.259  1.00  0.00    -0.508 OA
ATOM     27  H   UNL     1      27.501  45.863 142.184  1.00  0.00     0.293 HD
ENDBRANCH   8  26
TORSDOF 6
ENDMDL
MODEL 7
REMARK VINA RESULT:    -5.851      2.895      6.698
REMARK INTER + INTRA:          -7.267
REMARK INTER:                  -6.936
REMARK INTRA:                  -0.331
REMARK UNBOUND:                -0.219
REMARK SMILES O=c1c(O)c(-c2ccc(O)c(O)c2)oc2cc(O)cc(O)c12
REMARK SMILES IDX 5 1 3 2 2 3 1 4 22 5 20 6 19 7 17 8 16 9 15 10 14 11 6 12
REMARK SMILES IDX 7 13 8 14 9 15 13 16 11 17 10 18 12 20 4 22 21 24 18 26
REMARK H PARENT 10 19 12 21 4 23 21 25 18 27
REMARK Flexibility Score: inf
ROOT
ATOM      1  C   UNL     1      32.558  47.054 141.135  1.00  0.00     0.180 A 
ATOM      2  C   UNL     1      32.638  48.424 140.833  1.00  0.00     0.208 A 
ATOM      3  C   UNL     1      31.510  49.072 140.305  1.00  0.00     0.238 A 
ATOM      4  O   UNL     1      31.604  50.286 139.985  1.00  0.00    -0.285 OA
ATOM      5  C   UNL     1      30.312  48.346 140.101  1.00  0.00     0.111 A 
ATOM      6  C   UNL     1      29.096  48.910 139.609  1.00  0.00     0.134 A 
ATOM      7  C   UNL     1      28.012  48.071 139.324  1.00  0.00     0.093 A 
ATOM      8  C   UNL     1      28.077  46.698 139.574  1.00  0.00     0.123 A 
ATOM      9  C   UNL     1      29.240  46.148 140.109  1.00  0.00     0.094 A 
ATOM     10  C   UNL     1      30.351  46.953 140.371  1.00  0.00     0.146 A 
ATOM     11  O   UNL     1      31.441  46.386 140.871  1.00  0.00    -0.452 OA
ENDROOT
BRANCH   1  12
ATOM     12  C   UNL     1      33.697  46.308 141.718  1.00  0.00     0.025 A 
ATOM     13  C   UNL     1      33.864  46.195 143.109  1.00  0.00     0.016 A 
ATOM     14  C   UNL     1      34.932  45.465 143.636  1.00  0.00     0.051 A 
ATOM     15  C   UNL     1      35.842  44.829 142.786  1.00  0.00     0.157 A 
ATOM     16  C   UNL     1      34.601  45.650 140.867  1.00  0.00     0.062 A 
ATOM     17  C   UNL     1      35.674  44.918 141.394  1.00  0.00     0.158 A 
BRANCH  15  18
ATOM     18  O   UNL     1      36.900  44.110 143.342  1.00  0.00    -0.504 OA
ATOM     19  H   UNL     1      37.701  44.568 143.758  1.00  0.00     0.293 HD
ENDBRANCH  15  18
BRANCH  17  20
ATOM     20  O   UNL     1      36.574  44.279 140.541  1.00  0.00    -0.504 OA
ATOM     21  H   UNL     1      37.464  44.699 140.298  1.00  0.00     0.293 HD
ENDBRANCH  17  20
ENDBRANCH   1  12
BRANCH   2  22
ATOM     22  O   UNL     1      33.837  49.117 141.021  1.00  0.00    -0.502 OA
ATOM     23  H   UNL     1      34.738  48.654 141.035  1.00  0.00     0.293 HD
ENDBRANCH   2  22
BRANCH   6  24
ATOM     24  O   UNL     1      28.895  50.279 139.413  1.00  0.00    -0.507 OA
ATOM     25  H   UNL     1      28.304  50.862 139.985  1.00  0.00     0.293 HD
ENDBRANCH   6  24
BRANCH   8  26
ATOM     26  O   UNL     1      26.988  45.873 139.301  1.00  0.00    -0.508 OA
ATOM     27  H   UNL     1      26.436  45.464 140.044  1.00  0.00     0.293 HD
ENDBRANCH   8  26
TORSDOF 6
ENDMDL
MODEL 8
REMARK VINA RESULT:    -5.827      8.101     10.627
REMARK INTER + INTRA:          -7.239
REMARK INTER:                  -6.915
REMARK INTRA:                  -0.324
REMARK UNBOUND:                -0.219
REMARK SMILES O=c1c(O)c(-c2ccc(O)c(O)c2)oc2cc(O)cc(O)c12
REMARK SMILES IDX 5 1 3 2 2 3 1 4 22 5 20 6 19 7 17 8 16 9 15 10 14 11 6 12
REMARK SMILES IDX 7 13 8 14 9 15 13 16 11 17 10 18 12 20 4 22 21 24 18 26
REMARK H PARENT 10 19 12 21 4 23 21 25 18 27
REMARK Flexibility Score: inf
ROOT
ATOM      1  C   UNL     1      33.964  42.549 144.850  1.00  0.00     0.180 A 
ATOM      2  C   UNL     1      32.870  41.719 144.554  1.00  0.00     0.208 A 
ATOM      3  C   UNL     1      32.991  40.334 144.752  1.00  0.00     0.238 A 
ATOM      4  O   UNL     1      32.028  39.590 144.433  1.00  0.00    -0.285 OA
ATOM      5  C   UNL     1      34.200  39.799 145.259  1.00  0.00     0.111 A 
ATOM      6  C   UNL     1      34.421  38.416 145.536  1.00  0.00     0.134 A 
ATOM      7  C   UNL     1      35.698  37.983 145.911  1.00  0.00     0.093 A 
ATOM      8  C   UNL     1      36.746  38.890 146.082  1.00  0.00     0.123 A 
ATOM      9  C   UNL     1      36.525  40.249 145.872  1.00  0.00     0.094 A 
ATOM     10  C   UNL     1      35.271  40.709 145.462  1.00  0.00     0.146 A 
ATOM     11  O   UNL     1      35.107  42.010 145.262  1.00  0.00    -0.452 OA
ENDROOT
BRANCH   1  12
ATOM     12  C   UNL     1      33.903  44.020 144.691  1.00  0.00     0.025 A 
ATOM     13  C   UNL     1      34.244  44.640 143.476  1.00  0.00     0.016 A 
ATOM     14  C   UNL     1      34.155  46.028 143.343  1.00  0.00     0.051 A 
ATOM     15  C   UNL     1      33.715  46.816 144.411  1.00  0.00     0.157 A 
ATOM     16  C   UNL     1      33.441  44.812 145.756  1.00  0.00     0.062 A 
ATOM     17  C   UNL     1      33.352  46.205 145.623  1.00  0.00     0.158 A 
BRANCH  15  18
ATOM     18  O   UNL     1      33.638  48.198 144.248  1.00  0.00    -0.504 OA
ATOM     19  H   UNL     1      34.416  48.809 144.466  1.00  0.00     0.293 HD
ENDBRANCH  15  18
BRANCH  17  20
ATOM     20  O   UNL     1      32.905  46.984 146.690  1.00  0.00    -0.504 OA
ATOM     21  H   UNL     1      33.055  47.986 146.715  1.00  0.00     0.293 HD
ENDBRANCH  17  20
ENDBRANCH   1  12
BRANCH   2  22
ATOM     22  O   UNL     1      31.694  42.265 144.034  1.00  0.00    -0.502 OA
ATOM     23  H   UNL     1      31.516  43.263 144.019  1.00  0.00     0.293 HD
ENDBRANCH   2  22
BRANCH   6  24
ATOM     24  O   UNL     1      33.420  37.441 145.485  1.00  0.00    -0.507 OA
ATOM     25  H   UNL     1      33.124  36.880 146.268  1.00  0.00     0.293 HD
ENDBRANCH   6  24
BRANCH   8  26
ATOM     26  O   UNL     1      38.011  38.452 146.471  1.00  0.00    -0.508 OA
ATOM     27  H   UNL     1      38.838  39.012 146.306  1.00  0.00     0.293 HD
ENDBRANCH   8  26
TORSDOF 6
ENDMDL
MODEL 9
REMARK VINA RESULT:    -5.722      2.928      6.313
REMARK INTER + INTRA:          -7.111
REMARK INTER:                  -6.911
REMARK INTRA:                  -0.200
REMARK UNBOUND:                -0.219
REMARK SMILES O=c1c(O)c(-c2ccc(O)c(O)c2)oc2cc(O)cc(O)c12
REMARK SMILES IDX 5 1 3 2 2 3 1 4 22 5 20 6 19 7 17 8 16 9 15 10 14 11 6 12
REMARK SMILES IDX 7 13 8 14 9 15 13 16 11 17 10 18 12 20 4 22 21 24 18 26
REMARK H PARENT 10 19 12 21 4 23 21 25 18 27
REMARK Flexibility Score: inf
ROOT
ATOM      1  C   UNL     1      30.623  49.312 139.789  1.00  0.00     0.180 A 
ATOM      2  C   UNL     1      30.884  50.373 138.908  1.00  0.00     0.208 A 
ATOM      3  C   UNL     1      29.820  50.934 138.183  1.00  0.00     0.238 A 
ATOM      4  O   UNL     1      30.068  51.848 137.353  1.00  0.00    -0.285 OA
ATOM      5  C   UNL     1      28.507  50.437 138.361  1.00  0.00     0.111 A 
ATOM      6  C   UNL     1      27.348  50.956 137.708  1.00  0.00     0.134 A 
ATOM      7  C   UNL     1      26.119  50.302 137.861  1.00  0.00     0.093 A 
ATOM      8  C   UNL     1      25.994  49.187 138.693  1.00  0.00     0.123 A 
ATOM      9  C   UNL     1      27.108  48.708 139.380  1.00  0.00     0.094 A 
ATOM     10  C   UNL     1      28.355  49.318 139.221  1.00  0.00     0.146 A 
ATOM     11  O   UNL     1      29.391  48.824 139.886  1.00  0.00    -0.452 OA
ENDROOT
BRANCH   1  12
ATOM     12  C   UNL     1      31.688  48.686 140.606  1.00  0.00     0.025 A 
ATOM     13  C   UNL     1      32.356  49.405 141.613  1.00  0.00     0.016 A 
ATOM     14  C   UNL     1      33.341  48.786 142.388  1.00  0.00     0.051 A 
ATOM     15  C   UNL     1      33.665  47.442 142.180  1.00  0.00     0.157 A 
ATOM     16  C   UNL     1      32.001  47.330 140.414  1.00  0.00     0.062 A 
ATOM     17  C   UNL     1      32.989  46.708 141.191  1.00  0.00     0.158 A 
BRANCH  15  18
ATOM     18  O   UNL     1      34.653  46.853 142.968  1.00  0.00    -0.504 OA
ATOM     19  H   UNL     1      34.999  47.292 143.813  1.00  0.00     0.293 HD
ENDBRANCH  15  18
BRANCH  17  20
ATOM     20  O   UNL     1      33.302  45.365 140.983  1.00  0.00    -0.504 OA
ATOM     21  H   UNL     1      32.656  44.625 141.233  1.00  0.00     0.293 HD
ENDBRANCH  17  20
ENDBRANCH   1  12
BRANCH   2  22
ATOM     22  O   UNL     1      32.191  50.835 138.730  1.00  0.00    -0.502 OA
ATOM     23  H   UNL     1      32.738  51.228 139.486  1.00  0.00     0.293 HD
ENDBRANCH   2  22
BRANCH   6  24
ATOM     24  O   UNL     1      27.345  52.117 136.930  1.00  0.00    -0.507 OA
ATOM     25  H   UNL     1      28.091  52.396 136.310  1.00  0.00     0.293 HD
ENDBRANCH   6  24
BRANCH   8  26
ATOM     26  O   UNL     1      24.764  48.551 138.851  1.00  0.00    -0.508 OA
ATOM     27  H   UNL     1      23.894  49.068 138.818  1.00  0.00     0.293 HD
ENDBRANCH   8  26
TORSDOF 6
ENDMDL
