MODEL 1
REMARK VINA RESULT:    -4.274      0.000      0.000
REMARK INTER + INTRA:          -9.414
REMARK INTER:                  -8.021
REMARK INTRA:                  -1.393
REMARK UNBOUND:                -1.393
REMARK SMILES O=C([O-])CCCCCCCCCCCCCCC(=O)[O-]
REMARK SMILES IDX 10 1 9 2 8 3 7 4 6 5 5 6 4 7 2 8 1 9 3 10 11 11 12 12 13 13
REMARK SMILES IDX 14 14 15 15 16 16 17 17 18 18 19 19 20 20
REMARK H PARENT
REMARK Flexibility Score: inf
ROOT
ATOM      1  C   UNL     1      17.205   4.717  -0.766  1.00  0.00     0.000 C 
ENDROOT
BRANCH   1   2
ATOM      2  C   UNL     1      18.538   5.335  -0.312  1.00  0.00     0.000 C 
BRANCH   2   3
ATOM      3  C   UNL     1      18.406   6.261   0.916  1.00  0.00     0.000 C 
BRANCH   3   4
ATOM      4  C   UNL     1      18.975   5.618   2.192  1.00  0.00     0.000 C 
BRANCH   4   5
ATOM      5  C   UNL     1      18.001   4.621   2.840  1.00  0.00     0.000 C 
BRANCH   5   6
ATOM      6  C   UNL     1      18.560   3.190   2.880  1.00  0.00     0.006 C 
BRANCH   6   7
ATOM      7  C   UNL     1      17.831   2.289   1.879  1.00  0.00     0.053 C 
BRANCH   7   8
ATOM      8  C   UNL     1      16.384   2.170   2.238  1.00  0.00     0.041 C 
ATOM      9  O   UNL     1      16.045   1.893   3.419  1.00  0.00    -0.550 OA
ATOM     10  O   UNL     1      15.407   2.412   1.281  1.00  0.00    -0.550 OA
ENDBRANCH   7   8
ENDBRANCH   6   7
ENDBRANCH   5   6
ENDBRANCH   4   5
ENDBRANCH   3   4
ENDBRANCH   2   3
ENDBRANCH   1   2
BRANCH   1  11
ATOM     11  C   UNL     1      17.389   3.551  -1.745  1.00  0.00     0.000 C 
BRANCH  11  12
ATOM     12  C   UNL     1      18.659   3.731  -2.585  1.00  0.00     0.000 C 
BRANCH  12  13
ATOM     13  C   UNL     1      18.364   3.536  -4.079  1.00  0.00     0.000 C 
BRANCH  13  14
ATOM     14  C   UNL     1      17.087   2.718  -4.338  1.00  0.00     0.000 C 
BRANCH  14  15
ATOM     15  C   UNL     1      17.026   2.017  -5.708  1.00  0.00     0.000 C 
BRANCH  15  16
ATOM     16  C   UNL     1      16.410   2.902  -6.807  1.00  0.00     0.006 C 
BRANCH  16  17
ATOM     17  C   UNL     1      15.298   3.809  -6.263  1.00  0.00     0.053 C 
BRANCH  17  18
ATOM     18  C   UNL     1      15.523   5.244  -6.628  1.00  0.00     0.041 C 
ATOM     19  O   UNL     1      16.662   5.635  -6.994  1.00  0.00    -0.550 OA
ATOM     20  O   UNL     1      14.466   6.145  -6.588  1.00  0.00    -0.550 OA
ENDBRANCH  17  18
ENDBRANCH  16  17
ENDBRANCH  15  16
ENDBRANCH  14  15
ENDBRANCH  13  14
ENDBRANCH  12  13
ENDBRANCH  11  12
ENDBRANCH   1  11
TORSDOF 15
ENDMDL
MODEL 2
REMARK VINA RESULT:    -4.206      1.251      1.978
REMARK INTER + INTRA:          -9.286
REMARK INTER:                  -7.396
REMARK INTRA:                  -1.891
REMARK UNBOUND:                -1.393
REMARK SMILES O=C([O-])CCCCCCCCCCCCCCC(=O)[O-]
REMARK SMILES IDX 10 1 9 2 8 3 7 4 6 5 5 6 4 7 2 8 1 9 3 10 11 11 12 12 13 13
REMARK SMILES IDX 14 14 15 15 16 16 17 17 18 18 19 19 20 20
REMARK H PARENT
REMARK Flexibility Score: inf
ROOT
ATOM      1  C   UNL     1      17.269   3.204  -0.360  1.00  0.00     0.000 C 
ENDROOT
BRANCH   1   2
ATOM      2  C   UNL     1      17.059   4.677  -0.751  1.00  0.00     0.000 C 
BRANCH   2   3
ATOM      3  C   UNL     1      18.282   5.574  -0.465  1.00  0.00     0.000 C 
BRANCH   3   4
ATOM      4  C   UNL     1      18.266   6.140   0.965  1.00  0.00     0.000 C 
BRANCH   4   5
ATOM      5  C   UNL     1      19.493   5.715   1.786  1.00  0.00     0.000 C 
BRANCH   5   6
ATOM      6  C   UNL     1      19.122   4.856   3.004  1.00  0.00     0.006 C 
BRANCH   6   7
ATOM      7  C   UNL     1      17.610   4.614   3.064  1.00  0.00     0.053 C 
BRANCH   7   8
ATOM      8  C   UNL     1      17.320   3.232   3.555  1.00  0.00     0.041 C 
ATOM      9  O   UNL     1      17.880   2.239   3.020  1.00  0.00    -0.550 OA
ATOM     10  O   UNL     1      16.468   3.042   4.636  1.00  0.00    -0.550 OA
ENDBRANCH   7   8
ENDBRANCH   6   7
ENDBRANCH   5   6
ENDBRANCH   4   5
ENDBRANCH   3   4
ENDBRANCH   2   3
ENDBRANCH   1   2
BRANCH   1  11
ATOM     11  C   UNL     1      18.718   2.737  -0.545  1.00  0.00     0.000 C 
BRANCH  11  12
ATOM     12  C   UNL     1      18.902   2.030  -1.893  1.00  0.00     0.000 C 
BRANCH  12  13
ATOM     13  C   UNL     1      19.567   2.962  -2.917  1.00  0.00     0.000 C 
BRANCH  13  14
ATOM     14  C   UNL     1      18.581   3.505  -3.966  1.00  0.00     0.000 C 
BRANCH  14  15
ATOM     15  C   UNL     1      17.337   2.629  -4.208  1.00  0.00     0.000 C 
BRANCH  15  16
ATOM     16  C   UNL     1      17.154   2.245  -5.687  1.00  0.00     0.006 C 
BRANCH  16  17
ATOM     17  C   UNL     1      15.830   2.768  -6.260  1.00  0.00     0.053 C 
BRANCH  17  18
ATOM     18  C   UNL     1      15.879   4.245  -6.513  1.00  0.00     0.041 C 
ATOM     19  O   UNL     1      14.851   4.952  -6.345  1.00  0.00    -0.550 OA
ATOM     20  O   UNL     1      17.069   4.843  -6.908  1.00  0.00    -0.550 OA
ENDBRANCH  17  18
ENDBRANCH  16  17
ENDBRANCH  15  16
ENDBRANCH  14  15
ENDBRANCH  13  14
ENDBRANCH  12  13
ENDBRANCH  11  12
ENDBRANCH   1  11
TORSDOF 15
ENDMDL
MODEL 3
REMARK VINA RESULT:    -4.169      1.365      7.521
REMARK INTER + INTRA:          -9.218
REMARK INTER:                  -7.287
REMARK INTRA:                  -1.932
REMARK UNBOUND:                -1.393
REMARK SMILES O=C([O-])CCCCCCCCCCCCCCC(=O)[O-]
REMARK SMILES IDX 10 1 9 2 8 3 7 4 6 5 5 6 4 7 2 8 1 9 3 10 11 11 12 12 13 13
REMARK SMILES IDX 14 14 15 15 16 16 17 17 18 18 19 19 20 20
REMARK H PARENT
REMARK Flexibility Score: inf
ROOT
ATOM      1  C   UNL     1      17.500   3.169  -1.265  1.00  0.00     0.000 C 
ENDROOT
BRANCH   1   2
ATOM      2  C   UNL     1      19.008   2.925  -1.084  1.00  0.00     0.000 C 
BRANCH   2   3
ATOM      3  C   UNL     1      19.723   2.478  -2.377  1.00  0.00     0.000 C 
BRANCH   3   4
ATOM      4  C   UNL     1      19.296   3.315  -3.595  1.00  0.00     0.000 C 
BRANCH   4   5
ATOM      5  C   UNL     1      19.144   2.472  -4.871  1.00  0.00     0.000 C 
BRANCH   5   6
ATOM      6  C   UNL     1      17.675   2.256  -5.265  1.00  0.00     0.006 C 
BRANCH   6   7
ATOM      7  C   UNL     1      16.848   3.519  -5.011  1.00  0.00     0.053 C 
BRANCH   7   8
ATOM      8  C   UNL     1      15.721   3.614  -5.989  1.00  0.00     0.041 C 
ATOM      9  O   UNL     1      15.222   4.734  -6.274  1.00  0.00    -0.550 OA
ATOM     10  O   UNL     1      15.253   2.471  -6.625  1.00  0.00    -0.550 OA
ENDBRANCH   7   8
ENDBRANCH   6   7
ENDBRANCH   5   6
ENDBRANCH   4   5
ENDBRANCH   3   4
ENDBRANCH   2   3
ENDBRANCH   1   2
BRANCH   1  11
ATOM     11  C   UNL     1      17.069   4.581  -0.847  1.00  0.00     0.000 C 
BRANCH  11  12
ATOM     12  C   UNL     1      18.285   5.495  -0.655  1.00  0.00     0.000 C 
BRANCH  12  13
ATOM     13  C   UNL     1      18.268   6.149   0.734  1.00  0.00     0.000 C 
BRANCH  13  14
ATOM     14  C   UNL     1      19.434   5.693   1.628  1.00  0.00     0.000 C 
BRANCH  14  15
ATOM     15  C   UNL     1      19.107   4.534   2.588  1.00  0.00     0.000 C 
BRANCH  15  16
ATOM     16  C   UNL     1      17.620   4.487   2.985  1.00  0.00     0.006 C 
BRANCH  16  17
ATOM     17  C   UNL     1      17.182   3.082   3.420  1.00  0.00     0.053 C 
BRANCH  17  18
ATOM     18  C   UNL     1      16.915   2.193   2.244  1.00  0.00     0.041 C 
ATOM     19  O   UNL     1      17.772   1.346   1.881  1.00  0.00    -0.550 OA
ATOM     20  O   UNL     1      15.706   2.283   1.567  1.00  0.00    -0.550 OA
ENDBRANCH  17  18
ENDBRANCH  16  17
ENDBRANCH  15  16
ENDBRANCH  14  15
ENDBRANCH  13  14
ENDBRANCH  12  13
ENDBRANCH  11  12
ENDBRANCH   1  11
TORSDOF 15
ENDMDL
MODEL 4
REMARK VINA RESULT:    -4.158      1.049      7.962
REMARK INTER + INTRA:          -9.197
REMARK INTER:                  -7.576
REMARK INTRA:                  -1.621
REMARK UNBOUND:                -1.393
REMARK SMILES O=C([O-])CCCCCCCCCCCCCCC(=O)[O-]
REMARK SMILES IDX 10 1 9 2 8 3 7 4 6 5 5 6 4 7 2 8 1 9 3 10 11 11 12 12 13 13
REMARK SMILES IDX 14 14 15 15 16 16 17 17 18 18 19 19 20 20
REMARK H PARENT
REMARK Flexibility Score: inf
ROOT
ATOM      1  C   UNL     1      17.800   3.288  -1.628  1.00  0.00     0.000 C 
ENDROOT
BRANCH   1   2
ATOM      2  C   UNL     1      17.639   2.540  -2.962  1.00  0.00     0.000 C 
BRANCH   2   3
ATOM      3  C   UNL     1      18.788   2.800  -3.960  1.00  0.00     0.000 C 
BRANCH   3   4
ATOM      4  C   UNL     1      18.279   2.961  -5.402  1.00  0.00     0.000 C 
BRANCH   4   5
ATOM      5  C   UNL     1      17.096   2.034  -5.722  1.00  0.00     0.000 C 
BRANCH   5   6
ATOM      6  C   UNL     1      15.945   2.765  -6.429  1.00  0.00     0.006 C 
BRANCH   6   7
ATOM      7  C   UNL     1      15.614   4.081  -5.719  1.00  0.00     0.053 C 
BRANCH   7   8
ATOM      8  C   UNL     1      15.541   5.203  -6.705  1.00  0.00     0.041 C 
ATOM      9  O   UNL     1      16.461   5.367  -7.548  1.00  0.00    -0.550 OA
ATOM     10  O   UNL     1      14.432   6.040  -6.725  1.00  0.00    -0.550 OA
ENDBRANCH   7   8
ENDBRANCH   6   7
ENDBRANCH   5   6
ENDBRANCH   4   5
ENDBRANCH   3   4
ENDBRANCH   2   3
ENDBRANCH   1   2
BRANCH   1  11
ATOM     11  C   UNL     1      19.267   3.486  -1.226  1.00  0.00     0.000 C 
BRANCH  11  12
ATOM     12  C   UNL     1      19.562   4.959  -0.920  1.00  0.00     0.000 C 
BRANCH  12  13
ATOM     13  C   UNL     1      18.277   5.709  -0.537  1.00  0.00     0.000 C 
BRANCH  13  14
ATOM     14  C   UNL     1      18.257   6.154   0.936  1.00  0.00     0.000 C 
BRANCH  14  15
ATOM     15  C   UNL     1      19.420   5.622   1.794  1.00  0.00     0.000 C 
BRANCH  15  16
ATOM     16  C   UNL     1      18.982   4.530   2.787  1.00  0.00     0.006 C 
BRANCH  16  17
ATOM     17  C   UNL     1      17.485   4.211   2.671  1.00  0.00     0.053 C 
BRANCH  17  18
ATOM     18  C   UNL     1      17.251   2.831   2.136  1.00  0.00     0.041 C 
ATOM     19  O   UNL     1      16.078   2.409   1.962  1.00  0.00    -0.550 OA
ATOM     20  O   UNL     1      18.330   2.023   1.804  1.00  0.00    -0.550 OA
ENDBRANCH  17  18
ENDBRANCH  16  17
ENDBRANCH  15  16
ENDBRANCH  14  15
ENDBRANCH  13  14
ENDBRANCH  12  13
ENDBRANCH  11  12
ENDBRANCH   1  11
TORSDOF 15
ENDMDL
MODEL 5
REMARK VINA RESULT:    -4.153      1.591      2.783
REMARK INTER + INTRA:          -9.188
REMARK INTER:                  -7.352
REMARK INTRA:                  -1.835
REMARK UNBOUND:                -1.393
REMARK SMILES O=C([O-])CCCCCCCCCCCCCCC(=O)[O-]
REMARK SMILES IDX 10 1 9 2 8 3 7 4 6 5 5 6 4 7 2 8 1 9 3 10 11 11 12 12 13 13
REMARK SMILES IDX 14 14 15 15 16 16 17 17 18 18 19 19 20 20
REMARK H PARENT
REMARK Flexibility Score: inf
ROOT
ATOM      1  C   UNL     1      18.235   6.127   1.401  1.00  0.00     0.000 C 
ENDROOT
BRANCH   1   2
ATOM      2  C   UNL     1      19.536   5.811   2.158  1.00  0.00     0.000 C 
BRANCH   2   3
ATOM      3  C   UNL     1      19.306   5.190   3.552  1.00  0.00     0.000 C 
BRANCH   3   4
ATOM      4  C   UNL     1      18.275   4.048   3.517  1.00  0.00     0.000 C 
BRANCH   4   5
ATOM      5  C   UNL     1      18.861   2.735   2.975  1.00  0.00     0.000 C 
BRANCH   5   6
ATOM      6  C   UNL     1      17.960   2.075   1.921  1.00  0.00     0.006 C 
BRANCH   6   7
ATOM      7  C   UNL     1      16.549   2.669   1.958  1.00  0.00     0.053 C 
BRANCH   7   8
ATOM      8  C   UNL     1      15.990   2.778   0.575  1.00  0.00     0.041 C 
ATOM      9  O   UNL     1      16.746   2.660  -0.425  1.00  0.00    -0.550 OA
ATOM     10  O   UNL     1      14.625   2.960   0.388  1.00  0.00    -0.550 OA
ENDBRANCH   7   8
ENDBRANCH   6   7
ENDBRANCH   5   6
ENDBRANCH   4   5
ENDBRANCH   3   4
ENDBRANCH   2   3
ENDBRANCH   1   2
BRANCH   1  11
ATOM     11  C   UNL     1      18.302   5.751  -0.085  1.00  0.00     0.000 C 
BRANCH  11  12
ATOM     12  C   UNL     1      19.577   4.959  -0.397  1.00  0.00     0.000 C 
BRANCH  12  13
ATOM     13  C   UNL     1      20.000   5.151  -1.861  1.00  0.00     0.000 C 
BRANCH  13  14
ATOM     14  C   UNL     1      19.047   4.466  -2.856  1.00  0.00     0.000 C 
BRANCH  14  15
ATOM     15  C   UNL     1      19.157   2.931  -2.916  1.00  0.00     0.000 C 
BRANCH  15  16
ATOM     16  C   UNL     1      18.042   2.281  -3.754  1.00  0.00     0.006 C 
BRANCH  16  17
ATOM     17  C   UNL     1      16.972   3.296  -4.178  1.00  0.00     0.053 C 
BRANCH  17  18
ATOM     18  C   UNL     1      16.409   2.978  -5.530  1.00  0.00     0.041 C 
ATOM     19  O   UNL     1      16.594   1.844  -6.045  1.00  0.00    -0.550 OA
ATOM     20  O   UNL     1      15.657   3.928  -6.210  1.00  0.00    -0.550 OA
ENDBRANCH  17  18
ENDBRANCH  16  17
ENDBRANCH  15  16
ENDBRANCH  14  15
ENDBRANCH  13  14
ENDBRANCH  12  13
ENDBRANCH  11  12
ENDBRANCH   1  11
TORSDOF 15
ENDMDL
MODEL 6
REMARK VINA RESULT:    -4.077      1.039      8.295
REMARK INTER + INTRA:          -9.044
REMARK INTER:                  -7.893
REMARK INTRA:                  -1.151
REMARK UNBOUND:                -1.393
REMARK SMILES O=C([O-])CCCCCCCCCCCCCCC(=O)[O-]
REMARK SMILES IDX 10 1 9 2 8 3 7 4 6 5 5 6 4 7 2 8 1 9 3 10 11 11 12 12 13 13
REMARK SMILES IDX 14 14 15 15 16 16 17 17 18 18 19 19 20 20
REMARK H PARENT
REMARK Flexibility Score: inf
ROOT
ATOM      1  C   UNL     1      17.613   3.062  -0.644  1.00  0.00     0.000 C 
ENDROOT
BRANCH   1   2
ATOM      2  C   UNL     1      18.138   2.506  -1.978  1.00  0.00     0.000 C 
BRANCH   2   3
ATOM      3  C   UNL     1      17.407   3.070  -3.215  1.00  0.00     0.000 C 
BRANCH   3   4
ATOM      4  C   UNL     1      18.073   2.635  -4.532  1.00  0.00     0.000 C 
BRANCH   4   5
ATOM      5  C   UNL     1      17.178   1.713  -5.374  1.00  0.00     0.000 C 
BRANCH   5   6
ATOM      6  C   UNL     1      16.702   2.377  -6.675  1.00  0.00     0.006 C 
BRANCH   6   7
ATOM      7  C   UNL     1      15.389   3.133  -6.454  1.00  0.00     0.053 C 
BRANCH   7   8
ATOM      8  C   UNL     1      15.617   4.610  -6.523  1.00  0.00     0.041 C 
ATOM      9  O   UNL     1      16.774   5.063  -6.722  1.00  0.00    -0.550 OA
ATOM     10  O   UNL     1      14.543   5.486  -6.417  1.00  0.00    -0.550 OA
ENDBRANCH   7   8
ENDBRANCH   6   7
ENDBRANCH   5   6
ENDBRANCH   4   5
ENDBRANCH   3   4
ENDBRANCH   2   3
ENDBRANCH   1   2
BRANCH   1  11
ATOM     11  C   UNL     1      17.108   4.507  -0.756  1.00  0.00     0.000 C 
BRANCH  11  12
ATOM     12  C   UNL     1      18.277   5.499  -0.773  1.00  0.00     0.000 C 
BRANCH  12  13
ATOM     13  C   UNL     1      19.190   5.295   0.445  1.00  0.00     0.000 C 
BRANCH  13  14
ATOM     14  C   UNL     1      18.745   6.109   1.673  1.00  0.00     0.000 C 
BRANCH  14  15
ATOM     15  C   UNL     1      18.799   5.352   3.013  1.00  0.00     0.000 C 
BRANCH  15  16
ATOM     16  C   UNL     1      18.464   3.857   2.870  1.00  0.00     0.006 C 
BRANCH  16  17
ATOM     17  C   UNL     1      17.892   3.266   4.166  1.00  0.00     0.053 C 
BRANCH  17  18
ATOM     18  C   UNL     1      16.546   2.645   3.947  1.00  0.00     0.041 C 
ATOM     19  O   UNL     1      16.205   2.257   2.799  1.00  0.00    -0.550 OA
ATOM     20  O   UNL     1      15.680   2.470   5.019  1.00  0.00    -0.550 OA
ENDBRANCH  17  18
ENDBRANCH  16  17
ENDBRANCH  15  16
ENDBRANCH  14  15
ENDBRANCH  13  14
ENDBRANCH  12  13
ENDBRANCH  11  12
ENDBRANCH   1  11
TORSDOF 15
ENDMDL
MODEL 7
REMARK VINA RESULT:    -4.027      1.671      3.041
REMARK INTER + INTRA:          -8.950
REMARK INTER:                  -7.280
REMARK INTRA:                  -1.670
REMARK UNBOUND:                -1.393
REMARK SMILES O=C([O-])CCCCCCCCCCCCCCC(=O)[O-]
REMARK SMILES IDX 10 1 9 2 8 3 7 4 6 5 5 6 4 7 2 8 1 9 3 10 11 11 12 12 13 13
REMARK SMILES IDX 14 14 15 15 16 16 17 17 18 18 19 19 20 20
REMARK H PARENT
REMARK Flexibility Score: inf
ROOT
ATOM      1  C   UNL     1      17.323   3.188  -3.785  1.00  0.00     0.000 C 
ENDROOT
BRANCH   1   2
ATOM      2  C   UNL     1      18.701   3.270  -3.106  1.00  0.00     0.000 C 
BRANCH   2   3
ATOM      3  C   UNL     1      19.266   4.705  -3.022  1.00  0.00     0.000 C 
BRANCH   3   4
ATOM      4  C   UNL     1      18.977   5.363  -1.662  1.00  0.00     0.000 C 
BRANCH   4   5
ATOM      5  C   UNL     1      19.086   4.376  -0.489  1.00  0.00     0.000 C 
BRANCH   5   6
ATOM      6  C   UNL     1      17.770   4.237   0.291  1.00  0.00     0.006 C 
BRANCH   6   7
ATOM      7  C   UNL     1      17.177   2.835   0.119  1.00  0.00     0.053 C 
BRANCH   7   8
ATOM      8  C   UNL     1      15.894   2.712   0.878  1.00  0.00     0.041 C 
ATOM      9  O   UNL     1      14.806   3.055   0.345  1.00  0.00    -0.550 OA
ATOM     10  O   UNL     1      15.892   2.171   2.158  1.00  0.00    -0.550 OA
ENDBRANCH   7   8
ENDBRANCH   6   7
ENDBRANCH   5   6
ENDBRANCH   4   5
ENDBRANCH   3   4
ENDBRANCH   2   3
ENDBRANCH   1   2
BRANCH   1  11
ATOM     11  C   UNL     1      17.157   1.932  -4.650  1.00  0.00     0.000 C 
BRANCH  11  12
ATOM     12  C   UNL     1      18.126   1.949  -5.838  1.00  0.00     0.000 C 
BRANCH  12  13
ATOM     13  C   UNL     1      17.368   2.096  -7.165  1.00  0.00     0.000 C 
BRANCH  13  14
ATOM     14  C   UNL     1      17.914   3.234  -8.046  1.00  0.00     0.000 C 
BRANCH  14  15
ATOM     15  C   UNL     1      18.668   4.343  -7.288  1.00  0.00     0.000 C 
BRANCH  15  16
ATOM     16  C   UNL     1      17.737   5.449  -6.763  1.00  0.00     0.006 C 
BRANCH  16  17
ATOM     17  C   UNL     1      16.434   5.540  -7.568  1.00  0.00     0.053 C 
BRANCH  17  18
ATOM     18  C   UNL     1      15.228   5.363  -6.697  1.00  0.00     0.041 C 
ATOM     19  O   UNL     1      14.508   6.352  -6.401  1.00  0.00    -0.550 OA
ATOM     20  O   UNL     1      14.885   4.099  -6.234  1.00  0.00    -0.550 OA
ENDBRANCH  17  18
ENDBRANCH  16  17
ENDBRANCH  15  16
ENDBRANCH  14  15
ENDBRANCH  13  14
ENDBRANCH  12  13
ENDBRANCH  11  12
ENDBRANCH   1  11
TORSDOF 15
ENDMDL
MODEL 8
REMARK VINA RESULT:    -4.020      2.296      7.414
REMARK INTER + INTRA:          -8.938
REMARK INTER:                  -6.683
REMARK INTRA:                  -2.255
REMARK UNBOUND:                -1.393
REMARK SMILES O=C([O-])CCCCCCCCCCCCCCC(=O)[O-]
REMARK SMILES IDX 10 1 9 2 8 3 7 4 6 5 5 6 4 7 2 8 1 9 3 10 11 11 12 12 13 13
REMARK SMILES IDX 14 14 15 15 16 16 17 17 18 18 19 19 20 20
REMARK H PARENT
REMARK Flexibility Score: inf
ROOT
ATOM      1  C   UNL     1      17.737   5.046  -0.487  1.00  0.00     0.000 C 
ENDROOT
BRANCH   1   2
ATOM      2  C   UNL     1      18.879   5.142  -1.512  1.00  0.00     0.000 C 
BRANCH   2   3
ATOM      3  C   UNL     1      19.957   4.050  -1.343  1.00  0.00     0.000 C 
BRANCH   3   4
ATOM      4  C   UNL     1      19.865   2.969  -2.434  1.00  0.00     0.000 C 
BRANCH   4   5
ATOM      5  C   UNL     1      19.045   3.423  -3.652  1.00  0.00     0.000 C 
BRANCH   5   6
ATOM      6  C   UNL     1      17.927   2.433  -4.014  1.00  0.00     0.006 C 
BRANCH   6   7
ATOM      7  C   UNL     1      16.735   3.160  -4.643  1.00  0.00     0.053 C 
BRANCH   7   8
ATOM      8  C   UNL     1      16.417   2.582  -5.985  1.00  0.00     0.041 C 
ATOM      9  O   UNL     1      15.292   2.786  -6.513  1.00  0.00    -0.550 OA
ATOM     10  O   UNL     1      17.380   1.858  -6.677  1.00  0.00    -0.550 OA
ENDBRANCH   7   8
ENDBRANCH   6   7
ENDBRANCH   5   6
ENDBRANCH   4   5
ENDBRANCH   3   4
ENDBRANCH   2   3
ENDBRANCH   1   2
BRANCH   1  11
ATOM     11  C   UNL     1      16.497   4.330  -1.038  1.00  0.00     0.000 C 
BRANCH  11  12
ATOM     12  C   UNL     1      16.435   2.879  -0.547  1.00  0.00     0.000 C 
BRANCH  12  13
ATOM     13  C   UNL     1      15.578   2.763   0.722  1.00  0.00     0.000 C 
BRANCH  13  14
ATOM     14  C   UNL     1      16.403   2.424   1.976  1.00  0.00     0.000 C 
BRANCH  14  15
ATOM     15  C   UNL     1      17.865   2.021   1.707  1.00  0.00     0.000 C 
BRANCH  15  16
ATOM     16  C   UNL     1      18.879   2.927   2.427  1.00  0.00     0.006 C 
BRANCH  16  17
ATOM     17  C   UNL     1      18.207   4.141   3.082  1.00  0.00     0.053 C 
BRANCH  17  18
ATOM     18  C   UNL     1      19.171   5.271   3.281  1.00  0.00     0.041 C 
ATOM     19  O   UNL     1      19.717   5.822   2.289  1.00  0.00    -0.550 OA
ATOM     20  O   UNL     1      19.446   5.732   4.562  1.00  0.00    -0.550 OA
ENDBRANCH  17  18
ENDBRANCH  16  17
ENDBRANCH  15  16
ENDBRANCH  14  15
ENDBRANCH  13  14
ENDBRANCH  12  13
ENDBRANCH  11  12
ENDBRANCH   1  11
TORSDOF 15
ENDMDL
MODEL 9
REMARK VINA RESULT:    -3.979      1.630      2.506
REMARK INTER + INTRA:          -8.861
REMARK INTER:                  -7.553
REMARK INTRA:                  -1.307
REMARK UNBOUND:                -1.393
REMARK SMILES O=C([O-])CCCCCCCCCCCCCCC(=O)[O-]
REMARK SMILES IDX 10 1 9 2 8 3 7 4 6 5 5 6 4 7 2 8 1 9 3 10 11 11 12 12 13 13
REMARK SMILES IDX 14 14 15 15 16 16 17 17 18 18 19 19 20 20
REMARK H PARENT
REMARK Flexibility Score: inf
ROOT
ATOM      1  C   UNL     1      18.253   6.124   1.226  1.00  0.00     0.000 C 
ENDROOT
BRANCH   1   2
ATOM      2  C   UNL     1      19.618   6.130   1.935  1.00  0.00     0.000 C 
BRANCH   2   3
ATOM      3  C   UNL     1      19.801   4.969   2.936  1.00  0.00     0.000 C 
BRANCH   3   4
ATOM      4  C   UNL     1      19.651   5.432   4.395  1.00  0.00     0.000 C 
BRANCH   4   5
ATOM      5  C   UNL     1      18.663   4.568   5.194  1.00  0.00     0.000 C 
BRANCH   5   6
ATOM      6  C   UNL     1      17.330   4.360   4.460  1.00  0.00     0.006 C 
BRANCH   6   7
ATOM      7  C   UNL     1      16.899   2.891   4.511  1.00  0.00     0.053 C 
BRANCH   7   8
ATOM      8  C   UNL     1      17.057   2.251   3.169  1.00  0.00     0.041 C 
ATOM      9  O   UNL     1      16.103   2.258   2.347  1.00  0.00    -0.550 OA
ATOM     10  O   UNL     1      18.275   1.690   2.804  1.00  0.00    -0.550 OA
ENDBRANCH   7   8
ENDBRANCH   6   7
ENDBRANCH   5   6
ENDBRANCH   4   5
ENDBRANCH   3   4
ENDBRANCH   2   3
ENDBRANCH   1   2
BRANCH   1  11
ATOM     11  C   UNL     1      17.916   4.770   0.588  1.00  0.00     0.000 C 
BRANCH  11  12
ATOM     12  C   UNL     1      17.651   4.920  -0.915  1.00  0.00     0.000 C 
BRANCH  12  13
ATOM     13  C   UNL     1      18.940   4.717  -1.724  1.00  0.00     0.000 C 
BRANCH  13  14
ATOM     14  C   UNL     1      18.839   3.563  -2.737  1.00  0.00     0.000 C 
BRANCH  14  15
ATOM     15  C   UNL     1      17.419   3.004  -2.950  1.00  0.00     0.000 C 
BRANCH  15  16
ATOM     16  C   UNL     1      17.188   2.487  -4.381  1.00  0.00     0.006 C 
BRANCH  16  17
ATOM     17  C   UNL     1      17.153   3.626  -5.409  1.00  0.00     0.053 C 
BRANCH  17  18
ATOM     18  C   UNL     1      15.855   3.660  -6.157  1.00  0.00     0.041 C 
ATOM     19  O   UNL     1      15.315   4.761  -6.442  1.00  0.00    -0.550 OA
ATOM     20  O   UNL     1      15.257   2.475  -6.564  1.00  0.00    -0.550 OA
ENDBRANCH  17  18
ENDBRANCH  16  17
ENDBRANCH  15  16
ENDBRANCH  14  15
ENDBRANCH  13  14
ENDBRANCH  12  13
ENDBRANCH  11  12
ENDBRANCH   1  11
TORSDOF 15
ENDMDL
