MODEL 1
REMARK VINA RESULT:    -4.524      0.000      0.000
REMARK INTER + INTRA:          -5.751
REMARK INTER:                  -5.449
REMARK INTRA:                  -0.302
REMARK UNBOUND:                -0.302
REMARK SMILES O=c1c(O)c(-c2ccc(O)cc2O)oc2cc(O)cc(O)c12
REMARK SMILES IDX 5 1 3 2 2 3 1 4 22 5 20 6 19 7 17 8 16 9 15 10 14 11 6 12
REMARK SMILES IDX 8 13 7 14 9 15 11 16 12 17 10 18 13 20 4 22 21 24 18 26
REMARK H PARENT 10 19 13 21 4 23 21 25 18 27
REMARK Flexibility Score: inf
ROOT
ATOM      1  C   UNL     1      -4.424  -7.830   8.705  1.00  0.00     0.184 A 
ATOM      2  C   UNL     1      -3.936  -8.926   7.977  1.00  0.00     0.208 A 
ATOM      3  C   UNL     1      -2.553  -9.035   7.759  1.00  0.00     0.238 A 
ATOM      4  O   UNL     1      -2.115 -10.047   7.151  1.00  0.00    -0.285 OA
ATOM      5  C   UNL     1      -1.681  -8.037   8.258  1.00  0.00     0.111 A 
ATOM      6  C   UNL     1      -0.268  -8.025   8.061  1.00  0.00     0.134 A 
ATOM      7  C   UNL     1       0.512  -7.058   8.710  1.00  0.00     0.093 A 
ATOM      8  C   UNL     1      -0.079  -6.065   9.495  1.00  0.00     0.123 A 
ATOM      9  C   UNL     1      -1.463  -6.034   9.645  1.00  0.00     0.094 A 
ATOM     10  C   UNL     1      -2.265  -7.006   9.040  1.00  0.00     0.146 A 
ATOM     11  O   UNL     1      -3.578  -6.946   9.217  1.00  0.00    -0.451 OA
ENDROOT
BRANCH   1  12
ATOM     12  C   UNL     1      -5.870  -7.648   8.956  1.00  0.00     0.063 A 
ATOM     13  C   UNL     1      -7.935  -8.502   9.915  1.00  0.00     0.047 A 
ATOM     14  C   UNL     1      -6.569  -8.645   9.656  1.00  0.00     0.020 A 
ATOM     15  C   UNL     1      -8.615  -7.357   9.492  1.00  0.00     0.119 A 
ATOM     16  C   UNL     1      -7.921  -6.346   8.815  1.00  0.00     0.093 A 
ATOM     17  C   UNL     1      -6.549  -6.479   8.556  1.00  0.00     0.130 A 
BRANCH  15  18
ATOM     18  O   UNL     1      -9.978  -7.230   9.755  1.00  0.00    -0.508 OA
ATOM     19  H   UNL     1     -10.372  -7.497  10.650  1.00  0.00     0.293 HD
ENDBRANCH  15  18
BRANCH  17  20
ATOM     20  O   UNL     1      -5.859  -5.445   7.922  1.00  0.00    -0.507 OA
ATOM     21  H   UNL     1      -5.978  -4.478   8.200  1.00  0.00     0.293 HD
ENDBRANCH  17  20
ENDBRANCH   1  12
BRANCH   2  22
ATOM     22  O   UNL     1      -4.817  -9.907   7.511  1.00  0.00    -0.502 OA
ATOM     23  H   UNL     1      -4.998 -10.050   6.526  1.00  0.00     0.293 HD
ENDBRANCH   2  22
BRANCH   6  24
ATOM     24  O   UNL     1       0.412  -8.915   7.224  1.00  0.00    -0.507 OA
ATOM     25  H   UNL     1       0.862  -9.763   7.534  1.00  0.00     0.293 HD
ENDBRANCH   6  24
BRANCH   8  26
ATOM     26  O   UNL     1       0.702  -5.099  10.125  1.00  0.00    -0.508 OA
ATOM     27  H   UNL     1       1.267  -5.319  10.937  1.00  0.00     0.293 HD
ENDBRANCH   8  26
TORSDOF 6
ENDMDL
MODEL 2
REMARK VINA RESULT:    -4.466     18.750     20.528
REMARK INTER + INTRA:          -5.682
REMARK INTER:                  -5.265
REMARK INTRA:                  -0.417
REMARK UNBOUND:                -0.302
REMARK SMILES O=c1c(O)c(-c2ccc(O)cc2O)oc2cc(O)cc(O)c12
REMARK SMILES IDX 5 1 3 2 2 3 1 4 22 5 20 6 19 7 17 8 16 9 15 10 14 11 6 12
REMARK SMILES IDX 8 13 7 14 9 15 11 16 12 17 10 18 13 20 4 22 21 24 18 26
REMARK H PARENT 10 19 13 21 4 23 21 25 18 27
REMARK Flexibility Score: inf
ROOT
ATOM      1  C   UNL     1      -8.984   6.410  -4.691  1.00  0.00     0.184 A 
ATOM      2  C   UNL     1      -8.767   6.999  -5.946  1.00  0.00     0.208 A 
ATOM      3  C   UNL     1      -8.811   6.191  -7.093  1.00  0.00     0.238 A 
ATOM      4  O   UNL     1      -8.668   6.734  -8.220  1.00  0.00    -0.285 OA
ATOM      5  C   UNL     1      -9.058   4.803  -6.967  1.00  0.00     0.111 A 
ATOM      6  C   UNL     1      -9.085   3.883  -8.058  1.00  0.00     0.134 A 
ATOM      7  C   UNL     1      -9.467   2.554  -7.831  1.00  0.00     0.093 A 
ATOM      8  C   UNL     1      -9.758   2.098  -6.544  1.00  0.00     0.123 A 
ATOM      9  C   UNL     1      -9.676   2.975  -5.465  1.00  0.00     0.094 A 
ATOM     10  C   UNL     1      -9.334   4.315  -5.663  1.00  0.00     0.146 A 
ATOM     11  O   UNL     1      -9.278   5.118  -4.608  1.00  0.00    -0.451 OA
ENDROOT
BRANCH   1  12
ATOM     12  C   UNL     1      -8.934   7.201  -3.443  1.00  0.00     0.063 A 
ATOM     13  C   UNL     1     -10.113   8.497  -1.757  1.00  0.00     0.047 A 
ATOM     14  C   UNL     1     -10.124   7.749  -2.937  1.00  0.00     0.020 A 
ATOM     15  C   UNL     1      -8.919   8.694  -1.060  1.00  0.00     0.119 A 
ATOM     16  C   UNL     1      -7.731   8.130  -1.543  1.00  0.00     0.093 A 
ATOM     17  C   UNL     1      -7.734   7.374  -2.724  1.00  0.00     0.130 A 
BRANCH  15  18
ATOM     18  O   UNL     1      -8.923   9.446   0.114  1.00  0.00    -0.508 OA
ATOM     19  H   UNL     1      -9.119  10.440   0.105  1.00  0.00     0.293 HD
ENDBRANCH  15  18
BRANCH  17  20
ATOM     20  O   UNL     1      -6.553   6.778  -3.169  1.00  0.00    -0.507 OA
ATOM     21  H   UNL     1      -6.245   5.880  -2.818  1.00  0.00     0.293 HD
ENDBRANCH  17  20
ENDBRANCH   1  12
BRANCH   2  22
ATOM     22  O   UNL     1      -8.544   8.376  -6.043  1.00  0.00    -0.502 OA
ATOM     23  H   UNL     1      -8.697   9.008  -5.267  1.00  0.00     0.293 HD
ENDBRANCH   2  22
BRANCH   6  24
ATOM     24  O   UNL     1      -8.724   4.214  -9.367  1.00  0.00    -0.507 OA
ATOM     25  H   UNL     1      -8.215   5.044  -9.630  1.00  0.00     0.293 HD
ENDBRANCH   6  24
BRANCH   8  26
ATOM     26  O   UNL     1     -10.122   0.771  -6.325  1.00  0.00    -0.508 OA
ATOM     27  H   UNL     1      -9.817   0.029  -6.944  1.00  0.00     0.293 HD
ENDBRANCH   8  26
TORSDOF 6
ENDMDL
MODEL 3
REMARK VINA RESULT:    -4.405      1.803      3.088
REMARK INTER + INTRA:          -5.609
REMARK INTER:                  -5.191
REMARK INTRA:                  -0.418
REMARK UNBOUND:                -0.302
REMARK SMILES O=c1c(O)c(-c2ccc(O)cc2O)oc2cc(O)cc(O)c12
REMARK SMILES IDX 5 1 3 2 2 3 1 4 22 5 20 6 19 7 17 8 16 9 15 10 14 11 6 12
REMARK SMILES IDX 8 13 7 14 9 15 11 16 12 17 10 18 13 20 4 22 21 24 18 26
REMARK H PARENT 10 19 13 21 4 23 21 25 18 27
REMARK Flexibility Score: inf
ROOT
ATOM      1  C   UNL     1      -4.595  -8.014   8.381  1.00  0.00     0.184 A 
ATOM      2  C   UNL     1      -4.426  -6.740   8.945  1.00  0.00     0.208 A 
ATOM      3  C   UNL     1      -3.132  -6.311   9.280  1.00  0.00     0.238 A 
ATOM      4  O   UNL     1      -2.981  -5.147   9.737  1.00  0.00    -0.285 OA
ATOM      5  C   UNL     1      -2.027  -7.168   9.059  1.00  0.00     0.111 A 
ATOM      6  C   UNL     1      -0.677  -6.851   9.397  1.00  0.00     0.134 A 
ATOM      7  C   UNL     1       0.353  -7.722   9.014  1.00  0.00     0.093 A 
ATOM      8  C   UNL     1       0.073  -8.926   8.363  1.00  0.00     0.123 A 
ATOM      9  C   UNL     1      -1.246  -9.270   8.083  1.00  0.00     0.094 A 
ATOM     10  C   UNL     1      -2.292  -8.407   8.419  1.00  0.00     0.146 A 
ATOM     11  O   UNL     1      -3.534  -8.769   8.123  1.00  0.00    -0.451 OA
ENDROOT
BRANCH   1  12
ATOM     12  C   UNL     1      -5.932  -8.532   8.021  1.00  0.00     0.063 A 
ATOM     13  C   UNL     1      -8.088  -9.395   8.743  1.00  0.00     0.047 A 
ATOM     14  C   UNL     1      -6.814  -8.906   9.047  1.00  0.00     0.020 A 
ATOM     15  C   UNL     1      -8.499  -9.502   7.412  1.00  0.00     0.119 A 
ATOM     16  C   UNL     1      -7.635  -9.109   6.383  1.00  0.00     0.093 A 
ATOM     17  C   UNL     1      -6.358  -8.613   6.680  1.00  0.00     0.130 A 
BRANCH  15  18
ATOM     18  O   UNL     1      -9.771  -9.995   7.124  1.00  0.00    -0.508 OA
ATOM     19  H   UNL     1     -10.146  -9.974   6.183  1.00  0.00     0.293 HD
ENDBRANCH  15  18
BRANCH  17  20
ATOM     20  O   UNL     1      -5.524  -8.180   5.647  1.00  0.00    -0.507 OA
ATOM     21  H   UNL     1      -4.934  -8.824   5.136  1.00  0.00     0.293 HD
ENDBRANCH  17  20
ENDBRANCH   1  12
BRANCH   2  22
ATOM     22  O   UNL     1      -5.533  -5.907   9.136  1.00  0.00    -0.502 OA
ATOM     23  H   UNL     1      -6.481  -6.261   9.161  1.00  0.00     0.293 HD
ENDBRANCH   2  22
BRANCH   6  24
ATOM     24  O   UNL     1      -0.298  -5.720  10.125  1.00  0.00    -0.507 OA
ATOM     25  H   UNL     1       0.442  -5.089   9.860  1.00  0.00     0.293 HD
ENDBRANCH   6  24
BRANCH   8  26
ATOM     26  O   UNL     1       1.102  -9.792   8.000  1.00  0.00    -0.508 OA
ATOM     27  H   UNL     1       1.622 -10.319   8.692  1.00  0.00     0.293 HD
ENDBRANCH   8  26
TORSDOF 6
ENDMDL
MODEL 4
REMARK VINA RESULT:    -4.369      5.508      7.967
REMARK INTER + INTRA:          -5.565
REMARK INTER:                  -5.263
REMARK INTRA:                  -0.302
REMARK UNBOUND:                -0.302
REMARK SMILES O=c1c(O)c(-c2ccc(O)cc2O)oc2cc(O)cc(O)c12
REMARK SMILES IDX 5 1 3 2 2 3 1 4 22 5 20 6 19 7 17 8 16 9 15 10 14 11 6 12
REMARK SMILES IDX 8 13 7 14 9 15 11 16 12 17 10 18 13 20 4 22 21 24 18 26
REMARK H PARENT 10 19 13 21 4 23 21 25 18 27
REMARK Flexibility Score: inf
ROOT
ATOM      1  C   UNL     1      -8.365  -4.566   7.463  1.00  0.00     0.184 A 
ATOM      2  C   UNL     1      -7.851  -4.110   8.686  1.00  0.00     0.208 A 
ATOM      3  C   UNL     1      -7.785  -2.727   8.923  1.00  0.00     0.238 A 
ATOM      4  O   UNL     1      -7.372  -2.325  10.042  1.00  0.00    -0.285 OA
ATOM      5  C   UNL     1      -8.222  -1.821   7.926  1.00  0.00     0.111 A 
ATOM      6  C   UNL     1      -8.163  -0.400   8.043  1.00  0.00     0.134 A 
ATOM      7  C   UNL     1      -8.743   0.398   7.048  1.00  0.00     0.093 A 
ATOM      8  C   UNL     1      -9.319  -0.173   5.911  1.00  0.00     0.123 A 
ATOM      9  C   UNL     1      -9.327  -1.557   5.761  1.00  0.00     0.094 A 
ATOM     10  C   UNL     1      -8.790  -2.382   6.753  1.00  0.00     0.146 A 
ATOM     11  O   UNL     1      -8.828  -3.696   6.574  1.00  0.00    -0.451 OA
ENDROOT
BRANCH   1  12
ATOM     12  C   UNL     1      -8.446  -6.008   7.145  1.00  0.00     0.063 A 
ATOM     13  C   UNL     1      -7.639  -7.895   5.841  1.00  0.00     0.047 A 
ATOM     14  C   UNL     1      -7.594  -6.536   6.162  1.00  0.00     0.020 A 
ATOM     15  C   UNL     1      -8.526  -8.745   6.506  1.00  0.00     0.119 A 
ATOM     16  C   UNL     1      -9.363  -8.233   7.506  1.00  0.00     0.093 A 
ATOM     17  C   UNL     1      -9.320  -6.871   7.838  1.00  0.00     0.130 A 
BRANCH  15  18
ATOM     18  O   UNL     1      -8.564 -10.098   6.172  1.00  0.00    -0.508 OA
ATOM     19  H   UNL     1      -8.896 -10.796   6.827  1.00  0.00     0.293 HD
ENDBRANCH  15  18
BRANCH  17  20
ATOM     20  O   UNL     1     -10.125  -6.382   8.868  1.00  0.00    -0.507 OA
ATOM     21  H   UNL     1      -9.819  -5.626   9.469  1.00  0.00     0.293 HD
ENDBRANCH  17  20
ENDBRANCH   1  12
BRANCH   2  22
ATOM     22  O   UNL     1      -7.444  -5.027   9.660  1.00  0.00    -0.502 OA
ATOM     23  H   UNL     1      -7.118  -5.957   9.429  1.00  0.00     0.293 HD
ENDBRANCH   2  22
BRANCH   6  24
ATOM     24  O   UNL     1      -7.531   0.272   9.093  1.00  0.00    -0.507 OA
ATOM     25  H   UNL     1      -7.320  -0.135   9.991  1.00  0.00     0.293 HD
ENDBRANCH   6  24
BRANCH   8  26
ATOM     26  O   UNL     1      -9.879   0.629   4.919  1.00  0.00    -0.508 OA
ATOM     27  H   UNL     1      -9.409   1.461   4.581  1.00  0.00     0.293 HD
ENDBRANCH   8  26
TORSDOF 6
ENDMDL
MODEL 5
REMARK VINA RESULT:    -4.360      5.624      8.221
REMARK INTER + INTRA:          -5.555
REMARK INTER:                  -5.211
REMARK INTRA:                  -0.344
REMARK UNBOUND:                -0.302
REMARK SMILES O=c1c(O)c(-c2ccc(O)cc2O)oc2cc(O)cc(O)c12
REMARK SMILES IDX 5 1 3 2 2 3 1 4 22 5 20 6 19 7 17 8 16 9 15 10 14 11 6 12
REMARK SMILES IDX 8 13 7 14 9 15 11 16 12 17 10 18 13 20 4 22 21 24 18 26
REMARK H PARENT 10 19 13 21 4 23 21 25 18 27
REMARK Flexibility Score: inf
ROOT
ATOM      1  C   UNL     1      -8.745  -7.824   3.925  1.00  0.00     0.184 A 
ATOM      2  C   UNL     1      -9.171  -6.550   4.330  1.00  0.00     0.208 A 
ATOM      3  C   UNL     1      -9.111  -6.214   5.693  1.00  0.00     0.238 A 
ATOM      4  O   UNL     1      -9.445  -5.052   6.043  1.00  0.00    -0.285 OA
ATOM      5  C   UNL     1      -8.640  -7.163   6.631  1.00  0.00     0.111 A 
ATOM      6  C   UNL     1      -8.574  -6.945   8.040  1.00  0.00     0.134 A 
ATOM      7  C   UNL     1      -7.969  -7.907   8.860  1.00  0.00     0.093 A 
ATOM      8  C   UNL     1      -7.488  -9.106   8.330  1.00  0.00     0.123 A 
ATOM      9  C   UNL     1      -7.602  -9.353   6.964  1.00  0.00     0.094 A 
ATOM     10  C   UNL     1      -8.167  -8.398   6.115  1.00  0.00     0.146 A 
ATOM     11  O   UNL     1      -8.246  -8.670   4.818  1.00  0.00    -0.451 OA
ENDROOT
BRANCH   1  12
ATOM     12  C   UNL     1      -8.798  -8.247   2.510  1.00  0.00     0.063 A 
ATOM     13  C   UNL     1     -10.125  -8.666   0.516  1.00  0.00     0.047 A 
ATOM     14  C   UNL     1     -10.040  -8.278   1.855  1.00  0.00     0.020 A 
ATOM     15  C   UNL     1      -8.970  -9.014  -0.190  1.00  0.00     0.119 A 
ATOM     16  C   UNL     1      -7.724  -8.962   0.447  1.00  0.00     0.093 A 
ATOM     17  C   UNL     1      -7.629  -8.568   1.790  1.00  0.00     0.130 A 
BRANCH  15  18
ATOM     18  O   UNL     1      -9.071  -9.403  -1.524  1.00  0.00    -0.508 OA
ATOM     19  H   UNL     1      -9.858  -9.125  -2.099  1.00  0.00     0.293 HD
ENDBRANCH  15  18
BRANCH  17  20
ATOM     20  O   UNL     1      -6.377  -8.475   2.399  1.00  0.00    -0.507 OA
ATOM     21  H   UNL     1      -6.136  -7.700   3.004  1.00  0.00     0.293 HD
ENDBRANCH  17  20
ENDBRANCH   1  12
BRANCH   2  22
ATOM     22  O   UNL     1      -9.615  -5.625   3.380  1.00  0.00    -0.502 OA
ATOM     23  H   UNL     1      -9.016  -4.897   3.010  1.00  0.00     0.293 HD
ENDBRANCH   2  22
BRANCH   6  24
ATOM     24  O   UNL     1      -9.106  -5.823   8.682  1.00  0.00    -0.507 OA
ATOM     25  H   UNL     1      -8.624  -4.945   8.797  1.00  0.00     0.293 HD
ENDBRANCH   6  24
BRANCH   8  26
ATOM     26  O   UNL     1      -6.902 -10.063   9.155  1.00  0.00    -0.508 OA
ATOM     27  H   UNL     1      -6.143 -10.651   8.830  1.00  0.00     0.293 HD
ENDBRANCH   8  26
TORSDOF 6
ENDMDL
MODEL 6
REMARK VINA RESULT:    -4.281     19.887     21.683
REMARK INTER + INTRA:          -5.459
REMARK INTER:                  -5.051
REMARK INTRA:                  -0.408
REMARK UNBOUND:                -0.302
REMARK SMILES O=c1c(O)c(-c2ccc(O)cc2O)oc2cc(O)cc(O)c12
REMARK SMILES IDX 5 1 3 2 2 3 1 4 22 5 20 6 19 7 17 8 16 9 15 10 14 11 6 12
REMARK SMILES IDX 8 13 7 14 9 15 11 16 12 17 10 18 13 20 4 22 21 24 18 26
REMARK H PARENT 10 19 13 21 4 23 21 25 18 27
REMARK Flexibility Score: inf
ROOT
ATOM      1  C   UNL     1      -8.957   4.346  -8.286  1.00  0.00     0.184 A 
ATOM      2  C   UNL     1      -9.571   3.988  -7.076  1.00  0.00     0.208 A 
ATOM      3  C   UNL     1      -9.591   2.635  -6.698  1.00  0.00     0.238 A 
ATOM      4  O   UNL     1     -10.095   2.326  -5.587  1.00  0.00    -0.285 OA
ATOM      5  C   UNL     1      -9.010   1.660  -7.544  1.00  0.00     0.111 A 
ATOM      6  C   UNL     1      -9.009   0.257  -7.279  1.00  0.00     0.134 A 
ATOM      7  C   UNL     1      -8.292  -0.603  -8.122  1.00  0.00     0.093 A 
ATOM      8  C   UNL     1      -7.631  -0.118  -9.253  1.00  0.00     0.123 A 
ATOM      9  C   UNL     1      -7.677   1.241  -9.551  1.00  0.00     0.094 A 
ATOM     10  C   UNL     1      -8.354   2.129  -8.711  1.00  0.00     0.146 A 
ATOM     11  O   UNL     1      -8.363   3.418  -9.027  1.00  0.00    -0.451 OA
ENDROOT
BRANCH   1  12
ATOM     12  C   UNL     1      -8.916   5.749  -8.750  1.00  0.00     0.063 A 
ATOM     13  C   UNL     1     -10.109   7.694  -9.591  1.00  0.00     0.047 A 
ATOM     14  C   UNL     1     -10.111   6.367  -9.153  1.00  0.00     0.020 A 
ATOM     15  C   UNL     1      -8.918   8.423  -9.618  1.00  0.00     0.119 A 
ATOM     16  C   UNL     1      -7.725   7.824  -9.195  1.00  0.00     0.093 A 
ATOM     17  C   UNL     1      -7.719   6.494  -8.748  1.00  0.00     0.130 A 
BRANCH  15  18
ATOM     18  O   UNL     1      -8.931   9.745 -10.062  1.00  0.00    -0.508 OA
ATOM     19  H   UNL     1      -8.389  10.039 -10.866  1.00  0.00     0.293 HD
ENDBRANCH  15  18
BRANCH  17  20
ATOM     20  O   UNL     1      -6.533   5.923  -8.284  1.00  0.00    -0.507 OA
ATOM     21  H   UNL     1      -5.632   6.347  -8.467  1.00  0.00     0.293 HD
ENDBRANCH  17  20
ENDBRANCH   1  12
BRANCH   2  22
ATOM     22  O   UNL     1     -10.120   4.974  -6.251  1.00  0.00    -0.502 OA
ATOM     23  H   UNL     1      -9.600   5.402  -5.495  1.00  0.00     0.293 HD
ENDBRANCH   2  22
BRANCH   6  24
ATOM     24  O   UNL     1      -9.711  -0.341  -6.229  1.00  0.00    -0.507 OA
ATOM     25  H   UNL     1      -9.290  -0.678  -5.377  1.00  0.00     0.293 HD
ENDBRANCH   6  24
BRANCH   8  26
ATOM     26  O   UNL     1      -6.933  -0.983 -10.093  1.00  0.00    -0.508 OA
ATOM     27  H   UNL     1      -6.371  -1.741  -9.725  1.00  0.00     0.293 HD
ENDBRANCH   8  26
TORSDOF 6
ENDMDL
MODEL 7
REMARK VINA RESULT:    -4.249      4.304      7.633
REMARK INTER + INTRA:          -5.420
REMARK INTER:                  -5.052
REMARK INTRA:                  -0.368
REMARK UNBOUND:                -0.302
REMARK SMILES O=c1c(O)c(-c2ccc(O)cc2O)oc2cc(O)cc(O)c12
REMARK SMILES IDX 5 1 3 2 2 3 1 4 22 5 20 6 19 7 17 8 16 9 15 10 14 11 6 12
REMARK SMILES IDX 8 13 7 14 9 15 11 16 12 17 10 18 13 20 4 22 21 24 18 26
REMARK H PARENT 10 19 13 21 4 23 21 25 18 27
REMARK Flexibility Score: inf
ROOT
ATOM      1  C   UNL     1      -8.130  -4.515   7.726  1.00  0.00     0.184 A 
ATOM      2  C   UNL     1      -8.710  -4.223   6.482  1.00  0.00     0.208 A 
ATOM      3  C   UNL     1      -9.001  -2.887   6.164  1.00  0.00     0.238 A 
ATOM      4  O   UNL     1      -9.472  -2.625   5.027  1.00  0.00    -0.285 OA
ATOM      5  C   UNL     1      -8.721  -1.863   7.102  1.00  0.00     0.111 A 
ATOM      6  C   UNL     1      -9.012  -0.481   6.901  1.00  0.00     0.134 A 
ATOM      7  C   UNL     1      -8.573   0.460   7.843  1.00  0.00     0.093 A 
ATOM      8  C   UNL     1      -7.913   0.060   9.007  1.00  0.00     0.123 A 
ATOM      9  C   UNL     1      -7.678  -1.292   9.239  1.00  0.00     0.094 A 
ATOM     10  C   UNL     1      -8.071  -2.252   8.302  1.00  0.00     0.146 A 
ATOM     11  O   UNL     1      -7.818  -3.529   8.558  1.00  0.00    -0.451 OA
ENDROOT
BRANCH   1  12
ATOM     12  C   UNL     1      -7.814  -5.902   8.129  1.00  0.00     0.063 A 
ATOM     13  C   UNL     1      -6.148  -7.645   8.444  1.00  0.00     0.047 A 
ATOM     14  C   UNL     1      -6.483  -6.342   8.065  1.00  0.00     0.020 A 
ATOM     15  C   UNL     1      -7.137  -8.518   8.905  1.00  0.00     0.119 A 
ATOM     16  C   UNL     1      -8.464  -8.081   8.996  1.00  0.00     0.093 A 
ATOM     17  C   UNL     1      -8.807  -6.773   8.622  1.00  0.00     0.130 A 
BRANCH  15  18
ATOM     18  O   UNL     1      -6.789  -9.816   9.276  1.00  0.00    -0.508 OA
ATOM     19  H   UNL     1      -6.811 -10.114  10.244  1.00  0.00     0.293 HD
ENDBRANCH  15  18
BRANCH  17  20
ATOM     20  O   UNL     1     -10.125  -6.334   8.762  1.00  0.00    -0.507 OA
ATOM     21  H   UNL     1     -10.801  -6.849   9.313  1.00  0.00     0.293 HD
ENDBRANCH  17  20
ENDBRANCH   1  12
BRANCH   2  22
ATOM     22  O   UNL     1      -8.959  -5.251   5.568  1.00  0.00    -0.502 OA
ATOM     23  H   UNL     1      -9.273  -5.073   4.622  1.00  0.00     0.293 HD
ENDBRANCH   2  22
BRANCH   6  24
ATOM     24  O   UNL     1      -9.744   0.015   5.819  1.00  0.00    -0.507 OA
ATOM     25  H   UNL     1      -9.354   0.233   4.915  1.00  0.00     0.293 HD
ENDBRANCH   6  24
BRANCH   8  26
ATOM     26  O   UNL     1      -7.494   1.002   9.945  1.00  0.00    -0.508 OA
ATOM     27  H   UNL     1      -6.686   1.592   9.780  1.00  0.00     0.293 HD
ENDBRANCH   8  26
TORSDOF 6
ENDMDL
MODEL 8
REMARK VINA RESULT:    -4.248     14.665     17.047
REMARK INTER + INTRA:          -5.419
REMARK INTER:                  -5.007
REMARK INTRA:                  -0.412
REMARK UNBOUND:                -0.302
REMARK SMILES O=c1c(O)c(-c2ccc(O)cc2O)oc2cc(O)cc(O)c12
REMARK SMILES IDX 5 1 3 2 2 3 1 4 22 5 20 6 19 7 17 8 16 9 15 10 14 11 6 12
REMARK SMILES IDX 8 13 7 14 9 15 11 16 12 17 10 18 13 20 4 22 21 24 18 26
REMARK H PARENT 10 19 13 21 4 23 21 25 18 27
REMARK Flexibility Score: inf
ROOT
ATOM      1  C   UNL     1       6.810   4.281   9.088  1.00  0.00     0.184 A 
ATOM      2  C   UNL     1       7.450   5.529   9.109  1.00  0.00     0.208 A 
ATOM      3  C   UNL     1       6.677   6.688   9.286  1.00  0.00     0.238 A 
ATOM      4  O   UNL     1       7.262   7.800   9.357  1.00  0.00    -0.285 OA
ATOM      5  C   UNL     1       5.272   6.581   9.424  1.00  0.00     0.111 A 
ATOM      6  C   UNL     1       4.387   7.691   9.568  1.00  0.00     0.134 A 
ATOM      7  C   UNL     1       3.028   7.462   9.827  1.00  0.00     0.093 A 
ATOM      8  C   UNL     1       2.515   6.164   9.882  1.00  0.00     0.123 A 
ATOM      9  C   UNL     1       3.361   5.076   9.683  1.00  0.00     0.094 A 
ATOM     10  C   UNL     1       4.727   5.271   9.459  1.00  0.00     0.146 A 
ATOM     11  O   UNL     1       5.499   4.206   9.285  1.00  0.00    -0.451 OA
ENDROOT
BRANCH   1  12
ATOM     12  C   UNL     1       7.563   3.025   8.888  1.00  0.00     0.063 A 
ATOM     13  C   UNL     1       8.657   1.082   9.860  1.00  0.00     0.047 A 
ATOM     14  C   UNL     1       7.948   2.277  10.013  1.00  0.00     0.020 A 
ATOM     15  C   UNL     1       8.976   0.613   8.584  1.00  0.00     0.119 A 
ATOM     16  C   UNL     1       8.575   1.339   7.455  1.00  0.00     0.093 A 
ATOM     17  C   UNL     1       7.859   2.536   7.599  1.00  0.00     0.130 A 
BRANCH  15  18
ATOM     18  O   UNL     1       9.686  -0.579   8.447  1.00  0.00    -0.508 OA
ATOM     19  H   UNL     1       9.852  -1.190   9.238  1.00  0.00     0.293 HD
ENDBRANCH  15  18
BRANCH  17  20
ATOM     20  O   UNL     1       7.424   3.225   6.466  1.00  0.00    -0.507 OA
ATOM     21  H   UNL     1       7.601   4.215   6.345  1.00  0.00     0.293 HD
ENDBRANCH  17  20
ENDBRANCH   1  12
BRANCH   2  22
ATOM     22  O   UNL     1       8.841   5.604   8.988  1.00  0.00    -0.502 OA
ATOM     23  H   UNL     1       9.315   6.443   8.677  1.00  0.00     0.293 HD
ENDBRANCH   2  22
BRANCH   6  24
ATOM     24  O   UNL     1       4.780   9.026   9.440  1.00  0.00    -0.507 OA
ATOM     25  H   UNL     1       4.183   9.820   9.617  1.00  0.00     0.293 HD
ENDBRANCH   6  24
BRANCH   8  26
ATOM     26  O   UNL     1       1.161   5.946  10.125  1.00  0.00    -0.508 OA
ATOM     27  H   UNL     1       0.678   6.404  10.889  1.00  0.00     0.293 HD
ENDBRANCH   8  26
TORSDOF 6
ENDMDL
MODEL 9
REMARK VINA RESULT:    -4.218      3.927      6.869
REMARK INTER + INTRA:          -5.383
REMARK INTER:                  -5.088
REMARK INTRA:                  -0.295
REMARK UNBOUND:                -0.302
REMARK SMILES O=c1c(O)c(-c2ccc(O)cc2O)oc2cc(O)cc(O)c12
REMARK SMILES IDX 5 1 3 2 2 3 1 4 22 5 20 6 19 7 17 8 16 9 15 10 14 11 6 12
REMARK SMILES IDX 8 13 7 14 9 15 11 16 12 17 10 18 13 20 4 22 21 24 18 26
REMARK H PARENT 10 19 13 21 4 23 21 25 18 27
REMARK Flexibility Score: inf
ROOT
ATOM      1  C   UNL     1      -7.450  -3.874   8.971  1.00  0.00     0.184 A 
ATOM      2  C   UNL     1      -6.229  -4.274   9.534  1.00  0.00     0.208 A 
ATOM      3  C   UNL     1      -5.908  -5.641   9.561  1.00  0.00     0.238 A 
ATOM      4  O   UNL     1      -4.789  -5.991  10.020  1.00  0.00    -0.285 OA
ATOM      5  C   UNL     1      -6.821  -6.589   9.038  1.00  0.00     0.111 A 
ATOM      6  C   UNL     1      -6.618  -8.001   9.050  1.00  0.00     0.134 A 
ATOM      7  C   UNL     1      -7.529  -8.835   8.387  1.00  0.00     0.093 A 
ATOM      8  C   UNL     1      -8.668  -8.312   7.771  1.00  0.00     0.123 A 
ATOM      9  C   UNL     1      -8.905  -6.940   7.807  1.00  0.00     0.094 A 
ATOM     10  C   UNL     1      -7.997  -6.079   8.427  1.00  0.00     0.146 A 
ATOM     11  O   UNL     1      -8.256  -4.777   8.428  1.00  0.00    -0.451 OA
ENDROOT
BRANCH   1  12
ATOM     12  C   UNL     1      -7.854  -2.453   8.926  1.00  0.00     0.063 A 
ATOM     13  C   UNL     1      -8.288  -0.378  10.118  1.00  0.00     0.047 A 
ATOM     14  C   UNL     1      -7.915  -1.725  10.125  1.00  0.00     0.020 A 
ATOM     15  C   UNL     1      -8.591   0.261   8.913  1.00  0.00     0.119 A 
ATOM     16  C   UNL     1      -8.509  -0.450   7.709  1.00  0.00     0.093 A 
ATOM     17  C   UNL     1      -8.131  -1.800   7.707  1.00  0.00     0.130 A 
BRANCH  15  18
ATOM     18  O   UNL     1      -8.965   1.604   8.923  1.00  0.00    -0.508 OA
ATOM     19  H   UNL     1      -9.656   1.956   9.575  1.00  0.00     0.293 HD
ENDBRANCH  15  18
BRANCH  17  20
ATOM     20  O   UNL     1      -8.008  -2.484   6.497  1.00  0.00    -0.507 OA
ATOM     21  H   UNL     1      -7.231  -2.318   5.868  1.00  0.00     0.293 HD
ENDBRANCH  17  20
ENDBRANCH   1  12
BRANCH   2  22
ATOM     22  O   UNL     1      -5.338  -3.317  10.028  1.00  0.00    -0.502 OA
ATOM     23  H   UNL     1      -5.610  -2.624  10.714  1.00  0.00     0.293 HD
ENDBRANCH   2  22
BRANCH   6  24
ATOM     24  O   UNL     1      -5.562  -8.633   9.713  1.00  0.00    -0.507 OA
ATOM     25  H   UNL     1      -4.587  -8.415   9.578  1.00  0.00     0.293 HD
ENDBRANCH   6  24
BRANCH   8  26
ATOM     26  O   UNL     1      -9.576  -9.151   7.128  1.00  0.00    -0.508 OA
ATOM     27  H   UNL     1      -9.899  -8.960   6.187  1.00  0.00     0.293 HD
ENDBRANCH   8  26
TORSDOF 6
ENDMDL
