MODEL 1
REMARK VINA RESULT:    -3.561      0.000      0.000
REMARK INTER + INTRA:          -8.384
REMARK INTER:                  -6.267
REMARK INTRA:                  -2.116
REMARK UNBOUND:                -2.116
REMARK SMILES CCCCCCCCCCCCCCC(=O)[O-]
REMARK SMILES IDX 9 1 10 2 11 3 12 4 13 5 14 6 15 7 16 8 17 9 8 10 7 11 6 12
REMARK SMILES IDX 5 13 4 14 3 15 2 16 1 17
REMARK H PARENT
REMARK Flexibility Score: inf
ROOT
ATOM      1  C   UNL     1      28.557  33.409  20.781  1.00  0.00     0.000 C 
ENDROOT
BRANCH   1   2
ATOM      2  C   UNL     1      29.099  34.759  20.282  1.00  0.00     0.000 C 
BRANCH   2   3
ATOM      3  C   UNL     1      30.541  34.661  19.760  1.00  0.00     0.000 C 
BRANCH   3   4
ATOM      4  C   UNL     1      30.905  33.247  19.282  1.00  0.00     0.000 C 
BRANCH   4   5
ATOM      5  C   UNL     1      32.217  33.257  18.484  1.00  0.00     0.006 C 
BRANCH   5   6
ATOM      6  C   UNL     1      33.155  32.115  18.893  1.00  0.00     0.053 C 
BRANCH   6   7
ATOM      7  C   UNL     1      34.272  31.934  17.911  1.00  0.00     0.041 C 
ATOM      8  O   UNL     1      34.151  31.126  16.952  1.00  0.00    -0.550 OA
ATOM      9  O   UNL     1      35.460  32.635  18.075  1.00  0.00    -0.550 OA
ENDBRANCH   6   7
ENDBRANCH   5   6
ENDBRANCH   4   5
ENDBRANCH   3   4
ENDBRANCH   2   3
ENDBRANCH   1   2
BRANCH   1  10
ATOM     10  C   UNL     1      28.430  33.354  22.313  1.00  0.00     0.000 C 
BRANCH  10  11
ATOM     11  C   UNL     1      29.273  32.228  22.935  1.00  0.00    -0.000 C 
BRANCH  11  12
ATOM     12  C   UNL     1      30.751  32.618  23.097  1.00  0.00    -0.000 C 
BRANCH  12  13
ATOM     13  C   UNL     1      30.939  34.114  23.413  1.00  0.00    -0.000 C 
BRANCH  13  14
ATOM     14  C   UNL     1      32.331  34.630  23.016  1.00  0.00    -0.000 C 
BRANCH  14  15
ATOM     15  C   UNL     1      33.189  33.552  22.338  1.00  0.00    -0.000 C 
BRANCH  15  16
ATOM     16  C   UNL     1      34.613  34.063  22.086  1.00  0.00    -0.003 C 
ATOM     17  C   UNL     1      34.683  34.893  20.808  1.00  0.00     0.004 C 
ENDBRANCH  15  16
ENDBRANCH  14  15
ENDBRANCH  13  14
ENDBRANCH  12  13
ENDBRANCH  11  12
ENDBRANCH  10  11
ENDBRANCH   1  10
TORSDOF 13
ENDMDL
MODEL 2
REMARK VINA RESULT:    -3.558      1.360      2.156
REMARK INTER + INTRA:          -8.378
REMARK INTER:                  -6.700
REMARK INTRA:                  -1.678
REMARK UNBOUND:                -2.116
REMARK SMILES CCCCCCCCCCCCCCC(=O)[O-]
REMARK SMILES IDX 9 1 10 2 11 3 12 4 13 5 14 6 15 7 16 8 17 9 8 10 7 11 6 12
REMARK SMILES IDX 5 13 4 14 3 15 2 16 1 17
REMARK H PARENT
REMARK Flexibility Score: inf
ROOT
ATOM      1  C   UNL     1      29.854  34.690  20.028  1.00  0.00     0.000 C 
ENDROOT
BRANCH   1   2
ATOM      2  C   UNL     1      31.215  34.488  19.338  1.00  0.00     0.000 C 
BRANCH   2   3
ATOM      3  C   UNL     1      31.435  33.039  18.876  1.00  0.00     0.000 C 
BRANCH   3   4
ATOM      4  C   UNL     1      32.917  32.634  18.877  1.00  0.00     0.000 C 
BRANCH   4   5
ATOM      5  C   UNL     1      33.558  32.894  17.506  1.00  0.00     0.006 C 
BRANCH   5   6
ATOM      6  C   UNL     1      34.127  31.615  16.879  1.00  0.00     0.053 C 
BRANCH   6   7
ATOM      7  C   UNL     1      34.553  31.833  15.459  1.00  0.00     0.041 C 
ATOM      8  O   UNL     1      33.712  32.188  14.591  1.00  0.00    -0.550 OA
ATOM      9  O   UNL     1      35.874  31.614  15.089  1.00  0.00    -0.550 OA
ENDBRANCH   6   7
ENDBRANCH   5   6
ENDBRANCH   4   5
ENDBRANCH   3   4
ENDBRANCH   2   3
ENDBRANCH   1   2
BRANCH   1  10
ATOM     10  C   UNL     1      29.073  33.374  20.188  1.00  0.00     0.000 C 
BRANCH  10  11
ATOM     11  C   UNL     1      28.140  33.386  21.410  1.00  0.00    -0.000 C 
BRANCH  11  12
ATOM     12  C   UNL     1      28.833  32.884  22.686  1.00  0.00    -0.000 C 
BRANCH  12  13
ATOM     13  C   UNL     1      29.409  34.029  23.539  1.00  0.00    -0.000 C 
BRANCH  13  14
ATOM     14  C   UNL     1      30.932  34.168  23.388  1.00  0.00    -0.000 C 
BRANCH  14  15
ATOM     15  C   UNL     1      31.597  32.876  22.892  1.00  0.00    -0.000 C 
BRANCH  15  16
ATOM     16  C   UNL     1      33.044  33.135  22.456  1.00  0.00    -0.003 C 
ATOM     17  C   UNL     1      33.344  34.630  22.399  1.00  0.00     0.004 C 
ENDBRANCH  15  16
ENDBRANCH  14  15
ENDBRANCH  13  14
ENDBRANCH  12  13
ENDBRANCH  11  12
ENDBRANCH  10  11
ENDBRANCH   1  10
TORSDOF 13
ENDMDL
MODEL 3
REMARK VINA RESULT:    -3.531      1.989      4.784
REMARK INTER + INTRA:          -8.331
REMARK INTER:                  -7.173
REMARK INTRA:                  -1.158
REMARK UNBOUND:                -2.116
REMARK SMILES CCCCCCCCCCCCCCC(=O)[O-]
REMARK SMILES IDX 9 1 10 2 11 3 12 4 13 5 14 6 15 7 16 8 17 9 8 10 7 11 6 12
REMARK SMILES IDX 5 13 4 14 3 15 2 16 1 17
REMARK H PARENT
REMARK Flexibility Score: inf
ROOT
ATOM      1  C   UNL     1      28.600  33.286  23.317  1.00  0.00     0.000 C 
ENDROOT
BRANCH   1   2
ATOM      2  C   UNL     1      29.939  32.747  22.782  1.00  0.00     0.000 C 
BRANCH   2   3
ATOM      3  C   UNL     1      31.086  33.759  22.933  1.00  0.00     0.000 C 
BRANCH   3   4
ATOM      4  C   UNL     1      32.466  33.134  22.680  1.00  0.00     0.000 C 
BRANCH   4   5
ATOM      5  C   UNL     1      32.931  33.392  21.239  1.00  0.00     0.006 C 
BRANCH   5   6
ATOM      6  C   UNL     1      33.779  32.240  20.686  1.00  0.00     0.053 C 
BRANCH   6   7
ATOM      7  C   UNL     1      33.965  32.348  19.204  1.00  0.00     0.041 C 
ATOM      8  O   UNL     1      33.079  31.917  18.419  1.00  0.00    -0.550 OA
ATOM      9  O   UNL     1      35.134  32.896  18.689  1.00  0.00    -0.550 OA
ENDBRANCH   6   7
ENDBRANCH   5   6
ENDBRANCH   4   5
ENDBRANCH   3   4
ENDBRANCH   2   3
ENDBRANCH   1   2
BRANCH   1  10
ATOM     10  C   UNL     1      28.728  34.699  23.911  1.00  0.00     0.000 C 
BRANCH  10  11
ATOM     11  C   UNL     1      27.936  35.749  23.113  1.00  0.00    -0.000 C 
BRANCH  11  12
ATOM     12  C   UNL     1      28.750  36.343  21.952  1.00  0.00    -0.000 C 
BRANCH  12  13
ATOM     13  C   UNL     1      28.030  36.218  20.597  1.00  0.00    -0.000 C 
BRANCH  13  14
ATOM     14  C   UNL     1      26.794  35.307  20.668  1.00  0.00    -0.000 C 
BRANCH  14  15
ATOM     15  C   UNL     1      27.013  33.959  19.966  1.00  0.00    -0.000 C 
BRANCH  15  16
ATOM     16  C   UNL     1      25.756  33.528  19.200  1.00  0.00    -0.003 C 
ATOM     17  C   UNL     1      24.875  32.619  20.051  1.00  0.00     0.004 C 
ENDBRANCH  15  16
ENDBRANCH  14  15
ENDBRANCH  13  14
ENDBRANCH  12  13
ENDBRANCH  11  12
ENDBRANCH  10  11
ENDBRANCH   1  10
TORSDOF 13
ENDMDL
MODEL 4
REMARK VINA RESULT:    -3.468      2.971      5.731
REMARK INTER + INTRA:          -8.219
REMARK INTER:                  -6.312
REMARK INTRA:                  -1.908
REMARK UNBOUND:                -2.116
REMARK SMILES CCCCCCCCCCCCCCC(=O)[O-]
REMARK SMILES IDX 9 1 10 2 11 3 12 4 13 5 14 6 15 7 16 8 17 9 8 10 7 11 6 12
REMARK SMILES IDX 5 13 4 14 3 15 2 16 1 17
REMARK H PARENT
REMARK Flexibility Score: inf
ROOT
ATOM      1  C   UNL     1      33.339  34.160  22.535  1.00  0.00     0.000 C 
ENDROOT
BRANCH   1   2
ATOM      2  C   UNL     1      32.288  33.041  22.631  1.00  0.00     0.000 C 
BRANCH   2   3
ATOM      3  C   UNL     1      30.894  33.570  23.003  1.00  0.00     0.000 C 
BRANCH   3   4
ATOM      4  C   UNL     1      29.831  32.461  23.051  1.00  0.00     0.000 C 
BRANCH   4   5
ATOM      5  C   UNL     1      28.416  33.058  23.075  1.00  0.00     0.006 C 
BRANCH   5   6
ATOM      6  C   UNL     1      28.325  34.370  22.286  1.00  0.00     0.053 C 
BRANCH   6   7
ATOM      7  C   UNL     1      27.682  34.171  20.948  1.00  0.00     0.041 C 
ATOM      8  O   UNL     1      26.642  34.812  20.642  1.00  0.00    -0.550 OA
ATOM      9  O   UNL     1      28.214  33.253  20.052  1.00  0.00    -0.550 OA
ENDBRANCH   6   7
ENDBRANCH   5   6
ENDBRANCH   4   5
ENDBRANCH   3   4
ENDBRANCH   2   3
ENDBRANCH   1   2
BRANCH   1  10
ATOM     10  C   UNL     1      34.717  33.639  22.093  1.00  0.00     0.000 C 
BRANCH  10  11
ATOM     11  C   UNL     1      34.953  33.799  20.581  1.00  0.00    -0.000 C 
BRANCH  11  12
ATOM     12  C   UNL     1      35.095  32.449  19.860  1.00  0.00    -0.000 C 
BRANCH  12  13
ATOM     13  C   UNL     1      33.742  31.875  19.402  1.00  0.00    -0.000 C 
BRANCH  13  14
ATOM     14  C   UNL     1      33.032  32.780  18.383  1.00  0.00    -0.000 C 
BRANCH  14  15
ATOM     15  C   UNL     1      31.737  33.391  18.937  1.00  0.00    -0.000 C 
BRANCH  15  16
ATOM     16  C   UNL     1      31.755  34.919  18.813  1.00  0.00    -0.003 C 
ATOM     17  C   UNL     1      30.993  35.576  19.961  1.00  0.00     0.004 C 
ENDBRANCH  15  16
ENDBRANCH  14  15
ENDBRANCH  13  14
ENDBRANCH  12  13
ENDBRANCH  11  12
ENDBRANCH  10  11
ENDBRANCH   1  10
TORSDOF 13
ENDMDL
MODEL 5
REMARK VINA RESULT:    -3.458      1.947      3.809
REMARK INTER + INTRA:          -8.203
REMARK INTER:                  -6.199
REMARK INTRA:                  -2.004
REMARK UNBOUND:                -2.116
REMARK SMILES CCCCCCCCCCCCCCC(=O)[O-]
REMARK SMILES IDX 9 1 10 2 11 3 12 4 13 5 14 6 15 7 16 8 17 9 8 10 7 11 6 12
REMARK SMILES IDX 5 13 4 14 3 15 2 16 1 17
REMARK H PARENT
REMARK Flexibility Score: inf
ROOT
ATOM      1  C   UNL     1      30.716  34.325  23.394  1.00  0.00     0.000 C 
ENDROOT
BRANCH   1   2
ATOM      2  C   UNL     1      31.271  32.949  22.989  1.00  0.00     0.000 C 
BRANCH   2   3
ATOM      3  C   UNL     1      32.755  33.003  22.595  1.00  0.00     0.000 C 
BRANCH   3   4
ATOM      4  C   UNL     1      33.279  34.440  22.447  1.00  0.00     0.000 C 
BRANCH   4   5
ATOM      5  C   UNL     1      34.414  34.507  21.414  1.00  0.00     0.006 C 
BRANCH   5   6
ATOM      6  C   UNL     1      34.974  33.121  21.074  1.00  0.00     0.053 C 
BRANCH   6   7
ATOM      7  C   UNL     1      36.409  32.985  21.481  1.00  0.00     0.041 C 
ATOM      8  O   UNL     1      37.216  32.344  20.758  1.00  0.00    -0.550 OA
ATOM      9  O   UNL     1      36.847  33.542  22.676  1.00  0.00    -0.550 OA
ENDBRANCH   6   7
ENDBRANCH   5   6
ENDBRANCH   4   5
ENDBRANCH   3   4
ENDBRANCH   2   3
ENDBRANCH   1   2
BRANCH   1  10
ATOM     10  C   UNL     1      29.207  34.289  23.687  1.00  0.00     0.000 C 
BRANCH  10  11
ATOM     11  C   UNL     1      28.494  33.126  22.976  1.00  0.00    -0.000 C 
BRANCH  11  12
ATOM     12  C   UNL     1      27.811  33.563  21.670  1.00  0.00    -0.000 C 
BRANCH  12  13
ATOM     13  C   UNL     1      28.588  33.118  20.417  1.00  0.00    -0.000 C 
BRANCH  13  14
ATOM     14  C   UNL     1      29.641  34.149  19.979  1.00  0.00    -0.000 C 
BRANCH  14  15
ATOM     15  C   UNL     1      30.888  33.495  19.365  1.00  0.00    -0.000 C 
BRANCH  15  16
ATOM     16  C   UNL     1      31.789  34.545  18.705  1.00  0.00    -0.003 C 
ATOM     17  C   UNL     1      31.652  35.901  19.391  1.00  0.00     0.004 C 
ENDBRANCH  15  16
ENDBRANCH  14  15
ENDBRANCH  13  14
ENDBRANCH  12  13
ENDBRANCH  11  12
ENDBRANCH  10  11
ENDBRANCH   1  10
TORSDOF 13
ENDMDL
MODEL 6
REMARK VINA RESULT:    -3.442      1.284      3.591
REMARK INTER + INTRA:          -8.174
REMARK INTER:                  -6.165
REMARK INTRA:                  -2.009
REMARK UNBOUND:                -2.116
REMARK SMILES CCCCCCCCCCCCCCC(=O)[O-]
REMARK SMILES IDX 9 1 10 2 11 3 12 4 13 5 14 6 15 7 16 8 17 9 8 10 7 11 6 12
REMARK SMILES IDX 5 13 4 14 3 15 2 16 1 17
REMARK H PARENT
REMARK Flexibility Score: inf
ROOT
ATOM      1  C   UNL     1      30.847  35.141  24.047  1.00  0.00     0.000 C 
ENDROOT
BRANCH   1   2
ATOM      2  C   UNL     1      32.051  34.737  23.177  1.00  0.00     0.000 C 
BRANCH   2   3
ATOM      3  C   UNL     1      32.031  33.249  22.795  1.00  0.00     0.000 C 
BRANCH   3   4
ATOM      4  C   UNL     1      33.377  32.761  22.237  1.00  0.00     0.000 C 
BRANCH   4   5
ATOM      5  C   UNL     1      33.766  33.548  20.976  1.00  0.00     0.006 C 
BRANCH   5   6
ATOM      6  C   UNL     1      33.338  32.832  19.689  1.00  0.00     0.053 C 
BRANCH   6   7
ATOM      7  C   UNL     1      34.439  31.983  19.132  1.00  0.00     0.041 C 
ATOM      8  O   UNL     1      34.223  31.230  18.145  1.00  0.00    -0.550 OA
ATOM      9  O   UNL     1      35.696  32.000  19.723  1.00  0.00    -0.550 OA
ENDBRANCH   6   7
ENDBRANCH   5   6
ENDBRANCH   4   5
ENDBRANCH   3   4
ENDBRANCH   2   3
ENDBRANCH   1   2
BRANCH   1  10
ATOM     10  C   UNL     1      29.695  35.736  23.221  1.00  0.00     0.000 C 
BRANCH  10  11
ATOM     11  C   UNL     1      28.343  35.069  23.527  1.00  0.00    -0.000 C 
BRANCH  11  12
ATOM     12  C   UNL     1      28.444  33.537  23.597  1.00  0.00    -0.000 C 
BRANCH  12  13
ATOM     13  C   UNL     1      28.509  32.881  22.205  1.00  0.00    -0.000 C 
BRANCH  13  14
ATOM     14  C   UNL     1      27.501  33.492  21.218  1.00  0.00    -0.000 C 
BRANCH  14  15
ATOM     15  C   UNL     1      28.183  34.145  20.006  1.00  0.00    -0.000 C 
BRANCH  15  16
ATOM     16  C   UNL     1      29.682  33.822  19.979  1.00  0.00    -0.003 C 
ATOM     17  C   UNL     1      30.516  35.085  19.787  1.00  0.00     0.004 C 
ENDBRANCH  15  16
ENDBRANCH  14  15
ENDBRANCH  13  14
ENDBRANCH  12  13
ENDBRANCH  11  12
ENDBRANCH  10  11
ENDBRANCH   1  10
TORSDOF 13
ENDMDL
MODEL 7
REMARK VINA RESULT:    -3.410      3.147      5.456
REMARK INTER + INTRA:          -8.117
REMARK INTER:                  -6.107
REMARK INTRA:                  -2.010
REMARK UNBOUND:                -2.116
REMARK SMILES CCCCCCCCCCCCCCC(=O)[O-]
REMARK SMILES IDX 9 1 10 2 11 3 12 4 13 5 14 6 15 7 16 8 17 9 8 10 7 11 6 12
REMARK SMILES IDX 5 13 4 14 3 15 2 16 1 17
REMARK H PARENT
REMARK Flexibility Score: inf
ROOT
ATOM      1  C   UNL     1      33.262  33.892  22.143  1.00  0.00     0.000 C 
ENDROOT
BRANCH   1   2
ATOM      2  C   UNL     1      32.226  32.896  22.692  1.00  0.00     0.000 C 
BRANCH   2   3
ATOM      3  C   UNL     1      30.872  33.558  22.995  1.00  0.00     0.000 C 
BRANCH   3   4
ATOM      4  C   UNL     1      29.726  32.541  23.111  1.00  0.00     0.000 C 
BRANCH   4   5
ATOM      5  C   UNL     1      28.377  33.193  22.773  1.00  0.00     0.006 C 
BRANCH   5   6
ATOM      6  C   UNL     1      28.132  33.269  21.261  1.00  0.00     0.053 C 
BRANCH   6   7
ATOM      7  C   UNL     1      27.746  34.651  20.829  1.00  0.00     0.041 C 
ATOM      8  O   UNL     1      28.255  35.657  21.390  1.00  0.00    -0.550 OA
ATOM      9  O   UNL     1      26.799  34.826  19.828  1.00  0.00    -0.550 OA
ENDBRANCH   6   7
ENDBRANCH   5   6
ENDBRANCH   4   5
ENDBRANCH   3   4
ENDBRANCH   2   3
ENDBRANCH   1   2
BRANCH   1  10
ATOM     10  C   UNL     1      32.627  35.225  21.712  1.00  0.00     0.000 C 
BRANCH  10  11
ATOM     11  C   UNL     1      32.604  35.402  20.184  1.00  0.00    -0.000 C 
BRANCH  11  12
ATOM     12  C   UNL     1      31.252  35.009  19.566  1.00  0.00    -0.000 C 
BRANCH  12  13
ATOM     13  C   UNL     1      31.228  33.551  19.070  1.00  0.00    -0.000 C 
BRANCH  13  14
ATOM     14  C   UNL     1      32.445  33.204  18.199  1.00  0.00    -0.000 C 
BRANCH  14  15
ATOM     15  C   UNL     1      33.286  32.060  18.787  1.00  0.00    -0.000 C 
BRANCH  15  16
ATOM     16  C   UNL     1      34.783  32.382  18.706  1.00  0.00    -0.003 C 
ATOM     17  C   UNL     1      35.521  31.888  19.947  1.00  0.00     0.004 C 
ENDBRANCH  15  16
ENDBRANCH  14  15
ENDBRANCH  13  14
ENDBRANCH  12  13
ENDBRANCH  11  12
ENDBRANCH  10  11
ENDBRANCH   1  10
TORSDOF 13
ENDMDL
MODEL 8
REMARK VINA RESULT:    -3.401      3.587      5.572
REMARK INTER + INTRA:          -8.103
REMARK INTER:                  -6.062
REMARK INTRA:                  -2.041
REMARK UNBOUND:                -2.116
REMARK SMILES CCCCCCCCCCCCCCC(=O)[O-]
REMARK SMILES IDX 9 1 10 2 11 3 12 4 13 5 14 6 15 7 16 8 17 9 8 10 7 11 6 12
REMARK SMILES IDX 5 13 4 14 3 15 2 16 1 17
REMARK H PARENT
REMARK Flexibility Score: inf
ROOT
ATOM      1  C   UNL     1      30.848  33.600  23.125  1.00  0.00     0.000 C 
ENDROOT
BRANCH   1   2
ATOM      2  C   UNL     1      29.769  32.531  22.879  1.00  0.00     0.000 C 
BRANCH   2   3
ATOM      3  C   UNL     1      28.368  33.136  22.703  1.00  0.00     0.000 C 
BRANCH   3   4
ATOM      4  C   UNL     1      28.406  34.608  22.266  1.00  0.00     0.000 C 
BRANCH   4   5
ATOM      5  C   UNL     1      27.438  34.860  21.099  1.00  0.00     0.006 C 
BRANCH   5   6
ATOM      6  C   UNL     1      27.257  33.619  20.217  1.00  0.00     0.053 C 
BRANCH   6   7
ATOM      7  C   UNL     1      25.846  33.483  19.732  1.00  0.00     0.041 C 
ATOM      8  O   UNL     1      25.005  32.826  20.401  1.00  0.00    -0.550 OA
ATOM      9  O   UNL     1      25.469  34.056  18.524  1.00  0.00    -0.550 OA
ENDBRANCH   6   7
ENDBRANCH   5   6
ENDBRANCH   4   5
ENDBRANCH   3   4
ENDBRANCH   2   3
ENDBRANCH   1   2
BRANCH   1  10
ATOM     10  C   UNL     1      32.274  33.049  22.960  1.00  0.00     0.000 C 
BRANCH  10  11
ATOM     11  C   UNL     1      33.175  33.978  22.130  1.00  0.00    -0.000 C 
BRANCH  11  12
ATOM     12  C   UNL     1      33.047  35.452  22.548  1.00  0.00    -0.000 C 
BRANCH  12  13
ATOM     13  C   UNL     1      32.825  36.393  21.349  1.00  0.00    -0.000 C 
BRANCH  13  14
ATOM     14  C   UNL     1      31.404  36.288  20.773  1.00  0.00    -0.000 C 
BRANCH  14  15
ATOM     15  C   UNL     1      31.375  35.614  19.393  1.00  0.00    -0.000 C 
BRANCH  15  16
ATOM     16  C   UNL     1      30.738  34.221  19.475  1.00  0.00    -0.003 C 
ATOM     17  C   UNL     1      31.625  33.169  18.817  1.00  0.00     0.004 C 
ENDBRANCH  15  16
ENDBRANCH  14  15
ENDBRANCH  13  14
ENDBRANCH  12  13
ENDBRANCH  11  12
ENDBRANCH  10  11
ENDBRANCH   1  10
TORSDOF 13
ENDMDL
MODEL 9
REMARK VINA RESULT:    -3.360      1.591      3.839
REMARK INTER + INTRA:          -8.030
REMARK INTER:                  -6.396
REMARK INTRA:                  -1.634
REMARK UNBOUND:                -2.116
REMARK SMILES CCCCCCCCCCCCCCC(=O)[O-]
REMARK SMILES IDX 9 1 10 2 11 3 12 4 13 5 14 6 15 7 16 8 17 9 8 10 7 11 6 12
REMARK SMILES IDX 5 13 4 14 3 15 2 16 1 17
REMARK H PARENT
REMARK Flexibility Score: inf
ROOT
ATOM      1  C   UNL     1      31.036  34.664  19.560  1.00  0.00     0.000 C 
ENDROOT
BRANCH   1   2
ATOM      2  C   UNL     1      31.363  33.312  18.902  1.00  0.00     0.000 C 
BRANCH   2   3
ATOM      3  C   UNL     1      32.258  33.460  17.662  1.00  0.00     0.000 C 
BRANCH   3   4
ATOM      4  C   UNL     1      33.756  33.445  18.005  1.00  0.00     0.000 C 
BRANCH   4   5
ATOM      5  C   UNL     1      34.284  32.005  18.096  1.00  0.00     0.006 C 
BRANCH   5   6
ATOM      6  C   UNL     1      34.121  31.242  16.776  1.00  0.00     0.053 C 
BRANCH   6   7
ATOM      7  C   UNL     1      34.862  31.904  15.655  1.00  0.00     0.041 C 
ATOM      8  O   UNL     1      36.114  32.029  15.708  1.00  0.00    -0.550 OA
ATOM      9  O   UNL     1      34.165  32.413  14.566  1.00  0.00    -0.550 OA
ENDBRANCH   6   7
ENDBRANCH   5   6
ENDBRANCH   4   5
ENDBRANCH   3   4
ENDBRANCH   2   3
ENDBRANCH   1   2
BRANCH   1  10
ATOM     10  C   UNL     1      31.766  34.860  20.900  1.00  0.00     0.000 C 
BRANCH  10  11
ATOM     11  C   UNL     1      32.071  33.528  21.607  1.00  0.00    -0.000 C 
BRANCH  11  12
ATOM     12  C   UNL     1      31.418  33.435  22.995  1.00  0.00    -0.000 C 
BRANCH  12  13
ATOM     13  C   UNL     1      30.083  32.669  22.974  1.00  0.00    -0.000 C 
BRANCH  13  14
ATOM     14  C   UNL     1      28.881  33.569  23.300  1.00  0.00    -0.000 C 
BRANCH  14  15
ATOM     15  C   UNL     1      28.232  34.167  22.043  1.00  0.00    -0.000 C 
BRANCH  15  16
ATOM     16  C   UNL     1      28.048  33.098  20.960  1.00  0.00    -0.003 C 
ATOM     17  C   UNL     1      27.008  33.529  19.930  1.00  0.00     0.004 C 
ENDBRANCH  15  16
ENDBRANCH  14  15
ENDBRANCH  13  14
ENDBRANCH  12  13
ENDBRANCH  11  12
ENDBRANCH  10  11
ENDBRANCH   1  10
TORSDOF 13
ENDMDL
