MODEL 1
REMARK VINA RESULT:    90.473      0.000      0.000
REMARK INTER + INTRA:          97.977
REMARK INTER:                  98.406
REMARK INTRA:                  -0.429
REMARK UNBOUND:                -0.429
REMARK SMILES C=C(C)[C@@H]1CC[C@]2(C)CC[C@]3(C)[C@@H](CC[C@@H]4[C@@]5(C)CC[C@H](O)C(C)(C)[C@H]5CC[C@]43C)[C@@H]12
REMARK SMILES IDX 4 1 5 2 6 3 7 4 31 5 13 6 14 7 15 8 16 9 17 10 19 11 20 12
REMARK SMILES IDX 21 13 23 14 26 15 27 16 28 17 29 18 11 19 10 20 9 21 12 22
REMARK SMILES IDX 30 23 24 24 25 25 18 26 8 27 2 28 3 29 1 30 22 31
REMARK H PARENT 22 32
REMARK Flexibility Score: inf
ROOT
ATOM      1  C   UNL     1     -38.777  23.671   4.332  1.00  0.00     0.018 C 
ATOM      2  C   UNL     1     -40.125  23.189   4.919  1.00  0.00     0.009 C 
ATOM      3  C   UNL     1     -39.972  23.213   6.454  1.00  0.00     0.008 C 
ATOM      4  C   UNL     1     -38.457  23.317   6.713  1.00  0.00    -0.029 C 
ATOM      5  C   UNL     1     -38.026  24.215   5.553  1.00  0.00     0.006 C 
ATOM      6  C   UNL     1     -36.509  24.552   5.471  1.00  0.00    -0.000 C 
ATOM      7  C   UNL     1     -35.649  23.545   4.683  1.00  0.00     0.005 C 
ATOM      8  C   UNL     1     -34.200  24.040   4.459  1.00  0.00     0.005 C 
ATOM      9  C   UNL     1     -33.719  25.155   5.451  1.00  0.00     0.002 C 
ATOM     10  C   UNL     1     -32.162  25.618   5.342  1.00  0.00    -0.026 C 
ATOM     11  C   UNL     1     -32.116  27.156   5.056  1.00  0.00     0.010 C 
ATOM     12  C   UNL     1     -30.706  27.770   5.037  1.00  0.00     0.033 C 
ATOM     13  C   UNL     1     -29.923  27.502   6.336  1.00  0.00     0.120 C 
ATOM     14  C   UNL     1     -29.851  25.985   6.697  1.00  0.00    -0.006 C 
ATOM     15  C   UNL     1     -31.320  25.349   6.667  1.00  0.00     0.003 C 
ATOM     16  C   UNL     1     -32.107  25.726   7.970  1.00  0.00     0.005 C 
ATOM     17  C   UNL     1     -33.626  25.846   7.863  1.00  0.00     0.008 C 
ATOM     18  C   UNL     1     -34.281  24.846   6.885  1.00  0.00    -0.024 C 
ATOM     19  C   UNL     1     -35.903  25.014   6.878  1.00  0.00    -0.024 C 
ATOM     20  C   UNL     1     -36.568  24.277   8.120  1.00  0.00     0.008 C 
ATOM     21  C   UNL     1     -38.092  24.036   8.025  1.00  0.00     0.007 C 
ATOM     22  C   UNL     1     -36.309  26.523   7.039  1.00  0.00     0.012 C 
ATOM     23  C   UNL     1     -33.855  23.401   7.331  1.00  0.00     0.012 C 
ATOM     24  C   UNL     1     -29.221  25.848   8.120  1.00  0.00     0.014 C 
ATOM     25  C   UNL     1     -28.861  25.233   5.746  1.00  0.00     0.014 C 
ATOM     26  C   UNL     1     -31.508  24.895   4.123  1.00  0.00     0.012 C 
ATOM     27  C   UNL     1     -37.872  21.875   6.691  1.00  0.00     0.011 C 
ENDROOT
BRANCH   1  28
ATOM     28  C   UNL     1     -38.928  24.689   3.205  1.00  0.00    -0.077 C 
ATOM     29  C   UNL     1     -40.057  25.687   3.242  1.00  0.00     0.039 C 
ATOM     30  C   UNL     1     -38.078  24.723   2.164  1.00  0.00     0.008 C 
ENDBRANCH   1  28
BRANCH  13  31
ATOM     31  O   UNL     1     -28.625  28.030   6.220  1.00  0.00    -0.393 OA
ATOM     32  H   UNL     1     -27.996  27.337   6.552  1.00  0.00     0.210 HD
ENDBRANCH  13  31
TORSDOF 2
ENDMDL
