MODEL 1
REMARK VINA RESULT:    -2.737      0.000      0.000
REMARK INTER + INTRA:          -2.977
REMARK INTER:                  -2.977
REMARK INTRA:                   0.000
REMARK UNBOUND:                 0.000
REMARK SMILES [NH3+]CC(=O)[O-]
REMARK SMILES IDX 2 1 1 2 3 6 4 7 5 8
REMARK H PARENT 1 3 1 4 1 5
REMARK Flexibility Score: inf
ROOT
ATOM      1  C   UNL     1     -17.628 -22.809  11.843  1.00  0.00     0.312 C 
ENDROOT
BRANCH   1   2
ATOM      2  N   UNL     1     -17.141 -24.125  12.250  1.00  0.00    -0.353 N 
ATOM      3  H   UNL     1     -17.419 -24.321  13.240  1.00  0.00     0.344 HD
ATOM      4  H   UNL     1     -16.098 -24.139  12.182  1.00  0.00     0.344 HD
ATOM      5  H   UNL     1     -17.532 -24.863  11.620  1.00  0.00     0.344 HD
ENDBRANCH   1   2
BRANCH   1   6
ATOM      6  C   UNL     1     -18.848 -22.432  12.627  1.00  0.00     0.096 C 
ATOM      7  O   UNL     1     -18.750 -21.665  13.621  1.00  0.00    -0.544 OA
ATOM      8  O   UNL     1     -20.098 -22.887  12.229  1.00  0.00    -0.544 OA
ENDBRANCH   1   6
TORSDOF 2
ENDMDL
MODEL 2
REMARK VINA RESULT:    -2.666      5.758      6.089
REMARK INTER + INTRA:          -2.899
REMARK INTER:                  -2.899
REMARK INTRA:                   0.000
REMARK UNBOUND:                 0.000
REMARK SMILES [NH3+]CC(=O)[O-]
REMARK SMILES IDX 2 1 1 2 3 6 4 7 5 8
REMARK H PARENT 1 3 1 4 1 5
REMARK Flexibility Score: inf
ROOT
ATOM      1  C   UNL     1     -17.211 -25.139   8.137  1.00  0.00     0.312 C 
ENDROOT
BRANCH   1   2
ATOM      2  N   UNL     1     -17.218 -24.444   9.422  1.00  0.00    -0.353 N 
ATOM      3  H   UNL     1     -16.608 -23.595   9.375  1.00  0.00     0.344 HD
ATOM      4  H   UNL     1     -16.850 -25.086  10.160  1.00  0.00     0.344 HD
ATOM      5  H   UNL     1     -18.195 -24.163   9.674  1.00  0.00     0.344 HD
ENDBRANCH   1   2
BRANCH   1   6
ATOM      6  C   UNL     1     -16.271 -24.471   7.181  1.00  0.00     0.096 C 
ATOM      7  O   UNL     1     -16.683 -24.074   6.061  1.00  0.00    -0.544 OA
ATOM      8  O   UNL     1     -14.951 -24.244   7.549  1.00  0.00    -0.544 OA
ENDBRANCH   1   6
TORSDOF 2
ENDMDL
MODEL 3
REMARK VINA RESULT:    -2.648      1.485      1.897
REMARK INTER + INTRA:          -2.880
REMARK INTER:                  -2.880
REMARK INTRA:                   0.000
REMARK UNBOUND:                 0.000
REMARK SMILES [NH3+]CC(=O)[O-]
REMARK SMILES IDX 2 1 1 2 3 6 4 7 5 8
REMARK H PARENT 1 3 1 4 1 5
REMARK Flexibility Score: inf
ROOT
ATOM      1  C   UNL     1     -17.232 -22.706  11.873  1.00  0.00     0.312 C 
ENDROOT
BRANCH   1   2
ATOM      2  N   UNL     1     -17.105 -24.124  12.199  1.00  0.00    -0.353 N 
ATOM      3  H   UNL     1     -18.052 -24.564  12.266  1.00  0.00     0.344 HD
ATOM      4  H   UNL     1     -16.620 -24.221  13.120  1.00  0.00     0.344 HD
ATOM      5  H   UNL     1     -16.540 -24.612  11.466  1.00  0.00     0.344 HD
ENDBRANCH   1   2
BRANCH   1   6
ATOM      6  C   UNL     1     -18.484 -22.454  11.090  1.00  0.00     0.096 C 
ATOM      7  O   UNL     1     -18.428 -22.283   9.844  1.00  0.00    -0.544 OA
ATOM      8  O   UNL     1     -19.717 -22.458  11.729  1.00  0.00    -0.544 OA
ENDBRANCH   1   6
TORSDOF 2
ENDMDL
MODEL 4
REMARK VINA RESULT:    -2.636      4.731      5.251
REMARK INTER + INTRA:          -2.867
REMARK INTER:                  -2.867
REMARK INTRA:                   0.000
REMARK UNBOUND:                 0.000
REMARK SMILES [NH3+]CC(=O)[O-]
REMARK SMILES IDX 2 1 1 2 3 6 4 7 5 8
REMARK H PARENT 1 3 1 4 1 5
REMARK Flexibility Score: inf
ROOT
ATOM      1  C   UNL     1     -17.295 -23.565   8.920  1.00  0.00     0.312 C 
ENDROOT
BRANCH   1   2
ATOM      2  N   UNL     1     -17.260 -23.844  10.354  1.00  0.00    -0.353 N 
ATOM      3  H   UNL     1     -16.457 -23.342  10.798  1.00  0.00     0.344 HD
ATOM      4  H   UNL     1     -17.140 -24.872  10.499  1.00  0.00     0.344 HD
ATOM      5  H   UNL     1     -18.157 -23.542  10.800  1.00  0.00     0.344 HD
ENDBRANCH   1   2
BRANCH   1   6
ATOM      6  C   UNL     1     -16.855 -24.765   8.138  1.00  0.00     0.096 C 
ATOM      7  O   UNL     1     -17.619 -25.758   8.019  1.00  0.00    -0.544 OA
ATOM      8  O   UNL     1     -15.621 -24.764   7.499  1.00  0.00    -0.544 OA
ENDBRANCH   1   6
TORSDOF 2
ENDMDL
MODEL 5
REMARK VINA RESULT:    -2.499      4.808      5.361
REMARK INTER + INTRA:          -2.718
REMARK INTER:                  -2.718
REMARK INTRA:                   0.000
REMARK UNBOUND:                 0.000
REMARK SMILES [NH3+]CC(=O)[O-]
REMARK SMILES IDX 2 1 1 2 3 6 4 7 5 8
REMARK H PARENT 1 3 1 4 1 5
REMARK Flexibility Score: inf
ROOT
ATOM      1  C   UNL     1     -15.797 -24.279   7.339  1.00  0.00     0.312 C 
ENDROOT
BRANCH   1   2
ATOM      2  N   UNL     1     -14.702 -23.771   8.164  1.00  0.00    -0.353 N 
ATOM      3  H   UNL     1     -14.032 -24.543   8.385  1.00  0.00     0.344 HD
ATOM      4  H   UNL     1     -15.094 -23.395   9.057  1.00  0.00     0.344 HD
ATOM      5  H   UNL     1     -14.202 -23.001   7.662  1.00  0.00     0.344 HD
ENDBRANCH   1   2
BRANCH   1   6
ATOM      6  C   UNL     1     -16.969 -24.657   8.191  1.00  0.00     0.096 C 
ATOM      7  O   UNL     1     -17.564 -25.749   8.001  1.00  0.00    -0.544 OA
ATOM      8  O   UNL     1     -17.371 -23.824   9.228  1.00  0.00    -0.544 OA
ENDBRANCH   1   6
TORSDOF 2
ENDMDL
MODEL 6
REMARK VINA RESULT:    -2.485      2.263      2.514
REMARK INTER + INTRA:          -2.703
REMARK INTER:                  -2.703
REMARK INTRA:                   0.000
REMARK UNBOUND:                 0.000
REMARK SMILES [NH3+]CC(=O)[O-]
REMARK SMILES IDX 2 1 1 2 3 6 4 7 5 8
REMARK H PARENT 1 3 1 4 1 5
REMARK Flexibility Score: inf
ROOT
ATOM      1  C   UNL     1     -19.583 -21.242  13.314  1.00  0.00     0.312 C 
ENDROOT
BRANCH   1   2
ATOM      2  N   UNL     1     -18.452 -21.747  14.089  1.00  0.00    -0.353 N 
ATOM      3  H   UNL     1     -18.401 -21.256  15.012  1.00  0.00     0.344 HD
ATOM      4  H   UNL     1     -17.568 -21.568  13.561  1.00  0.00     0.344 HD
ATOM      5  H   UNL     1     -18.553 -22.778  14.242  1.00  0.00     0.344 HD
ENDBRANCH   1   2
BRANCH   1   6
ATOM      6  C   UNL     1     -19.921 -22.183  12.198  1.00  0.00     0.096 C 
ATOM      7  O   UNL     1     -20.979 -22.863  12.242  1.00  0.00    -0.544 OA
ATOM      8  O   UNL     1     -19.092 -22.270  11.088  1.00  0.00    -0.544 OA
ENDBRANCH   1   6
TORSDOF 2
ENDMDL
MODEL 7
REMARK VINA RESULT:    -2.412      7.226      7.512
REMARK INTER + INTRA:          -2.624
REMARK INTER:                  -2.624
REMARK INTRA:                   0.000
REMARK UNBOUND:                 0.000
REMARK SMILES [NH3+]CC(=O)[O-]
REMARK SMILES IDX 2 1 1 2 3 6 4 7 5 8
REMARK H PARENT 1 3 1 4 1 5
REMARK Flexibility Score: inf
ROOT
ATOM      1  C   UNL     1     -14.719 -22.383   5.636  1.00  0.00     0.312 C 
ENDROOT
BRANCH   1   2
ATOM      2  N   UNL     1     -14.163 -23.037   4.454  1.00  0.00    -0.353 N 
ATOM      3  H   UNL     1     -13.478 -23.775   4.740  1.00  0.00     0.344 HD
ATOM      4  H   UNL     1     -13.669 -22.325   3.870  1.00  0.00     0.344 HD
ATOM      5  H   UNL     1     -14.930 -23.467   3.887  1.00  0.00     0.344 HD
ENDBRANCH   1   2
BRANCH   1   6
ATOM      6  C   UNL     1     -15.535 -23.349   6.439  1.00  0.00     0.096 C 
ATOM      7  O   UNL     1     -16.719 -23.611   6.103  1.00  0.00    -0.544 OA
ATOM      8  O   UNL     1     -14.970 -23.997   7.530  1.00  0.00    -0.544 OA
ENDBRANCH   1   6
TORSDOF 2
ENDMDL
MODEL 8
REMARK VINA RESULT:    -2.398      5.081      5.426
REMARK INTER + INTRA:          -2.608
REMARK INTER:                  -2.608
REMARK INTRA:                   0.000
REMARK UNBOUND:                 0.000
REMARK SMILES [NH3+]CC(=O)[O-]
REMARK SMILES IDX 2 1 1 2 3 6 4 7 5 8
REMARK H PARENT 1 3 1 4 1 5
REMARK Flexibility Score: inf
ROOT
ATOM      1  C   UNL     1     -16.897 -23.474   6.989  1.00  0.00     0.312 C 
ENDROOT
BRANCH   1   2
ATOM      2  N   UNL     1     -16.434 -24.346   5.912  1.00  0.00    -0.353 N 
ATOM      3  H   UNL     1     -16.365 -25.333   6.254  1.00  0.00     0.344 HD
ATOM      4  H   UNL     1     -15.488 -24.030   5.599  1.00  0.00     0.344 HD
ATOM      5  H   UNL     1     -17.093 -24.298   5.101  1.00  0.00     0.344 HD
ENDBRANCH   1   2
BRANCH   1   6
ATOM      6  C   UNL     1     -17.216 -24.272   8.215  1.00  0.00     0.096 C 
ATOM      7  O   UNL     1     -17.416 -23.692   9.314  1.00  0.00    -0.544 OA
ATOM      8  O   UNL     1     -17.342 -25.653   8.133  1.00  0.00    -0.544 OA
ENDBRANCH   1   6
TORSDOF 2
ENDMDL
MODEL 9
REMARK VINA RESULT:    -2.329      7.071      7.244
REMARK INTER + INTRA:          -2.533
REMARK INTER:                  -2.533
REMARK INTRA:                   0.000
REMARK UNBOUND:                 0.000
REMARK SMILES [NH3+]CC(=O)[O-]
REMARK SMILES IDX 2 1 1 2 3 6 4 7 5 8
REMARK H PARENT 1 3 1 4 1 5
REMARK Flexibility Score: inf
ROOT
ATOM      1  C   UNL     1     -15.108 -22.615   5.858  1.00  0.00     0.312 C 
ENDROOT
BRANCH   1   2
ATOM      2  N   UNL     1     -14.246 -23.028   4.752  1.00  0.00    -0.353 N 
ATOM      3  H   UNL     1     -13.709 -23.887   5.017  1.00  0.00     0.344 HD
ATOM      4  H   UNL     1     -13.572 -22.259   4.539  1.00  0.00     0.344 HD
ATOM      5  H   UNL     1     -14.822 -23.220   3.900  1.00  0.00     0.344 HD
ENDBRANCH   1   2
BRANCH   1   6
ATOM      6  C   UNL     1     -14.694 -23.289   7.130  1.00  0.00     0.096 C 
ATOM      7  O   UNL     1     -13.833 -22.757   7.877  1.00  0.00    -0.544 OA
ATOM      8  O   UNL     1     -15.297 -24.480   7.514  1.00  0.00    -0.544 OA
ENDBRANCH   1   6
TORSDOF 2
ENDMDL
