MODEL 1
REMARK VINA RESULT:    -5.673      0.000      0.000
REMARK INTER + INTRA:         -10.486
REMARK INTER:                  -9.652
REMARK INTRA:                  -0.834
REMARK UNBOUND:                -0.834
REMARK SMILES CCCCCCCCCCCCCC(=O)[O-]
REMARK SMILES IDX 8 1 9 2 10 3 11 4 12 5 13 6 14 7 15 8 16 9 7 10 6 11 5 12
REMARK SMILES IDX 4 13 3 14 2 15 1 16
REMARK H PARENT
REMARK Flexibility Score: inf
ROOT
ATOM      1  C   UNL     1      38.949  54.380  60.705  1.00  0.00     0.000 C 
ENDROOT
BRANCH   1   2
ATOM      2  C   UNL     1      40.409  54.011  61.009  1.00  0.00     0.000 C 
BRANCH   2   3
ATOM      3  C   UNL     1      41.366  54.338  59.848  1.00  0.00     0.000 C 
BRANCH   3   4
ATOM      4  C   UNL     1      42.765  54.819  60.272  1.00  0.00     0.000 C 
BRANCH   4   5
ATOM      5  C   UNL     1      42.905  56.351  60.250  1.00  0.00     0.006 C 
BRANCH   5   6
ATOM      6  C   UNL     1      43.210  56.884  58.843  1.00  0.00     0.053 C 
BRANCH   6   7
ATOM      7  C   UNL     1      42.187  57.883  58.394  1.00  0.00     0.041 C 
ATOM      8  O   UNL     1      40.965  57.687  58.624  1.00  0.00    -0.550 OA
ATOM      9  O   UNL     1      42.588  59.043  57.745  1.00  0.00    -0.550 OA
ENDBRANCH   6   7
ENDBRANCH   5   6
ENDBRANCH   4   5
ENDBRANCH   3   4
ENDBRANCH   2   3
ENDBRANCH   1   2
BRANCH   1  10
ATOM     10  C   UNL     1      38.707  55.881  60.923  1.00  0.00     0.000 C 
BRANCH  10  11
ATOM     11  C   UNL     1      37.870  56.523  59.801  1.00  0.00    -0.000 C 
BRANCH  11  12
ATOM     12  C   UNL     1      36.365  56.203  59.848  1.00  0.00    -0.000 C 
BRANCH  12  13
ATOM     13  C   UNL     1      35.900  55.332  58.671  1.00  0.00    -0.000 C 
BRANCH  13  14
ATOM     14  C   UNL     1      35.855  53.849  59.070  1.00  0.00    -0.000 C 
BRANCH  14  15
ATOM     15  C   UNL     1      34.889  53.033  58.198  1.00  0.00    -0.003 C 
ATOM     16  C   UNL     1      35.403  51.623  57.908  1.00  0.00     0.004 C 
ENDBRANCH  14  15
ENDBRANCH  13  14
ENDBRANCH  12  13
ENDBRANCH  11  12
ENDBRANCH  10  11
ENDBRANCH   1  10
TORSDOF 12
ENDMDL
MODEL 2
REMARK VINA RESULT:    -5.498      0.989      1.475
REMARK INTER + INTRA:         -10.189
REMARK INTER:                  -9.346
REMARK INTRA:                  -0.844
REMARK UNBOUND:                -0.834
REMARK SMILES CCCCCCCCCCCCCC(=O)[O-]
REMARK SMILES IDX 8 1 9 2 10 3 11 4 12 5 13 6 14 7 15 8 16 9 7 10 6 11 5 12
REMARK SMILES IDX 4 13 3 14 2 15 1 16
REMARK H PARENT
REMARK Flexibility Score: inf
ROOT
ATOM      1  C   UNL     1      40.463  54.145  60.606  1.00  0.00     0.000 C 
ENDROOT
BRANCH   1   2
ATOM      2  C   UNL     1      41.929  54.604  60.597  1.00  0.00     0.000 C 
BRANCH   2   3
ATOM      3  C   UNL     1      42.428  54.997  59.194  1.00  0.00     0.000 C 
BRANCH   3   4
ATOM      4  C   UNL     1      43.358  56.223  59.153  1.00  0.00     0.000 C 
BRANCH   4   5
ATOM      5  C   UNL     1      42.732  57.473  59.795  1.00  0.00     0.006 C 
BRANCH   5   6
ATOM      6  C   UNL     1      41.549  58.011  58.979  1.00  0.00     0.053 C 
BRANCH   6   7
ATOM      7  C   UNL     1      41.942  59.190  58.142  1.00  0.00     0.041 C 
ATOM      8  O   UNL     1      43.153  59.516  58.034  1.00  0.00    -0.550 OA
ATOM      9  O   UNL     1      40.972  59.911  57.458  1.00  0.00    -0.550 OA
ENDBRANCH   6   7
ENDBRANCH   5   6
ENDBRANCH   4   5
ENDBRANCH   3   4
ENDBRANCH   2   3
ENDBRANCH   1   2
BRANCH   1  10
ATOM     10  C   UNL     1      39.511  55.350  60.592  1.00  0.00     0.000 C 
BRANCH  10  11
ATOM     11  C   UNL     1      38.046  54.954  60.336  1.00  0.00    -0.000 C 
BRANCH  11  12
ATOM     12  C   UNL     1      37.203  56.017  59.608  1.00  0.00    -0.000 C 
BRANCH  12  13
ATOM     13  C   UNL     1      36.030  55.415  58.820  1.00  0.00    -0.000 C 
BRANCH  13  14
ATOM     14  C   UNL     1      35.882  53.915  59.116  1.00  0.00    -0.000 C 
BRANCH  14  15
ATOM     15  C   UNL     1      34.996  53.194  58.089  1.00  0.00    -0.003 C 
ATOM     16  C   UNL     1      35.267  51.692  58.024  1.00  0.00     0.004 C 
ENDBRANCH  14  15
ENDBRANCH  13  14
ENDBRANCH  12  13
ENDBRANCH  11  12
ENDBRANCH  10  11
ENDBRANCH   1  10
TORSDOF 12
ENDMDL
MODEL 3
REMARK VINA RESULT:    -5.419      1.714      2.023
REMARK INTER + INTRA:         -10.054
REMARK INTER:                  -9.365
REMARK INTRA:                  -0.689
REMARK UNBOUND:                -0.834
REMARK SMILES CCCCCCCCCCCCCC(=O)[O-]
REMARK SMILES IDX 8 1 9 2 10 3 11 4 12 5 13 6 14 7 15 8 16 9 7 10 6 11 5 12
REMARK SMILES IDX 4 13 3 14 2 15 1 16
REMARK H PARENT
REMARK Flexibility Score: inf
ROOT
ATOM      1  C   UNL     1      39.525  54.661  60.629  1.00  0.00     0.000 C 
ENDROOT
BRANCH   1   2
ATOM      2  C   UNL     1      40.954  54.100  60.654  1.00  0.00     0.000 C 
BRANCH   2   3
ATOM      3  C   UNL     1      42.029  55.184  60.451  1.00  0.00     0.000 C 
BRANCH   3   4
ATOM      4  C   UNL     1      42.528  55.344  59.003  1.00  0.00     0.000 C 
BRANCH   4   5
ATOM      5  C   UNL     1      43.362  56.620  58.794  1.00  0.00     0.006 C 
BRANCH   5   6
ATOM      6  C   UNL     1      44.153  57.007  60.051  1.00  0.00     0.053 C 
BRANCH   6   7
ATOM      7  C   UNL     1      45.378  57.802  59.714  1.00  0.00     0.041 C 
ATOM      8  O   UNL     1      46.189  58.132  60.619  1.00  0.00    -0.550 OA
ATOM      9  O   UNL     1      45.637  58.154  58.396  1.00  0.00    -0.550 OA
ENDBRANCH   6   7
ENDBRANCH   5   6
ENDBRANCH   4   5
ENDBRANCH   3   4
ENDBRANCH   2   3
ENDBRANCH   1   2
BRANCH   1  10
ATOM     10  C   UNL     1      39.540  56.195  60.536  1.00  0.00     0.000 C 
BRANCH  10  11
ATOM     11  C   UNL     1      38.437  56.751  59.617  1.00  0.00    -0.000 C 
BRANCH  11  12
ATOM     12  C   UNL     1      37.003  56.341  60.001  1.00  0.00    -0.000 C 
BRANCH  12  13
ATOM     13  C   UNL     1      36.271  55.595  58.875  1.00  0.00    -0.000 C 
BRANCH  13  14
ATOM     14  C   UNL     1      36.178  54.093  59.181  1.00  0.00    -0.000 C 
BRANCH  14  15
ATOM     15  C   UNL     1      35.086  53.390  58.362  1.00  0.00    -0.003 C 
ATOM     16  C   UNL     1      35.459  51.955  57.988  1.00  0.00     0.004 C 
ENDBRANCH  14  15
ENDBRANCH  13  14
ENDBRANCH  12  13
ENDBRANCH  11  12
ENDBRANCH  10  11
ENDBRANCH   1  10
TORSDOF 12
ENDMDL
MODEL 4
REMARK VINA RESULT:    -5.402      2.823      6.220
REMARK INTER + INTRA:         -10.025
REMARK INTER:                  -8.634
REMARK INTRA:                  -1.391
REMARK UNBOUND:                -0.834
REMARK SMILES CCCCCCCCCCCCCC(=O)[O-]
REMARK SMILES IDX 8 1 9 2 10 3 11 4 12 5 13 6 14 7 15 8 16 9 7 10 6 11 5 12
REMARK SMILES IDX 4 13 3 14 2 15 1 16
REMARK H PARENT
REMARK Flexibility Score: inf
ROOT
ATOM      1  C   UNL     1      41.024  58.535  58.484  1.00  0.00     0.000 C 
ENDROOT
BRANCH   1   2
ATOM      2  C   UNL     1      39.945  57.482  58.777  1.00  0.00     0.000 C 
BRANCH   2   3
ATOM      3  C   UNL     1      39.729  57.246  60.284  1.00  0.00     0.000 C 
BRANCH   3   4
ATOM      4  C   UNL     1      38.392  56.580  60.654  1.00  0.00     0.000 C 
BRANCH   4   5
ATOM      5  C   UNL     1      37.476  56.358  59.438  1.00  0.00     0.006 C 
BRANCH   5   6
ATOM      6  C   UNL     1      36.171  55.645  59.818  1.00  0.00     0.053 C 
BRANCH   6   7
ATOM      7  C   UNL     1      36.210  54.189  59.462  1.00  0.00     0.041 C 
ATOM      8  O   UNL     1      36.999  53.411  60.060  1.00  0.00    -0.550 OA
ATOM      9  O   UNL     1      35.354  53.689  58.490  1.00  0.00    -0.550 OA
ENDBRANCH   6   7
ENDBRANCH   5   6
ENDBRANCH   4   5
ENDBRANCH   3   4
ENDBRANCH   2   3
ENDBRANCH   1   2
BRANCH   1  10
ATOM     10  C   UNL     1      42.333  57.869  58.034  1.00  0.00     0.000 C 
BRANCH  10  11
ATOM     11  C   UNL     1      43.460  57.998  59.075  1.00  0.00    -0.000 C 
BRANCH  11  12
ATOM     12  C   UNL     1      43.588  56.811  60.046  1.00  0.00    -0.000 C 
BRANCH  12  13
ATOM     13  C   UNL     1      43.010  55.506  59.477  1.00  0.00    -0.000 C 
BRANCH  13  14
ATOM     14  C   UNL     1      42.399  54.644  60.592  1.00  0.00    -0.000 C 
BRANCH  14  15
ATOM     15  C   UNL     1      41.037  54.052  60.201  1.00  0.00    -0.003 C 
ATOM     16  C   UNL     1      40.173  53.705  61.413  1.00  0.00     0.004 C 
ENDBRANCH  14  15
ENDBRANCH  13  14
ENDBRANCH  12  13
ENDBRANCH  11  12
ENDBRANCH  10  11
ENDBRANCH   1  10
TORSDOF 12
ENDMDL
MODEL 5
REMARK VINA RESULT:    -5.382      1.286      3.101
REMARK INTER + INTRA:          -9.991
REMARK INTER:                  -9.244
REMARK INTRA:                  -0.747
REMARK UNBOUND:                -0.834
REMARK SMILES CCCCCCCCCCCCCC(=O)[O-]
REMARK SMILES IDX 8 1 9 2 10 3 11 4 12 5 13 6 14 7 15 8 16 9 7 10 6 11 5 12
REMARK SMILES IDX 4 13 3 14 2 15 1 16
REMARK H PARENT
REMARK Flexibility Score: inf
ROOT
ATOM      1  C   UNL     1      36.841  55.537  59.588  1.00  0.00     0.000 C 
ENDROOT
BRANCH   1   2
ATOM      2  C   UNL     1      38.245  55.536  60.209  1.00  0.00     0.000 C 
BRANCH   2   3
ATOM      3  C   UNL     1      38.713  54.133  60.638  1.00  0.00     0.000 C 
BRANCH   3   4
ATOM      4  C   UNL     1      40.176  54.050  61.111  1.00  0.00     0.000 C 
BRANCH   4   5
ATOM      5  C   UNL     1      41.187  54.265  59.971  1.00  0.00     0.006 C 
BRANCH   5   6
ATOM      6  C   UNL     1      42.237  55.327  60.322  1.00  0.00     0.053 C 
BRANCH   6   7
ATOM      7  C   UNL     1      41.991  56.614  59.594  1.00  0.00     0.041 C 
ATOM      8  O   UNL     1      42.533  56.823  58.476  1.00  0.00    -0.550 OA
ATOM      9  O   UNL     1      41.142  57.568  60.137  1.00  0.00    -0.550 OA
ENDBRANCH   6   7
ENDBRANCH   5   6
ENDBRANCH   4   5
ENDBRANCH   3   4
ENDBRANCH   2   3
ENDBRANCH   1   2
BRANCH   1  10
ATOM     10  C   UNL     1      36.232  54.126  59.609  1.00  0.00     0.000 C 
BRANCH  10  11
ATOM     11  C   UNL     1      35.728  53.670  58.228  1.00  0.00    -0.000 C 
BRANCH  11  12
ATOM     12  C   UNL     1      34.363  52.960  58.236  1.00  0.00    -0.000 C 
BRANCH  12  13
ATOM     13  C   UNL     1      34.478  51.436  58.075  1.00  0.00    -0.000 C 
BRANCH  13  14
ATOM     14  C   UNL     1      35.843  51.048  57.487  1.00  0.00    -0.000 C 
BRANCH  14  15
ATOM     15  C   UNL     1      35.863  49.615  56.937  1.00  0.00    -0.003 C 
ATOM     16  C   UNL     1      34.491  48.943  56.986  1.00  0.00     0.004 C 
ENDBRANCH  14  15
ENDBRANCH  13  14
ENDBRANCH  12  13
ENDBRANCH  11  12
ENDBRANCH  10  11
ENDBRANCH   1  10
TORSDOF 12
ENDMDL
MODEL 6
REMARK VINA RESULT:    -5.340      1.963      3.707
REMARK INTER + INTRA:          -9.920
REMARK INTER:                  -8.857
REMARK INTRA:                  -1.063
REMARK UNBOUND:                -0.834
REMARK SMILES CCCCCCCCCCCCCC(=O)[O-]
REMARK SMILES IDX 8 1 9 2 10 3 11 4 12 5 13 6 14 7 15 8 16 9 7 10 6 11 5 12
REMARK SMILES IDX 4 13 3 14 2 15 1 16
REMARK H PARENT
REMARK Flexibility Score: inf
ROOT
ATOM      1  C   UNL     1      42.940  54.882  60.578  1.00  0.00     0.000 C 
ENDROOT
BRANCH   1   2
ATOM      2  C   UNL     1      43.267  56.326  60.172  1.00  0.00     0.000 C 
BRANCH   2   3
ATOM      3  C   UNL     1      42.389  56.839  59.015  1.00  0.00     0.000 C 
BRANCH   3   4
ATOM      4  C   UNL     1      41.787  58.241  59.225  1.00  0.00     0.000 C 
BRANCH   4   5
ATOM      5  C   UNL     1      41.073  58.780  57.974  1.00  0.00     0.006 C 
BRANCH   5   6
ATOM      6  C   UNL     1      41.742  60.048  57.426  1.00  0.00     0.053 C 
BRANCH   6   7
ATOM      7  C   UNL     1      40.734  61.028  56.908  1.00  0.00     0.041 C 
ATOM      8  O   UNL     1      40.102  60.786  55.846  1.00  0.00    -0.550 OA
ATOM      9  O   UNL     1      40.474  62.196  57.612  1.00  0.00    -0.550 OA
ENDBRANCH   6   7
ENDBRANCH   5   6
ENDBRANCH   4   5
ENDBRANCH   3   4
ENDBRANCH   2   3
ENDBRANCH   1   2
BRANCH   1  10
ATOM     10  C   UNL     1      41.661  54.393  59.881  1.00  0.00     0.000 C 
BRANCH  10  11
ATOM     11  C   UNL     1      40.590  53.899  60.871  1.00  0.00    -0.000 C 
BRANCH  11  12
ATOM     12  C   UNL     1      39.177  54.464  60.635  1.00  0.00    -0.000 C 
BRANCH  12  13
ATOM     13  C   UNL     1      39.164  55.991  60.458  1.00  0.00    -0.000 C 
BRANCH  13  14
ATOM     14  C   UNL     1      37.776  56.480  60.020  1.00  0.00    -0.000 C 
BRANCH  14  15
ATOM     15  C   UNL     1      36.795  55.326  59.769  1.00  0.00    -0.003 C 
ATOM     16  C   UNL     1      35.887  55.572  58.564  1.00  0.00     0.004 C 
ENDBRANCH  14  15
ENDBRANCH  13  14
ENDBRANCH  12  13
ENDBRANCH  11  12
ENDBRANCH  10  11
ENDBRANCH   1  10
TORSDOF 12
ENDMDL
MODEL 7
REMARK VINA RESULT:    -5.328      3.211      6.868
REMARK INTER + INTRA:          -9.900
REMARK INTER:                  -8.919
REMARK INTRA:                  -0.981
REMARK UNBOUND:                -0.834
REMARK SMILES CCCCCCCCCCCCCC(=O)[O-]
REMARK SMILES IDX 8 1 9 2 10 3 11 4 12 5 13 6 14 7 15 8 16 9 7 10 6 11 5 12
REMARK SMILES IDX 4 13 3 14 2 15 1 16
REMARK H PARENT
REMARK Flexibility Score: inf
ROOT
ATOM      1  C   UNL     1      40.374  53.752  61.004  1.00  0.00     0.000 C 
ENDROOT
BRANCH   1   2
ATOM      2  C   UNL     1      38.969  54.280  61.330  1.00  0.00     0.000 C 
BRANCH   2   3
ATOM      3  C   UNL     1      38.645  55.607  60.619  1.00  0.00     0.000 C 
BRANCH   3   4
ATOM      4  C   UNL     1      37.359  55.597  59.772  1.00  0.00     0.000 C 
BRANCH   4   5
ATOM      5  C   UNL     1      36.766  54.188  59.601  1.00  0.00     0.006 C 
BRANCH   5   6
ATOM      6  C   UNL     1      35.523  54.189  58.701  1.00  0.00     0.053 C 
BRANCH   6   7
ATOM      7  C   UNL     1      35.106  52.798  58.328  1.00  0.00     0.041 C 
ATOM      8  O   UNL     1      35.917  51.841  58.441  1.00  0.00    -0.550 OA
ATOM      9  O   UNL     1      33.814  52.556  57.882  1.00  0.00    -0.550 OA
ENDBRANCH   6   7
ENDBRANCH   5   6
ENDBRANCH   4   5
ENDBRANCH   3   4
ENDBRANCH   2   3
ENDBRANCH   1   2
BRANCH   1  10
ATOM     10  C   UNL     1      41.165  54.776  60.177  1.00  0.00     0.000 C 
BRANCH  10  11
ATOM     11  C   UNL     1      42.644  54.871  60.596  1.00  0.00    -0.000 C 
BRANCH  11  12
ATOM     12  C   UNL     1      43.406  56.080  60.022  1.00  0.00    -0.000 C 
BRANCH  12  13
ATOM     13  C   UNL     1      42.758  56.648  58.750  1.00  0.00    -0.000 C 
BRANCH  13  14
ATOM     14  C   UNL     1      42.841  58.182  58.730  1.00  0.00    -0.000 C 
BRANCH  14  15
ATOM     15  C   UNL     1      41.648  58.828  58.011  1.00  0.00    -0.003 C 
ATOM     16  C   UNL     1      40.318  58.153  58.346  1.00  0.00     0.004 C 
ENDBRANCH  14  15
ENDBRANCH  13  14
ENDBRANCH  12  13
ENDBRANCH  11  12
ENDBRANCH  10  11
ENDBRANCH   1  10
TORSDOF 12
ENDMDL
MODEL 8
REMARK VINA RESULT:    -5.271      1.319      2.784
REMARK INTER + INTRA:          -9.803
REMARK INTER:                  -8.567
REMARK INTRA:                  -1.236
REMARK UNBOUND:                -0.834
REMARK SMILES CCCCCCCCCCCCCC(=O)[O-]
REMARK SMILES IDX 8 1 9 2 10 3 11 4 12 5 13 6 14 7 15 8 16 9 7 10 6 11 5 12
REMARK SMILES IDX 4 13 3 14 2 15 1 16
REMARK H PARENT
REMARK Flexibility Score: inf
ROOT
ATOM      1  C   UNL     1      41.663  54.361  59.832  1.00  0.00     0.000 C 
ENDROOT
BRANCH   1   2
ATOM      2  C   UNL     1      42.930  54.806  60.576  1.00  0.00     0.000 C 
BRANCH   2   3
ATOM      3  C   UNL     1      43.410  56.208  60.160  1.00  0.00     0.000 C 
BRANCH   3   4
ATOM      4  C   UNL     1      42.978  56.654  58.751  1.00  0.00     0.000 C 
BRANCH   4   5
ATOM      5  C   UNL     1      42.056  57.885  58.768  1.00  0.00     0.006 C 
BRANCH   5   6
ATOM      6  C   UNL     1      42.429  58.872  59.882  1.00  0.00     0.053 C 
BRANCH   6   7
ATOM      7  C   UNL     1      43.527  59.799  59.459  1.00  0.00     0.041 C 
ATOM      8  O   UNL     1      43.672  60.098  58.244  1.00  0.00    -0.550 OA
ATOM      9  O   UNL     1      44.374  60.354  60.409  1.00  0.00    -0.550 OA
ENDBRANCH   6   7
ENDBRANCH   5   6
ENDBRANCH   4   5
ENDBRANCH   3   4
ENDBRANCH   2   3
ENDBRANCH   1   2
BRANCH   1  10
ATOM     10  C   UNL     1      40.553  53.975  60.821  1.00  0.00     0.000 C 
BRANCH  10  11
ATOM     11  C   UNL     1      39.213  54.673  60.521  1.00  0.00    -0.000 C 
BRANCH  11  12
ATOM     12  C   UNL     1      39.289  56.206  60.412  1.00  0.00    -0.000 C 
BRANCH  12  13
ATOM     13  C   UNL     1      38.134  56.807  59.595  1.00  0.00    -0.000 C 
BRANCH  13  14
ATOM     14  C   UNL     1      36.794  56.168  59.988  1.00  0.00    -0.000 C 
BRANCH  14  15
ATOM     15  C   UNL     1      36.027  55.614  58.778  1.00  0.00    -0.003 C 
ATOM     16  C   UNL     1      35.761  54.113  58.883  1.00  0.00     0.004 C 
ENDBRANCH  14  15
ENDBRANCH  13  14
ENDBRANCH  12  13
ENDBRANCH  11  12
ENDBRANCH  10  11
ENDBRANCH   1  10
TORSDOF 12
ENDMDL
MODEL 9
REMARK VINA RESULT:    -5.135      2.121      3.650
REMARK INTER + INTRA:          -9.571
REMARK INTER:                  -8.435
REMARK INTRA:                  -1.136
REMARK UNBOUND:                -0.834
REMARK SMILES CCCCCCCCCCCCCC(=O)[O-]
REMARK SMILES IDX 8 1 9 2 10 3 11 4 12 5 13 6 14 7 15 8 16 9 7 10 6 11 5 12
REMARK SMILES IDX 4 13 3 14 2 15 1 16
REMARK H PARENT
REMARK Flexibility Score: inf
ROOT
ATOM      1  C   UNL     1      42.685  54.862  60.581  1.00  0.00     0.000 C 
ENDROOT
BRANCH   1   2
ATOM      2  C   UNL     1      42.886  56.333  60.188  1.00  0.00     0.000 C 
BRANCH   2   3
ATOM      3  C   UNL     1      42.476  56.628  58.733  1.00  0.00     0.000 C 
BRANCH   3   4
ATOM      4  C   UNL     1      42.805  58.049  58.239  1.00  0.00     0.000 C 
BRANCH   4   5
ATOM      5  C   UNL     1      43.360  58.957  59.350  1.00  0.00     0.006 C 
BRANCH   5   6
ATOM      6  C   UNL     1      44.734  59.537  58.992  1.00  0.00     0.053 C 
BRANCH   6   7
ATOM      7  C   UNL     1      45.772  58.464  58.857  1.00  0.00     0.041 C 
ATOM      8  O   UNL     1      46.047  57.721  59.835  1.00  0.00    -0.550 OA
ATOM      9  O   UNL     1      46.415  58.268  57.641  1.00  0.00    -0.550 OA
ENDBRANCH   6   7
ENDBRANCH   5   6
ENDBRANCH   4   5
ENDBRANCH   3   4
ENDBRANCH   2   3
ENDBRANCH   1   2
BRANCH   1  10
ATOM     10  C   UNL     1      41.396  54.301  59.961  1.00  0.00     0.000 C 
BRANCH  10  11
ATOM     11  C   UNL     1      40.354  53.887  61.016  1.00  0.00    -0.000 C 
BRANCH  11  12
ATOM     12  C   UNL     1      39.000  54.612  60.912  1.00  0.00    -0.000 C 
BRANCH  12  13
ATOM     13  C   UNL     1      39.141  56.090  60.513  1.00  0.00    -0.000 C 
BRANCH  13  14
ATOM     14  C   UNL     1      37.944  56.545  59.664  1.00  0.00    -0.000 C 
BRANCH  14  15
ATOM     15  C   UNL     1      36.730  55.616  59.809  1.00  0.00    -0.003 C 
ATOM     16  C   UNL     1      35.855  55.585  58.556  1.00  0.00     0.004 C 
ENDBRANCH  14  15
ENDBRANCH  13  14
ENDBRANCH  12  13
ENDBRANCH  11  12
ENDBRANCH  10  11
ENDBRANCH   1  10
TORSDOF 12
ENDMDL
