MODEL 1
REMARK VINA RESULT:    -7.533      0.000      0.000
REMARK INTER + INTRA:          -9.125
REMARK INTER:                  -8.854
REMARK INTRA:                  -0.271
REMARK UNBOUND:                -0.271
REMARK SMILES O=c1cc(-c2ccc(O)c(O)c2)oc2cc(O)cc(O)c12
REMARK SMILES IDX 4 1 3 2 2 3 1 4 21 5 19 6 18 7 16 8 15 9 14 10 13 11 5 12
REMARK SMILES IDX 6 13 7 14 8 15 12 16 10 17 9 18 11 20 20 22 17 24
REMARK H PARENT 9 19 11 21 20 23 17 25
REMARK Flexibility Score: inf
ROOT
ATOM      1  C   UNL     1      10.651  39.233  22.647  1.00  0.00     0.138 A 
ATOM      2  C   UNL     1       9.591  38.707  23.398  1.00  0.00     0.100 A 
ATOM      3  C   UNL     1       9.852  38.079  24.617  1.00  0.00     0.197 A 
ATOM      4  O   UNL     1       8.875  37.673  25.296  1.00  0.00    -0.289 OA
ATOM      5  C   UNL     1      11.186  37.951  25.070  1.00  0.00     0.107 A 
ATOM      6  C   UNL     1      11.575  37.296  26.276  1.00  0.00     0.134 A 
ATOM      7  C   UNL     1      12.915  37.332  26.680  1.00  0.00     0.093 A 
ATOM      8  C   UNL     1      13.890  37.949  25.891  1.00  0.00     0.123 A 
ATOM      9  C   UNL     1      13.528  38.545  24.686  1.00  0.00     0.094 A 
ATOM     10  C   UNL     1      12.194  38.556  24.272  1.00  0.00     0.146 A 
ATOM     11  O   UNL     1      11.890  39.148  23.122  1.00  0.00    -0.456 OA
ENDROOT
BRANCH   1  12
ATOM     12  C   UNL     1      10.430  39.910  21.345  1.00  0.00     0.021 A 
ATOM     13  C   UNL     1       9.920  41.220  21.268  1.00  0.00     0.016 A 
ATOM     14  C   UNL     1       9.712  41.829  20.028  1.00  0.00     0.051 A 
ATOM     15  C   UNL     1      10.001  41.144  18.845  1.00  0.00     0.157 A 
ATOM     16  C   UNL     1      10.707  39.221  20.150  1.00  0.00     0.062 A 
ATOM     17  C   UNL     1      10.500  39.832  18.905  1.00  0.00     0.158 A 
BRANCH  15  18
ATOM     18  O   UNL     1       9.785  41.779  17.624  1.00  0.00    -0.504 OA
ATOM     19  H   UNL     1      10.518  41.875  16.930  1.00  0.00     0.293 HD
ENDBRANCH  15  18
BRANCH  17  20
ATOM     20  O   UNL     1      10.787  39.140  17.729  1.00  0.00    -0.504 OA
ATOM     21  H   UNL     1      10.255  38.325  17.450  1.00  0.00     0.293 HD
ENDBRANCH  17  20
ENDBRANCH   1  12
BRANCH   6  22
ATOM     22  O   UNL     1      10.697  36.578  27.093  1.00  0.00    -0.507 OA
ATOM     23  H   UNL     1      10.928  36.201  27.999  1.00  0.00     0.293 HD
ENDBRANCH   6  22
BRANCH   8  24
ATOM     24  O   UNL     1      15.223  37.968  26.295  1.00  0.00    -0.508 OA
ATOM     25  H   UNL     1      15.675  38.824  26.593  1.00  0.00     0.293 HD
ENDBRANCH   8  24
TORSDOF 5
ENDMDL
MODEL 2
REMARK VINA RESULT:    -7.405      4.834      7.107
REMARK INTER + INTRA:          -8.975
REMARK INTER:                  -8.659
REMARK INTRA:                  -0.316
REMARK UNBOUND:                -0.271
REMARK SMILES O=c1cc(-c2ccc(O)c(O)c2)oc2cc(O)cc(O)c12
REMARK SMILES IDX 4 1 3 2 2 3 1 4 21 5 19 6 18 7 16 8 15 9 14 10 13 11 5 12
REMARK SMILES IDX 6 13 7 14 8 15 12 16 10 17 9 18 11 20 20 22 17 24
REMARK H PARENT 9 19 11 21 20 23 17 25
REMARK Flexibility Score: inf
ROOT
ATOM      1  C   UNL     1      13.013  43.448  21.163  1.00  0.00     0.138 A 
ATOM      2  C   UNL     1      11.814  43.808  20.533  1.00  0.00     0.100 A 
ATOM      3  C   UNL     1      10.993  42.817  19.990  1.00  0.00     0.197 A 
ATOM      4  O   UNL     1       9.895  43.166  19.488  1.00  0.00    -0.289 OA
ATOM      5  C   UNL     1      11.394  41.462  20.053  1.00  0.00     0.107 A 
ATOM      6  C   UNL     1      10.659  40.371  19.499  1.00  0.00     0.134 A 
ATOM      7  C   UNL     1      11.096  39.060  19.724  1.00  0.00     0.093 A 
ATOM      8  C   UNL     1      12.273  38.803  20.430  1.00  0.00     0.123 A 
ATOM      9  C   UNL     1      13.026  39.863  20.929  1.00  0.00     0.094 A 
ATOM     10  C   UNL     1      12.599  41.181  20.752  1.00  0.00     0.146 A 
ATOM     11  O   UNL     1      13.339  42.163  21.256  1.00  0.00    -0.456 OA
ENDROOT
BRANCH   1  12
ATOM     12  C   UNL     1      13.922  44.461  21.755  1.00  0.00     0.021 A 
ATOM     13  C   UNL     1      13.529  45.803  21.919  1.00  0.00     0.016 A 
ATOM     14  C   UNL     1      14.409  46.738  22.470  1.00  0.00     0.051 A 
ATOM     15  C   UNL     1      15.695  46.356  22.859  1.00  0.00     0.157 A 
ATOM     16  C   UNL     1      15.223  44.086  22.136  1.00  0.00     0.062 A 
ATOM     17  C   UNL     1      16.107  45.023  22.691  1.00  0.00     0.158 A 
BRANCH  15  18
ATOM     18  O   UNL     1      16.550  47.310  23.407  1.00  0.00    -0.504 OA
ATOM     19  H   UNL     1      17.121  47.117  24.222  1.00  0.00     0.293 HD
ENDBRANCH  15  18
BRANCH  17  20
ATOM     20  O   UNL     1      17.390  44.635  23.073  1.00  0.00    -0.504 OA
ATOM     21  H   UNL     1      17.981  44.083  22.463  1.00  0.00     0.293 HD
ENDBRANCH  17  20
ENDBRANCH   1  12
BRANCH   6  22
ATOM     22  O   UNL     1       9.518  40.521  18.706  1.00  0.00    -0.507 OA
ATOM     23  H   UNL     1       9.387  40.104  17.797  1.00  0.00     0.293 HD
ENDBRANCH   6  22
BRANCH   8  24
ATOM     24  O   UNL     1      12.707  37.495  20.636  1.00  0.00    -0.508 OA
ATOM     25  H   UNL     1      12.783  36.836  19.871  1.00  0.00     0.293 HD
ENDBRANCH   8  24
TORSDOF 5
ENDMDL
MODEL 3
REMARK VINA RESULT:    -7.377      2.213      7.205
REMARK INTER + INTRA:          -8.941
REMARK INTER:                  -8.674
REMARK INTRA:                  -0.267
REMARK UNBOUND:                -0.271
REMARK SMILES O=c1cc(-c2ccc(O)c(O)c2)oc2cc(O)cc(O)c12
REMARK SMILES IDX 4 1 3 2 2 3 1 4 21 5 19 6 18 7 16 8 15 9 14 10 13 11 5 12
REMARK SMILES IDX 6 13 7 14 8 15 12 16 10 17 9 18 11 20 20 22 17 24
REMARK H PARENT 9 19 11 21 20 23 17 25
REMARK Flexibility Score: inf
ROOT
ATOM      1  C   UNL     1      10.518  38.855  22.730  1.00  0.00     0.138 A 
ATOM      2  C   UNL     1      11.622  38.296  22.073  1.00  0.00     0.100 A 
ATOM      3  C   UNL     1      11.977  38.756  20.804  1.00  0.00     0.197 A 
ATOM      4  O   UNL     1      13.009  38.280  20.267  1.00  0.00    -0.289 OA
ATOM      5  C   UNL     1      11.200  39.760  20.178  1.00  0.00     0.107 A 
ATOM      6  C   UNL     1      11.443  40.278  18.871  1.00  0.00     0.134 A 
ATOM      7  C   UNL     1      10.678  41.353  18.401  1.00  0.00     0.093 A 
ATOM      8  C   UNL     1       9.640  41.889  19.168  1.00  0.00     0.123 A 
ATOM      9  C   UNL     1       9.361  41.355  20.424  1.00  0.00     0.094 A 
ATOM     10  C   UNL     1      10.128  40.306  20.935  1.00  0.00     0.146 A 
ATOM     11  O   UNL     1       9.838  39.835  22.143  1.00  0.00    -0.456 OA
ENDROOT
BRANCH   1  12
ATOM     12  C   UNL     1      10.096  38.402  24.080  1.00  0.00     0.021 A 
ATOM     13  C   UNL     1       9.346  37.225  24.264  1.00  0.00     0.016 A 
ATOM     14  C   UNL     1       8.953  36.827  25.545  1.00  0.00     0.051 A 
ATOM     15  C   UNL     1       9.293  37.597  26.660  1.00  0.00     0.157 A 
ATOM     16  C   UNL     1      10.423  39.179  25.205  1.00  0.00     0.062 A 
ATOM     17  C   UNL     1      10.031  38.781  26.491  1.00  0.00     0.158 A 
BRANCH  15  18
ATOM     18  O   UNL     1       8.889  37.173  27.925  1.00  0.00    -0.504 OA
ATOM     19  H   UNL     1       8.916  36.198  28.201  1.00  0.00     0.293 HD
ENDBRANCH  15  18
BRANCH  17  20
ATOM     20  O   UNL     1      10.369  39.556  27.599  1.00  0.00    -0.504 OA
ATOM     21  H   UNL     1      10.726  40.498  27.498  1.00  0.00     0.293 HD
ENDBRANCH  17  20
ENDBRANCH   1  12
BRANCH   6  22
ATOM     22  O   UNL     1      12.397  39.760  17.990  1.00  0.00    -0.507 OA
ATOM     23  H   UNL     1      13.076  39.052  18.226  1.00  0.00     0.293 HD
ENDBRANCH   6  22
BRANCH   8  24
ATOM     24  O   UNL     1       8.875  42.948  18.686  1.00  0.00    -0.508 OA
ATOM     25  H   UNL     1       8.037  43.258  19.165  1.00  0.00     0.293 HD
ENDBRANCH   8  24
TORSDOF 5
ENDMDL
MODEL 4
REMARK VINA RESULT:    -7.362      2.262      6.636
REMARK INTER + INTRA:          -8.924
REMARK INTER:                  -8.642
REMARK INTRA:                  -0.282
REMARK UNBOUND:                -0.271
REMARK SMILES O=c1cc(-c2ccc(O)c(O)c2)oc2cc(O)cc(O)c12
REMARK SMILES IDX 4 1 3 2 2 3 1 4 21 5 19 6 18 7 16 8 15 9 14 10 13 11 5 12
REMARK SMILES IDX 6 13 7 14 8 15 12 16 10 17 9 18 11 20 20 22 17 24
REMARK H PARENT 9 19 11 21 20 23 17 25
REMARK Flexibility Score: inf
ROOT
ATOM      1  C   UNL     1      10.335  39.089  22.718  1.00  0.00     0.138 A 
ATOM      2  C   UNL     1       9.372  39.313  21.725  1.00  0.00     0.100 A 
ATOM      3  C   UNL     1       9.750  39.892  20.513  1.00  0.00     0.197 A 
ATOM      4  O   UNL     1       8.876  40.023  19.619  1.00  0.00    -0.289 OA
ATOM      5  C   UNL     1      11.097  40.276  20.308  1.00  0.00     0.107 A 
ATOM      6  C   UNL     1      11.590  40.911  19.129  1.00  0.00     0.134 A 
ATOM      7  C   UNL     1      12.964  41.140  18.992  1.00  0.00     0.093 A 
ATOM      8  C   UNL     1      13.856  40.812  20.016  1.00  0.00     0.123 A 
ATOM      9  C   UNL     1      13.377  40.240  21.193  1.00  0.00     0.094 A 
ATOM     10  C   UNL     1      12.016  39.967  21.347  1.00  0.00     0.146 A 
ATOM     11  O   UNL     1      11.603  39.409  22.479  1.00  0.00    -0.456 OA
ENDROOT
BRANCH   1  12
ATOM     12  C   UNL     1       9.987  38.478  24.025  1.00  0.00     0.021 A 
ATOM     13  C   UNL     1       9.315  37.243  24.110  1.00  0.00     0.016 A 
ATOM     14  C   UNL     1       8.991  36.695  25.353  1.00  0.00     0.051 A 
ATOM     15  C   UNL     1       9.322  37.369  26.532  1.00  0.00     0.157 A 
ATOM     16  C   UNL     1      10.306  39.157  25.215  1.00  0.00     0.062 A 
ATOM     17  C   UNL     1       9.982  38.608  26.464  1.00  0.00     0.158 A 
BRANCH  15  18
ATOM     18  O   UNL     1       8.987  36.797  27.758  1.00  0.00    -0.504 OA
ATOM     19  H   UNL     1       8.734  37.358  28.563  1.00  0.00     0.293 HD
ENDBRANCH  15  18
BRANCH  17  20
ATOM     20  O   UNL     1      10.311  39.288  27.635  1.00  0.00    -0.504 OA
ATOM     21  H   UNL     1      10.961  38.900  28.309  1.00  0.00     0.293 HD
ENDBRANCH  17  20
ENDBRANCH   1  12
BRANCH   6  22
ATOM     22  O   UNL     1      10.776  41.356  18.084  1.00  0.00    -0.507 OA
ATOM     23  H   UNL     1       9.937  41.906  18.198  1.00  0.00     0.293 HD
ENDBRANCH   6  22
BRANCH   8  24
ATOM     24  O   UNL     1      15.220  41.057  19.876  1.00  0.00    -0.508 OA
ATOM     25  H   UNL     1      15.638  41.924  20.191  1.00  0.00     0.293 HD
ENDBRANCH   8  24
TORSDOF 5
ENDMDL
MODEL 5
REMARK VINA RESULT:    -7.077      5.765      7.185
REMARK INTER + INTRA:          -8.589
REMARK INTER:                  -8.271
REMARK INTRA:                  -0.318
REMARK UNBOUND:                -0.271
REMARK SMILES O=c1cc(-c2ccc(O)c(O)c2)oc2cc(O)cc(O)c12
REMARK SMILES IDX 4 1 3 2 2 3 1 4 21 5 19 6 18 7 16 8 15 9 14 10 13 11 5 12
REMARK SMILES IDX 6 13 7 14 8 15 12 16 10 17 9 18 11 20 20 22 17 24
REMARK H PARENT 9 19 11 21 20 23 17 25
REMARK Flexibility Score: inf
ROOT
ATOM      1  C   UNL     1      13.323  43.625  21.255  1.00  0.00     0.138 A 
ATOM      2  C   UNL     1      12.684  44.865  21.392  1.00  0.00     0.100 A 
ATOM      3  C   UNL     1      13.383  45.947  21.928  1.00  0.00     0.197 A 
ATOM      4  O   UNL     1      12.803  47.061  21.980  1.00  0.00    -0.289 OA
ATOM      5  C   UNL     1      14.720  45.776  22.359  1.00  0.00     0.107 A 
ATOM      6  C   UNL     1      15.518  46.797  22.957  1.00  0.00     0.134 A 
ATOM      7  C   UNL     1      16.867  46.543  23.237  1.00  0.00     0.093 A 
ATOM      8  C   UNL     1      17.430  45.288  22.995  1.00  0.00     0.123 A 
ATOM      9  C   UNL     1      16.645  44.269  22.460  1.00  0.00     0.094 A 
ATOM     10  C   UNL     1      15.306  44.500  22.138  1.00  0.00     0.146 A 
ATOM     11  O   UNL     1      14.596  43.505  21.616  1.00  0.00    -0.456 OA
ENDROOT
BRANCH   1  12
ATOM     12  C   UNL     1      12.626  42.441  20.692  1.00  0.00     0.021 A 
ATOM     13  C   UNL     1      11.315  42.527  20.184  1.00  0.00     0.016 A 
ATOM     14  C   UNL     1      10.678  41.394  19.669  1.00  0.00     0.051 A 
ATOM     15  C   UNL     1      11.331  40.159  19.658  1.00  0.00     0.157 A 
ATOM     16  C   UNL     1      13.271  41.192  20.691  1.00  0.00     0.062 A 
ATOM     17  C   UNL     1      12.634  40.055  20.173  1.00  0.00     0.158 A 
BRANCH  15  18
ATOM     18  O   UNL     1      10.671  39.048  19.137  1.00  0.00    -0.504 OA
ATOM     19  H   UNL     1       9.691  39.075  18.882  1.00  0.00     0.293 HD
ENDBRANCH  15  18
BRANCH  17  20
ATOM     20  O   UNL     1      13.290  38.825  20.170  1.00  0.00    -0.504 OA
ATOM     21  H   UNL     1      14.245  38.732  20.492  1.00  0.00     0.293 HD
ENDBRANCH  17  20
ENDBRANCH   1  12
BRANCH   6  22
ATOM     22  O   UNL     1      15.032  48.056  23.318  1.00  0.00    -0.507 OA
ATOM     23  H   UNL     1      15.316  48.928  22.897  1.00  0.00     0.293 HD
ENDBRANCH   6  22
BRANCH   8  24
ATOM     24  O   UNL     1      18.769  45.041  23.290  1.00  0.00    -0.508 OA
ATOM     25  H   UNL     1      19.396  44.634  22.606  1.00  0.00     0.293 HD
ENDBRANCH   8  24
TORSDOF 5
ENDMDL
MODEL 6
REMARK VINA RESULT:    -6.886      8.401     13.606
REMARK INTER + INTRA:          -8.365
REMARK INTER:                  -8.058
REMARK INTRA:                  -0.307
REMARK UNBOUND:                -0.271
REMARK SMILES O=c1cc(-c2ccc(O)c(O)c2)oc2cc(O)cc(O)c12
REMARK SMILES IDX 4 1 3 2 2 3 1 4 21 5 19 6 18 7 16 8 15 9 14 10 13 11 5 12
REMARK SMILES IDX 6 13 7 14 8 15 12 16 10 17 9 18 11 20 20 22 17 24
REMARK H PARENT 9 19 11 21 20 23 17 25
REMARK Flexibility Score: inf
ROOT
ATOM      1  C   UNL     1      14.493  30.565  31.036  1.00  0.00     0.138 A 
ATOM      2  C   UNL     1      14.519  29.695  29.938  1.00  0.00     0.100 A 
ATOM      3  C   UNL     1      13.915  30.077  28.739  1.00  0.00     0.197 A 
ATOM      4  O   UNL     1      14.009  29.302  27.753  1.00  0.00    -0.289 OA
ATOM      5  C   UNL     1      13.255  31.326  28.652  1.00  0.00     0.107 A 
ATOM      6  C   UNL     1      12.570  31.804  27.494  1.00  0.00     0.134 A 
ATOM      7  C   UNL     1      12.053  33.105  27.487  1.00  0.00     0.093 A 
ATOM      8  C   UNL     1      12.143  33.923  28.615  1.00  0.00     0.123 A 
ATOM      9  C   UNL     1      12.762  33.446  29.768  1.00  0.00     0.094 A 
ATOM     10  C   UNL     1      13.319  32.166  29.796  1.00  0.00     0.146 A 
ATOM     11  O   UNL     1      13.913  31.754  30.911  1.00  0.00    -0.456 OA
ENDROOT
BRANCH   1  12
ATOM     12  C   UNL     1      15.118  30.208  32.335  1.00  0.00     0.021 A 
ATOM     13  C   UNL     1      15.192  28.874  32.778  1.00  0.00     0.016 A 
ATOM     14  C   UNL     1      15.777  28.566  34.009  1.00  0.00     0.051 A 
ATOM     15  C   UNL     1      16.289  29.581  34.822  1.00  0.00     0.157 A 
ATOM     16  C   UNL     1      15.623  31.225  33.164  1.00  0.00     0.062 A 
ATOM     17  C   UNL     1      16.211  30.919  34.399  1.00  0.00     0.158 A 
BRANCH  15  18
ATOM     18  O   UNL     1      16.868  29.244  36.044  1.00  0.00    -0.504 OA
ATOM     19  H   UNL     1      16.545  29.637  36.920  1.00  0.00     0.293 HD
ENDBRANCH  15  18
BRANCH  17  20
ATOM     20  O   UNL     1      16.716  31.936  35.207  1.00  0.00    -0.504 OA
ATOM     21  H   UNL     1      16.182  32.775  35.400  1.00  0.00     0.293 HD
ENDBRANCH  17  20
ENDBRANCH   1  12
BRANCH   6  22
ATOM     22  O   UNL     1      12.350  31.038  26.346  1.00  0.00    -0.507 OA
ATOM     23  H   UNL     1      13.058  30.507  25.861  1.00  0.00     0.293 HD
ENDBRANCH   6  22
BRANCH   8  24
ATOM     24  O   UNL     1      11.612  35.211  28.603  1.00  0.00    -0.508 OA
ATOM     25  H   UNL     1      11.013  35.531  27.851  1.00  0.00     0.293 HD
ENDBRANCH   8  24
TORSDOF 5
ENDMDL
MODEL 7
REMARK VINA RESULT:    -6.792      5.017      7.764
REMARK INTER + INTRA:          -8.254
REMARK INTER:                  -7.963
REMARK INTRA:                  -0.291
REMARK UNBOUND:                -0.271
REMARK SMILES O=c1cc(-c2ccc(O)c(O)c2)oc2cc(O)cc(O)c12
REMARK SMILES IDX 4 1 3 2 2 3 1 4 21 5 19 6 18 7 16 8 15 9 14 10 13 11 5 12
REMARK SMILES IDX 6 13 7 14 8 15 12 16 10 17 9 18 11 20 20 22 17 24
REMARK H PARENT 9 19 11 21 20 23 17 25
REMARK Flexibility Score: inf
ROOT
ATOM      1  C   UNL     1      13.840  43.001  21.309  1.00  0.00     0.138 A 
ATOM      2  C   UNL     1      14.203  41.651  21.406  1.00  0.00     0.100 A 
ATOM      3  C   UNL     1      13.399  40.675  20.816  1.00  0.00     0.197 A 
ATOM      4  O   UNL     1      13.784  39.479  20.867  1.00  0.00    -0.289 OA
ATOM      5  C   UNL     1      12.208  41.052  20.153  1.00  0.00     0.107 A 
ATOM      6  C   UNL     1      11.290  40.141  19.550  1.00  0.00     0.134 A 
ATOM      7  C   UNL     1      10.203  40.638  18.821  1.00  0.00     0.093 A 
ATOM      8  C   UNL     1       9.968  42.011  18.723  1.00  0.00     0.123 A 
ATOM      9  C   UNL     1      10.828  42.907  19.353  1.00  0.00     0.094 A 
ATOM     10  C   UNL     1      11.941  42.445  20.059  1.00  0.00     0.146 A 
ATOM     11  O   UNL     1      12.745  43.333  20.634  1.00  0.00    -0.456 OA
ENDROOT
BRANCH   1  12
ATOM     12  C   UNL     1      14.658  44.080  21.918  1.00  0.00     0.021 A 
ATOM     13  C   UNL     1      14.142  45.375  22.119  1.00  0.00     0.016 A 
ATOM     14  C   UNL     1      14.937  46.375  22.685  1.00  0.00     0.051 A 
ATOM     15  C   UNL     1      16.258  46.105  23.054  1.00  0.00     0.157 A 
ATOM     16  C   UNL     1      15.992  43.819  22.279  1.00  0.00     0.062 A 
ATOM     17  C   UNL     1      16.790  44.821  22.849  1.00  0.00     0.158 A 
BRANCH  15  18
ATOM     18  O   UNL     1      17.026  47.122  23.618  1.00  0.00    -0.504 OA
ATOM     19  H   UNL     1      17.785  47.566  23.115  1.00  0.00     0.293 HD
ENDBRANCH  15  18
BRANCH  17  20
ATOM     20  O   UNL     1      18.108  44.546  23.210  1.00  0.00    -0.504 OA
ATOM     21  H   UNL     1      18.786  44.218  22.533  1.00  0.00     0.293 HD
ENDBRANCH  17  20
ENDBRANCH   1  12
BRANCH   6  22
ATOM     22  O   UNL     1      11.385  38.751  19.659  1.00  0.00    -0.507 OA
ATOM     23  H   UNL     1      10.879  38.090  19.089  1.00  0.00     0.293 HD
ENDBRANCH   6  22
BRANCH   8  24
ATOM     24  O   UNL     1       8.875  42.496  18.007  1.00  0.00    -0.508 OA
ATOM     25  H   UNL     1       8.898  42.582  16.998  1.00  0.00     0.293 HD
ENDBRANCH   8  24
TORSDOF 5
ENDMDL
MODEL 8
REMARK VINA RESULT:    -6.571      4.573      9.278
REMARK INTER + INTRA:          -7.994
REMARK INTER:                  -7.724
REMARK INTRA:                  -0.270
REMARK UNBOUND:                -0.271
REMARK SMILES O=c1cc(-c2ccc(O)c(O)c2)oc2cc(O)cc(O)c12
REMARK SMILES IDX 4 1 3 2 2 3 1 4 21 5 19 6 18 7 16 8 15 9 14 10 13 11 5 12
REMARK SMILES IDX 6 13 7 14 8 15 12 16 10 17 9 18 11 20 20 22 17 24
REMARK H PARENT 9 19 11 21 20 23 17 25
REMARK Flexibility Score: inf
ROOT
ATOM      1  C   UNL     1      12.524  34.512  28.043  1.00  0.00     0.138 A 
ATOM      2  C   UNL     1      11.150  34.752  28.177  1.00  0.00     0.100 A 
ATOM      3  C   UNL     1      10.600  35.928  27.665  1.00  0.00     0.197 A 
ATOM      4  O   UNL     1       9.355  36.084  27.745  1.00  0.00    -0.289 OA
ATOM      5  C   UNL     1      11.438  36.883  27.044  1.00  0.00     0.107 A 
ATOM      6  C   UNL     1      10.995  38.135  26.521  1.00  0.00     0.134 A 
ATOM      7  C   UNL     1      11.896  38.949  25.824  1.00  0.00     0.093 A 
ATOM      8  C   UNL     1      13.238  38.584  25.683  1.00  0.00     0.123 A 
ATOM      9  C   UNL     1      13.691  37.389  26.235  1.00  0.00     0.094 A 
ATOM     10  C   UNL     1      12.810  36.538  26.907  1.00  0.00     0.146 A 
ATOM     11  O   UNL     1      13.281  35.401  27.407  1.00  0.00    -0.456 OA
ENDROOT
BRANCH   1  12
ATOM     12  C   UNL     1      13.161  33.279  28.570  1.00  0.00     0.021 A 
ATOM     13  C   UNL     1      13.939  32.440  27.749  1.00  0.00     0.016 A 
ATOM     14  C   UNL     1      14.519  31.279  28.268  1.00  0.00     0.051 A 
ATOM     15  C   UNL     1      14.329  30.932  29.609  1.00  0.00     0.157 A 
ATOM     16  C   UNL     1      12.963  32.917  29.914  1.00  0.00     0.062 A 
ATOM     17  C   UNL     1      13.546  31.753  30.437  1.00  0.00     0.158 A 
BRANCH  15  18
ATOM     18  O   UNL     1      14.922  29.769  30.098  1.00  0.00    -0.504 OA
ATOM     19  H   UNL     1      15.512  29.182  29.521  1.00  0.00     0.293 HD
ENDBRANCH  15  18
BRANCH  17  20
ATOM     20  O   UNL     1      13.349  31.410  31.773  1.00  0.00    -0.504 OA
ATOM     21  H   UNL     1      14.103  31.050  32.346  1.00  0.00     0.293 HD
ENDBRANCH  17  20
ENDBRANCH   1  12
BRANCH   6  22
ATOM     22  O   UNL     1       9.699  38.633  26.681  1.00  0.00    -0.507 OA
ATOM     23  H   UNL     1       9.259  39.304  26.070  1.00  0.00     0.293 HD
ENDBRANCH   6  22
BRANCH   8  24
ATOM     24  O   UNL     1      14.130  39.408  25.000  1.00  0.00    -0.508 OA
ATOM     25  H   UNL     1      14.896  39.026  24.458  1.00  0.00     0.293 HD
ENDBRANCH   8  24
TORSDOF 5
ENDMDL
MODEL 9
REMARK VINA RESULT:    -6.515      9.370     13.889
REMARK INTER + INTRA:          -7.928
REMARK INTER:                  -7.636
REMARK INTRA:                  -0.292
REMARK UNBOUND:                -0.271
REMARK SMILES O=c1cc(-c2ccc(O)c(O)c2)oc2cc(O)cc(O)c12
REMARK SMILES IDX 4 1 3 2 2 3 1 4 21 5 19 6 18 7 16 8 15 9 14 10 13 11 5 12
REMARK SMILES IDX 6 13 7 14 8 15 12 16 10 17 9 18 11 20 20 22 17 24
REMARK H PARENT 9 19 11 21 20 23 17 25
REMARK Flexibility Score: inf
ROOT
ATOM      1  C   UNL     1      14.359  30.623  31.136  1.00  0.00     0.138 A 
ATOM      2  C   UNL     1      13.923  31.927  30.870  1.00  0.00     0.100 A 
ATOM      3  C   UNL     1      13.286  32.210  29.661  1.00  0.00     0.197 A 
ATOM      4  O   UNL     1      12.850  33.375  29.478  1.00  0.00    -0.289 OA
ATOM      5  C   UNL     1      13.112  31.184  28.702  1.00  0.00     0.107 A 
ATOM      6  C   UNL     1      12.512  31.364  27.419  1.00  0.00     0.134 A 
ATOM      7  C   UNL     1      12.290  30.252  26.599  1.00  0.00     0.093 A 
ATOM      8  C   UNL     1      12.699  28.974  26.990  1.00  0.00     0.123 A 
ATOM      9  C   UNL     1      13.333  28.797  28.218  1.00  0.00     0.094 A 
ATOM     10  C   UNL     1      13.539  29.881  29.073  1.00  0.00     0.146 A 
ATOM     11  O   UNL     1      14.135  29.666  30.241  1.00  0.00    -0.456 OA
ENDROOT
BRANCH   1  12
ATOM     12  C   UNL     1      15.044  30.267  32.405  1.00  0.00     0.021 A 
ATOM     13  C   UNL     1      15.202  28.928  32.810  1.00  0.00     0.016 A 
ATOM     14  C   UNL     1      15.842  28.622  34.014  1.00  0.00     0.051 A 
ATOM     15  C   UNL     1      16.327  29.642  34.837  1.00  0.00     0.157 A 
ATOM     16  C   UNL     1      15.522  31.289  33.244  1.00  0.00     0.062 A 
ATOM     17  C   UNL     1      16.165  30.984  34.452  1.00  0.00     0.158 A 
BRANCH  15  18
ATOM     18  O   UNL     1      16.962  29.306  36.031  1.00  0.00    -0.504 OA
ATOM     19  H   UNL     1      17.233  28.353  36.247  1.00  0.00     0.293 HD
ENDBRANCH  15  18
BRANCH  17  20
ATOM     20  O   UNL     1      16.642  32.006  35.270  1.00  0.00    -0.504 OA
ATOM     21  H   UNL     1      17.558  31.959  35.700  1.00  0.00     0.293 HD
ENDBRANCH  17  20
ENDBRANCH   1  12
BRANCH   6  22
ATOM     22  O   UNL     1      12.145  32.608  26.897  1.00  0.00    -0.507 OA
ATOM     23  H   UNL     1      12.724  33.434  26.910  1.00  0.00     0.293 HD
ENDBRANCH   6  22
BRANCH   8  24
ATOM     24  O   UNL     1      12.487  27.875  26.161  1.00  0.00    -0.508 OA
ATOM     25  H   UNL     1      11.695  27.257  26.293  1.00  0.00     0.293 HD
ENDBRANCH   8  24
TORSDOF 5
ENDMDL
