MODEL 1
REMARK VINA RESULT:    -4.027      0.000      0.000
REMARK INTER + INTRA:          -5.891
REMARK INTER:                  -5.439
REMARK INTRA:                  -0.452
REMARK UNBOUND:                -0.452
REMARK SMILES CCCCCCC=CC(=O)[O-]
REMARK SMILES IDX 5 1 6 2 7 3 8 4 9 5 10 6 11 7 4 8 3 9 2 10 1 11
REMARK H PARENT
REMARK Flexibility Score: inf
ROOT
ATOM      1  C   UNL     1       2.186   0.730   7.765  1.00  0.00     0.004 C 
ENDROOT
BRANCH   1   2
ATOM      2  C   UNL     1       1.294   1.979   7.721  1.00  0.00     0.027 C 
BRANCH   2   3
ATOM      3  C   UNL     1       0.382   1.950   6.527  1.00  0.00    -0.025 C 
ATOM      4  C   UNL     1      -0.687   2.747   6.449  1.00  0.00     0.020 C 
BRANCH   4   5
ATOM      5  C   UNL     1      -1.582   2.741   5.283  1.00  0.00     0.064 C 
ATOM      6  O   UNL     1      -1.213   3.291   4.212  1.00  0.00    -0.545 OA
ATOM      7  O   UNL     1      -2.833   2.138   5.343  1.00  0.00    -0.545 OA
ENDBRANCH   4   5
ENDBRANCH   2   3
ENDBRANCH   1   2
BRANCH   1   8
ATOM      8  C   UNL     1       3.243   0.710   6.647  1.00  0.00     0.000 C 
BRANCH   8   9
ATOM      9  C   UNL     1       4.663   1.123   7.084  1.00  0.00    -0.000 C 
BRANCH   9  10
ATOM     10  C   UNL     1       4.905   2.641   7.160  1.00  0.00    -0.003 C 
ATOM     11  C   UNL     1       4.342   3.394   5.954  1.00  0.00     0.004 C 
ENDBRANCH   9  10
ENDBRANCH   8   9
ENDBRANCH   1   8
TORSDOF 6
ENDMDL
MODEL 2
REMARK VINA RESULT:    -3.996      1.110      2.035
REMARK INTER + INTRA:          -5.849
REMARK INTER:                  -5.334
REMARK INTRA:                  -0.515
REMARK UNBOUND:                -0.452
REMARK SMILES CCCCCCC=CC(=O)[O-]
REMARK SMILES IDX 5 1 6 2 7 3 8 4 9 5 10 6 11 7 4 8 3 9 2 10 1 11
REMARK H PARENT
REMARK Flexibility Score: inf
ROOT
ATOM      1  C   UNL     1       2.796   2.760   7.333  1.00  0.00     0.004 C 
ENDROOT
BRANCH   1   2
ATOM      2  C   UNL     1       1.360   2.422   7.758  1.00  0.00     0.027 C 
BRANCH   2   3
ATOM      3  C   UNL     1       0.466   2.258   6.562  1.00  0.00    -0.025 C 
ATOM      4  C   UNL     1      -0.648   2.982   6.421  1.00  0.00     0.020 C 
BRANCH   4   5
ATOM      5  C   UNL     1      -1.527   2.843   5.250  1.00  0.00     0.064 C 
ATOM      6  O   UNL     1      -1.147   3.279   4.132  1.00  0.00    -0.545 OA
ATOM      7  O   UNL     1      -2.774   2.238   5.359  1.00  0.00    -0.545 OA
ENDBRANCH   4   5
ENDBRANCH   2   3
ENDBRANCH   1   2
BRANCH   1   8
ATOM      8  C   UNL     1       3.540   1.556   6.727  1.00  0.00     0.000 C 
BRANCH   8   9
ATOM      9  C   UNL     1       3.900   0.441   7.730  1.00  0.00    -0.000 C 
BRANCH   9  10
ATOM     10  C   UNL     1       3.190  -0.904   7.489  1.00  0.00    -0.003 C 
ATOM     11  C   UNL     1       2.319  -0.900   6.233  1.00  0.00     0.004 C 
ENDBRANCH   9  10
ENDBRANCH   8   9
ENDBRANCH   1   8
TORSDOF 6
ENDMDL
MODEL 3
REMARK VINA RESULT:    -3.957     13.224     14.449
REMARK INTER + INTRA:          -5.796
REMARK INTER:                  -5.070
REMARK INTRA:                  -0.726
REMARK UNBOUND:                -0.452
REMARK SMILES CCCCCCC=CC(=O)[O-]
REMARK SMILES IDX 5 1 6 2 7 3 8 4 9 5 10 6 11 7 4 8 3 9 2 10 1 11
REMARK H PARENT
REMARK Flexibility Score: inf
ROOT
ATOM      1  C   UNL     1      -4.847  -1.780  -7.320  1.00  0.00     0.004 C 
ENDROOT
BRANCH   1   2
ATOM      2  C   UNL     1      -5.815  -2.514  -6.380  1.00  0.00     0.027 C 
BRANCH   2   3
ATOM      3  C   UNL     1      -5.171  -3.733  -5.783  1.00  0.00    -0.025 C 
ATOM      4  C   UNL     1      -4.957  -3.833  -4.468  1.00  0.00     0.020 C 
BRANCH   4   5
ATOM      5  C   UNL     1      -4.340  -5.025  -3.866  1.00  0.00     0.064 C 
ATOM      6  O   UNL     1      -3.087  -5.145  -3.868  1.00  0.00    -0.545 OA
ATOM      7  O   UNL     1      -5.120  -6.024  -3.295  1.00  0.00    -0.545 OA
ENDBRANCH   4   5
ENDBRANCH   2   3
ENDBRANCH   1   2
BRANCH   1   8
ATOM      8  C   UNL     1      -4.429  -0.398  -6.787  1.00  0.00     0.000 C 
BRANCH   8   9
ATOM      9  C   UNL     1      -3.223  -0.408  -5.825  1.00  0.00    -0.000 C 
BRANCH   9  10
ATOM     10  C   UNL     1      -2.025  -1.251  -6.293  1.00  0.00    -0.003 C 
ATOM     11  C   UNL     1      -1.613  -2.315  -5.276  1.00  0.00     0.004 C 
ENDBRANCH   9  10
ENDBRANCH   8   9
ENDBRANCH   1   8
TORSDOF 6
ENDMDL
MODEL 4
REMARK VINA RESULT:    -3.898      3.102      5.481
REMARK INTER + INTRA:          -5.717
REMARK INTER:                  -5.326
REMARK INTRA:                  -0.391
REMARK UNBOUND:                -0.452
REMARK SMILES CCCCCCC=CC(=O)[O-]
REMARK SMILES IDX 5 1 6 2 7 3 8 4 9 5 10 6 11 7 4 8 3 9 2 10 1 11
REMARK H PARENT
REMARK Flexibility Score: inf
ROOT
ATOM      1  C   UNL     1       0.343   4.519   6.511  1.00  0.00     0.004 C 
ENDROOT
BRANCH   1   2
ATOM      2  C   UNL     1       0.421   3.228   7.339  1.00  0.00     0.027 C 
BRANCH   2   3
ATOM      3  C   UNL     1       1.591   2.384   6.918  1.00  0.00    -0.025 C 
ATOM      4  C   UNL     1       1.463   1.071   6.711  1.00  0.00     0.020 C 
BRANCH   4   5
ATOM      5  C   UNL     1       2.594   0.233   6.287  1.00  0.00     0.064 C 
ATOM      6  O   UNL     1       3.768   0.680   6.378  1.00  0.00    -0.545 OA
ATOM      7  O   UNL     1       2.389  -1.047   5.784  1.00  0.00    -0.545 OA
ENDBRANCH   4   5
ENDBRANCH   2   3
ENDBRANCH   1   2
BRANCH   1   8
ATOM      8  C   UNL     1      -0.495   4.358   5.230  1.00  0.00     0.000 C 
BRANCH   8   9
ATOM      9  C   UNL     1      -1.417   3.122   5.205  1.00  0.00    -0.000 C 
BRANCH   9  10
ATOM     10  C   UNL     1      -2.856   3.373   5.689  1.00  0.00    -0.003 C 
ATOM     11  C   UNL     1      -3.552   2.101   6.172  1.00  0.00     0.004 C 
ENDBRANCH   9  10
ENDBRANCH   8   9
ENDBRANCH   1   8
TORSDOF 6
ENDMDL
MODEL 5
REMARK VINA RESULT:    -3.896     12.649     13.775
REMARK INTER + INTRA:          -5.714
REMARK INTER:                  -5.130
REMARK INTRA:                  -0.584
REMARK UNBOUND:                -0.452
REMARK SMILES CCCCCCC=CC(=O)[O-]
REMARK SMILES IDX 5 1 6 2 7 3 8 4 9 5 10 6 11 7 4 8 3 9 2 10 1 11
REMARK H PARENT
REMARK Flexibility Score: inf
ROOT
ATOM      1  C   UNL     1      -2.463  -1.429  -6.082  1.00  0.00     0.004 C 
ENDROOT
BRANCH   1   2
ATOM      2  C   UNL     1      -3.917  -1.850  -5.823  1.00  0.00     0.027 C 
BRANCH   2   3
ATOM      3  C   UNL     1      -4.003  -3.304  -5.455  1.00  0.00    -0.025 C 
ATOM      4  C   UNL     1      -4.879  -3.742  -4.546  1.00  0.00     0.020 C 
BRANCH   4   5
ATOM      5  C   UNL     1      -4.984  -5.163  -4.184  1.00  0.00     0.064 C 
ATOM      6  O   UNL     1      -4.600  -5.546  -3.049  1.00  0.00    -0.545 OA
ATOM      7  O   UNL     1      -5.502  -6.093  -5.079  1.00  0.00    -0.545 OA
ENDBRANCH   4   5
ENDBRANCH   2   3
ENDBRANCH   1   2
BRANCH   1   8
ATOM      8  C   UNL     1      -1.518  -2.629  -6.270  1.00  0.00     0.000 C 
BRANCH   8   9
ATOM      9  C   UNL     1      -0.298  -2.652  -5.327  1.00  0.00    -0.000 C 
BRANCH   9  10
ATOM     10  C   UNL     1      -0.024  -4.006  -4.650  1.00  0.00    -0.003 C 
ATOM     11  C   UNL     1      -1.099  -4.393  -3.636  1.00  0.00     0.004 C 
ENDBRANCH   9  10
ENDBRANCH   8   9
ENDBRANCH   1   8
TORSDOF 6
ENDMDL
MODEL 6
REMARK VINA RESULT:    -3.774     12.581     13.678
REMARK INTER + INTRA:          -5.549
REMARK INTER:                  -5.027
REMARK INTRA:                  -0.522
REMARK UNBOUND:                -0.452
REMARK SMILES CCCCCCC=CC(=O)[O-]
REMARK SMILES IDX 5 1 6 2 7 3 8 4 9 5 10 6 11 7 4 8 3 9 2 10 1 11
REMARK H PARENT
REMARK Flexibility Score: inf
ROOT
ATOM      1  C   UNL     1      -0.618  -3.742  -4.679  1.00  0.00     0.004 C 
ENDROOT
BRANCH   1   2
ATOM      2  C   UNL     1      -1.478  -3.341  -5.886  1.00  0.00     0.027 C 
BRANCH   2   3
ATOM      3  C   UNL     1      -2.286  -2.109  -5.589  1.00  0.00    -0.025 C 
ATOM      4  C   UNL     1      -2.845  -1.391  -6.568  1.00  0.00     0.020 C 
BRANCH   4   5
ATOM      5  C   UNL     1      -3.650  -0.192  -6.294  1.00  0.00     0.064 C 
ATOM      6  O   UNL     1      -3.386   0.518  -5.288  1.00  0.00    -0.545 OA
ATOM      7  O   UNL     1      -4.700   0.173  -7.129  1.00  0.00    -0.545 OA
ENDBRANCH   4   5
ENDBRANCH   2   3
ENDBRANCH   1   2
BRANCH   1   8
ATOM      8  C   UNL     1      -1.398  -4.562  -3.635  1.00  0.00     0.000 C 
BRANCH   8   9
ATOM      9  C   UNL     1      -2.502  -5.471  -4.213  1.00  0.00    -0.000 C 
BRANCH   9  10
ATOM     10  C   UNL     1      -3.876  -5.338  -3.535  1.00  0.00    -0.003 C 
ATOM     11  C   UNL     1      -4.796  -4.344  -4.244  1.00  0.00     0.004 C 
ENDBRANCH   9  10
ENDBRANCH   8   9
ENDBRANCH   1   8
TORSDOF 6
ENDMDL
MODEL 7
REMARK VINA RESULT:    -3.710      1.882      3.176
REMARK INTER + INTRA:          -5.463
REMARK INTER:                  -5.254
REMARK INTRA:                  -0.209
REMARK UNBOUND:                -0.452
REMARK SMILES CCCCCCC=CC(=O)[O-]
REMARK SMILES IDX 5 1 6 2 7 3 8 4 9 5 10 6 11 7 4 8 3 9 2 10 1 11
REMARK H PARENT
REMARK Flexibility Score: inf
ROOT
ATOM      1  C   UNL     1       0.659   3.906   6.407  1.00  0.00     0.004 C 
ENDROOT
BRANCH   1   2
ATOM      2  C   UNL     1      -0.226   4.409   5.258  1.00  0.00     0.027 C 
BRANCH   2   3
ATOM      3  C   UNL     1      -1.496   3.612   5.162  1.00  0.00    -0.025 C 
ATOM      4  C   UNL     1      -2.506   3.807   6.013  1.00  0.00     0.020 C 
BRANCH   4   5
ATOM      5  C   UNL     1      -3.760   3.044   5.925  1.00  0.00     0.064 C 
ATOM      6  O   UNL     1      -3.728   1.830   5.595  1.00  0.00    -0.545 OA
ATOM      7  O   UNL     1      -4.984   3.643   6.200  1.00  0.00    -0.545 OA
ENDBRANCH   4   5
ENDBRANCH   2   3
ENDBRANCH   1   2
BRANCH   1   8
ATOM      8  C   UNL     1       0.754   2.371   6.460  1.00  0.00     0.000 C 
BRANCH   8   9
ATOM      9  C   UNL     1       1.893   1.818   7.341  1.00  0.00    -0.000 C 
BRANCH   9  10
ATOM     10  C   UNL     1       2.779   0.755   6.668  1.00  0.00    -0.003 C 
ATOM     11  C   UNL     1       2.011  -0.515   6.304  1.00  0.00     0.004 C 
ENDBRANCH   9  10
ENDBRANCH   8   9
ENDBRANCH   1   8
TORSDOF 6
ENDMDL
MODEL 8
REMARK VINA RESULT:    -3.700     12.995     14.594
REMARK INTER + INTRA:          -5.449
REMARK INTER:                  -4.746
REMARK INTRA:                  -0.703
REMARK UNBOUND:                -0.452
REMARK SMILES CCCCCCC=CC(=O)[O-]
REMARK SMILES IDX 5 1 6 2 7 3 8 4 9 5 10 6 11 7 4 8 3 9 2 10 1 11
REMARK H PARENT
REMARK Flexibility Score: inf
ROOT
ATOM      1  C   UNL     1      -4.980  -2.579  -7.247  1.00  0.00     0.004 C 
ENDROOT
BRANCH   1   2
ATOM      2  C   UNL     1      -5.281  -3.464  -6.029  1.00  0.00     0.027 C 
BRANCH   2   3
ATOM      3  C   UNL     1      -4.133  -3.463  -5.060  1.00  0.00    -0.025 C 
ATOM      4  C   UNL     1      -2.881  -3.697  -5.464  1.00  0.00     0.020 C 
BRANCH   4   5
ATOM      5  C   UNL     1      -1.745  -3.686  -4.531  1.00  0.00     0.064 C 
ATOM      6  O   UNL     1      -0.993  -2.678  -4.478  1.00  0.00    -0.545 OA
ATOM      7  O   UNL     1      -1.486  -4.775  -3.706  1.00  0.00    -0.545 OA
ENDBRANCH   4   5
ENDBRANCH   2   3
ENDBRANCH   1   2
BRANCH   1   8
ATOM      8  C   UNL     1      -5.638  -1.191  -7.155  1.00  0.00     0.000 C 
BRANCH   8   9
ATOM      9  C   UNL     1      -4.659  -0.001  -7.202  1.00  0.00    -0.000 C 
BRANCH   9  10
ATOM     10  C   UNL     1      -3.502  -0.069  -6.190  1.00  0.00    -0.003 C 
ATOM     11  C   UNL     1      -2.137  -0.238  -6.857  1.00  0.00     0.004 C 
ENDBRANCH   9  10
ENDBRANCH   8   9
ENDBRANCH   1   8
TORSDOF 6
ENDMDL
MODEL 9
REMARK VINA RESULT:    -3.673     12.953     13.623
REMARK INTER + INTRA:          -5.413
REMARK INTER:                  -4.687
REMARK INTRA:                  -0.726
REMARK UNBOUND:                -0.452
REMARK SMILES CCCCCCC=CC(=O)[O-]
REMARK SMILES IDX 5 1 6 2 7 3 8 4 9 5 10 6 11 7 4 8 3 9 2 10 1 11
REMARK H PARENT
REMARK Flexibility Score: inf
ROOT
ATOM      1  C   UNL     1      -0.183  -3.923  -5.734  1.00  0.00     0.004 C 
ENDROOT
BRANCH   1   2
ATOM      2  C   UNL     1      -0.525  -4.734  -4.475  1.00  0.00     0.027 C 
BRANCH   2   3
ATOM      3  C   UNL     1      -1.920  -4.438  -4.002  1.00  0.00    -0.025 C 
ATOM      4  C   UNL     1      -2.984  -4.700  -4.766  1.00  0.00     0.020 C 
BRANCH   4   5
ATOM      5  C   UNL     1      -4.356  -4.429  -4.313  1.00  0.00     0.064 C 
ATOM      6  O   UNL     1      -4.804  -5.021  -3.297  1.00  0.00    -0.545 OA
ATOM      7  O   UNL     1      -5.170  -3.528  -4.991  1.00  0.00    -0.545 OA
ENDBRANCH   4   5
ENDBRANCH   2   3
ENDBRANCH   1   2
BRANCH   1   8
ATOM      8  C   UNL     1      -0.102  -2.410  -5.467  1.00  0.00     0.000 C 
BRANCH   8   9
ATOM      9  C   UNL     1      -0.688  -1.519  -6.581  1.00  0.00    -0.000 C 
BRANCH   9  10
ATOM     10  C   UNL     1      -2.217  -1.596  -6.740  1.00  0.00    -0.003 C 
ATOM     11  C   UNL     1      -2.968  -0.881  -5.617  1.00  0.00     0.004 C 
ENDBRANCH   9  10
ENDBRANCH   8   9
ENDBRANCH   1   8
TORSDOF 6
ENDMDL
