MODEL 1
REMARK VINA RESULT:    -4.257      0.000      0.000
REMARK INTER + INTRA:          -5.415
REMARK INTER:                  -5.253
REMARK INTRA:                  -0.163
REMARK UNBOUND:                -0.163
REMARK SMILES CCCCCC(=O)[O-]
REMARK SMILES IDX 4 1 5 2 6 3 7 4 8 5 3 6 2 7 1 8
REMARK H PARENT
REMARK Flexibility Score: inf
ROOT
ATOM      1  C   UNL     1       6.155   0.639  -0.810  1.00  0.00     0.006 C 
ENDROOT
BRANCH   1   2
ATOM      2  C   UNL     1       7.373   0.622  -1.742  1.00  0.00     0.053 C 
BRANCH   2   3
ATOM      3  C   UNL     1       6.934   0.598  -3.172  1.00  0.00     0.041 C 
ATOM      4  O   UNL     1       6.203   1.518  -3.626  1.00  0.00    -0.550 OA
ATOM      5  O   UNL     1       7.291  -0.465  -3.992  1.00  0.00    -0.550 OA
ENDBRANCH   2   3
ENDBRANCH   1   2
BRANCH   1   6
ATOM      6  C   UNL     1       6.107   1.893   0.078  1.00  0.00     0.000 C 
BRANCH   6   7
ATOM      7  C   UNL     1       7.150   2.944  -0.328  1.00  0.00    -0.003 C 
ATOM      8  C   UNL     1       7.221   4.072   0.697  1.00  0.00     0.004 C 
ENDBRANCH   6   7
ENDBRANCH   1   6
TORSDOF 4
ENDMDL
MODEL 2
REMARK VINA RESULT:    -3.981      0.914      1.576
REMARK INTER + INTRA:          -5.075
REMARK INTER:                  -4.888
REMARK INTRA:                  -0.187
REMARK UNBOUND:                -0.163
REMARK SMILES CCCCCC(=O)[O-]
REMARK SMILES IDX 4 1 5 2 6 3 7 4 8 5 3 6 2 7 1 8
REMARK H PARENT
REMARK Flexibility Score: inf
ROOT
ATOM      1  C   UNL     1       8.006   1.268  -1.194  1.00  0.00     0.006 C 
ENDROOT
BRANCH   1   2
ATOM      2  C   UNL     1       8.377   1.194  -2.681  1.00  0.00     0.053 C 
BRANCH   2   3
ATOM      3  C   UNL     1       7.237   0.639  -3.475  1.00  0.00     0.041 C 
ATOM      4  O   UNL     1       6.126   1.231  -3.489  1.00  0.00    -0.550 OA
ATOM      5  O   UNL     1       7.385  -0.560  -4.162  1.00  0.00    -0.550 OA
ENDBRANCH   2   3
ENDBRANCH   1   2
BRANCH   1   6
ATOM      6  C   UNL     1       7.787   2.710  -0.711  1.00  0.00     0.000 C 
BRANCH   6   7
ATOM      7  C   UNL     1       6.598   2.836   0.252  1.00  0.00    -0.003 C 
ATOM      8  C   UNL     1       5.820   1.525   0.338  1.00  0.00     0.004 C 
ENDBRANCH   6   7
ENDBRANCH   1   6
TORSDOF 4
ENDMDL
MODEL 3
REMARK VINA RESULT:    -3.773      1.869      2.871
REMARK INTER + INTRA:          -4.818
REMARK INTER:                  -4.771
REMARK INTRA:                  -0.047
REMARK UNBOUND:                -0.163
REMARK SMILES CCCCCC(=O)[O-]
REMARK SMILES IDX 4 1 5 2 6 3 7 4 8 5 3 6 2 7 1 8
REMARK H PARENT
REMARK Flexibility Score: inf
ROOT
ATOM      1  C   UNL     1       6.801   3.434   0.451  1.00  0.00     0.006 C 
ENDROOT
BRANCH   1   2
ATOM      2  C   UNL     1       7.503   2.629  -0.650  1.00  0.00     0.053 C 
BRANCH   2   3
ATOM      3  C   UNL     1       6.544   1.676  -1.290  1.00  0.00     0.041 C 
ATOM      4  O   UNL     1       6.217   1.821  -2.498  1.00  0.00    -0.550 OA
ATOM      5  O   UNL     1       5.973   0.654  -0.542  1.00  0.00    -0.550 OA
ENDBRANCH   2   3
ENDBRANCH   1   2
BRANCH   1   6
ATOM      6  C   UNL     1       7.666   4.589   0.981  1.00  0.00     0.000 C 
BRANCH   6   7
ATOM      7  C   UNL     1       7.241   5.953   0.416  1.00  0.00    -0.003 C 
ATOM      8  C   UNL     1       7.603   7.081   1.377  1.00  0.00     0.004 C 
ENDBRANCH   6   7
ENDBRANCH   1   6
TORSDOF 4
ENDMDL
MODEL 4
REMARK VINA RESULT:    -3.734     18.671     19.489
REMARK INTER + INTRA:          -4.769
REMARK INTER:                  -4.517
REMARK INTRA:                  -0.252
REMARK UNBOUND:                -0.163
REMARK SMILES CCCCCC(=O)[O-]
REMARK SMILES IDX 4 1 5 2 6 3 7 4 8 5 3 6 2 7 1 8
REMARK H PARENT
REMARK Flexibility Score: inf
ROOT
ATOM      1  C   UNL     1      -8.565  -5.339   6.473  1.00  0.00     0.006 C 
ENDROOT
BRANCH   1   2
ATOM      2  C   UNL     1      -8.003  -6.157   5.303  1.00  0.00     0.053 C 
BRANCH   2   3
ATOM      3  C   UNL     1      -9.099  -6.539   4.361  1.00  0.00     0.041 C 
ATOM      4  O   UNL     1      -9.271  -7.746   4.043  1.00  0.00    -0.550 OA
ATOM      5  O   UNL     1      -9.903  -5.558   3.793  1.00  0.00    -0.550 OA
ENDBRANCH   2   3
ENDBRANCH   1   2
BRANCH   1   6
ATOM      6  C   UNL     1      -9.258  -6.216   7.528  1.00  0.00     0.000 C 
BRANCH   6   7
ATOM      7  C   UNL     1     -10.747  -5.877   7.693  1.00  0.00    -0.003 C 
ATOM      8  C   UNL     1     -11.110  -4.612   6.920  1.00  0.00     0.004 C 
ENDBRANCH   6   7
ENDBRANCH   1   6
TORSDOF 4
ENDMDL
MODEL 5
REMARK VINA RESULT:    -3.728     19.238     19.967
REMARK INTER + INTRA:          -4.763
REMARK INTER:                  -4.513
REMARK INTRA:                  -0.250
REMARK UNBOUND:                -0.163
REMARK SMILES CCCCCC(=O)[O-]
REMARK SMILES IDX 4 1 5 2 6 3 7 4 8 5 3 6 2 7 1 8
REMARK H PARENT
REMARK Flexibility Score: inf
ROOT
ATOM      1  C   UNL     1     -10.732  -4.700   5.000  1.00  0.00     0.006 C 
ENDROOT
BRANCH   1   2
ATOM      2  C   UNL     1     -10.557  -4.662   6.524  1.00  0.00     0.053 C 
BRANCH   2   3
ATOM      3  C   UNL     1      -9.326  -5.411   6.925  1.00  0.00     0.041 C 
ATOM      4  O   UNL     1      -9.419  -6.460   7.616  1.00  0.00    -0.550 OA
ATOM      5  O   UNL     1      -8.071  -4.925   6.579  1.00  0.00    -0.550 OA
ENDBRANCH   2   3
ENDBRANCH   1   2
BRANCH   1   6
ATOM      6  C   UNL     1     -11.125  -6.093   4.485  1.00  0.00     0.000 C 
BRANCH   6   7
ATOM      7  C   UNL     1     -10.052  -6.711   3.576  1.00  0.00    -0.003 C 
ATOM      8  C   UNL     1      -9.461  -7.970   4.202  1.00  0.00     0.004 C 
ENDBRANCH   6   7
ENDBRANCH   1   6
TORSDOF 4
ENDMDL
MODEL 6
REMARK VINA RESULT:    -3.728     18.723     19.680
REMARK INTER + INTRA:          -4.762
REMARK INTER:                  -4.695
REMARK INTRA:                  -0.067
REMARK UNBOUND:                -0.163
REMARK SMILES CCCCCC(=O)[O-]
REMARK SMILES IDX 4 1 5 2 6 3 7 4 8 5 3 6 2 7 1 8
REMARK H PARENT
REMARK Flexibility Score: inf
ROOT
ATOM      1  C   UNL     1      -8.783  -6.594   4.604  1.00  0.00     0.006 C 
ENDROOT
BRANCH   1   2
ATOM      2  C   UNL     1      -9.008  -7.028   6.058  1.00  0.00     0.053 C 
BRANCH   2   3
ATOM      3  C   UNL     1      -8.824  -5.866   6.982  1.00  0.00     0.041 C 
ATOM      4  O   UNL     1      -7.979  -4.971   6.715  1.00  0.00    -0.550 OA
ATOM      5  O   UNL     1      -9.551  -5.794   8.165  1.00  0.00    -0.550 OA
ENDBRANCH   2   3
ENDBRANCH   1   2
BRANCH   1   6
ATOM      6  C   UNL     1      -9.793  -7.230   3.635  1.00  0.00     0.000 C 
BRANCH   6   7
ATOM      7  C   UNL     1     -11.083  -6.408   3.503  1.00  0.00    -0.003 C 
ATOM      8  C   UNL     1     -10.865  -4.968   3.958  1.00  0.00     0.004 C 
ENDBRANCH   6   7
ENDBRANCH   1   6
TORSDOF 4
ENDMDL
MODEL 7
REMARK VINA RESULT:    -3.628     19.078     19.678
REMARK INTER + INTRA:          -4.638
REMARK INTER:                  -4.419
REMARK INTRA:                  -0.219
REMARK UNBOUND:                -0.163
REMARK SMILES CCCCCC(=O)[O-]
REMARK SMILES IDX 4 1 5 2 6 3 7 4 8 5 3 6 2 7 1 8
REMARK H PARENT
REMARK Flexibility Score: inf
ROOT
ATOM      1  C   UNL     1      -9.346  -5.425   6.968  1.00  0.00     0.006 C 
ENDROOT
BRANCH   1   2
ATOM      2  C   UNL     1      -9.225  -6.954   6.934  1.00  0.00     0.053 C 
BRANCH   2   3
ATOM      3  C   UNL     1      -8.748  -7.409   5.591  1.00  0.00     0.041 C 
ATOM      4  O   UNL     1      -9.104  -8.529   5.137  1.00  0.00    -0.550 OA
ATOM      5  O   UNL     1      -7.871  -6.618   4.859  1.00  0.00    -0.550 OA
ENDBRANCH   2   3
ENDBRANCH   1   2
BRANCH   1   6
ATOM      6  C   UNL     1     -10.764  -4.938   6.631  1.00  0.00     0.000 C 
BRANCH   6   7
ATOM      7  C   UNL     1     -10.818  -4.136   5.322  1.00  0.00    -0.003 C 
ATOM      8  C   UNL     1     -11.028  -5.057   4.123  1.00  0.00     0.004 C 
ENDBRANCH   6   7
ENDBRANCH   1   6
TORSDOF 4
ENDMDL
MODEL 8
REMARK VINA RESULT:    -3.577     19.181     19.790
REMARK INTER + INTRA:          -4.576
REMARK INTER:                  -4.370
REMARK INTRA:                  -0.206
REMARK UNBOUND:                -0.163
REMARK SMILES CCCCCC(=O)[O-]
REMARK SMILES IDX 4 1 5 2 6 3 7 4 8 5 3 6 2 7 1 8
REMARK H PARENT
REMARK Flexibility Score: inf
ROOT
ATOM      1  C   UNL     1     -10.761  -4.790   4.412  1.00  0.00     0.006 C 
ENDROOT
BRANCH   1   2
ATOM      2  C   UNL     1     -10.914  -6.314   4.341  1.00  0.00     0.053 C 
BRANCH   2   3
ATOM      3  C   UNL     1      -9.626  -6.949   3.923  1.00  0.00     0.041 C 
ATOM      4  O   UNL     1      -9.625  -7.889   3.084  1.00  0.00    -0.550 OA
ATOM      5  O   UNL     1      -8.429  -6.536   4.494  1.00  0.00    -0.550 OA
ENDBRANCH   2   3
ENDBRANCH   1   2
BRANCH   1   6
ATOM      6  C   UNL     1     -10.827  -4.255   5.851  1.00  0.00     0.000 C 
BRANCH   6   7
ATOM      7  C   UNL     1     -11.114  -5.359   6.879  1.00  0.00    -0.003 C 
ATOM      8  C   UNL     1      -9.906  -5.597   7.781  1.00  0.00     0.004 C 
ENDBRANCH   6   7
ENDBRANCH   1   6
TORSDOF 4
ENDMDL
MODEL 9
REMARK VINA RESULT:    -3.559      2.717      4.030
REMARK INTER + INTRA:          -4.554
REMARK INTER:                  -4.331
REMARK INTRA:                  -0.223
REMARK UNBOUND:                -0.163
REMARK SMILES CCCCCC(=O)[O-]
REMARK SMILES IDX 4 1 5 2 6 3 7 4 8 5 3 6 2 7 1 8
REMARK H PARENT
REMARK Flexibility Score: inf
ROOT
ATOM      1  C   UNL     1       5.995   1.747   0.317  1.00  0.00     0.006 C 
ENDROOT
BRANCH   1   2
ATOM      2  C   UNL     1       6.372   3.133  -0.221  1.00  0.00     0.053 C 
BRANCH   2   3
ATOM      3  C   UNL     1       7.702   3.556   0.315  1.00  0.00     0.041 C 
ATOM      4  O   UNL     1       7.770   4.355   1.287  1.00  0.00    -0.550 OA
ATOM      5  O   UNL     1       8.871   3.107  -0.288  1.00  0.00    -0.550 OA
ENDBRANCH   2   3
ENDBRANCH   1   2
BRANCH   1   6
ATOM      6  C   UNL     1       6.239   0.628  -0.707  1.00  0.00     0.000 C 
BRANCH   6   7
ATOM      7  C   UNL     1       6.424   1.164  -2.134  1.00  0.00    -0.003 C 
ATOM      8  C   UNL     1       7.745   0.688  -2.732  1.00  0.00     0.004 C 
ENDBRANCH   6   7
ENDBRANCH   1   6
TORSDOF 4
ENDMDL
