MODEL 1
REMARK VINA RESULT:    -5.157      0.000      0.000
REMARK INTER + INTRA:          -7.629
REMARK INTER:                  -7.870
REMARK INTRA:                   0.241
REMARK UNBOUND:                 0.241
REMARK SMILES CC1=CCC[C@H](C)C(=O)C[C@H](C(C)C)C(=O)C1
REMARK SMILES IDX 8 1 9 2 6 3 7 4 5 5 4 6 3 7 2 8 1 9 10 11 11 12 15 13 16 14
REMARK SMILES IDX 17 15 12 17 13 18 14 19
REMARK H PARENT
REMARK Flexibility Score: 70.00
ROOT
ATOM      1  C   UNL     1      13.272 -19.219 -29.645  1.00  0.00     0.136 C 
ATOM      2  O   UNL     1      12.862 -20.176 -29.002  1.00  0.00    -0.299 OA
ENDROOT
BRANCH   1   3
ATOM      3  C   UNL     1      13.314 -19.342 -31.159  1.00  0.00     0.053 C 
ATOM      4  C   UNL     1      12.588 -20.625 -31.579  1.00  0.00     0.016 C 
BRANCH   3   5
ATOM      5  C   UNL     1      12.665 -18.116 -31.851  1.00  0.00     0.015 C 
BRANCH   5   6
ATOM      6  C   UNL     1      11.133 -18.197 -31.997  1.00  0.00     0.028 C 
BRANCH   6   7
ATOM      7  C   UNL     1      10.452 -16.941 -31.508  1.00  0.00    -0.028 C 
ATOM      8  C   UNL     1      10.017 -16.718 -30.245  1.00  0.00    -0.070 CG0
ATOM      9  C   UNL     1       9.319 -15.411 -29.965  1.00  0.00     0.039 C 
ATOM     10  G   UNL     1      10.270 -17.673 -29.092  1.00  0.00     0.000 G0
ENDBRANCH   6   7
ENDBRANCH   5   6
ENDBRANCH   3   5
ENDBRANCH   1   3
BRANCH   1  11
ATOM     11  C   UNL     1      13.747 -18.011 -28.855  1.00  0.00     0.087 C 
BRANCH  11  12
ATOM     12  C   UNL     1      12.758 -16.834 -28.637  1.00  0.00     0.066 C 
BRANCH  12  13
ATOM     13  C   UNL     1      11.381 -17.286 -28.164  1.00  0.00     0.140 C 
ATOM     14  O   UNL     1      11.218 -17.462 -26.964  1.00  0.00    -0.299 OA
BRANCH  13  15
ATOM     15  C   UNL     1      10.255 -17.685 -29.095  1.00  0.00     0.106 CG0
ATOM     16  G   UNL     1      10.014 -16.727 -30.248  1.00  0.00     0.000 G0
ENDBRANCH  13  15
ENDBRANCH  12  13
BRANCH  12  17
ATOM     17  C   UNL     1      13.340 -15.758 -27.660  1.00  0.00    -0.006 C 
ATOM     18  C   UNL     1      14.137 -16.388 -26.503  1.00  0.00     0.008 C 
ATOM     19  C   UNL     1      14.249 -14.757 -28.398  1.00  0.00     0.008 C 
ENDBRANCH  12  17
ENDBRANCH  11  12
ENDBRANCH   1  11
TORSDOF 1
ENDMDL
MODEL 2
REMARK VINA RESULT:    -4.881      2.206      4.889
REMARK INTER + INTRA:          -7.209
REMARK INTER:                  -7.247
REMARK INTRA:                   0.038
REMARK UNBOUND:                 0.241
REMARK SMILES CC1=CCC[C@H](C)C(=O)C[C@H](C(C)C)C(=O)C1
REMARK SMILES IDX 8 1 9 2 6 3 7 4 5 5 4 6 3 7 2 8 1 9 10 11 11 12 15 13 16 14
REMARK SMILES IDX 17 15 12 17 13 18 14 19
REMARK H PARENT
REMARK Flexibility Score: 70.00
ROOT
ATOM      1  C   UNL     1      13.386 -16.211 -30.154  1.00  0.00     0.136 C 
ATOM      2  O   UNL     1      14.433 -15.893 -30.701  1.00  0.00    -0.299 OA
ENDROOT
BRANCH   1   3
ATOM      3  C   UNL     1      13.349 -16.222 -28.634  1.00  0.00     0.053 C 
ATOM      4  C   UNL     1      14.101 -14.995 -28.105  1.00  0.00     0.016 C 
BRANCH   3   5
ATOM      5  C   UNL     1      11.895 -16.224 -28.098  1.00  0.00     0.015 C 
BRANCH   5   6
ATOM      6  C   UNL     1      11.311 -17.624 -27.829  1.00  0.00     0.028 C 
BRANCH   6   7
ATOM      7  C   UNL     1      12.343 -18.711 -28.011  1.00  0.00    -0.028 C 
ATOM      8  C   UNL     1      12.422 -19.557 -29.065  1.00  0.00    -0.070 CG0
ATOM      9  C   UNL     1      13.504 -20.608 -29.040  1.00  0.00     0.039 C 
ATOM     10  G   UNL     1      11.538 -19.447 -30.295  1.00  0.00     0.000 G0
ENDBRANCH   6   7
ENDBRANCH   5   6
ENDBRANCH   3   5
ENDBRANCH   1   3
BRANCH   1  11
ATOM     11  C   UNL     1      12.232 -16.615 -31.056  1.00  0.00     0.087 C 
BRANCH  11  12
ATOM     12  C   UNL     1      12.478 -17.714 -32.125  1.00  0.00     0.066 C 
BRANCH  12  13
ATOM     13  C   UNL     1      12.265 -19.127 -31.594  1.00  0.00     0.140 C 
ATOM     14  O   UNL     1      12.592 -20.063 -32.311  1.00  0.00    -0.299 OA
BRANCH  13  15
ATOM     15  C   UNL     1      11.529 -19.446 -30.309  1.00  0.00     0.106 CG0
ATOM     16  G   UNL     1      12.416 -19.567 -29.082  1.00  0.00     0.000 G0
ENDBRANCH  13  15
ENDBRANCH  12  13
BRANCH  12  17
ATOM     17  C   UNL     1      11.610 -17.481 -33.408  1.00  0.00    -0.006 C 
ATOM     18  C   UNL     1      10.183 -17.011 -33.073  1.00  0.00     0.008 C 
ATOM     19  C   UNL     1      12.261 -16.451 -34.351  1.00  0.00     0.008 C 
ENDBRANCH  12  17
ENDBRANCH  11  12
ENDBRANCH   1  11
TORSDOF 1
ENDMDL
MODEL 3
REMARK VINA RESULT:    -4.838      1.372      1.680
REMARK INTER + INTRA:          -7.143
REMARK INTER:                  -6.745
REMARK INTRA:                  -0.398
REMARK UNBOUND:                 0.241
REMARK SMILES CC1=CCC[C@H](C)C(=O)C[C@H](C(C)C)C(=O)C1
REMARK SMILES IDX 8 1 9 2 6 3 7 4 5 5 4 6 3 7 2 8 1 9 10 11 11 12 15 13 16 14
REMARK SMILES IDX 17 15 12 17 13 18 14 19
REMARK H PARENT
REMARK Flexibility Score: 70.00
ROOT
ATOM      1  C   UNL     1      13.333 -19.189 -29.509  1.00  0.00     0.136 C 
ATOM      2  O   UNL     1      14.351 -19.221 -28.832  1.00  0.00    -0.299 OA
ENDROOT
BRANCH   1   3
ATOM      3  C   UNL     1      13.356 -19.874 -30.867  1.00  0.00     0.053 C 
ATOM      4  C   UNL     1      12.366 -21.044 -30.856  1.00  0.00     0.016 C 
BRANCH   3   5
ATOM      5  C   UNL     1      12.999 -18.889 -32.010  1.00  0.00     0.015 C 
BRANCH   5   6
ATOM      6  C   UNL     1      11.580 -19.059 -32.584  1.00  0.00     0.028 C 
BRANCH   6   7
ATOM      7  C   UNL     1      10.971 -17.736 -32.985  1.00  0.00    -0.028 C 
ATOM      8  C   UNL     1      10.186 -16.958 -32.202  1.00  0.00    -0.070 CG0
ATOM      9  C   UNL     1       9.637 -15.688 -32.804  1.00  0.00     0.039 C 
ATOM     10  G   UNL     1       9.905 -17.255 -30.740  1.00  0.00     0.000 G0
ENDBRANCH   6   7
ENDBRANCH   5   6
ENDBRANCH   3   5
ENDBRANCH   1   3
BRANCH   1  11
ATOM     11  C   UNL     1      12.151 -18.420 -28.942  1.00  0.00     0.087 C 
BRANCH  11  12
ATOM     12  C   UNL     1      12.063 -16.893 -29.213  1.00  0.00     0.066 C 
BRANCH  12  13
ATOM     13  C   UNL     1      10.701 -16.454 -29.739  1.00  0.00     0.140 C 
ATOM     14  O   UNL     1      10.181 -15.472 -29.227  1.00  0.00    -0.299 OA
BRANCH  13  15
ATOM     15  C   UNL     1       9.884 -17.247 -30.737  1.00  0.00     0.106 CG0
ATOM     16  G   UNL     1      10.188 -16.940 -32.193  1.00  0.00     0.000 G0
ENDBRANCH  13  15
ENDBRANCH  12  13
BRANCH  12  17
ATOM     17  C   UNL     1      12.452 -16.056 -27.949  1.00  0.00    -0.006 C 
ATOM     18  C   UNL     1      12.433 -16.898 -26.660  1.00  0.00     0.008 C 
ATOM     19  C   UNL     1      13.845 -15.416 -28.101  1.00  0.00     0.008 C 
ENDBRANCH  12  17
ENDBRANCH  11  12
ENDBRANCH   1  11
TORSDOF 1
ENDMDL
MODEL 4
REMARK VINA RESULT:    -4.820      2.041      5.284
REMARK INTER + INTRA:          -7.116
REMARK INTER:                  -6.802
REMARK INTRA:                  -0.314
REMARK UNBOUND:                 0.241
REMARK SMILES CC1=CCC[C@H](C)C(=O)C[C@H](C(C)C)C(=O)C1
REMARK SMILES IDX 8 1 9 2 6 3 7 4 5 5 4 6 3 7 2 8 1 9 10 11 11 12 15 13 16 14
REMARK SMILES IDX 17 15 12 17 13 18 14 19
REMARK H PARENT
REMARK Flexibility Score: 70.00
ROOT
ATOM      1  C   UNL     1       9.843 -17.554 -30.098  1.00  0.00     0.136 C 
ATOM      2  O   UNL     1       9.184 -17.956 -29.149  1.00  0.00    -0.299 OA
ENDROOT
BRANCH   1   3
ATOM      3  C   UNL     1      10.372 -16.129 -30.047  1.00  0.00     0.053 C 
ATOM      4  C   UNL     1       9.208 -15.172 -29.765  1.00  0.00     0.016 C 
BRANCH   3   5
ATOM      5  C   UNL     1      11.467 -15.965 -28.962  1.00  0.00     0.015 C 
BRANCH   5   6
ATOM      6  C   UNL     1      12.854 -16.503 -29.363  1.00  0.00     0.028 C 
BRANCH   6   7
ATOM      7  C   UNL     1      13.094 -17.896 -28.833  1.00  0.00    -0.028 C 
ATOM      8  C   UNL     1      13.374 -18.989 -29.583  1.00  0.00    -0.070 CG0
ATOM      9  C   UNL     1      13.538 -20.306 -28.866  1.00  0.00     0.039 C 
ATOM     10  G   UNL     1      13.614 -18.937 -31.081  1.00  0.00     0.000 G0
ENDBRANCH   6   7
ENDBRANCH   5   6
ENDBRANCH   3   5
ENDBRANCH   1   3
BRANCH   1  11
ATOM     11  C   UNL     1      10.027 -18.510 -31.265  1.00  0.00     0.087 C 
BRANCH  11  12
ATOM     12  C   UNL     1      11.249 -18.307 -32.201  1.00  0.00     0.066 C 
BRANCH  12  13
ATOM     13  C   UNL     1      12.386 -19.285 -31.925  1.00  0.00     0.140 C 
ATOM     14  O   UNL     1      12.245 -20.443 -32.291  1.00  0.00    -0.299 OA
BRANCH  13  15
ATOM     15  C   UNL     1      13.603 -18.952 -31.087  1.00  0.00     0.106 CG0
ATOM     16  G   UNL     1      13.373 -19.000 -29.587  1.00  0.00     0.000 G0
ENDBRANCH  13  15
ENDBRANCH  12  13
BRANCH  12  17
ATOM     17  C   UNL     1      10.840 -18.365 -33.711  1.00  0.00    -0.006 C 
ATOM     18  C   UNL     1       9.481 -19.057 -33.924  1.00  0.00     0.008 C 
ATOM     19  C   UNL     1      10.780 -16.957 -34.335  1.00  0.00     0.008 C 
ENDBRANCH  12  17
ENDBRANCH  11  12
ENDBRANCH   1  11
TORSDOF 1
ENDMDL
MODEL 5
REMARK VINA RESULT:    -4.714      1.671      3.389
REMARK INTER + INTRA:          -6.953
REMARK INTER:                  -6.633
REMARK INTRA:                  -0.320
REMARK UNBOUND:                 0.241
REMARK SMILES CC1=CCC[C@H](C)C(=O)C[C@H](C(C)C)C(=O)C1
REMARK SMILES IDX 8 1 9 2 6 3 7 4 5 5 4 6 3 7 2 8 1 9 10 11 11 12 15 13 16 14
REMARK SMILES IDX 17 15 12 17 13 18 14 19
REMARK H PARENT
REMARK Flexibility Score: 70.00
ROOT
ATOM      1  C   UNL     1      10.643 -16.568 -30.196  1.00  0.00     0.136 C 
ATOM      2  O   UNL     1       9.502 -16.816 -29.833  1.00  0.00    -0.299 OA
ENDROOT
BRANCH   1   3
ATOM      3  C   UNL     1      11.094 -17.100 -31.548  1.00  0.00     0.053 C 
ATOM      4  C   UNL     1      10.062 -16.705 -32.611  1.00  0.00     0.016 C 
BRANCH   3   5
ATOM      5  C   UNL     1      12.491 -16.555 -31.939  1.00  0.00     0.015 C 
BRANCH   5   6
ATOM      6  C   UNL     1      13.650 -17.548 -31.727  1.00  0.00     0.028 C 
BRANCH   6   7
ATOM      7  C   UNL     1      13.153 -18.954 -31.494  1.00  0.00    -0.028 C 
ATOM      8  C   UNL     1      13.081 -19.578 -30.294  1.00  0.00    -0.070 CG0
ATOM      9  C   UNL     1      12.596 -21.006 -30.275  1.00  0.00     0.039 C 
ATOM     10  G   UNL     1      13.381 -18.891 -28.973  1.00  0.00     0.000 G0
ENDBRANCH   6   7
ENDBRANCH   5   6
ENDBRANCH   3   5
ENDBRANCH   1   3
BRANCH   1  11
ATOM     11  C   UNL     1      11.521 -15.789 -29.230  1.00  0.00     0.087 C 
BRANCH  11  12
ATOM     12  C   UNL     1      12.319 -16.577 -28.155  1.00  0.00     0.066 C 
BRANCH  12  13
ATOM     13  C   UNL     1      12.270 -18.087 -28.359  1.00  0.00     0.140 C 
ATOM     14  O   UNL     1      11.317 -18.696 -27.892  1.00  0.00    -0.299 OA
BRANCH  13  15
ATOM     15  C   UNL     1      13.401 -18.897 -28.957  1.00  0.00     0.106 CG0
ATOM     16  G   UNL     1      13.069 -19.574 -30.275  1.00  0.00     0.000 G0
ENDBRANCH  13  15
ENDBRANCH  12  13
BRANCH  12  17
ATOM     17  C   UNL     1      13.804 -16.091 -28.061  1.00  0.00    -0.006 C 
ATOM     18  C   UNL     1      13.994 -14.676 -28.638  1.00  0.00     0.008 C 
ATOM     19  C   UNL     1      14.312 -16.104 -26.607  1.00  0.00     0.008 C 
ENDBRANCH  12  17
ENDBRANCH  11  12
ENDBRANCH   1  11
TORSDOF 1
ENDMDL
MODEL 6
REMARK VINA RESULT:    -4.705      2.028      3.364
REMARK INTER + INTRA:          -6.940
REMARK INTER:                  -6.612
REMARK INTRA:                  -0.328
REMARK UNBOUND:                 0.241
REMARK SMILES CC1=CCC[C@H](C)C(=O)C[C@H](C(C)C)C(=O)C1
REMARK SMILES IDX 8 1 9 2 6 3 7 4 5 5 4 6 3 7 2 8 1 9 10 11 11 12 15 13 16 14
REMARK SMILES IDX 17 15 12 17 13 18 14 19
REMARK H PARENT
REMARK Flexibility Score: 70.00
ROOT
ATOM      1  C   UNL     1      13.020 -17.242 -32.721  1.00  0.00     0.136 C 
ATOM      2  O   UNL     1      13.859 -16.368 -32.888  1.00  0.00    -0.299 OA
ENDROOT
BRANCH   1   3
ATOM      3  C   UNL     1      11.641 -17.035 -33.327  1.00  0.00     0.053 C 
ATOM      4  C   UNL     1      11.796 -16.463 -34.741  1.00  0.00     0.016 C 
BRANCH   3   5
ATOM      5  C   UNL     1      10.834 -18.357 -33.376  1.00  0.00     0.015 C 
BRANCH   5   6
ATOM      6  C   UNL     1       9.707 -18.461 -32.330  1.00  0.00     0.028 C 
BRANCH   6   7
ATOM      7  C   UNL     1       9.417 -17.130 -31.678  1.00  0.00    -0.028 C 
ATOM      8  C   UNL     1       9.868 -16.730 -30.466  1.00  0.00    -0.070 CG0
ATOM      9  C   UNL     1       9.429 -15.375 -29.968  1.00  0.00     0.039 C 
ATOM     10  G   UNL     1      10.850 -17.532 -29.630  1.00  0.00     0.000 G0
ENDBRANCH   6   7
ENDBRANCH   5   6
ENDBRANCH   3   5
ENDBRANCH   1   3
BRANCH   1  11
ATOM     11  C   UNL     1      13.429 -18.437 -31.875  1.00  0.00     0.087 C 
BRANCH  11  12
ATOM     12  C   UNL     1      13.304 -18.328 -30.331  1.00  0.00     0.066 C 
BRANCH  12  13
ATOM     13  C   UNL     1      12.315 -17.258 -29.882  1.00  0.00     0.140 C 
ATOM     14  O   UNL     1      12.756 -16.150 -29.609  1.00  0.00    -0.299 OA
BRANCH  13  15
ATOM     15  C   UNL     1      10.851 -17.524 -29.601  1.00  0.00     0.106 CG0
ATOM     16  G   UNL     1       9.884 -16.739 -30.469  1.00  0.00     0.000 G0
ENDBRANCH  13  15
ENDBRANCH  12  13
BRANCH  12  17
ATOM     17  C   UNL     1      12.946 -19.705 -29.678  1.00  0.00    -0.006 C 
ATOM     18  C   UNL     1      12.498 -20.748 -30.718  1.00  0.00     0.008 C 
ATOM     19  C   UNL     1      14.133 -20.279 -28.882  1.00  0.00     0.008 C 
ENDBRANCH  12  17
ENDBRANCH  11  12
ENDBRANCH   1  11
TORSDOF 1
ENDMDL
MODEL 7
REMARK VINA RESULT:    -4.668      1.718      4.148
REMARK INTER + INTRA:          -6.884
REMARK INTER:                  -6.945
REMARK INTRA:                   0.062
REMARK UNBOUND:                 0.241
REMARK SMILES CC1=CCC[C@H](C)C(=O)C[C@H](C(C)C)C(=O)C1
REMARK SMILES IDX 8 1 9 2 6 3 7 4 5 5 4 6 3 7 2 8 1 9 10 11 11 12 15 13 16 14
REMARK SMILES IDX 17 15 12 17 13 18 14 19
REMARK H PARENT
REMARK Flexibility Score: 70.00
ROOT
ATOM      1  C   UNL     1      11.409 -17.527 -28.338  1.00  0.00     0.136 C 
ATOM      2  O   UNL     1      10.937 -18.124 -27.381  1.00  0.00    -0.299 OA
ENDROOT
BRANCH   1   3
ATOM      3  C   UNL     1      12.863 -17.787 -28.696  1.00  0.00     0.053 C 
ATOM      4  C   UNL     1      13.763 -17.127 -27.644  1.00  0.00     0.016 C 
BRANCH   3   5
ATOM      5  C   UNL     1      13.169 -19.305 -28.777  1.00  0.00     0.015 C 
BRANCH   5   6
ATOM      6  C   UNL     1      13.297 -19.859 -30.209  1.00  0.00     0.028 C 
BRANCH   6   7
ATOM      7  C   UNL     1      13.438 -18.756 -31.230  1.00  0.00    -0.028 C 
ATOM      8  C   UNL     1      12.466 -18.330 -32.072  1.00  0.00    -0.070 CG0
ATOM      9  C   UNL     1      12.819 -17.241 -33.054  1.00  0.00     0.039 C 
ATOM     10  G   UNL     1      11.033 -18.829 -32.018  1.00  0.00     0.000 G0
ENDBRANCH   6   7
ENDBRANCH   5   6
ENDBRANCH   3   5
ENDBRANCH   1   3
BRANCH   1  11
ATOM     11  C   UNL     1      10.500 -16.540 -29.052  1.00  0.00     0.087 C 
BRANCH  11  12
ATOM     12  C   UNL     1      10.312 -16.684 -30.587  1.00  0.00     0.066 C 
BRANCH  12  13
ATOM     13  C   UNL     1      10.130 -18.129 -31.037  1.00  0.00     0.140 C 
ATOM     14  O   UNL     1       9.292 -18.807 -30.458  1.00  0.00    -0.299 OA
BRANCH  13  15
ATOM     15  C   UNL     1      11.029 -18.822 -32.040  1.00  0.00     0.106 CG0
ATOM     16  G   UNL     1      12.464 -18.326 -32.057  1.00  0.00     0.000 G0
ENDBRANCH  13  15
ENDBRANCH  12  13
BRANCH  12  17
ATOM     17  C   UNL     1       9.131 -15.800 -31.113  1.00  0.00    -0.006 C 
ATOM     18  C   UNL     1       8.877 -14.571 -30.222  1.00  0.00     0.008 C 
ATOM     19  C   UNL     1       9.383 -15.321 -32.555  1.00  0.00     0.008 C 
ENDBRANCH  12  17
ENDBRANCH  11  12
ENDBRANCH   1  11
TORSDOF 1
ENDMDL
MODEL 8
REMARK VINA RESULT:    -4.450      1.468      3.571
REMARK INTER + INTRA:          -6.550
REMARK INTER:                  -6.942
REMARK INTRA:                   0.392
REMARK UNBOUND:                 0.241
REMARK SMILES CC1=CCC[C@H](C)C(=O)C[C@H](C(C)C)C(=O)C1
REMARK SMILES IDX 8 1 9 2 6 3 7 4 5 5 4 6 3 7 2 8 1 9 10 11 11 12 15 13 16 14
REMARK SMILES IDX 17 15 12 17 13 18 14 19
REMARK H PARENT
REMARK Flexibility Score: 70.00
ROOT
ATOM      1  C   UNL     1       9.902 -16.757 -29.472  1.00  0.00     0.136 C 
ATOM      2  O   UNL     1       9.426 -17.566 -28.688  1.00  0.00    -0.299 OA
ENDROOT
BRANCH   1   3
ATOM      3  C   UNL     1       8.992 -16.180 -30.545  1.00  0.00     0.053 C 
ATOM      4  C   UNL     1       8.978 -14.652 -30.422  1.00  0.00     0.016 C 
BRANCH   3   5
ATOM      5  C   UNL     1       9.452 -16.593 -31.966  1.00  0.00     0.015 C 
BRANCH   5   6
ATOM      6  C   UNL     1       9.738 -18.097 -32.138  1.00  0.00     0.028 C 
BRANCH   6   7
ATOM      7  C   UNL     1      11.188 -18.363 -32.462  1.00  0.00    -0.028 C 
ATOM      8  C   UNL     1      12.113 -18.854 -31.603  1.00  0.00    -0.070 CG0
ATOM      9  C   UNL     1      13.526 -19.007 -32.107  1.00  0.00     0.039 C 
ATOM     10  G   UNL     1      11.781 -19.333 -30.200  1.00  0.00     0.000 G0
ENDBRANCH   6   7
ENDBRANCH   5   6
ENDBRANCH   3   5
ENDBRANCH   1   3
BRANCH   1  11
ATOM     11  C   UNL     1      11.382 -16.443 -29.324  1.00  0.00     0.087 C 
BRANCH  11  12
ATOM     12  C   UNL     1      12.247 -17.364 -28.420  1.00  0.00     0.066 C 
BRANCH  12  13
ATOM     13  C   UNL     1      12.584 -18.700 -29.071  1.00  0.00     0.140 C 
ATOM     14  O   UNL     1      13.646 -19.229 -28.773  1.00  0.00    -0.299 OA
BRANCH  13  15
ATOM     15  C   UNL     1      11.768 -19.331 -30.180  1.00  0.00     0.106 CG0
ATOM     16  G   UNL     1      12.127 -18.863 -31.579  1.00  0.00     0.000 G0
ENDBRANCH  13  15
ENDBRANCH  12  13
BRANCH  12  17
ATOM     17  C   UNL     1      13.555 -16.647 -27.944  1.00  0.00    -0.006 C 
ATOM     18  C   UNL     1      13.649 -15.199 -28.456  1.00  0.00     0.008 C 
ATOM     19  C   UNL     1      13.666 -16.635 -26.407  1.00  0.00     0.008 C 
ENDBRANCH  12  17
ENDBRANCH  11  12
ENDBRANCH   1  11
TORSDOF 1
ENDMDL
MODEL 9
REMARK VINA RESULT:    -4.134      1.744      4.001
REMARK INTER + INTRA:          -6.069
REMARK INTER:                  -6.089
REMARK INTRA:                   0.020
REMARK UNBOUND:                 0.241
REMARK SMILES CC1=CCC[C@H](C)C(=O)C[C@H](C(C)C)C(=O)C1
REMARK SMILES IDX 8 1 9 2 6 3 7 4 5 5 4 6 3 7 2 8 1 9 10 11 11 12 15 13 16 14
REMARK SMILES IDX 17 15 12 17 13 18 14 19
REMARK H PARENT
REMARK Flexibility Score: 70.00
ROOT
ATOM      1  C   UNL     1      12.853 -18.115 -31.779  1.00  0.00     0.136 C 
ATOM      2  O   UNL     1      13.886 -17.975 -32.420  1.00  0.00    -0.299 OA
ENDROOT
BRANCH   1   3
ATOM      3  C   UNL     1      12.591 -19.467 -31.135  1.00  0.00     0.053 C 
ATOM      4  C   UNL     1      12.635 -20.554 -32.215  1.00  0.00     0.016 C 
BRANCH   3   5
ATOM      5  C   UNL     1      13.625 -19.781 -30.024  1.00  0.00     0.015 C 
BRANCH   5   6
ATOM      6  C   UNL     1      13.254 -19.243 -28.629  1.00  0.00     0.028 C 
BRANCH   6   7
ATOM      7  C   UNL     1      13.660 -17.799 -28.454  1.00  0.00    -0.028 C 
ATOM      8  C   UNL     1      12.815 -16.742 -28.401  1.00  0.00    -0.070 CG0
ATOM      9  C   UNL     1      13.422 -15.367 -28.266  1.00  0.00     0.039 C 
ATOM     10  G   UNL     1      11.303 -16.878 -28.385  1.00  0.00     0.000 G0
ENDBRANCH   6   7
ENDBRANCH   5   6
ENDBRANCH   3   5
ENDBRANCH   1   3
BRANCH   1  11
ATOM     11  C   UNL     1      11.905 -16.929 -31.731  1.00  0.00     0.087 C 
BRANCH  11  12
ATOM     12  C   UNL     1      10.570 -17.079 -30.951  1.00  0.00     0.066 C 
BRANCH  12  13
ATOM     13  C   UNL     1      10.577 -16.364 -29.605  1.00  0.00     0.140 C 
ATOM     14  O   UNL     1      10.092 -15.242 -29.551  1.00  0.00    -0.299 OA
BRANCH  13  15
ATOM     15  C   UNL     1      11.288 -16.885 -28.374  1.00  0.00     0.106 CG0
ATOM     16  G   UNL     1      12.800 -16.744 -28.405  1.00  0.00     0.000 G0
ENDBRANCH  13  15
ENDBRANCH  12  13
BRANCH  12  17
ATOM     17  C   UNL     1       9.343 -16.615 -31.805  1.00  0.00    -0.006 C 
ATOM     18  C   UNL     1       9.641 -15.340 -32.615  1.00  0.00     0.008 C 
ATOM     19  C   UNL     1       8.880 -17.719 -32.776  1.00  0.00     0.008 C 
ENDBRANCH  12  17
ENDBRANCH  11  12
ENDBRANCH   1  11
TORSDOF 1
ENDMDL
