MODEL 1
REMARK VINA RESULT:    -2.875      0.000      0.000
REMARK INTER + INTRA:          -3.508
REMARK INTER:                  -3.379
REMARK INTRA:                  -0.129
REMARK UNBOUND:                -0.129
REMARK SMILES O=C([O-])CCC(=O)[O-]
REMARK SMILES IDX 4 1 2 2 1 3 3 4 5 5 6 6 7 7 8 8
REMARK H PARENT
REMARK Flexibility Score: inf
ROOT
ATOM      1  C   UNL     1     -97.419 -41.074  87.441  1.00  0.00     0.059 C 
ENDROOT
BRANCH   1   2
ATOM      2  C   UNL     1     -97.451 -39.964  88.448  1.00  0.00     0.042 C 
ATOM      3  O   UNL     1     -96.858 -38.878  88.215  1.00  0.00    -0.550 OA
ATOM      4  O   UNL     1     -98.172 -40.115  89.626  1.00  0.00    -0.550 OA
ENDBRANCH   1   2
BRANCH   1   5
ATOM      5  C   UNL     1     -96.119 -41.880  87.532  1.00  0.00     0.059 C 
BRANCH   5   6
ATOM      6  C   UNL     1     -96.200 -42.943  88.584  1.00  0.00     0.042 C 
ATOM      7  O   UNL     1     -96.692 -44.068  88.311  1.00  0.00    -0.550 OA
ATOM      8  O   UNL     1     -95.770 -42.676  89.878  1.00  0.00    -0.550 OA
ENDBRANCH   5   6
ENDBRANCH   1   5
TORSDOF 3
ENDMDL
MODEL 2
REMARK VINA RESULT:    -2.793      0.199      3.556
REMARK INTER + INTRA:          -3.411
REMARK INTER:                  -3.283
REMARK INTRA:                  -0.128
REMARK UNBOUND:                -0.129
REMARK SMILES O=C([O-])CCC(=O)[O-]
REMARK SMILES IDX 4 1 2 2 1 3 3 4 5 5 6 6 7 7 8 8
REMARK H PARENT
REMARK Flexibility Score: inf
ROOT
ATOM      1  C   UNL     1     -96.137 -41.950  87.624  1.00  0.00     0.059 C 
ENDROOT
BRANCH   1   2
ATOM      2  C   UNL     1     -96.317 -42.927  88.746  1.00  0.00     0.042 C 
ATOM      3  O   UNL     1     -95.784 -42.711  89.867  1.00  0.00    -0.550 OA
ATOM      4  O   UNL     1     -97.108 -44.055  88.566  1.00  0.00    -0.550 OA
ENDBRANCH   1   2
BRANCH   1   5
ATOM      5  C   UNL     1     -97.397 -41.108  87.402  1.00  0.00     0.059 C 
BRANCH   5   6
ATOM      6  C   UNL     1     -97.479 -39.969  88.372  1.00  0.00     0.042 C 
ATOM      7  O   UNL     1     -96.858 -38.899  88.146  1.00  0.00    -0.550 OA
ATOM      8  O   UNL     1     -98.209 -40.107  89.547  1.00  0.00    -0.550 OA
ENDBRANCH   5   6
ENDBRANCH   1   5
TORSDOF 3
ENDMDL
MODEL 3
REMARK VINA RESULT:    -2.732     13.042     15.127
REMARK INTER + INTRA:          -3.340
REMARK INTER:                  -3.299
REMARK INTRA:                  -0.041
REMARK UNBOUND:                -0.129
REMARK SMILES O=C([O-])CCC(=O)[O-]
REMARK SMILES IDX 4 1 2 2 1 3 3 4 5 5 6 6 7 7 8 8
REMARK H PARENT
REMARK Flexibility Score: inf
ROOT
ATOM      1  C   UNL     1     -96.576 -28.300  83.590  1.00  0.00     0.059 C 
ENDROOT
BRANCH   1   2
ATOM      2  C   UNL     1     -96.187 -28.497  85.024  1.00  0.00     0.042 C 
ATOM      3  O   UNL     1     -96.035 -27.504  85.782  1.00  0.00    -0.550 OA
ATOM      4  O   UNL     1     -96.033 -29.781  85.531  1.00  0.00    -0.550 OA
ENDBRANCH   1   2
BRANCH   1   5
ATOM      5  C   UNL     1     -96.432 -26.835  83.163  1.00  0.00     0.059 C 
BRANCH   5   6
ATOM      6  C   UNL     1     -95.907 -26.716  81.765  1.00  0.00     0.042 C 
ATOM      7  O   UNL     1     -96.301 -27.508  80.870  1.00  0.00    -0.550 OA
ATOM      8  O   UNL     1     -94.950 -25.755  81.461  1.00  0.00    -0.550 OA
ENDBRANCH   5   6
ENDBRANCH   1   5
TORSDOF 3
ENDMDL
MODEL 4
REMARK VINA RESULT:    -2.721     13.077     15.029
REMARK INTER + INTRA:          -3.327
REMARK INTER:                  -3.286
REMARK INTRA:                  -0.041
REMARK UNBOUND:                -0.129
REMARK SMILES O=C([O-])CCC(=O)[O-]
REMARK SMILES IDX 4 1 2 2 1 3 3 4 5 5 6 6 7 7 8 8
REMARK H PARENT
REMARK Flexibility Score: inf
ROOT
ATOM      1  C   UNL     1     -96.507 -26.789  83.220  1.00  0.00     0.059 C 
ENDROOT
BRANCH   1   2
ATOM      2  C   UNL     1     -95.949 -26.609  81.840  1.00  0.00     0.042 C 
ATOM      3  O   UNL     1     -96.404 -27.284  80.879  1.00  0.00    -0.550 OA
ATOM      4  O   UNL     1     -94.956 -25.666  81.610  1.00  0.00    -0.550 OA
ENDBRANCH   1   2
BRANCH   1   5
ATOM      5  C   UNL     1     -96.602 -28.270  83.601  1.00  0.00     0.059 C 
BRANCH   5   6
ATOM      6  C   UNL     1     -96.227 -28.497  85.033  1.00  0.00     0.042 C 
ATOM      7  O   UNL     1     -96.030 -27.518  85.800  1.00  0.00    -0.550 OA
ATOM      8  O   UNL     1     -96.054 -29.791  85.511  1.00  0.00    -0.550 OA
ENDBRANCH   5   6
ENDBRANCH   1   5
TORSDOF 3
ENDMDL
MODEL 5
REMARK VINA RESULT:    -2.691      1.948      2.931
REMARK INTER + INTRA:          -3.292
REMARK INTER:                  -3.115
REMARK INTRA:                  -0.177
REMARK UNBOUND:                -0.129
REMARK SMILES O=C([O-])CCC(=O)[O-]
REMARK SMILES IDX 4 1 2 2 1 3 3 4 5 5 6 6 7 7 8 8
REMARK H PARENT
REMARK Flexibility Score: inf
ROOT
ATOM      1  C   UNL     1     -97.084 -40.078  88.015  1.00  0.00     0.059 C 
ENDROOT
BRANCH   1   2
ATOM      2  C   UNL     1     -97.090 -41.467  87.450  1.00  0.00     0.042 C 
ATOM      3  O   UNL     1     -98.147 -41.949  86.964  1.00  0.00    -0.550 OA
ATOM      4  O   UNL     1     -95.917 -42.211  87.424  1.00  0.00    -0.550 OA
ENDBRANCH   1   2
BRANCH   1   5
ATOM      5  C   UNL     1     -97.967 -39.973  89.262  1.00  0.00     0.059 C 
BRANCH   5   6
ATOM      6  C   UNL     1     -97.575 -40.976  90.303  1.00  0.00     0.042 C 
ATOM      7  O   UNL     1     -98.428 -41.780  90.761  1.00  0.00    -0.550 OA
ATOM      8  O   UNL     1     -96.276 -40.995  90.797  1.00  0.00    -0.550 OA
ENDBRANCH   5   6
ENDBRANCH   1   5
TORSDOF 3
ENDMDL
MODEL 6
REMARK VINA RESULT:    -2.678     12.803     14.762
REMARK INTER + INTRA:          -3.276
REMARK INTER:                  -3.200
REMARK INTRA:                  -0.076
REMARK UNBOUND:                -0.129
REMARK SMILES O=C([O-])CCC(=O)[O-]
REMARK SMILES IDX 4 1 2 2 1 3 3 4 5 5 6 6 7 7 8 8
REMARK H PARENT
REMARK Flexibility Score: inf
ROOT
ATOM      1  C   UNL     1     -96.584 -28.155  83.737  1.00  0.00     0.059 C 
ENDROOT
BRANCH   1   2
ATOM      2  C   UNL     1     -96.197 -28.572  85.124  1.00  0.00     0.042 C 
ATOM      3  O   UNL     1     -95.759 -27.722  85.943  1.00  0.00    -0.550 OA
ATOM      4  O   UNL     1     -96.359 -29.893  85.523  1.00  0.00    -0.550 OA
ENDBRANCH   1   2
BRANCH   1   5
ATOM      5  C   UNL     1     -97.102 -26.713  83.706  1.00  0.00     0.059 C 
BRANCH   5   6
ATOM      6  C   UNL     1     -98.429 -26.588  84.390  1.00  0.00     0.042 C 
ATOM      7  O   UNL     1     -98.596 -25.730  85.296  1.00  0.00    -0.550 OA
ATOM      8  O   UNL     1     -99.469 -27.447  84.055  1.00  0.00    -0.550 OA
ENDBRANCH   5   6
ENDBRANCH   1   5
TORSDOF 3
ENDMDL
MODEL 7
REMARK VINA RESULT:    -2.672      1.989      2.469
REMARK INTER + INTRA:          -3.270
REMARK INTER:                  -3.103
REMARK INTRA:                  -0.167
REMARK UNBOUND:                -0.129
REMARK SMILES O=C([O-])CCC(=O)[O-]
REMARK SMILES IDX 4 1 2 2 1 3 3 4 5 5 6 6 7 7 8 8
REMARK H PARENT
REMARK Flexibility Score: inf
ROOT
ATOM      1  C   UNL     1     -97.936 -40.113  89.295  1.00  0.00     0.059 C 
ENDROOT
BRANCH   1   2
ATOM      2  C   UNL     1     -97.373 -41.098  90.276  1.00  0.00     0.042 C 
ATOM      3  O   UNL     1     -96.211 -40.941  90.736  1.00  0.00    -0.550 OA
ATOM      4  O   UNL     1     -98.148 -42.165  90.711  1.00  0.00    -0.550 OA
ENDBRANCH   1   2
BRANCH   1   5
ATOM      5  C   UNL     1     -97.139 -40.102  87.987  1.00  0.00     0.059 C 
BRANCH   5   6
ATOM      6  C   UNL     1     -97.038 -41.473  87.390  1.00  0.00     0.042 C 
ATOM      7  O   UNL     1     -98.062 -42.040  86.928  1.00  0.00    -0.550 OA
ATOM      8  O   UNL     1     -95.819 -42.140  87.382  1.00  0.00    -0.550 OA
ENDBRANCH   5   6
ENDBRANCH   1   5
TORSDOF 3
ENDMDL
MODEL 8
REMARK VINA RESULT:    -2.647     12.809     14.485
REMARK INTER + INTRA:          -3.240
REMARK INTER:                  -3.171
REMARK INTRA:                  -0.069
REMARK UNBOUND:                -0.129
REMARK SMILES O=C([O-])CCC(=O)[O-]
REMARK SMILES IDX 4 1 2 2 1 3 3 4 5 5 6 6 7 7 8 8
REMARK H PARENT
REMARK Flexibility Score: inf
ROOT
ATOM      1  C   UNL     1     -97.223 -26.800  83.654  1.00  0.00     0.059 C 
ENDROOT
BRANCH   1   2
ATOM      2  C   UNL     1     -98.543 -26.608  84.338  1.00  0.00     0.042 C 
ATOM      3  O   UNL     1     -99.513 -27.364  84.067  1.00  0.00    -0.550 OA
ATOM      4  O   UNL     1     -98.688 -25.622  85.304  1.00  0.00    -0.550 OA
ENDBRANCH   1   2
BRANCH   1   5
ATOM      5  C   UNL     1     -96.740 -28.250  83.756  1.00  0.00     0.059 C 
BRANCH   5   6
ATOM      6  C   UNL     1     -96.223 -28.566  85.126  1.00  0.00     0.042 C 
ATOM      7  O   UNL     1     -95.806 -27.643  85.874  1.00  0.00    -0.550 OA
ATOM      8  O   UNL     1     -96.164 -29.884  85.562  1.00  0.00    -0.550 OA
ENDBRANCH   5   6
ENDBRANCH   1   5
TORSDOF 3
ENDMDL
MODEL 9
REMARK VINA RESULT:    -2.585      1.604      2.093
REMARK INTER + INTRA:          -3.167
REMARK INTER:                  -3.054
REMARK INTRA:                  -0.113
REMARK UNBOUND:                -0.129
REMARK SMILES O=C([O-])CCC(=O)[O-]
REMARK SMILES IDX 4 1 2 2 1 3 3 4 5 5 6 6 7 7 8 8
REMARK H PARENT
REMARK Flexibility Score: inf
ROOT
ATOM      1  C   UNL     1     -97.681 -40.458  89.702  1.00  0.00     0.059 C 
ENDROOT
BRANCH   1   2
ATOM      2  C   UNL     1     -97.262 -39.821  88.412  1.00  0.00     0.042 C 
ATOM      3  O   UNL     1     -97.323 -40.470  87.334  1.00  0.00    -0.550 OA
ATOM      4  O   UNL     1     -96.845 -38.496  88.395  1.00  0.00    -0.550 OA
ENDBRANCH   1   2
BRANCH   1   5
ATOM      5  C   UNL     1     -96.501 -41.136  90.405  1.00  0.00     0.059 C 
BRANCH   5   6
ATOM      6  C   UNL     1     -96.446 -42.602  90.104  1.00  0.00     0.042 C 
ATOM      7  O   UNL     1     -96.839 -43.440  90.957  1.00  0.00    -0.550 OA
ATOM      8  O   UNL     1     -95.923 -43.046  88.895  1.00  0.00    -0.550 OA
ENDBRANCH   5   6
ENDBRANCH   1   5
TORSDOF 3
ENDMDL
