MODEL 1
REMARK VINA RESULT:    -4.343      0.000      0.000
REMARK INTER + INTRA:          -8.903
REMARK INTER:                  -7.643
REMARK INTRA:                  -1.259
REMARK UNBOUND:                -1.259
REMARK SMILES CCCCCCCCCCCCCCC(=O)[O-]
REMARK SMILES IDX 9 1 10 2 11 3 12 4 13 5 14 6 15 7 16 8 17 9 8 10 7 11 6 12
REMARK SMILES IDX 5 13 4 14 3 15 2 16 1 17
REMARK H PARENT
REMARK Flexibility Score: inf
ROOT
ATOM      1  C   UNL     1      23.521  -2.444  54.800  1.00  0.00     0.000 C 
ENDROOT
BRANCH   1   2
ATOM      2  C   UNL     1      24.321  -3.163  55.899  1.00  0.00     0.000 C 
BRANCH   2   3
ATOM      3  C   UNL     1      23.768  -2.886  57.309  1.00  0.00     0.000 C 
BRANCH   3   4
ATOM      4  C   UNL     1      22.697  -3.903  57.735  1.00  0.00     0.000 C 
BRANCH   4   5
ATOM      5  C   UNL     1      21.266  -3.397  57.484  1.00  0.00     0.006 C 
BRANCH   5   6
ATOM      6  C   UNL     1      21.064  -1.962  57.987  1.00  0.00     0.053 C 
BRANCH   6   7
ATOM      7  C   UNL     1      20.586  -1.052  56.897  1.00  0.00     0.041 C 
ATOM      8  O   UNL     1      19.429  -1.186  56.420  1.00  0.00    -0.550 OA
ATOM      9  O   UNL     1      21.431  -0.073  56.390  1.00  0.00    -0.550 OA
ENDBRANCH   6   7
ENDBRANCH   5   6
ENDBRANCH   4   5
ENDBRANCH   3   4
ENDBRANCH   2   3
ENDBRANCH   1   2
BRANCH   1  10
ATOM     10  C   UNL     1      23.049  -3.400  53.692  1.00  0.00     0.000 C 
BRANCH  10  11
ATOM     11  C   UNL     1      22.990  -4.867  54.156  1.00  0.00    -0.000 C 
BRANCH  11  12
ATOM     12  C   UNL     1      23.483  -5.902  53.125  1.00  0.00    -0.000 C 
BRANCH  12  13
ATOM     13  C   UNL     1      24.812  -5.551  52.431  1.00  0.00    -0.000 C 
BRANCH  13  14
ATOM     14  C   UNL     1      25.970  -5.361  53.422  1.00  0.00    -0.000 C 
BRANCH  14  15
ATOM     15  C   UNL     1      27.065  -6.414  53.192  1.00  0.00    -0.000 C 
BRANCH  15  16
ATOM     16  C   UNL     1      28.330  -5.822  52.554  1.00  0.00    -0.003 C 
ATOM     17  C   UNL     1      29.463  -6.841  52.430  1.00  0.00     0.004 C 
ENDBRANCH  15  16
ENDBRANCH  14  15
ENDBRANCH  13  14
ENDBRANCH  12  13
ENDBRANCH  11  12
ENDBRANCH  10  11
ENDBRANCH   1  10
TORSDOF 13
ENDMDL
MODEL 2
REMARK VINA RESULT:    -4.289      4.239      7.976
REMARK INTER + INTRA:          -8.808
REMARK INTER:                  -7.712
REMARK INTRA:                  -1.096
REMARK UNBOUND:                -1.259
REMARK SMILES CCCCCCCCCCCCCCC(=O)[O-]
REMARK SMILES IDX 9 1 10 2 11 3 12 4 13 5 14 6 15 7 16 8 17 9 8 10 7 11 6 12
REMARK SMILES IDX 5 13 4 14 3 15 2 16 1 17
REMARK H PARENT
REMARK Flexibility Score: inf
ROOT
ATOM      1  C   UNL     1      23.546  -4.133  53.441  1.00  0.00     0.000 C 
ENDROOT
BRANCH   1   2
ATOM      2  C   UNL     1      23.281  -5.604  53.078  1.00  0.00     0.000 C 
BRANCH   2   3
ATOM      3  C   UNL     1      24.531  -6.487  53.244  1.00  0.00     0.000 C 
BRANCH   3   4
ATOM      4  C   UNL     1      25.800  -5.826  52.683  1.00  0.00     0.000 C 
BRANCH   4   5
ATOM      5  C   UNL     1      27.060  -6.177  53.494  1.00  0.00     0.006 C 
BRANCH   5   6
ATOM      6  C   UNL     1      28.347  -5.765  52.768  1.00  0.00     0.053 C 
BRANCH   6   7
ATOM      7  C   UNL     1      29.134  -6.956  52.311  1.00  0.00     0.041 C 
ATOM      8  O   UNL     1      29.968  -7.500  53.082  1.00  0.00    -0.550 OA
ATOM      9  O   UNL     1      28.965  -7.447  51.023  1.00  0.00    -0.550 OA
ENDBRANCH   6   7
ENDBRANCH   5   6
ENDBRANCH   4   5
ENDBRANCH   3   4
ENDBRANCH   2   3
ENDBRANCH   1   2
BRANCH   1  10
ATOM     10  C   UNL     1      22.995  -3.761  54.828  1.00  0.00     0.000 C 
BRANCH  10  11
ATOM     11  C   UNL     1      24.087  -3.251  55.786  1.00  0.00    -0.000 C 
BRANCH  11  12
ATOM     12  C   UNL     1      23.669  -3.156  57.268  1.00  0.00    -0.000 C 
BRANCH  12  13
ATOM     13  C   UNL     1      22.467  -4.033  57.664  1.00  0.00    -0.000 C 
BRANCH  13  14
ATOM     14  C   UNL     1      21.161  -3.234  57.791  1.00  0.00    -0.000 C 
BRANCH  14  15
ATOM     15  C   UNL     1      21.450  -1.762  58.124  1.00  0.00    -0.000 C 
BRANCH  15  16
ATOM     16  C   UNL     1      20.782  -0.792  57.140  1.00  0.00    -0.003 C 
ATOM     17  C   UNL     1      21.708  -0.381  55.993  1.00  0.00     0.004 C 
ENDBRANCH  15  16
ENDBRANCH  14  15
ENDBRANCH  13  14
ENDBRANCH  12  13
ENDBRANCH  11  12
ENDBRANCH  10  11
ENDBRANCH   1  10
TORSDOF 13
ENDMDL
MODEL 3
REMARK VINA RESULT:    -4.091     14.986     16.513
REMARK INTER + INTRA:          -8.459
REMARK INTER:                  -6.285
REMARK INTRA:                  -2.174
REMARK UNBOUND:                -1.259
REMARK SMILES CCCCCCCCCCCCCCC(=O)[O-]
REMARK SMILES IDX 9 1 10 2 11 3 12 4 13 5 14 6 15 7 16 8 17 9 8 10 7 11 6 12
REMARK SMILES IDX 5 13 4 14 3 15 2 16 1 17
REMARK H PARENT
REMARK Flexibility Score: inf
ROOT
ATOM      1  C   UNL     1      29.975   9.205  44.773  1.00  0.00     0.000 C 
ENDROOT
BRANCH   1   2
ATOM      2  C   UNL     1      29.485   7.799  45.156  1.00  0.00     0.000 C 
BRANCH   2   3
ATOM      3  C   UNL     1      29.859   7.417  46.599  1.00  0.00     0.000 C 
BRANCH   3   4
ATOM      4  C   UNL     1      29.998   5.898  46.792  1.00  0.00     0.000 C 
BRANCH   4   5
ATOM      5  C   UNL     1      31.385   5.492  47.322  1.00  0.00     0.006 C 
BRANCH   5   6
ATOM      6  C   UNL     1      31.471   5.594  48.850  1.00  0.00     0.053 C 
BRANCH   6   7
ATOM      7  C   UNL     1      31.388   4.248  49.503  1.00  0.00     0.041 C 
ATOM      8  O   UNL     1      32.418   3.534  49.619  1.00  0.00    -0.550 OA
ATOM      9  O   UNL     1      30.166   3.772  49.960  1.00  0.00    -0.550 OA
ENDBRANCH   6   7
ENDBRANCH   5   6
ENDBRANCH   4   5
ENDBRANCH   3   4
ENDBRANCH   2   3
ENDBRANCH   1   2
BRANCH   1  10
ATOM     10  C   UNL     1      30.737   9.895  45.916  1.00  0.00     0.000 C 
BRANCH  10  11
ATOM     11  C   UNL     1      32.175  10.284  45.526  1.00  0.00    -0.000 C 
BRANCH  11  12
ATOM     12  C   UNL     1      33.283   9.670  46.406  1.00  0.00    -0.000 C 
BRANCH  12  13
ATOM     13  C   UNL     1      33.674   8.224  46.050  1.00  0.00    -0.000 C 
BRANCH  13  14
ATOM     14  C   UNL     1      33.538   7.920  44.551  1.00  0.00    -0.000 C 
BRANCH  14  15
ATOM     15  C   UNL     1      32.944   6.522  44.327  1.00  0.00    -0.000 C 
BRANCH  15  16
ATOM     16  C   UNL     1      32.255   6.384  42.961  1.00  0.00    -0.003 C 
ATOM     17  C   UNL     1      31.314   5.180  42.891  1.00  0.00     0.004 C 
ENDBRANCH  15  16
ENDBRANCH  14  15
ENDBRANCH  13  14
ENDBRANCH  12  13
ENDBRANCH  11  12
ENDBRANCH  10  11
ENDBRANCH   1  10
TORSDOF 13
ENDMDL
MODEL 4
REMARK VINA RESULT:    -4.003     15.410     17.277
REMARK INTER + INTRA:          -8.305
REMARK INTER:                  -6.692
REMARK INTRA:                  -1.613
REMARK UNBOUND:                -1.259
REMARK SMILES CCCCCCCCCCCCCCC(=O)[O-]
REMARK SMILES IDX 9 1 10 2 11 3 12 4 13 5 14 6 15 7 16 8 17 9 8 10 7 11 6 12
REMARK SMILES IDX 5 13 4 14 3 15 2 16 1 17
REMARK H PARENT
REMARK Flexibility Score: inf
ROOT
ATOM      1  C   UNL     1      32.772   9.444  46.143  1.00  0.00     0.000 C 
ENDROOT
BRANCH   1   2
ATOM      2  C   UNL     1      33.407   8.045  46.077  1.00  0.00     0.000 C 
BRANCH   2   3
ATOM      3  C   UNL     1      33.397   7.459  44.653  1.00  0.00     0.000 C 
BRANCH   3   4
ATOM      4  C   UNL     1      32.594   6.152  44.556  1.00  0.00     0.000 C 
BRANCH   4   5
ATOM      5  C   UNL     1      31.587   6.159  43.393  1.00  0.00     0.006 C 
BRANCH   5   6
ATOM      6  C   UNL     1      32.152   5.482  42.137  1.00  0.00     0.053 C 
BRANCH   6   7
ATOM      7  C   UNL     1      31.087   5.229  41.114  1.00  0.00     0.041 C 
ATOM      8  O   UNL     1      31.259   5.581  39.918  1.00  0.00    -0.550 OA
ATOM      9  O   UNL     1      29.892   4.627  41.490  1.00  0.00    -0.550 OA
ENDBRANCH   6   7
ENDBRANCH   5   6
ENDBRANCH   4   5
ENDBRANCH   3   4
ENDBRANCH   2   3
ENDBRANCH   1   2
BRANCH   1  10
ATOM     10  C   UNL     1      31.500   9.555  45.285  1.00  0.00     0.000 C 
BRANCH  10  11
ATOM     11  C   UNL     1      30.214   9.285  46.086  1.00  0.00    -0.000 C 
BRANCH  11  12
ATOM     12  C   UNL     1      29.640   7.860  45.948  1.00  0.00    -0.000 C 
BRANCH  12  13
ATOM     13  C   UNL     1      29.461   7.096  47.273  1.00  0.00    -0.000 C 
BRANCH  13  14
ATOM     14  C   UNL     1      30.170   5.734  47.277  1.00  0.00    -0.000 C 
BRANCH  14  15
ATOM     15  C   UNL     1      31.329   5.723  48.285  1.00  0.00    -0.000 C 
BRANCH  15  16
ATOM     16  C   UNL     1      31.055   4.813  49.491  1.00  0.00    -0.003 C 
ATOM     17  C   UNL     1      31.997   3.610  49.553  1.00  0.00     0.004 C 
ENDBRANCH  15  16
ENDBRANCH  14  15
ENDBRANCH  13  14
ENDBRANCH  12  13
ENDBRANCH  11  12
ENDBRANCH  10  11
ENDBRANCH   1  10
TORSDOF 13
ENDMDL
MODEL 5
REMARK VINA RESULT:    -3.981      3.395      6.907
REMARK INTER + INTRA:          -8.267
REMARK INTER:                  -6.712
REMARK INTRA:                  -1.555
REMARK UNBOUND:                -1.259
REMARK SMILES CCCCCCCCCCCCCCC(=O)[O-]
REMARK SMILES IDX 9 1 10 2 11 3 12 4 13 5 14 6 15 7 16 8 17 9 8 10 7 11 6 12
REMARK SMILES IDX 5 13 4 14 3 15 2 16 1 17
REMARK H PARENT
REMARK Flexibility Score: inf
ROOT
ATOM      1  C   UNL     1      22.778  -3.493  54.067  1.00  0.00     0.000 C 
ENDROOT
BRANCH   1   2
ATOM      2  C   UNL     1      23.621  -4.726  53.699  1.00  0.00     0.000 C 
BRANCH   2   3
ATOM      3  C   UNL     1      23.893  -4.824  52.187  1.00  0.00     0.000 C 
BRANCH   3   4
ATOM      4  C   UNL     1      22.918  -3.978  51.354  1.00  0.00     0.000 C 
BRANCH   4   5
ATOM      5  C   UNL     1      23.631  -3.136  50.281  1.00  0.00     0.006 C 
BRANCH   5   6
ATOM      6  C   UNL     1      24.126  -1.793  50.836  1.00  0.00     0.053 C 
BRANCH   6   7
ATOM      7  C   UNL     1      24.012  -0.696  49.822  1.00  0.00     0.041 C 
ATOM      8  O   UNL     1      22.897  -0.419  49.309  1.00  0.00    -0.550 OA
ATOM      9  O   UNL     1      25.145   0.002  49.424  1.00  0.00    -0.550 OA
ENDBRANCH   6   7
ENDBRANCH   5   6
ENDBRANCH   4   5
ENDBRANCH   3   4
ENDBRANCH   2   3
ENDBRANCH   1   2
BRANCH   1  10
ATOM     10  C   UNL     1      23.561  -2.476  54.915  1.00  0.00     0.000 C 
BRANCH  10  11
ATOM     11  C   UNL     1      24.347  -3.136  56.062  1.00  0.00    -0.000 C 
BRANCH  11  12
ATOM     12  C   UNL     1      23.648  -3.112  57.437  1.00  0.00    -0.000 C 
BRANCH  12  13
ATOM     13  C   UNL     1      22.364  -3.957  57.531  1.00  0.00    -0.000 C 
BRANCH  13  14
ATOM     14  C   UNL     1      21.088  -3.104  57.531  1.00  0.00    -0.000 C 
BRANCH  14  15
ATOM     15  C   UNL     1      21.405  -1.643  57.882  1.00  0.00    -0.000 C 
BRANCH  15  16
ATOM     16  C   UNL     1      20.749  -0.647  56.914  1.00  0.00    -0.003 C 
ATOM     17  C   UNL     1      20.189  -1.321  55.661  1.00  0.00     0.004 C 
ENDBRANCH  15  16
ENDBRANCH  14  15
ENDBRANCH  13  14
ENDBRANCH  12  13
ENDBRANCH  11  12
ENDBRANCH  10  11
ENDBRANCH   1  10
TORSDOF 13
ENDMDL
MODEL 6
REMARK VINA RESULT:    -3.911     11.957     13.892
REMARK INTER + INTRA:          -8.142
REMARK INTER:                  -6.567
REMARK INTRA:                  -1.575
REMARK UNBOUND:                -1.259
REMARK SMILES CCCCCCCCCCCCCCC(=O)[O-]
REMARK SMILES IDX 9 1 10 2 11 3 12 4 13 5 14 6 15 7 16 8 17 9 8 10 7 11 6 12
REMARK SMILES IDX 5 13 4 14 3 15 2 16 1 17
REMARK H PARENT
REMARK Flexibility Score: inf
ROOT
ATOM      1  C   UNL     1      28.752   5.630  48.724  1.00  0.00     0.000 C 
ENDROOT
BRANCH   1   2
ATOM      2  C   UNL     1      29.919   4.971  49.478  1.00  0.00     0.000 C 
BRANCH   2   3
ATOM      3  C   UNL     1      31.260   5.123  48.737  1.00  0.00     0.000 C 
BRANCH   3   4
ATOM      4  C   UNL     1      31.154   6.030  47.501  1.00  0.00     0.000 C 
BRANCH   4   5
ATOM      5  C   UNL     1      31.478   5.289  46.192  1.00  0.00     0.006 C 
BRANCH   5   6
ATOM      6  C   UNL     1      30.478   5.624  45.077  1.00  0.00     0.053 C 
BRANCH   6   7
ATOM      7  C   UNL     1      30.500   4.601  43.984  1.00  0.00     0.041 C 
ATOM      8  O   UNL     1      31.143   4.818  42.924  1.00  0.00    -0.550 OA
ATOM      9  O   UNL     1      29.786   3.417  44.125  1.00  0.00    -0.550 OA
ENDBRANCH   6   7
ENDBRANCH   5   6
ENDBRANCH   4   5
ENDBRANCH   3   4
ENDBRANCH   2   3
ENDBRANCH   1   2
BRANCH   1  10
ATOM     10  C   UNL     1      27.736   4.603  48.196  1.00  0.00     0.000 C 
BRANCH  10  11
ATOM     11  C   UNL     1      27.229   4.938  46.782  1.00  0.00    -0.000 C 
BRANCH  11  12
ATOM     12  C   UNL     1      26.825   3.721  45.924  1.00  0.00    -0.000 C 
BRANCH  12  13
ATOM     13  C   UNL     1      25.316   3.587  45.651  1.00  0.00    -0.000 C 
BRANCH  13  14
ATOM     14  C   UNL     1      24.481   3.508  46.937  1.00  0.00    -0.000 C 
BRANCH  14  15
ATOM     15  C   UNL     1      24.734   2.184  47.674  1.00  0.00    -0.000 C 
BRANCH  15  16
ATOM     16  C   UNL     1      24.818   2.362  49.197  1.00  0.00    -0.003 C 
ATOM     17  C   UNL     1      24.482   3.785  49.647  1.00  0.00     0.004 C 
ENDBRANCH  15  16
ENDBRANCH  14  15
ENDBRANCH  13  14
ENDBRANCH  12  13
ENDBRANCH  11  12
ENDBRANCH  10  11
ENDBRANCH   1  10
TORSDOF 13
ENDMDL
MODEL 7
REMARK VINA RESULT:    -3.893      3.366      6.530
REMARK INTER + INTRA:          -8.111
REMARK INTER:                  -5.864
REMARK INTRA:                  -2.247
REMARK UNBOUND:                -1.259
REMARK SMILES CCCCCCCCCCCCCCC(=O)[O-]
REMARK SMILES IDX 9 1 10 2 11 3 12 4 13 5 14 6 15 7 16 8 17 9 8 10 7 11 6 12
REMARK SMILES IDX 5 13 4 14 3 15 2 16 1 17
REMARK H PARENT
REMARK Flexibility Score: inf
ROOT
ATOM      1  C   UNL     1      21.158  -5.340  56.147  1.00  0.00     0.000 C 
ENDROOT
BRANCH   1   2
ATOM      2  C   UNL     1      20.361  -4.795  54.950  1.00  0.00     0.000 C 
BRANCH   2   3
ATOM      3  C   UNL     1      21.007  -5.154  53.599  1.00  0.00     0.000 C 
BRANCH   3   4
ATOM      4  C   UNL     1      22.359  -5.867  53.760  1.00  0.00     0.000 C 
BRANCH   4   5
ATOM      5  C   UNL     1      23.496  -5.160  53.001  1.00  0.00     0.006 C 
BRANCH   5   6
ATOM      6  C   UNL     1      23.109  -3.738  52.575  1.00  0.00     0.053 C 
BRANCH   6   7
ATOM      7  C   UNL     1      23.578  -3.426  51.187  1.00  0.00     0.041 C 
ATOM      8  O   UNL     1      23.995  -2.274  50.901  1.00  0.00    -0.550 OA
ATOM      9  O   UNL     1      23.527  -4.403  50.200  1.00  0.00    -0.550 OA
ENDBRANCH   6   7
ENDBRANCH   5   6
ENDBRANCH   4   5
ENDBRANCH   3   4
ENDBRANCH   2   3
ENDBRANCH   1   2
BRANCH   1  10
ATOM     10  C   UNL     1      21.157  -4.375  57.344  1.00  0.00     0.000 C 
BRANCH  10  11
ATOM     11  C   UNL     1      22.556  -3.815  57.660  1.00  0.00    -0.000 C 
BRANCH  11  12
ATOM     12  C   UNL     1      23.476  -3.615  56.438  1.00  0.00    -0.000 C 
BRANCH  12  13
ATOM     13  C   UNL     1      23.690  -2.150  56.015  1.00  0.00    -0.000 C 
BRANCH  13  14
ATOM     14  C   UNL     1      22.465  -1.546  55.315  1.00  0.00    -0.000 C 
BRANCH  14  15
ATOM     15  C   UNL     1      21.762  -0.525  56.223  1.00  0.00    -0.000 C 
BRANCH  15  16
ATOM     16  C   UNL     1      20.299  -0.894  56.505  1.00  0.00    -0.003 C 
ATOM     17  C   UNL     1      19.531  -1.281  55.240  1.00  0.00     0.004 C 
ENDBRANCH  15  16
ENDBRANCH  14  15
ENDBRANCH  13  14
ENDBRANCH  12  13
ENDBRANCH  11  12
ENDBRANCH  10  11
ENDBRANCH   1  10
TORSDOF 13
ENDMDL
MODEL 8
REMARK VINA RESULT:    -3.876     13.707     15.180
REMARK INTER + INTRA:          -8.081
REMARK INTER:                  -6.375
REMARK INTRA:                  -1.706
REMARK UNBOUND:                -1.259
REMARK SMILES CCCCCCCCCCCCCCC(=O)[O-]
REMARK SMILES IDX 9 1 10 2 11 3 12 4 13 5 14 6 15 7 16 8 17 9 8 10 7 11 6 12
REMARK SMILES IDX 5 13 4 14 3 15 2 16 1 17
REMARK H PARENT
REMARK Flexibility Score: inf
ROOT
ATOM      1  C   UNL     1      27.784   4.547  48.450  1.00  0.00     0.000 C 
ENDROOT
BRANCH   1   2
ATOM      2  C   UNL     1      27.407   5.035  47.041  1.00  0.00     0.000 C 
BRANCH   2   3
ATOM      3  C   UNL     1      27.772   6.513  46.811  1.00  0.00     0.000 C 
BRANCH   3   4
ATOM      4  C   UNL     1      28.171   6.804  45.355  1.00  0.00     0.000 C 
BRANCH   4   5
ATOM      5  C   UNL     1      28.262   5.529  44.499  1.00  0.00     0.006 C 
BRANCH   5   6
ATOM      6  C   UNL     1      27.234   5.525  43.359  1.00  0.00     0.053 C 
BRANCH   6   7
ATOM      7  C   UNL     1      27.442   4.373  42.425  1.00  0.00     0.041 C 
ATOM      8  O   UNL     1      28.575   3.833  42.325  1.00  0.00    -0.550 OA
ATOM      9  O   UNL     1      26.390   3.912  41.644  1.00  0.00    -0.550 OA
ENDBRANCH   6   7
ENDBRANCH   5   6
ENDBRANCH   4   5
ENDBRANCH   3   4
ENDBRANCH   2   3
ENDBRANCH   1   2
BRANCH   1  10
ATOM     10  C   UNL     1      28.896   5.396  49.089  1.00  0.00     0.000 C 
BRANCH  10  11
ATOM     11  C   UNL     1      30.134   4.566  49.474  1.00  0.00    -0.000 C 
BRANCH  11  12
ATOM     12  C   UNL     1      31.456   5.017  48.821  1.00  0.00    -0.000 C 
BRANCH  12  13
ATOM     13  C   UNL     1      31.309   6.071  47.708  1.00  0.00    -0.000 C 
BRANCH  13  14
ATOM     14  C   UNL     1      31.555   5.497  46.306  1.00  0.00    -0.000 C 
BRANCH  14  15
ATOM     15  C   UNL     1      31.824   6.621  45.293  1.00  0.00    -0.000 C 
BRANCH  15  16
ATOM     16  C   UNL     1      32.186   7.951  45.970  1.00  0.00    -0.003 C 
ATOM     17  C   UNL     1      33.687   8.244  45.935  1.00  0.00     0.004 C 
ENDBRANCH  15  16
ENDBRANCH  14  15
ENDBRANCH  13  14
ENDBRANCH  12  13
ENDBRANCH  11  12
ENDBRANCH  10  11
ENDBRANCH   1  10
TORSDOF 13
ENDMDL
MODEL 9
REMARK VINA RESULT:    -3.806      0.961      1.973
REMARK INTER + INTRA:          -7.957
REMARK INTER:                  -7.416
REMARK INTRA:                  -0.541
REMARK UNBOUND:                -1.259
REMARK SMILES CCCCCCCCCCCCCCC(=O)[O-]
REMARK SMILES IDX 9 1 10 2 11 3 12 4 13 5 14 6 15 7 16 8 17 9 8 10 7 11 6 12
REMARK SMILES IDX 5 13 4 14 3 15 2 16 1 17
REMARK H PARENT
REMARK Flexibility Score: inf
ROOT
ATOM      1  C   UNL     1      23.439  -4.309  54.317  1.00  0.00     0.000 C 
ENDROOT
BRANCH   1   2
ATOM      2  C   UNL     1      23.011  -2.857  54.047  1.00  0.00     0.000 C 
BRANCH   2   3
ATOM      3  C   UNL     1      23.161  -1.957  55.287  1.00  0.00     0.000 C 
BRANCH   3   4
ATOM      4  C   UNL     1      23.792  -2.693  56.479  1.00  0.00     0.000 C 
BRANCH   4   5
ATOM      5  C   UNL     1      22.794  -2.929  57.627  1.00  0.00     0.006 C 
BRANCH   5   6
ATOM      6  C   UNL     1      21.340  -2.917  57.138  1.00  0.00     0.053 C 
BRANCH   6   7
ATOM      7  C   UNL     1      20.556  -1.796  57.748  1.00  0.00     0.041 C 
ATOM      8  O   UNL     1      21.097  -0.676  57.945  1.00  0.00    -0.550 OA
ATOM      9  O   UNL     1      19.234  -1.996  58.125  1.00  0.00    -0.550 OA
ENDBRANCH   6   7
ENDBRANCH   5   6
ENDBRANCH   4   5
ENDBRANCH   3   4
ENDBRANCH   2   3
ENDBRANCH   1   2
BRANCH   1  10
ATOM     10  C   UNL     1      22.836  -5.298  53.307  1.00  0.00     0.000 C 
BRANCH  10  11
ATOM     11  C   UNL     1      23.907  -6.071  52.516  1.00  0.00    -0.000 C 
BRANCH  11  12
ATOM     12  C   UNL     1      25.340  -5.513  52.633  1.00  0.00    -0.000 C 
BRANCH  12  13
ATOM     13  C   UNL     1      26.108  -5.944  53.896  1.00  0.00    -0.000 C 
BRANCH  13  14
ATOM     14  C   UNL     1      27.567  -6.325  53.606  1.00  0.00    -0.000 C 
BRANCH  14  15
ATOM     15  C   UNL     1      27.837  -6.349  52.094  1.00  0.00    -0.000 C 
BRANCH  15  16
ATOM     16  C   UNL     1      29.278  -6.758  51.758  1.00  0.00    -0.003 C 
ATOM     17  C   UNL     1      30.024  -7.340  52.960  1.00  0.00     0.004 C 
ENDBRANCH  15  16
ENDBRANCH  14  15
ENDBRANCH  13  14
ENDBRANCH  12  13
ENDBRANCH  11  12
ENDBRANCH  10  11
ENDBRANCH   1  10
TORSDOF 13
ENDMDL
