MODEL 1
REMARK VINA RESULT:    -3.492      0.000      0.000
REMARK INTER + INTRA:          -3.707
REMARK INTER:                  -3.696
REMARK INTRA:                  -0.011
REMARK UNBOUND:                -0.011
REMARK SMILES O=Cc1ccco1
REMARK SMILES IDX 5 1 6 2 7 3 3 4 4 5 2 6 1 7
REMARK H PARENT
REMARK Flexibility Score: inf
ROOT
ATOM      1  C   UNL     1      35.029  -4.788  23.249  1.00  0.00     0.043 A 
ATOM      2  C   UNL     1      36.087  -4.024  23.699  1.00  0.00     0.196 A 
ATOM      3  O   UNL     1      36.924  -4.779  24.373  1.00  0.00    -0.462 OA
ATOM      4  C   UNL     1      36.460  -6.007  24.382  1.00  0.00     0.166 A 
ATOM      5  C   UNL     1      35.269  -6.072  23.689  1.00  0.00     0.054 A 
ENDROOT
BRANCH   4   6
ATOM      6  C   UNL     1      37.125  -7.135  25.040  1.00  0.00     0.298 C 
ATOM      7  O   UNL     1      37.021  -7.294  26.284  1.00  0.00    -0.294 OA
ENDBRANCH   4   6
TORSDOF 1
ENDMDL
MODEL 2
REMARK VINA RESULT:    -3.096      8.424      9.298
REMARK INTER + INTRA:          -3.288
REMARK INTER:                  -3.273
REMARK INTRA:                  -0.015
REMARK UNBOUND:                -0.011
REMARK SMILES O=Cc1ccco1
REMARK SMILES IDX 5 1 6 2 7 3 3 4 4 5 2 6 1 7
REMARK H PARENT
REMARK Flexibility Score: inf
ROOT
ATOM      1  C   UNL     1      35.494  -7.239  32.083  1.00  0.00     0.043 A 
ATOM      2  C   UNL     1      34.932  -7.255  33.344  1.00  0.00     0.196 A 
ATOM      3  O   UNL     1      35.362  -6.224  34.035  1.00  0.00    -0.462 OA
ATOM      4  C   UNL     1      36.183  -5.532  33.279  1.00  0.00     0.166 A 
ATOM      5  C   UNL     1      36.304  -6.124  32.040  1.00  0.00     0.054 A 
ENDROOT
BRANCH   4   6
ATOM      6  C   UNL     1      36.865  -4.309  33.709  1.00  0.00     0.298 C 
ATOM      7  O   UNL     1      37.125  -4.121  34.926  1.00  0.00    -0.294 OA
ENDBRANCH   4   6
TORSDOF 1
ENDMDL
MODEL 3
REMARK VINA RESULT:    -3.065      8.141      8.852
REMARK INTER + INTRA:          -3.255
REMARK INTER:                  -3.244
REMARK INTRA:                  -0.012
REMARK UNBOUND:                -0.011
REMARK SMILES O=Cc1ccco1
REMARK SMILES IDX 5 1 6 2 7 3 3 4 4 5 2 6 1 7
REMARK H PARENT
REMARK Flexibility Score: inf
ROOT
ATOM      1  C   UNL     1      33.520  -5.935  32.537  1.00  0.00     0.043 A 
ATOM      2  C   UNL     1      34.359  -6.316  31.509  1.00  0.00     0.196 A 
ATOM      3  O   UNL     1      35.600  -6.009  31.813  1.00  0.00    -0.462 OA
ATOM      4  C   UNL     1      35.609  -5.443  32.998  1.00  0.00     0.166 A 
ATOM      5  C   UNL     1      34.327  -5.371  33.501  1.00  0.00     0.054 A 
ENDROOT
BRANCH   4   6
ATOM      6  C   UNL     1      36.817  -4.964  33.673  1.00  0.00     0.298 C 
ATOM      7  O   UNL     1      36.744  -4.034  34.518  1.00  0.00    -0.294 OA
ENDBRANCH   4   6
TORSDOF 1
ENDMDL
MODEL 4
REMARK VINA RESULT:    -2.968     13.532     14.557
REMARK INTER + INTRA:          -3.152
REMARK INTER:                  -3.141
REMARK INTRA:                  -0.012
REMARK UNBOUND:                -0.011
REMARK SMILES O=Cc1ccco1
REMARK SMILES IDX 5 1 6 2 7 3 3 4 4 5 2 6 1 7
REMARK H PARENT
REMARK Flexibility Score: inf
ROOT
ATOM      1  C   UNL     1      34.489 -12.163  37.894  1.00  0.00     0.043 A 
ATOM      2  C   UNL     1      35.598 -12.603  38.588  1.00  0.00     0.196 A 
ATOM      3  O   UNL     1      36.508 -13.034  37.744  1.00  0.00    -0.462 OA
ATOM      4  C   UNL     1      36.042 -12.893  36.525  1.00  0.00     0.166 A 
ATOM      5  C   UNL     1      34.775 -12.349  36.558  1.00  0.00     0.054 A 
ENDROOT
BRANCH   4   6
ATOM      6  C   UNL     1      36.776 -13.267  35.314  1.00  0.00     0.298 C 
ATOM      7  O   UNL     1      36.948 -14.480  35.025  1.00  0.00    -0.294 OA
ENDBRANCH   4   6
TORSDOF 1
ENDMDL
MODEL 5
REMARK VINA RESULT:    -2.936     12.582     14.172
REMARK INTER + INTRA:          -3.119
REMARK INTER:                  -3.108
REMARK INTRA:                  -0.011
REMARK UNBOUND:                -0.011
REMARK SMILES O=Cc1ccco1
REMARK SMILES IDX 5 1 6 2 7 3 3 4 4 5 2 6 1 7
REMARK H PARENT
REMARK Flexibility Score: inf
ROOT
ATOM      1  C   UNL     1      35.439 -12.564  38.413  1.00  0.00     0.043 A 
ATOM      2  C   UNL     1      36.761 -12.167  38.432  1.00  0.00     0.196 A 
ATOM      3  O   UNL     1      36.993 -11.348  37.432  1.00  0.00    -0.462 OA
ATOM      4  C   UNL     1      35.877 -11.190  36.757  1.00  0.00     0.166 A 
ATOM      5  C   UNL     1      34.865 -11.931  37.330  1.00  0.00     0.054 A 
ENDROOT
BRANCH   4   6
ATOM      6  C   UNL     1      35.745 -10.343  35.570  1.00  0.00     0.298 C 
ATOM      7  O   UNL     1      35.561  -9.104  35.691  1.00  0.00    -0.294 OA
ENDBRANCH   4   6
TORSDOF 1
ENDMDL
MODEL 6
REMARK VINA RESULT:    -2.885     13.894     14.484
REMARK INTER + INTRA:          -3.065
REMARK INTER:                  -3.054
REMARK INTRA:                  -0.011
REMARK UNBOUND:                -0.011
REMARK SMILES O=Cc1ccco1
REMARK SMILES IDX 5 1 6 2 7 3 3 4 4 5 2 6 1 7
REMARK H PARENT
REMARK Flexibility Score: inf
ROOT
ATOM      1  C   UNL     1      32.569 -11.951  36.884  1.00  0.00     0.043 A 
ATOM      2  C   UNL     1      32.894 -12.763  35.816  1.00  0.00     0.196 A 
ATOM      3  O   UNL     1      34.179 -13.034  35.841  1.00  0.00    -0.462 OA
ATOM      4  C   UNL     1      34.711 -12.434  36.881  1.00  0.00     0.166 A 
ATOM      5  C   UNL     1      33.743 -11.738  37.574  1.00  0.00     0.054 A 
ENDROOT
BRANCH   4   6
ATOM      6  C   UNL     1      36.129 -12.505  37.238  1.00  0.00     0.298 C 
ATOM      7  O   UNL     1      36.482 -13.008  38.336  1.00  0.00    -0.294 OA
ENDBRANCH   4   6
TORSDOF 1
ENDMDL
MODEL 7
REMARK VINA RESULT:    -2.848      7.041      7.912
REMARK INTER + INTRA:          -3.026
REMARK INTER:                  -3.011
REMARK INTRA:                  -0.015
REMARK UNBOUND:                -0.011
REMARK SMILES O=Cc1ccco1
REMARK SMILES IDX 5 1 6 2 7 3 3 4 4 5 2 6 1 7
REMARK H PARENT
REMARK Flexibility Score: inf
ROOT
ATOM      1  C   UNL     1      34.453  -5.455  33.455  1.00  0.00     0.043 A 
ATOM      2  C   UNL     1      33.392  -5.809  32.644  1.00  0.00     0.196 A 
ATOM      3  O   UNL     1      33.843  -6.359  31.540  1.00  0.00    -0.462 OA
ATOM      4  C   UNL     1      35.155  -6.383  31.593  1.00  0.00     0.166 A 
ATOM      5  C   UNL     1      35.594  -5.826  32.776  1.00  0.00     0.054 A 
ENDROOT
BRANCH   4   6
ATOM      6  C   UNL     1      36.013  -6.925  30.537  1.00  0.00     0.298 C 
ATOM      7  O   UNL     1      35.662  -6.844  29.331  1.00  0.00    -0.294 OA
ENDBRANCH   4   6
TORSDOF 1
ENDMDL
MODEL 8
REMARK VINA RESULT:    -2.822      8.955      9.258
REMARK INTER + INTRA:          -2.998
REMARK INTER:                  -2.987
REMARK INTRA:                  -0.011
REMARK UNBOUND:                -0.011
REMARK SMILES O=Cc1ccco1
REMARK SMILES IDX 5 1 6 2 7 3 3 4 4 5 2 6 1 7
REMARK H PARENT
REMARK Flexibility Score: inf
ROOT
ATOM      1  C   UNL     1      31.921  -6.603  32.173  1.00  0.00     0.043 A 
ATOM      2  C   UNL     1      32.400  -7.827  32.595  1.00  0.00     0.196 A 
ATOM      3  O   UNL     1      33.624  -7.690  33.053  1.00  0.00    -0.462 OA
ATOM      4  C   UNL     1      33.966  -6.426  32.951  1.00  0.00     0.166 A 
ATOM      5  C   UNL     1      32.932  -5.695  32.403  1.00  0.00     0.054 A 
ENDROOT
BRANCH   4   6
ATOM      6  C   UNL     1      35.264  -5.888  33.363  1.00  0.00     0.298 C 
ATOM      7  O   UNL     1      35.323  -4.866  34.095  1.00  0.00    -0.294 OA
ENDBRANCH   4   6
TORSDOF 1
ENDMDL
