MODEL 1
REMARK VINA RESULT:    -4.351      0.000      0.000
REMARK INTER + INTRA:          -5.766
REMARK INTER:                  -5.623
REMARK INTRA:                  -0.142
REMARK UNBOUND:                -0.142
REMARK SMILES CCCCCCC(=O)[O-]
REMARK SMILES IDX 5 1 6 2 7 3 8 4 9 5 4 6 3 7 2 8 1 9
REMARK H PARENT
REMARK Flexibility Score: inf
ROOT
ATOM      1  C   UNL     1       7.286 -12.915  -1.355  1.00  0.00     0.006 C 
ENDROOT
BRANCH   1   2
ATOM      2  C   UNL     1       8.502 -12.609  -0.469  1.00  0.00     0.053 C 
BRANCH   2   3
ATOM      3  C   UNL     1       8.655 -11.132  -0.289  1.00  0.00     0.041 C 
ATOM      4  O   UNL     1       9.505 -10.677   0.520  1.00  0.00    -0.550 OA
ATOM      5  O   UNL     1       7.824 -10.257  -0.978  1.00  0.00    -0.550 OA
ENDBRANCH   2   3
ENDBRANCH   1   2
BRANCH   1   6
ATOM      6  C   UNL     1       7.644 -13.775  -2.578  1.00  0.00     0.000 C 
BRANCH   6   7
ATOM      7  C   UNL     1       7.121 -13.175  -3.895  1.00  0.00    -0.000 C 
BRANCH   7   8
ATOM      8  C   UNL     1       5.588 -13.059  -3.921  1.00  0.00    -0.003 C 
ATOM      9  C   UNL     1       5.017 -13.077  -5.338  1.00  0.00     0.004 C 
ENDBRANCH   7   8
ENDBRANCH   6   7
ENDBRANCH   1   6
TORSDOF 5
ENDMDL
MODEL 2
REMARK VINA RESULT:    -4.345      2.476      4.593
REMARK INTER + INTRA:          -5.758
REMARK INTER:                  -5.548
REMARK INTRA:                  -0.210
REMARK UNBOUND:                -0.142
REMARK SMILES CCCCCCC(=O)[O-]
REMARK SMILES IDX 5 1 6 2 7 3 8 4 9 5 4 6 3 7 2 8 1 9
REMARK H PARENT
REMARK Flexibility Score: inf
ROOT
ATOM      1  C   UNL     1       7.704 -13.781  -1.949  1.00  0.00     0.006 C 
ENDROOT
BRANCH   1   2
ATOM      2  C   UNL     1       7.259 -13.366  -3.357  1.00  0.00     0.053 C 
BRANCH   2   3
ATOM      3  C   UNL     1       5.855 -12.850  -3.330  1.00  0.00     0.041 C 
ATOM      4  O   UNL     1       4.904 -13.613  -3.017  1.00  0.00    -0.550 OA
ATOM      5  O   UNL     1       5.591 -11.536  -3.698  1.00  0.00    -0.550 OA
ENDBRANCH   2   3
ENDBRANCH   1   2
BRANCH   1   6
ATOM      6  C   UNL     1       7.623 -12.626  -0.937  1.00  0.00     0.000 C 
BRANCH   6   7
ATOM      7  C   UNL     1       8.932 -12.440  -0.148  1.00  0.00    -0.000 C 
BRANCH   7   8
ATOM      8  C   UNL     1       9.121 -10.997   0.346  1.00  0.00    -0.003 C 
ATOM      9  C   UNL     1       8.041 -10.047  -0.173  1.00  0.00     0.004 C 
ENDBRANCH   7   8
ENDBRANCH   6   7
ENDBRANCH   1   6
TORSDOF 5
ENDMDL
MODEL 3
REMARK VINA RESULT:    -4.208      3.132      5.118
REMARK INTER + INTRA:          -5.581
REMARK INTER:                  -5.429
REMARK INTRA:                  -0.152
REMARK UNBOUND:                -0.142
REMARK SMILES CCCCCCC(=O)[O-]
REMARK SMILES IDX 5 1 6 2 7 3 8 4 9 5 4 6 3 7 2 8 1 9
REMARK H PARENT
REMARK Flexibility Score: inf
ROOT
ATOM      1  C   UNL     1       7.327 -13.428  -3.506  1.00  0.00     0.006 C 
ENDROOT
BRANCH   1   2
ATOM      2  C   UNL     1       6.226 -12.420  -3.865  1.00  0.00     0.053 C 
BRANCH   2   3
ATOM      3  C   UNL     1       5.001 -13.134  -4.342  1.00  0.00     0.041 C 
ATOM      4  O   UNL     1       4.273 -13.758  -3.527  1.00  0.00    -0.550 OA
ATOM      5  O   UNL     1       4.691 -13.151  -5.697  1.00  0.00    -0.550 OA
ENDBRANCH   2   3
ENDBRANCH   1   2
BRANCH   1   6
ATOM      6  C   UNL     1       7.512 -13.590  -1.988  1.00  0.00     0.000 C 
BRANCH   6   7
ATOM      7  C   UNL     1       7.648 -12.239  -1.263  1.00  0.00    -0.000 C 
BRANCH   7   8
ATOM      8  C   UNL     1       8.698 -12.276  -0.142  1.00  0.00    -0.003 C 
ATOM      9  C   UNL     1       9.168 -10.883   0.276  1.00  0.00     0.004 C 
ENDBRANCH   7   8
ENDBRANCH   6   7
ENDBRANCH   1   6
TORSDOF 5
ENDMDL
MODEL 4
REMARK VINA RESULT:    -4.135      0.970      1.566
REMARK INTER + INTRA:          -5.487
REMARK INTER:                  -5.312
REMARK INTRA:                  -0.175
REMARK UNBOUND:                -0.142
REMARK SMILES CCCCCCC(=O)[O-]
REMARK SMILES IDX 5 1 6 2 7 3 8 4 9 5 4 6 3 7 2 8 1 9
REMARK H PARENT
REMARK Flexibility Score: inf
ROOT
ATOM      1  C   UNL     1       7.601 -13.737  -2.609  1.00  0.00     0.006 C 
ENDROOT
BRANCH   1   2
ATOM      2  C   UNL     1       6.906 -12.911  -1.518  1.00  0.00     0.053 C 
BRANCH   2   3
ATOM      3  C   UNL     1       7.904 -12.069  -0.788  1.00  0.00     0.041 C 
ATOM      4  O   UNL     1       8.824 -12.611  -0.120  1.00  0.00    -0.550 OA
ATOM      5  O   UNL     1       7.789 -10.684  -0.803  1.00  0.00    -0.550 OA
ENDBRANCH   2   3
ENDBRANCH   1   2
BRANCH   1   6
ATOM      6  C   UNL     1       7.160 -13.337  -4.027  1.00  0.00     0.000 C 
BRANCH   6   7
ATOM      7  C   UNL     1       5.757 -12.705  -4.053  1.00  0.00    -0.000 C 
BRANCH   7   8
ATOM      8  C   UNL     1       4.967 -13.077  -5.318  1.00  0.00    -0.003 C 
ATOM      9  C   UNL     1       3.547 -13.550  -5.011  1.00  0.00     0.004 C 
ENDBRANCH   7   8
ENDBRANCH   6   7
ENDBRANCH   1   6
TORSDOF 5
ENDMDL
MODEL 5
REMARK VINA RESULT:    -4.125      1.269      1.687
REMARK INTER + INTRA:          -5.473
REMARK INTER:                  -5.276
REMARK INTRA:                  -0.198
REMARK UNBOUND:                -0.142
REMARK SMILES CCCCCCC(=O)[O-]
REMARK SMILES IDX 5 1 6 2 7 3 8 4 9 5 4 6 3 7 2 8 1 9
REMARK H PARENT
REMARK Flexibility Score: inf
ROOT
ATOM      1  C   UNL     1       7.586 -10.847  -2.044  1.00  0.00     0.006 C 
ENDROOT
BRANCH   1   2
ATOM      2  C   UNL     1       7.668 -10.572  -0.536  1.00  0.00     0.053 C 
BRANCH   2   3
ATOM      3  C   UNL     1       8.877 -11.231   0.049  1.00  0.00     0.041 C 
ATOM      4  O   UNL     1       9.777 -10.538   0.591  1.00  0.00    -0.550 OA
ATOM      5  O   UNL     1       9.032 -12.608  -0.048  1.00  0.00    -0.550 OA
ENDBRANCH   2   3
ENDBRANCH   1   2
BRANCH   1   6
ATOM      6  C   UNL     1       6.542 -11.919  -2.396  1.00  0.00     0.000 C 
BRANCH   6   7
ATOM      7  C   UNL     1       7.174 -13.175  -3.023  1.00  0.00    -0.000 C 
BRANCH   7   8
ATOM      8  C   UNL     1       6.828 -13.326  -4.513  1.00  0.00    -0.003 C 
ATOM      9  C   UNL     1       5.372 -12.976  -4.821  1.00  0.00     0.004 C 
ENDBRANCH   7   8
ENDBRANCH   6   7
ENDBRANCH   1   6
TORSDOF 5
ENDMDL
MODEL 6
REMARK VINA RESULT:    -4.123      1.790      2.624
REMARK INTER + INTRA:          -5.471
REMARK INTER:                  -5.257
REMARK INTRA:                  -0.213
REMARK UNBOUND:                -0.142
REMARK SMILES CCCCCCC(=O)[O-]
REMARK SMILES IDX 5 1 6 2 7 3 8 4 9 5 4 6 3 7 2 8 1 9
REMARK H PARENT
REMARK Flexibility Score: inf
ROOT
ATOM      1  C   UNL     1       8.233 -11.157  -1.049  1.00  0.00     0.006 C 
ENDROOT
BRANCH   1   2
ATOM      2  C   UNL     1       7.837 -10.208   0.091  1.00  0.00     0.053 C 
BRANCH   2   3
ATOM      3  C   UNL     1       7.112  -9.017  -0.451  1.00  0.00     0.041 C 
ATOM      4  O   UNL     1       6.571  -9.066  -1.585  1.00  0.00    -0.550 OA
ATOM      5  O   UNL     1       7.077  -7.835   0.279  1.00  0.00    -0.550 OA
ENDBRANCH   2   3
ENDBRANCH   1   2
BRANCH   1   6
ATOM      6  C   UNL     1       8.324 -12.623  -0.595  1.00  0.00     0.000 C 
BRANCH   6   7
ATOM      7  C   UNL     1       7.742 -13.599  -1.634  1.00  0.00    -0.000 C 
BRANCH   7   8
ATOM      8  C   UNL     1       6.847 -12.895  -2.666  1.00  0.00    -0.003 C 
ATOM      9  C   UNL     1       7.183 -13.285  -4.105  1.00  0.00     0.004 C 
ENDBRANCH   7   8
ENDBRANCH   6   7
ENDBRANCH   1   6
TORSDOF 5
ENDMDL
MODEL 7
REMARK VINA RESULT:    -3.973      1.643      2.720
REMARK INTER + INTRA:          -5.277
REMARK INTER:                  -4.902
REMARK INTRA:                  -0.376
REMARK UNBOUND:                -0.142
REMARK SMILES CCCCCCC(=O)[O-]
REMARK SMILES IDX 5 1 6 2 7 3 8 4 9 5 4 6 3 7 2 8 1 9
REMARK H PARENT
REMARK Flexibility Score: inf
ROOT
ATOM      1  C   UNL     1       7.297 -12.853  -3.744  1.00  0.00     0.006 C 
ENDROOT
BRANCH   1   2
ATOM      2  C   UNL     1       7.406 -13.675  -2.453  1.00  0.00     0.053 C 
BRANCH   2   3
ATOM      3  C   UNL     1       7.382 -12.775  -1.258  1.00  0.00     0.041 C 
ATOM      4  O   UNL     1       6.409 -12.000  -1.068  1.00  0.00    -0.550 OA
ATOM      5  O   UNL     1       8.458 -12.758  -0.380  1.00  0.00    -0.550 OA
ENDBRANCH   2   3
ENDBRANCH   1   2
BRANCH   1   6
ATOM      6  C   UNL     1       6.082 -13.249  -4.599  1.00  0.00     0.000 C 
BRANCH   6   7
ATOM      7  C   UNL     1       4.770 -12.633  -4.082  1.00  0.00    -0.000 C 
BRANCH   7   8
ATOM      8  C   UNL     1       3.703 -13.695  -3.773  1.00  0.00    -0.003 C 
ATOM      9  C   UNL     1       3.773 -14.203  -2.333  1.00  0.00     0.004 C 
ENDBRANCH   7   8
ENDBRANCH   6   7
ENDBRANCH   1   6
TORSDOF 5
ENDMDL
MODEL 8
REMARK VINA RESULT:    -3.798      3.102      5.076
REMARK INTER + INTRA:          -5.051
REMARK INTER:                  -4.764
REMARK INTRA:                  -0.287
REMARK UNBOUND:                -0.142
REMARK SMILES CCCCCCC(=O)[O-]
REMARK SMILES IDX 5 1 6 2 7 3 8 4 9 5 4 6 3 7 2 8 1 9
REMARK H PARENT
REMARK Flexibility Score: inf
ROOT
ATOM      1  C   UNL     1       6.035 -12.463  -3.867  1.00  0.00     0.006 C 
ENDROOT
BRANCH   1   2
ATOM      2  C   UNL     1       4.927 -13.138  -4.687  1.00  0.00     0.053 C 
BRANCH   2   3
ATOM      3  C   UNL     1       3.800 -13.554  -3.797  1.00  0.00     0.041 C 
ATOM      4  O   UNL     1       4.036 -14.082  -2.679  1.00  0.00    -0.550 OA
ATOM      5  O   UNL     1       2.486 -13.405  -4.224  1.00  0.00    -0.550 OA
ENDBRANCH   2   3
ENDBRANCH   1   2
BRANCH   1   6
ATOM      6  C   UNL     1       7.339 -13.277  -3.848  1.00  0.00     0.000 C 
BRANCH   6   7
ATOM      7  C   UNL     1       7.672 -13.825  -2.449  1.00  0.00    -0.000 C 
BRANCH   7   8
ATOM      8  C   UNL     1       7.260 -12.861  -1.326  1.00  0.00    -0.003 C 
ATOM      9  C   UNL     1       8.430 -12.470  -0.422  1.00  0.00     0.004 C 
ENDBRANCH   7   8
ENDBRANCH   6   7
ENDBRANCH   1   6
TORSDOF 5
ENDMDL
MODEL 9
REMARK VINA RESULT:    -3.735      1.579      2.388
REMARK INTER + INTRA:          -4.969
REMARK INTER:                  -4.800
REMARK INTRA:                  -0.168
REMARK UNBOUND:                -0.142
REMARK SMILES CCCCCCC(=O)[O-]
REMARK SMILES IDX 5 1 6 2 7 3 8 4 9 5 4 6 3 7 2 8 1 9
REMARK H PARENT
REMARK Flexibility Score: inf
ROOT
ATOM      1  C   UNL     1       7.250 -13.369  -3.713  1.00  0.00     0.006 C 
ENDROOT
BRANCH   1   2
ATOM      2  C   UNL     1       6.887 -13.378  -2.222  1.00  0.00     0.053 C 
BRANCH   2   3
ATOM      3  C   UNL     1       7.658 -12.324  -1.492  1.00  0.00     0.041 C 
ATOM      4  O   UNL     1       8.332 -12.624  -0.472  1.00  0.00    -0.550 OA
ATOM      5  O   UNL     1       7.593 -11.001  -1.910  1.00  0.00    -0.550 OA
ENDBRANCH   2   3
ENDBRANCH   1   2
BRANCH   1   6
ATOM      6  C   UNL     1       6.013 -13.375  -4.626  1.00  0.00     0.000 C 
BRANCH   6   7
ATOM      7  C   UNL     1       5.264 -12.031  -4.613  1.00  0.00    -0.000 C 
BRANCH   7   8
ATOM      8  C   UNL     1       4.462 -11.791  -5.902  1.00  0.00    -0.003 C 
ATOM      9  C   UNL     1       4.629 -10.374  -6.448  1.00  0.00     0.004 C 
ENDBRANCH   7   8
ENDBRANCH   6   7
ENDBRANCH   1   6
TORSDOF 5
ENDMDL
