MODEL 1
REMARK VINA RESULT:    -6.689      0.000      0.000
REMARK INTER + INTRA:          -7.246
REMARK INTER:                  -7.276
REMARK INTRA:                   0.030
REMARK UNBOUND:                 0.030
REMARK SMILES C[C@H]1[C@@H](C)CC[C@@]2(C(=O)[O-])CC[C@@]3(C)C(=CC[C@H]4[C@]5(C)CC[C@@H](O)C(C)(C)[C@@H]5CC[C@]43C)[C@@H]12
REMARK SMILES IDX 7 1 6 2 11 3 33 4 5 5 12 6 15 7 2 8 3 9 13 10 16 11 1 12
REMARK SMILES IDX 4 13 14 14 31 15 17 16 18 17 30 18 32 19 19 20 29 21 28 22
REMARK SMILES IDX 21 23 20 24 25 25 22 26 23 27 26 28 27 29 8 30 9 31 10 32
REMARK SMILES IDX 24 33
REMARK H PARENT 24 34
REMARK Flexibility Score: inf
ROOT
ATOM      1  C   UNL     1      58.112  -1.073  -1.040  1.00  0.00     0.017 C 
ATOM      2  C   UNL     1      58.089  -1.241  -2.592  1.00  0.00     0.014 C 
ATOM      3  C   UNL     1      56.779  -1.640  -0.453  1.00  0.00     0.014 C 
ATOM      4  C   UNL     1      59.387  -1.808  -0.466  1.00  0.00     0.030 C 
ATOM      5  C   UNL     1      59.356  -0.713  -3.287  1.00  0.00     0.004 C 
ATOM      6  C   UNL     1      56.973  -2.661   0.673  1.00  0.00     0.013 C 
ATOM      7  C   UNL     1      59.172  -3.343  -0.339  1.00  0.00    -0.063 C 
ATOM      8  C   UNL     1      60.673  -1.256  -1.194  1.00  0.00    -0.003 C 
ATOM      9  C   UNL     1      60.640  -1.370  -2.746  1.00  0.00    -0.011 C 
ATOM     10  C   UNL     1      57.864  -3.887   0.258  1.00  0.00    -0.006 C 
ATOM     11  C   UNL     1      60.198  -4.203  -0.455  1.00  0.00    -0.027 C 
ATOM     12  C   UNL     1      62.035  -1.592  -0.541  1.00  0.00     0.008 C 
ATOM     13  C   UNL     1      60.807  -2.791  -3.315  1.00  0.00     0.008 C 
ATOM     14  C   UNL     1      57.113  -4.673  -0.860  1.00  0.00     0.017 C 
ATOM     15  C   UNL     1      58.194  -4.866   1.503  1.00  0.00    -0.020 C 
ATOM     16  C   UNL     1      60.158  -5.644  -0.051  1.00  0.00     0.032 C 
ATOM     17  C   UNL     1      59.093  -6.087   1.023  1.00  0.00     0.006 C 
ATOM     18  C   UNL     1      58.998  -4.095   2.591  1.00  0.00     0.008 C 
ATOM     19  C   UNL     1      56.847  -5.395   2.114  1.00  0.00     0.012 C 
ATOM     20  C   UNL     1      59.747  -7.024   2.159  1.00  0.00    -0.025 C 
ATOM     21  C   UNL     1      59.587  -4.969   3.704  1.00  0.00     0.005 C 
ATOM     22  C   UNL     1      60.510  -6.132   3.217  1.00  0.00     0.003 C 
ATOM     23  C   UNL     1      58.685  -7.892   2.909  1.00  0.00     0.010 C 
ATOM     24  C   UNL     1      60.696  -8.040   1.422  1.00  0.00     0.012 C 
ATOM     25  C   UNL     1      61.102  -6.946   4.459  1.00  0.00    -0.006 C 
ATOM     26  C   UNL     1      59.252  -8.717   4.080  1.00  0.00     0.033 C 
ATOM     27  C   UNL     1      59.998  -7.849   5.104  1.00  0.00     0.120 C 
ATOM     28  C   UNL     1      62.338  -7.797   4.047  1.00  0.00     0.014 C 
ATOM     29  C   UNL     1      61.629  -5.970   5.552  1.00  0.00     0.014 C 
ENDROOT
BRANCH   1  30
ATOM     30  C   UNL     1      58.147   0.413  -0.675  1.00  0.00     0.048 C 
ATOM     31  O   UNL     1      58.624   0.794   0.428  1.00  0.00    -0.550 OA
ATOM     32  O   UNL     1      57.768   1.376  -1.605  1.00  0.00    -0.550 OA
ENDBRANCH   1  30
BRANCH  27  33
ATOM     33  O   UNL     1      60.553  -8.695   6.081  1.00  0.00    -0.393 OA
ATOM     34  H   UNL     1      61.180  -9.311   5.619  1.00  0.00     0.210 HD
ENDBRANCH  27  33
TORSDOF 2
ENDMDL
MODEL 2
REMARK VINA RESULT:    -6.404      5.652      9.302
REMARK INTER + INTRA:          -6.935
REMARK INTER:                  -6.856
REMARK INTRA:                  -0.079
REMARK UNBOUND:                 0.030
REMARK SMILES C[C@H]1[C@@H](C)CC[C@@]2(C(=O)[O-])CC[C@@]3(C)C(=CC[C@H]4[C@]5(C)CC[C@@H](O)C(C)(C)[C@@H]5CC[C@]43C)[C@@H]12
REMARK SMILES IDX 7 1 6 2 11 3 33 4 5 5 12 6 15 7 2 8 3 9 13 10 16 11 1 12
REMARK SMILES IDX 4 13 14 14 31 15 17 16 18 17 30 18 32 19 19 20 29 21 28 22
REMARK SMILES IDX 21 23 20 24 25 25 22 26 23 27 26 28 27 29 8 30 9 31 10 32
REMARK SMILES IDX 24 33
REMARK H PARENT 24 34
REMARK Flexibility Score: inf
ROOT
ATOM      1  C   UNL     1      57.566  -5.646  -0.358  1.00  0.00     0.017 C 
ATOM      2  C   UNL     1      58.088  -6.605   0.758  1.00  0.00     0.014 C 
ATOM      3  C   UNL     1      58.042  -6.183  -1.746  1.00  0.00     0.014 C 
ATOM      4  C   UNL     1      55.994  -5.548  -0.254  1.00  0.00     0.030 C 
ATOM      5  C   UNL     1      57.682  -6.175   2.178  1.00  0.00     0.004 C 
ATOM      6  C   UNL     1      56.919  -6.344  -2.775  1.00  0.00     0.013 C 
ATOM      7  C   UNL     1      55.284  -6.766  -0.911  1.00  0.00    -0.063 C 
ATOM      8  C   UNL     1      55.599  -5.110   1.210  1.00  0.00    -0.003 C 
ATOM      9  C   UNL     1      56.156  -6.030   2.335  1.00  0.00    -0.011 C 
ATOM     10  C   UNL     1      55.750  -7.273  -2.285  1.00  0.00    -0.006 C 
ATOM     11  C   UNL     1      54.096  -7.205  -0.465  1.00  0.00    -0.027 C 
ATOM     12  C   UNL     1      54.144  -4.627   1.419  1.00  0.00     0.008 C 
ATOM     13  C   UNL     1      55.488  -7.411   2.462  1.00  0.00     0.008 C 
ATOM     14  C   UNL     1      56.323  -8.713  -2.101  1.00  0.00     0.017 C 
ATOM     15  C   UNL     1      54.501  -7.297  -3.313  1.00  0.00    -0.020 C 
ATOM     16  C   UNL     1      53.200  -8.151  -1.203  1.00  0.00     0.032 C 
ATOM     17  C   UNL     1      53.354  -8.254  -2.769  1.00  0.00     0.006 C 
ATOM     18  C   UNL     1      53.892  -5.870  -3.449  1.00  0.00     0.008 C 
ATOM     19  C   UNL     1      54.999  -7.797  -4.718  1.00  0.00     0.012 C 
ATOM     20  C   UNL     1      51.925  -8.205  -3.512  1.00  0.00    -0.025 C 
ATOM     21  C   UNL     1      52.556  -5.803  -4.195  1.00  0.00     0.005 C 
ATOM     22  C   UNL     1      51.424  -6.710  -3.614  1.00  0.00     0.003 C 
ATOM     23  C   UNL     1      51.973  -8.816  -4.950  1.00  0.00     0.010 C 
ATOM     24  C   UNL     1      50.949  -9.120  -2.683  1.00  0.00     0.012 C 
ATOM     25  C   UNL     1      50.067  -6.526  -4.439  1.00  0.00    -0.006 C 
ATOM     26  C   UNL     1      50.657  -8.686  -5.740  1.00  0.00     0.033 C 
ATOM     27  C   UNL     1      50.169  -7.233  -5.832  1.00  0.00     0.120 C 
ATOM     28  C   UNL     1      48.839  -7.053  -3.642  1.00  0.00     0.014 C 
ATOM     29  C   UNL     1      49.775  -5.016  -4.682  1.00  0.00     0.014 C 
ENDROOT
BRANCH   1  30
ATOM     30  C   UNL     1      58.197  -4.261  -0.193  1.00  0.00     0.048 C 
ATOM     31  O   UNL     1      59.380  -4.138   0.226  1.00  0.00    -0.550 OA
ATOM     32  O   UNL     1      57.520  -3.123  -0.621  1.00  0.00    -0.550 OA
ENDBRANCH   1  30
BRANCH  27  33
ATOM     33  O   UNL     1      48.924  -7.225  -6.487  1.00  0.00    -0.393 OA
ATOM     34  H   UNL     1      48.961  -6.521  -7.186  1.00  0.00     0.210 HD
ENDBRANCH  27  33
TORSDOF 2
ENDMDL
MODEL 3
REMARK VINA RESULT:    -6.386      4.275      7.832
REMARK INTER + INTRA:          -6.916
REMARK INTER:                  -6.835
REMARK INTRA:                  -0.081
REMARK UNBOUND:                 0.030
REMARK SMILES C[C@H]1[C@@H](C)CC[C@@]2(C(=O)[O-])CC[C@@]3(C)C(=CC[C@H]4[C@]5(C)CC[C@@H](O)C(C)(C)[C@@H]5CC[C@]43C)[C@@H]12
REMARK SMILES IDX 7 1 6 2 11 3 33 4 5 5 12 6 15 7 2 8 3 9 13 10 16 11 1 12
REMARK SMILES IDX 4 13 14 14 31 15 17 16 18 17 30 18 32 19 19 20 29 21 28 22
REMARK SMILES IDX 21 23 20 24 25 25 22 26 23 27 26 28 27 29 8 30 9 31 10 32
REMARK SMILES IDX 24 33
REMARK H PARENT 24 34
REMARK Flexibility Score: inf
ROOT
ATOM      1  C   UNL     1      59.874  -1.755  -2.445  1.00  0.00     0.017 C 
ATOM      2  C   UNL     1      60.739  -2.275  -1.254  1.00  0.00     0.014 C 
ATOM      3  C   UNL     1      60.357  -2.451  -3.759  1.00  0.00     0.014 C 
ATOM      4  C   UNL     1      58.352  -2.039  -2.134  1.00  0.00     0.030 C 
ATOM      5  C   UNL     1      60.356  -1.655   0.101  1.00  0.00     0.004 C 
ATOM      6  C   UNL     1      59.237  -3.119  -4.563  1.00  0.00     0.013 C 
ATOM      7  C   UNL     1      57.956  -3.513  -2.435  1.00  0.00    -0.063 C 
ATOM      8  C   UNL     1      57.981  -1.400  -0.740  1.00  0.00    -0.003 C 
ATOM      9  C   UNL     1      58.870  -1.871   0.447  1.00  0.00    -0.011 C 
ATOM     10  C   UNL     1      58.422  -4.180  -3.739  1.00  0.00    -0.006 C 
ATOM     11  C   UNL     1      56.982  -4.128  -1.745  1.00  0.00    -0.027 C 
ATOM     12  C   UNL     1      56.474  -1.268  -0.418  1.00  0.00     0.008 C 
ATOM     13  C   UNL     1      58.628  -3.312   0.933  1.00  0.00     0.008 C 
ATOM     14  C   UNL     1      59.387  -5.347  -3.367  1.00  0.00     0.017 C 
ATOM     15  C   UNL     1      57.144  -4.750  -4.551  1.00  0.00    -0.020 C 
ATOM     16  C   UNL     1      56.324  -5.411  -2.149  1.00  0.00     0.032 C 
ATOM     17  C   UNL     1      56.362  -5.820  -3.672  1.00  0.00     0.006 C 
ATOM     18  C   UNL     1      56.151  -3.592  -4.868  1.00  0.00     0.008 C 
ATOM     19  C   UNL     1      57.636  -5.409  -5.890  1.00  0.00     0.012 C 
ATOM     20  C   UNL     1      54.917  -6.303  -4.194  1.00  0.00    -0.025 C 
ATOM     21  C   UNL     1      54.789  -4.036  -5.410  1.00  0.00     0.005 C 
ATOM     22  C   UNL     1      54.011  -5.047  -4.507  1.00  0.00     0.003 C 
ATOM     23  C   UNL     1      55.007  -7.189  -5.480  1.00  0.00     0.010 C 
ATOM     24  C   UNL     1      54.312  -7.227  -3.072  1.00  0.00     0.012 C 
ATOM     25  C   UNL     1      52.590  -5.404  -5.146  1.00  0.00    -0.006 C 
ATOM     26  C   UNL     1      53.642  -7.578  -6.080  1.00  0.00     0.033 C 
ATOM     27  C   UNL     1      52.762  -6.356  -6.378  1.00  0.00     0.120 C 
ATOM     28  C   UNL     1      51.633  -6.033  -4.093  1.00  0.00     0.014 C 
ATOM     29  C   UNL     1      51.868  -4.112  -5.630  1.00  0.00     0.014 C 
ENDROOT
BRANCH   1  30
ATOM     30  C   UNL     1      60.104  -0.255  -2.643  1.00  0.00     0.048 C 
ATOM     31  O   UNL     1      61.234   0.258  -2.418  1.00  0.00    -0.550 OA
ATOM     32  O   UNL     1      59.108   0.545  -3.192  1.00  0.00    -0.550 OA
ENDBRANCH   1  30
BRANCH  27  33
ATOM     33  O   UNL     1      51.511  -6.811  -6.834  1.00  0.00    -0.393 OA
ATOM     34  H   UNL     1      51.430  -6.549  -7.788  1.00  0.00     0.210 HD
ENDBRANCH  27  33
TORSDOF 2
ENDMDL
MODEL 4
REMARK VINA RESULT:    -6.292      6.293      8.446
REMARK INTER + INTRA:          -6.814
REMARK INTER:                  -6.734
REMARK INTRA:                  -0.080
REMARK UNBOUND:                 0.030
REMARK SMILES C[C@H]1[C@@H](C)CC[C@@]2(C(=O)[O-])CC[C@@]3(C)C(=CC[C@H]4[C@]5(C)CC[C@@H](O)C(C)(C)[C@@H]5CC[C@]43C)[C@@H]12
REMARK SMILES IDX 7 1 6 2 11 3 33 4 5 5 12 6 15 7 2 8 3 9 13 10 16 11 1 12
REMARK SMILES IDX 4 13 14 14 31 15 17 16 18 17 30 18 32 19 19 20 29 21 28 22
REMARK SMILES IDX 21 23 20 24 25 25 22 26 23 27 26 28 27 29 8 30 9 31 10 32
REMARK SMILES IDX 24 33
REMARK H PARENT 24 34
REMARK Flexibility Score: inf
ROOT
ATOM      1  C   UNL     1      52.293  -7.803  -6.393  1.00  0.00     0.017 C 
ATOM      2  C   UNL     1      52.991  -7.385  -7.725  1.00  0.00     0.014 C 
ATOM      3  C   UNL     1      52.945  -9.125  -5.875  1.00  0.00     0.014 C 
ATOM      4  C   UNL     1      52.420  -6.619  -5.355  1.00  0.00     0.030 C 
ATOM      5  C   UNL     1      52.429  -6.090  -8.335  1.00  0.00     0.004 C 
ATOM      6  C   UNL     1      53.421  -9.062  -4.420  1.00  0.00     0.013 C 
ATOM      7  C   UNL     1      53.813  -6.590  -4.664  1.00  0.00    -0.063 C 
ATOM      8  C   UNL     1      51.842  -5.300  -6.002  1.00  0.00    -0.003 C 
ATOM      9  C   UNL     1      52.495  -4.901  -7.357  1.00  0.00    -0.011 C 
ATOM     10  C   UNL     1      54.436  -7.896  -4.143  1.00  0.00    -0.006 C 
ATOM     11  C   UNL     1      54.359  -5.438  -4.242  1.00  0.00    -0.027 C 
ATOM     12  C   UNL     1      51.560  -4.123  -5.039  1.00  0.00     0.008 C 
ATOM     13  C   UNL     1      53.929  -4.347  -7.270  1.00  0.00     0.008 C 
ATOM     14  C   UNL     1      55.730  -8.177  -4.967  1.00  0.00     0.017 C 
ATOM     15  C   UNL     1      54.796  -7.743  -2.574  1.00  0.00    -0.020 C 
ATOM     16  C   UNL     1      55.525  -5.334  -3.308  1.00  0.00     0.032 C 
ATOM     17  C   UNL     1      55.827  -6.553  -2.355  1.00  0.00     0.006 C 
ATOM     18  C   UNL     1      53.512  -7.402  -1.761  1.00  0.00     0.008 C 
ATOM     19  C   UNL     1      55.411  -9.092  -2.052  1.00  0.00     0.012 C 
ATOM     20  C   UNL     1      56.102  -6.071  -0.843  1.00  0.00    -0.025 C 
ATOM     21  C   UNL     1      53.756  -6.987  -0.306  1.00  0.00     0.005 C 
ATOM     22  C   UNL     1      54.731  -5.782  -0.113  1.00  0.00     0.003 C 
ATOM     23  C   UNL     1      56.900  -7.128  -0.010  1.00  0.00     0.010 C 
ATOM     24  C   UNL     1      57.026  -4.800  -0.930  1.00  0.00     0.012 C 
ATOM     25  C   UNL     1      54.875  -5.408   1.434  1.00  0.00    -0.006 C 
ATOM     26  C   UNL     1      57.085  -6.758   1.474  1.00  0.00     0.033 C 
ATOM     27  C   UNL     1      55.751  -6.471   2.179  1.00  0.00     0.120 C 
ATOM     28  C   UNL     1      55.462  -3.980   1.625  1.00  0.00     0.014 C 
ATOM     29  C   UNL     1      53.477  -5.367   2.120  1.00  0.00     0.014 C 
ENDROOT
BRANCH   1  30
ATOM     30  C   UNL     1      50.819  -8.123  -6.654  1.00  0.00     0.048 C 
ATOM     31  O   UNL     1      50.456  -8.640  -7.746  1.00  0.00    -0.550 OA
ATOM     32  O   UNL     1      49.874  -7.966  -5.646  1.00  0.00    -0.550 OA
ENDBRANCH   1  30
BRANCH  27  33
ATOM     33  O   UNL     1      56.026  -6.056   3.495  1.00  0.00    -0.393 OA
ATOM     34  H   UNL     1      55.705  -5.121   3.585  1.00  0.00     0.210 HD
ENDBRANCH  27  33
TORSDOF 2
ENDMDL
MODEL 5
REMARK VINA RESULT:    -5.851      5.039      7.592
REMARK INTER + INTRA:          -6.334
REMARK INTER:                  -6.255
REMARK INTRA:                  -0.079
REMARK UNBOUND:                 0.030
REMARK SMILES C[C@H]1[C@@H](C)CC[C@@]2(C(=O)[O-])CC[C@@]3(C)C(=CC[C@H]4[C@]5(C)CC[C@@H](O)C(C)(C)[C@@H]5CC[C@]43C)[C@@H]12
REMARK SMILES IDX 7 1 6 2 11 3 33 4 5 5 12 6 15 7 2 8 3 9 13 10 16 11 1 12
REMARK SMILES IDX 4 13 14 14 31 15 17 16 18 17 30 18 32 19 19 20 29 21 28 22
REMARK SMILES IDX 21 23 20 24 25 25 22 26 23 27 26 28 27 29 8 30 9 31 10 32
REMARK SMILES IDX 24 33
REMARK H PARENT 24 34
REMARK Flexibility Score: inf
ROOT
ATOM      1  C   UNL     1      55.813  -6.775  -6.570  1.00  0.00     0.017 C 
ATOM      2  C   UNL     1      56.002  -6.130  -7.979  1.00  0.00     0.014 C 
ATOM      3  C   UNL     1      57.182  -7.364  -6.100  1.00  0.00     0.014 C 
ATOM      4  C   UNL     1      55.251  -5.683  -5.578  1.00  0.00     0.030 C 
ATOM      5  C   UNL     1      54.713  -5.514  -8.552  1.00  0.00     0.004 C 
ATOM      6  C   UNL     1      57.619  -6.900  -4.707  1.00  0.00     0.013 C 
ATOM      7  C   UNL     1      56.370  -4.744  -5.044  1.00  0.00    -0.063 C 
ATOM      8  C   UNL     1      53.933  -5.062  -6.185  1.00  0.00    -0.003 C 
ATOM      9  C   UNL     1      54.096  -4.461  -7.611  1.00  0.00    -0.011 C 
ATOM     10  C   UNL     1      57.705  -5.337  -4.567  1.00  0.00    -0.006 C 
ATOM     11  C   UNL     1      56.109  -3.470  -4.708  1.00  0.00    -0.027 C 
ATOM     12  C   UNL     1      53.051  -4.234  -5.222  1.00  0.00     0.008 C 
ATOM     13  C   UNL     1      54.875  -3.136  -7.693  1.00  0.00     0.008 C 
ATOM     14  C   UNL     1      58.829  -4.828  -5.521  1.00  0.00     0.017 C 
ATOM     15  C   UNL     1      58.004  -4.864  -3.049  1.00  0.00    -0.020 C 
ATOM     16  C   UNL     1      57.021  -2.590  -3.909  1.00  0.00     0.032 C 
ATOM     17  C   UNL     1      58.084  -3.278  -2.969  1.00  0.00     0.006 C 
ATOM     18  C   UNL     1      56.850  -5.320  -2.108  1.00  0.00     0.008 C 
ATOM     19  C   UNL     1      59.361  -5.496  -2.570  1.00  0.00     0.012 C 
ATOM     20  C   UNL     1      58.108  -2.604  -1.506  1.00  0.00    -0.025 C 
ATOM     21  C   UNL     1      56.887  -4.723  -0.698  1.00  0.00     0.005 C 
ATOM     22  C   UNL     1      56.912  -3.162  -0.638  1.00  0.00     0.003 C 
ATOM     23  C   UNL     1      59.447  -2.869  -0.743  1.00  0.00     0.010 C 
ATOM     24  C   UNL     1      58.031  -1.046  -1.720  1.00  0.00     0.012 C 
ATOM     25  C   UNL     1      56.904  -2.651   0.877  1.00  0.00    -0.006 C 
ATOM     26  C   UNL     1      59.469  -2.340   0.704  1.00  0.00     0.033 C 
ATOM     27  C   UNL     1      58.302  -2.879   1.544  1.00  0.00     0.120 C 
ATOM     28  C   UNL     1      56.487  -1.155   0.972  1.00  0.00     0.014 C 
ATOM     29  C   UNL     1      55.838  -3.423   1.709  1.00  0.00     0.014 C 
ENDROOT
BRANCH   1  30
ATOM     30  C   UNL     1      54.845  -7.957  -6.663  1.00  0.00     0.048 C 
ATOM     31  O   UNL     1      54.791  -8.665  -7.705  1.00  0.00    -0.550 OA
ATOM     32  O   UNL     1      54.099  -8.345  -5.555  1.00  0.00    -0.550 OA
ENDBRANCH   1  30
BRANCH  27  33
ATOM     33  O   UNL     1      58.354  -2.275   2.813  1.00  0.00    -0.393 OA
ATOM     34  H   UNL     1      59.036  -2.761   3.345  1.00  0.00     0.210 HD
ENDBRANCH  27  33
TORSDOF 2
ENDMDL
MODEL 6
REMARK VINA RESULT:    -5.754      1.782      7.886
REMARK INTER + INTRA:          -6.229
REMARK INTER:                  -6.370
REMARK INTRA:                   0.141
REMARK UNBOUND:                 0.030
REMARK SMILES C[C@H]1[C@@H](C)CC[C@@]2(C(=O)[O-])CC[C@@]3(C)C(=CC[C@H]4[C@]5(C)CC[C@@H](O)C(C)(C)[C@@H]5CC[C@]43C)[C@@H]12
REMARK SMILES IDX 7 1 6 2 11 3 33 4 5 5 12 6 15 7 2 8 3 9 13 10 16 11 1 12
REMARK SMILES IDX 4 13 14 14 31 15 17 16 18 17 30 18 32 19 19 20 29 21 28 22
REMARK SMILES IDX 21 23 20 24 25 25 22 26 23 27 26 28 27 29 8 30 9 31 10 32
REMARK SMILES IDX 24 33
REMARK H PARENT 24 34
REMARK Flexibility Score: inf
ROOT
ATOM      1  C   UNL     1      61.865  -5.790   4.544  1.00  0.00     0.017 C 
ATOM      2  C   UNL     1      62.310  -7.273   4.345  1.00  0.00     0.014 C 
ATOM      3  C   UNL     1      63.046  -4.852   4.136  1.00  0.00     0.014 C 
ATOM      4  C   UNL     1      60.562  -5.528   3.692  1.00  0.00     0.030 C 
ATOM      5  C   UNL     1      61.223  -8.297   4.720  1.00  0.00     0.004 C 
ATOM      6  C   UNL     1      62.664  -3.765   3.125  1.00  0.00     0.013 C 
ATOM      7  C   UNL     1      60.882  -5.274   2.191  1.00  0.00    -0.063 C 
ATOM      8  C   UNL     1      59.463  -6.590   4.088  1.00  0.00    -0.003 C 
ATOM      9  C   UNL     1      59.912  -8.073   3.943  1.00  0.00    -0.011 C 
ATOM     10  C   UNL     1      62.035  -4.335   1.803  1.00  0.00    -0.006 C 
ATOM     11  C   UNL     1      60.010  -5.608   1.226  1.00  0.00    -0.027 C 
ATOM     12  C   UNL     1      58.017  -6.294   3.625  1.00  0.00     0.008 C 
ATOM     13  C   UNL     1      60.038  -8.595   2.500  1.00  0.00     0.008 C 
ATOM     14  C   UNL     1      63.125  -5.181   1.076  1.00  0.00     0.017 C 
ATOM     15  C   UNL     1      61.487  -3.170   0.823  1.00  0.00    -0.020 C 
ATOM     16  C   UNL     1      60.081  -5.137  -0.194  1.00  0.00     0.032 C 
ATOM     17  C   UNL     1      60.867  -3.804  -0.497  1.00  0.00     0.006 C 
ATOM     18  C   UNL     1      60.356  -2.365   1.529  1.00  0.00     0.008 C 
ATOM     19  C   UNL     1      62.672  -2.207   0.454  1.00  0.00     0.012 C 
ATOM     20  C   UNL     1      60.031  -2.830  -1.471  1.00  0.00    -0.025 C 
ATOM     21  C   UNL     1      59.584  -1.400   0.623  1.00  0.00     0.005 C 
ATOM     22  C   UNL     1      58.937  -2.050  -0.642  1.00  0.00     0.003 C 
ATOM     23  C   UNL     1      60.939  -1.790  -2.206  1.00  0.00     0.010 C 
ATOM     24  C   UNL     1      59.411  -3.736  -2.599  1.00  0.00     0.012 C 
ATOM     25  C   UNL     1      58.122  -0.964  -1.486  1.00  0.00    -0.006 C 
ATOM     26  C   UNL     1      60.169  -0.765  -3.059  1.00  0.00     0.033 C 
ATOM     27  C   UNL     1      59.101  -0.012  -2.252  1.00  0.00     0.120 C 
ATOM     28  C   UNL     1      57.125  -1.638  -2.472  1.00  0.00     0.014 C 
ATOM     29  C   UNL     1      57.236  -0.093  -0.546  1.00  0.00     0.014 C 
ENDROOT
BRANCH   1  30
ATOM     30  C   UNL     1      61.593  -5.521   6.027  1.00  0.00     0.048 C 
ATOM     31  O   UNL     1      61.783  -6.420   6.890  1.00  0.00    -0.550 OA
ATOM     32  O   UNL     1      61.253  -4.243   6.460  1.00  0.00    -0.550 OA
ENDBRANCH   1  30
BRANCH  27  33
ATOM     33  O   UNL     1      58.393   0.829  -3.130  1.00  0.00    -0.393 OA
ATOM     34  H   UNL     1      58.205   1.674  -2.643  1.00  0.00     0.210 HD
ENDBRANCH  27  33
TORSDOF 2
ENDMDL
MODEL 7
REMARK VINA RESULT:    -5.723      6.677     10.157
REMARK INTER + INTRA:          -6.194
REMARK INTER:                  -6.286
REMARK INTRA:                   0.091
REMARK UNBOUND:                 0.030
REMARK SMILES C[C@H]1[C@@H](C)CC[C@@]2(C(=O)[O-])CC[C@@]3(C)C(=CC[C@H]4[C@]5(C)CC[C@@H](O)C(C)(C)[C@@H]5CC[C@]43C)[C@@H]12
REMARK SMILES IDX 7 1 6 2 11 3 33 4 5 5 12 6 15 7 2 8 3 9 13 10 16 11 1 12
REMARK SMILES IDX 4 13 14 14 31 15 17 16 18 17 30 18 32 19 19 20 29 21 28 22
REMARK SMILES IDX 21 23 20 24 25 25 22 26 23 27 26 28 27 29 8 30 9 31 10 32
REMARK SMILES IDX 24 33
REMARK H PARENT 24 34
REMARK Flexibility Score: inf
ROOT
ATOM      1  C   UNL     1      57.437  -4.324  -3.110  1.00  0.00     0.017 C 
ATOM      2  C   UNL     1      58.812  -4.883  -3.594  1.00  0.00     0.014 C 
ATOM      3  C   UNL     1      57.033  -3.122  -4.024  1.00  0.00     0.014 C 
ATOM      4  C   UNL     1      56.371  -5.489  -3.139  1.00  0.00     0.030 C 
ATOM      5  C   UNL     1      59.317  -6.076  -2.764  1.00  0.00     0.004 C 
ATOM      6  C   UNL     1      55.628  -3.233  -4.624  1.00  0.00     0.013 C 
ATOM      7  C   UNL     1      55.814  -5.740  -4.569  1.00  0.00    -0.063 C 
ATOM      8  C   UNL     1      56.910  -6.703  -2.287  1.00  0.00    -0.003 C 
ATOM      9  C   UNL     1      58.304  -7.237  -2.726  1.00  0.00    -0.011 C 
ATOM     10  C   UNL     1      55.403  -4.550  -5.451  1.00  0.00    -0.006 C 
ATOM     11  C   UNL     1      55.401  -6.959  -4.953  1.00  0.00    -0.027 C 
ATOM     12  C   UNL     1      55.881  -7.794  -1.907  1.00  0.00     0.008 C 
ATOM     13  C   UNL     1      58.331  -8.026  -4.048  1.00  0.00     0.008 C 
ATOM     14  C   UNL     1      56.355  -4.512  -6.686  1.00  0.00     0.017 C 
ATOM     15  C   UNL     1      53.870  -4.728  -5.933  1.00  0.00    -0.020 C 
ATOM     16  C   UNL     1      54.577  -7.241  -6.171  1.00  0.00     0.032 C 
ATOM     17  C   UNL     1      53.704  -6.072  -6.766  1.00  0.00     0.006 C 
ATOM     18  C   UNL     1      52.927  -4.827  -4.697  1.00  0.00     0.008 C 
ATOM     19  C   UNL     1      53.460  -3.493  -6.814  1.00  0.00     0.012 C 
ATOM     20  C   UNL     1      52.206  -6.561  -7.105  1.00  0.00    -0.025 C 
ATOM     21  C   UNL     1      51.487  -5.246  -5.010  1.00  0.00     0.005 C 
ATOM     22  C   UNL     1      51.341  -6.596  -5.783  1.00  0.00     0.003 C 
ATOM     23  C   UNL     1      51.493  -5.638  -8.147  1.00  0.00     0.010 C 
ATOM     24  C   UNL     1      52.331  -7.973  -7.789  1.00  0.00     0.012 C 
ATOM     25  C   UNL     1      49.801  -6.954  -6.015  1.00  0.00    -0.006 C 
ATOM     26  C   UNL     1      50.019  -6.002  -8.413  1.00  0.00     0.033 C 
ATOM     27  C   UNL     1      49.182  -6.041  -7.126  1.00  0.00     0.120 C 
ATOM     28  C   UNL     1      49.612  -8.458  -6.369  1.00  0.00     0.014 C 
ATOM     29  C   UNL     1      48.986  -6.742  -4.704  1.00  0.00     0.014 C 
ENDROOT
BRANCH   1  30
ATOM     30  C   UNL     1      57.571  -3.762  -1.693  1.00  0.00     0.048 C 
ATOM     31  O   UNL     1      58.344  -2.795  -1.454  1.00  0.00    -0.550 OA
ATOM     32  O   UNL     1      56.750  -4.226  -0.670  1.00  0.00    -0.550 OA
ENDBRANCH   1  30
BRANCH  27  33
ATOM     33  O   UNL     1      47.883  -6.468  -7.456  1.00  0.00    -0.393 OA
ATOM     34  H   UNL     1      47.370  -6.539  -6.609  1.00  0.00     0.210 HD
ENDBRANCH  27  33
TORSDOF 2
ENDMDL
MODEL 8
REMARK VINA RESULT:    -4.212      4.085      7.579
REMARK INTER + INTRA:          -4.552
REMARK INTER:                  -4.526
REMARK INTRA:                  -0.026
REMARK UNBOUND:                 0.030
REMARK SMILES C[C@H]1[C@@H](C)CC[C@@]2(C(=O)[O-])CC[C@@]3(C)C(=CC[C@H]4[C@]5(C)CC[C@@H](O)C(C)(C)[C@@H]5CC[C@]43C)[C@@H]12
REMARK SMILES IDX 7 1 6 2 11 3 33 4 5 5 12 6 15 7 2 8 3 9 13 10 16 11 1 12
REMARK SMILES IDX 4 13 14 14 31 15 17 16 18 17 30 18 32 19 19 20 29 21 28 22
REMARK SMILES IDX 21 23 20 24 25 25 22 26 23 27 26 28 27 29 8 30 9 31 10 32
REMARK SMILES IDX 24 33
REMARK H PARENT 24 34
REMARK Flexibility Score: inf
ROOT
ATOM      1  C   UNL     1      59.865  -2.552   0.181  1.00  0.00     0.017 C 
ATOM      2  C   UNL     1      58.873  -1.686   1.019  1.00  0.00     0.014 C 
ATOM      3  C   UNL     1      59.581  -4.062   0.469  1.00  0.00     0.014 C 
ATOM      4  C   UNL     1      59.699  -2.187  -1.346  1.00  0.00     0.030 C 
ATOM      5  C   UNL     1      59.058  -0.172   0.819  1.00  0.00     0.004 C 
ATOM      6  C   UNL     1      59.370  -4.912  -0.789  1.00  0.00     0.013 C 
ATOM      7  C   UNL     1      58.473  -2.893  -1.990  1.00  0.00    -0.063 C 
ATOM      8  C   UNL     1      59.889  -0.630  -1.528  1.00  0.00    -0.003 C 
ATOM      9  C   UNL     1      58.940   0.245  -0.660  1.00  0.00    -0.011 C 
ATOM     10  C   UNL     1      58.215  -4.383  -1.714  1.00  0.00    -0.006 C 
ATOM     11  C   UNL     1      57.800  -2.333  -3.009  1.00  0.00    -0.027 C 
ATOM     12  C   UNL     1      60.107  -0.124  -2.974  1.00  0.00     0.008 C 
ATOM     13  C   UNL     1      57.465   0.274  -1.101  1.00  0.00     0.008 C 
ATOM     14  C   UNL     1      56.873  -4.505  -0.928  1.00  0.00     0.017 C 
ATOM     15  C   UNL     1      58.119  -5.192  -3.112  1.00  0.00    -0.020 C 
ATOM     16  C   UNL     1      56.821  -3.049  -3.887  1.00  0.00     0.032 C 
ATOM     17  C   UNL     1      56.934  -4.618  -4.002  1.00  0.00     0.006 C 
ATOM     18  C   UNL     1      59.438  -5.019  -3.923  1.00  0.00     0.008 C 
ATOM     19  C   UNL     1      57.878  -6.715  -2.810  1.00  0.00     0.012 C 
ATOM     20  C   UNL     1      56.846  -5.109  -5.535  1.00  0.00    -0.025 C 
ATOM     21  C   UNL     1      59.382  -5.525  -5.368  1.00  0.00     0.005 C 
ATOM     22  C   UNL     1      58.243  -4.910  -6.244  1.00  0.00     0.003 C 
ATOM     23  C   UNL     1      56.428  -6.610  -5.662  1.00  0.00     0.010 C 
ATOM     24  C   UNL     1      55.694  -4.278  -6.214  1.00  0.00     0.012 C 
ATOM     25  C   UNL     1      58.309  -5.473  -7.738  1.00  0.00    -0.006 C 
ATOM     26  C   UNL     1      56.442  -7.153  -7.104  1.00  0.00     0.033 C 
ATOM     27  C   UNL     1      57.800  -6.953  -7.793  1.00  0.00     0.120 C 
ATOM     28  C   UNL     1      57.501  -4.577  -8.722  1.00  0.00     0.014 C 
ATOM     29  C   UNL     1      59.772  -5.443  -8.271  1.00  0.00     0.014 C 
ENDROOT
BRANCH   1  30
ATOM     30  C   UNL     1      61.302  -2.289   0.637  1.00  0.00     0.048 C 
ATOM     31  O   UNL     1      61.607  -2.329   1.860  1.00  0.00    -0.550 OA
ATOM     32  O   UNL     1      62.320  -2.126  -0.297  1.00  0.00    -0.550 OA
ENDBRANCH   1  30
BRANCH  27  33
ATOM     33  O   UNL     1      57.690  -7.393  -9.125  1.00  0.00    -0.393 OA
ATOM     34  H   UNL     1      58.534  -7.864  -9.352  1.00  0.00     0.210 HD
ENDBRANCH  27  33
TORSDOF 2
ENDMDL
