MODEL 1
REMARK VINA RESULT:    -3.724      0.000      0.000
REMARK INTER + INTRA:          -7.039
REMARK INTER:                  -5.792
REMARK INTRA:                  -1.247
REMARK UNBOUND:                -1.247
REMARK SMILES COc1cc(CNC(=O)CCCCC=CC(C)C)ccc1O
REMARK SMILES IDX 11 1 12 2 13 3 14 4 15 5 16 6 17 7 18 8 10 9 8 10 9 11 7 12
REMARK SMILES IDX 6 14 5 15 4 16 19 17 3 18 20 19 21 20 2 21 1 22 22 23
REMARK H PARENT 7 13 22 24
REMARK Flexibility Score: inf
ROOT
ATOM      1  C   UNL     1      19.684  52.470  55.041  1.00  0.00     0.010 C 
ENDROOT
BRANCH   1   2
ATOM      2  C   UNL     1      18.613  53.276  55.804  1.00  0.00     0.005 C 
BRANCH   2   3
ATOM      3  C   UNL     1      18.861  54.793  55.842  1.00  0.00     0.027 C 
BRANCH   3   4
ATOM      4  C   UNL     1      20.174  55.179  55.217  1.00  0.00    -0.031 C 
ATOM      5  C   UNL     1      20.290  55.396  53.899  1.00  0.00    -0.028 C 
BRANCH   5   6
ATOM      6  C   UNL     1      21.615  55.776  53.279  1.00  0.00     0.005 C 
ATOM      7  C   UNL     1      22.749  54.944  53.889  1.00  0.00     0.012 C 
ATOM      8  C   UNL     1      21.571  55.585  51.759  1.00  0.00     0.012 C 
ENDBRANCH   5   6
ENDBRANCH   3   4
ENDBRANCH   2   3
ENDBRANCH   1   2
BRANCH   1   9
ATOM      9  C   UNL     1      20.598  51.607  55.931  1.00  0.00     0.100 C 
BRANCH   9  10
ATOM     10  C   UNL     1      21.962  51.416  55.335  1.00  0.00     0.220 C 
ATOM     11  O   UNL     1      22.986  51.584  56.053  1.00  0.00    -0.275 OA
ATOM     12  N   UNL     1      22.102  51.051  53.955  1.00  0.00    -0.352 N 
ATOM     13  H   UNL     1      21.253  50.756  53.421  1.00  0.00     0.163 HD
BRANCH  12  14
ATOM     14  C   UNL     1      23.314  51.341  53.196  1.00  0.00     0.151 C 
BRANCH  14  15
ATOM     15  C   UNL     1      22.944  51.728  51.791  1.00  0.00    -0.025 A 
ATOM     16  C   UNL     1      23.744  52.626  51.067  1.00  0.00     0.056 A 
ATOM     17  C   UNL     1      21.743  51.269  51.232  1.00  0.00     0.009 A 
ATOM     18  C   UNL     1      23.350  53.061  49.785  1.00  0.00     0.160 A 
ATOM     19  C   UNL     1      21.352  51.689  49.959  1.00  0.00     0.050 A 
ATOM     20  C   UNL     1      22.152  52.584  49.236  1.00  0.00     0.157 A 
BRANCH  18  21
ATOM     21  O   UNL     1      24.116  53.970  49.037  1.00  0.00    -0.493 OA
ATOM     22  C   UNL     1      23.735  55.315  48.772  1.00  0.00     0.278 C 
ENDBRANCH  18  21
BRANCH  20  23
ATOM     23  O   UNL     1      21.757  53.011  47.969  1.00  0.00    -0.504 OA
ATOM     24  H   UNL     1      22.419  53.091  47.206  1.00  0.00     0.293 HD
ENDBRANCH  20  23
ENDBRANCH  14  15
ENDBRANCH  12  14
ENDBRANCH   9  10
ENDBRANCH   1   9
TORSDOF 10
ENDMDL
MODEL 2
REMARK VINA RESULT:    -3.275      1.541      2.158
REMARK INTER + INTRA:          -6.341
REMARK INTER:                  -5.285
REMARK INTRA:                  -1.056
REMARK UNBOUND:                -1.247
REMARK SMILES COc1cc(CNC(=O)CCCCC=CC(C)C)ccc1O
REMARK SMILES IDX 11 1 12 2 13 3 14 4 15 5 16 6 17 7 18 8 10 9 8 10 9 11 7 12
REMARK SMILES IDX 6 14 5 15 4 16 19 17 3 18 20 19 21 20 2 21 1 22 22 23
REMARK H PARENT 7 13 22 24
REMARK Flexibility Score: inf
ROOT
ATOM      1  C   UNL     1      18.994  53.851  55.017  1.00  0.00     0.010 C 
ENDROOT
BRANCH   1   2
ATOM      2  C   UNL     1      19.816  54.837  55.873  1.00  0.00     0.005 C 
BRANCH   2   3
ATOM      3  C   UNL     1      20.280  56.099  55.126  1.00  0.00     0.027 C 
BRANCH   3   4
ATOM      4  C   UNL     1      20.787  55.796  53.742  1.00  0.00    -0.031 C 
ATOM      5  C   UNL     1      22.049  56.072  53.378  1.00  0.00    -0.028 C 
BRANCH   5   6
ATOM      6  C   UNL     1      22.546  55.771  51.983  1.00  0.00     0.005 C 
ATOM      7  C   UNL     1      23.890  55.036  52.041  1.00  0.00     0.012 C 
ATOM      8  C   UNL     1      21.515  54.940  51.213  1.00  0.00     0.012 C 
ENDBRANCH   5   6
ENDBRANCH   3   4
ENDBRANCH   2   3
ENDBRANCH   1   2
BRANCH   1   9
ATOM      9  C   UNL     1      19.259  52.364  55.314  1.00  0.00     0.100 C 
BRANCH   9  10
ATOM     10  C   UNL     1      20.681  51.969  55.035  1.00  0.00     0.220 C 
ATOM     11  O   UNL     1      21.419  51.584  55.983  1.00  0.00    -0.275 OA
ATOM     12  N   UNL     1      21.200  52.037  53.699  1.00  0.00    -0.352 N 
ATOM     13  H   UNL     1      20.538  52.196  52.907  1.00  0.00     0.163 HD
BRANCH  12  14
ATOM     14  C   UNL     1      22.627  52.173  53.428  1.00  0.00     0.151 C 
BRANCH  14  15
ATOM     15  C   UNL     1      22.943  51.566  52.090  1.00  0.00    -0.025 A 
ATOM     16  C   UNL     1      22.229  51.957  50.946  1.00  0.00     0.056 A 
ATOM     17  C   UNL     1      23.886  50.533  51.995  1.00  0.00     0.009 A 
ATOM     18  C   UNL     1      22.460  51.324  49.708  1.00  0.00     0.160 A 
ATOM     19  C   UNL     1      24.125  49.908  50.769  1.00  0.00     0.050 A 
ATOM     20  C   UNL     1      23.414  50.300  49.627  1.00  0.00     0.157 A 
BRANCH  18  21
ATOM     21  O   UNL     1      21.756  51.677  48.545  1.00  0.00    -0.493 OA
ATOM     22  C   UNL     1      21.743  52.982  47.977  1.00  0.00     0.278 C 
ENDBRANCH  18  21
BRANCH  20  23
ATOM     23  O   UNL     1      23.646  49.669  48.405  1.00  0.00    -0.504 OA
ATOM     24  H   UNL     1      24.431  49.925  47.817  1.00  0.00     0.293 HD
ENDBRANCH  20  23
ENDBRANCH  14  15
ENDBRANCH  12  14
ENDBRANCH   9  10
ENDBRANCH   1   9
TORSDOF 10
ENDMDL
MODEL 3
REMARK VINA RESULT:    -2.991     11.912     14.739
REMARK INTER + INTRA:          -5.899
REMARK INTER:                  -4.189
REMARK INTRA:                  -1.709
REMARK UNBOUND:                -1.247
REMARK SMILES COc1cc(CNC(=O)CCCCC=CC(C)C)ccc1O
REMARK SMILES IDX 11 1 12 2 13 3 14 4 15 5 16 6 17 7 18 8 10 9 8 10 9 11 7 12
REMARK SMILES IDX 6 14 5 15 4 16 19 17 3 18 20 19 21 20 2 21 1 22 22 23
REMARK H PARENT 7 13 22 24
REMARK Flexibility Score: inf
ROOT
ATOM      1  C   UNL     1      19.408  52.511  36.995  1.00  0.00     0.010 C 
ENDROOT
BRANCH   1   2
ATOM      2  C   UNL     1      19.323  54.021  36.690  1.00  0.00     0.005 C 
BRANCH   2   3
ATOM      3  C   UNL     1      20.495  54.851  37.240  1.00  0.00     0.027 C 
BRANCH   3   4
ATOM      4  C   UNL     1      20.101  55.692  38.424  1.00  0.00    -0.031 C 
ATOM      5  C   UNL     1      19.193  55.270  39.317  1.00  0.00    -0.028 C 
BRANCH   5   6
ATOM      6  C   UNL     1      18.798  56.125  40.499  1.00  0.00     0.005 C 
ATOM      7  C   UNL     1      17.420  55.709  41.024  1.00  0.00     0.012 C 
ATOM      8  C   UNL     1      19.847  56.020  41.611  1.00  0.00     0.012 C 
ENDBRANCH   5   6
ENDBRANCH   3   4
ENDBRANCH   2   3
ENDBRANCH   1   2
BRANCH   1   9
ATOM      9  C   UNL     1      20.166  51.682  35.943  1.00  0.00     0.100 C 
BRANCH   9  10
ATOM     10  C   UNL     1      21.566  51.352  36.376  1.00  0.00     0.220 C 
ATOM     11  O   UNL     1      21.780  50.306  37.047  1.00  0.00    -0.275 OA
ATOM     12  N   UNL     1      22.652  52.224  36.033  1.00  0.00    -0.352 N 
ATOM     13  H   UNL     1      22.486  52.990  35.342  1.00  0.00     0.163 HD
BRANCH  12  14
ATOM     14  C   UNL     1      23.888  52.264  36.808  1.00  0.00     0.151 C 
BRANCH  14  15
ATOM     15  C   UNL     1      23.734  53.235  37.945  1.00  0.00    -0.025 A 
ATOM     16  C   UNL     1      23.136  52.831  39.149  1.00  0.00     0.056 A 
ATOM     17  C   UNL     1      24.098  54.578  37.772  1.00  0.00     0.009 A 
ATOM     18  C   UNL     1      22.907  53.764  40.182  1.00  0.00     0.160 A 
ATOM     19  C   UNL     1      23.883  55.504  38.794  1.00  0.00     0.050 A 
ATOM     20  C   UNL     1      23.288  55.100  39.997  1.00  0.00     0.157 A 
BRANCH  18  21
ATOM     21  O   UNL     1      22.299  53.402  41.394  1.00  0.00    -0.493 OA
ATOM     22  C   UNL     1      21.011  52.805  41.501  1.00  0.00     0.278 C 
ENDBRANCH  18  21
BRANCH  20  23
ATOM     23  O   UNL     1      23.064  56.027  41.015  1.00  0.00    -0.504 OA
ATOM     24  H   UNL     1      22.804  55.735  41.950  1.00  0.00     0.293 HD
ENDBRANCH  20  23
ENDBRANCH  14  15
ENDBRANCH  12  14
ENDBRANCH   9  10
ENDBRANCH   1   9
TORSDOF 10
ENDMDL
MODEL 4
REMARK VINA RESULT:    -2.947      1.995      3.622
REMARK INTER + INTRA:          -5.831
REMARK INTER:                  -5.597
REMARK INTRA:                  -0.234
REMARK UNBOUND:                -1.247
REMARK SMILES COc1cc(CNC(=O)CCCCC=CC(C)C)ccc1O
REMARK SMILES IDX 11 1 12 2 13 3 14 4 15 5 16 6 17 7 18 8 10 9 8 10 9 11 7 12
REMARK SMILES IDX 6 14 5 15 4 16 19 17 3 18 20 19 21 20 2 21 1 22 22 23
REMARK H PARENT 7 13 22 24
REMARK Flexibility Score: inf
ROOT
ATOM      1  C   UNL     1      19.420  54.327  54.271  1.00  0.00     0.010 C 
ENDROOT
BRANCH   1   2
ATOM      2  C   UNL     1      18.544  53.481  55.218  1.00  0.00     0.005 C 
BRANCH   2   3
ATOM      3  C   UNL     1      19.318  52.444  56.050  1.00  0.00     0.027 C 
BRANCH   3   4
ATOM      4  C   UNL     1      20.630  52.062  55.420  1.00  0.00    -0.031 C 
ATOM      5  C   UNL     1      21.602  51.464  56.125  1.00  0.00    -0.028 C 
BRANCH   5   6
ATOM      6  C   UNL     1      22.919  51.091  55.486  1.00  0.00     0.005 C 
ATOM      7  C   UNL     1      24.023  52.055  55.933  1.00  0.00     0.012 C 
ATOM      8  C   UNL     1      23.296  49.648  55.836  1.00  0.00     0.012 C 
ENDBRANCH   5   6
ENDBRANCH   3   4
ENDBRANCH   2   3
ENDBRANCH   1   2
BRANCH   1   9
ATOM      9  C   UNL     1      20.853  54.581  54.773  1.00  0.00     0.100 C 
BRANCH   9  10
ATOM     10  C   UNL     1      21.754  55.103  53.690  1.00  0.00     0.220 C 
ATOM     11  O   UNL     1      21.258  55.729  52.715  1.00  0.00    -0.275 OA
ATOM     12  N   UNL     1      23.170  54.885  53.763  1.00  0.00    -0.352 N 
ATOM     13  H   UNL     1      23.580  54.514  54.650  1.00  0.00     0.163 HD
BRANCH  12  14
ATOM     14  C   UNL     1      24.016  54.890  52.574  1.00  0.00     0.151 C 
BRANCH  14  15
ATOM     15  C   UNL     1      23.834  53.600  51.825  1.00  0.00    -0.025 A 
ATOM     16  C   UNL     1      23.368  53.607  50.500  1.00  0.00     0.056 A 
ATOM     17  C   UNL     1      24.035  52.377  52.479  1.00  0.00     0.009 A 
ATOM     18  C   UNL     1      23.109  52.396  49.827  1.00  0.00     0.160 A 
ATOM     19  C   UNL     1      23.789  51.173  51.814  1.00  0.00     0.050 A 
ATOM     20  C   UNL     1      23.326  51.181  50.492  1.00  0.00     0.157 A 
BRANCH  18  21
ATOM     21  O   UNL     1      22.629  52.362  48.508  1.00  0.00    -0.493 OA
ATOM     22  C   UNL     1      21.298  52.692  48.128  1.00  0.00     0.278 C 
ENDBRANCH  18  21
BRANCH  20  23
ATOM     23  O   UNL     1      23.071  49.979  49.831  1.00  0.00    -0.504 OA
ATOM     24  H   UNL     1      22.472  49.269  50.236  1.00  0.00     0.293 HD
ENDBRANCH  20  23
ENDBRANCH  14  15
ENDBRANCH  12  14
ENDBRANCH   9  10
ENDBRANCH   1   9
TORSDOF 10
ENDMDL
MODEL 5
REMARK VINA RESULT:    -2.532     12.332     15.599
REMARK INTER + INTRA:          -5.185
REMARK INTER:                  -4.186
REMARK INTRA:                  -0.999
REMARK UNBOUND:                -1.247
REMARK SMILES COc1cc(CNC(=O)CCCCC=CC(C)C)ccc1O
REMARK SMILES IDX 11 1 12 2 13 3 14 4 15 5 16 6 17 7 18 8 10 9 8 10 9 11 7 12
REMARK SMILES IDX 6 14 5 15 4 16 19 17 3 18 20 19 21 20 2 21 1 22 22 23
REMARK H PARENT 7 13 22 24
REMARK Flexibility Score: inf
ROOT
ATOM      1  C   UNL     1      20.599  51.217  36.978  1.00  0.00     0.010 C 
ENDROOT
BRANCH   1   2
ATOM      2  C   UNL     1      21.125  50.070  36.090  1.00  0.00     0.005 C 
BRANCH   2   3
ATOM      3  C   UNL     1      22.654  50.036  35.930  1.00  0.00     0.027 C 
BRANCH   3   4
ATOM      4  C   UNL     1      23.330  51.209  36.586  1.00  0.00    -0.031 C 
ATOM      5  C   UNL     1      23.448  51.298  37.920  1.00  0.00    -0.028 C 
BRANCH   5   6
ATOM      6  C   UNL     1      24.122  52.484  38.570  1.00  0.00     0.005 C 
ATOM      7  C   UNL     1      23.983  53.729  37.688  1.00  0.00     0.012 C 
ATOM      8  C   UNL     1      23.528  52.744  39.958  1.00  0.00     0.012 C 
ENDBRANCH   5   6
ENDBRANCH   3   4
ENDBRANCH   2   3
ENDBRANCH   1   2
BRANCH   1   9
ATOM      9  C   UNL     1      19.474  52.058  36.347  1.00  0.00     0.100 C 
BRANCH   9  10
ATOM     10  C   UNL     1      19.840  53.510  36.233  1.00  0.00     0.220 C 
ATOM     11  O   UNL     1      21.006  53.833  35.875  1.00  0.00    -0.275 OA
ATOM     12  N   UNL     1      18.871  54.524  36.535  1.00  0.00    -0.352 N 
ATOM     13  H   UNL     1      17.873  54.246  36.667  1.00  0.00     0.163 HD
BRANCH  12  14
ATOM     14  C   UNL     1      19.260  55.870  36.940  1.00  0.00     0.151 C 
BRANCH  14  15
ATOM     15  C   UNL     1      19.853  55.826  38.321  1.00  0.00    -0.025 A 
ATOM     16  C   UNL     1      19.024  55.708  39.447  1.00  0.00     0.056 A 
ATOM     17  C   UNL     1      21.233  56.002  38.495  1.00  0.00     0.009 A 
ATOM     18  C   UNL     1      19.570  55.758  40.746  1.00  0.00     0.160 A 
ATOM     19  C   UNL     1      21.781  56.044  39.779  1.00  0.00     0.050 A 
ATOM     20  C   UNL     1      20.953  55.924  40.903  1.00  0.00     0.157 A 
BRANCH  18  21
ATOM     21  O   UNL     1      18.772  55.659  41.897  1.00  0.00    -0.493 OA
ATOM     22  C   UNL     1      17.421  56.099  41.980  1.00  0.00     0.278 C 
ENDBRANCH  18  21
BRANCH  20  23
ATOM     23  O   UNL     1      21.499  55.975  42.185  1.00  0.00    -0.504 OA
ATOM     24  H   UNL     1      21.087  56.546  42.915  1.00  0.00     0.293 HD
ENDBRANCH  20  23
ENDBRANCH  14  15
ENDBRANCH  12  14
ENDBRANCH   9  10
ENDBRANCH   1   9
TORSDOF 10
ENDMDL
MODEL 6
REMARK VINA RESULT:    -2.059      1.972      3.698
REMARK INTER + INTRA:          -4.449
REMARK INTER:                  -5.098
REMARK INTRA:                   0.649
REMARK UNBOUND:                -1.247
REMARK SMILES COc1cc(CNC(=O)CCCCC=CC(C)C)ccc1O
REMARK SMILES IDX 11 1 12 2 13 3 14 4 15 5 16 6 17 7 18 8 10 9 8 10 9 11 7 12
REMARK SMILES IDX 6 14 5 15 4 16 19 17 3 18 20 19 21 20 2 21 1 22 22 23
REMARK H PARENT 7 13 22 24
REMARK Flexibility Score: inf
ROOT
ATOM      1  C   UNL     1      19.529  54.991  54.379  1.00  0.00     0.010 C 
ENDROOT
BRANCH   1   2
ATOM      2  C   UNL     1      18.606  54.287  55.395  1.00  0.00     0.005 C 
BRANCH   2   3
ATOM      3  C   UNL     1      19.247  53.095  56.124  1.00  0.00     0.027 C 
BRANCH   3   4
ATOM      4  C   UNL     1      20.336  52.442  55.316  1.00  0.00    -0.031 C 
ATOM      5  C   UNL     1      20.919  51.300  55.711  1.00  0.00    -0.028 C 
BRANCH   5   6
ATOM      6  C   UNL     1      22.017  50.657  54.897  1.00  0.00     0.005 C 
ATOM      7  C   UNL     1      21.909  51.076  53.427  1.00  0.00     0.012 C 
ATOM      8  C   UNL     1      23.392  51.031  55.460  1.00  0.00     0.012 C 
ENDBRANCH   5   6
ENDBRANCH   3   4
ENDBRANCH   2   3
ENDBRANCH   1   2
BRANCH   1   9
ATOM      9  C   UNL     1      20.991  54.508  54.395  1.00  0.00     0.100 C 
BRANCH   9  10
ATOM     10  C   UNL     1      21.848  55.245  53.406  1.00  0.00     0.220 C 
ATOM     11  O   UNL     1      21.329  56.125  52.666  1.00  0.00    -0.275 OA
ATOM     12  N   UNL     1      23.247  54.946  53.299  1.00  0.00    -0.352 N 
ATOM     13  H   UNL     1      23.691  54.340  54.025  1.00  0.00     0.163 HD
BRANCH  12  14
ATOM     14  C   UNL     1      24.006  55.215  52.082  1.00  0.00     0.151 C 
BRANCH  14  15
ATOM     15  C   UNL     1      23.402  54.450  50.937  1.00  0.00    -0.025 A 
ATOM     16  C   UNL     1      23.311  53.050  50.987  1.00  0.00     0.056 A 
ATOM     17  C   UNL     1      23.018  55.126  49.770  1.00  0.00     0.009 A 
ATOM     18  C   UNL     1      22.830  52.325  49.877  1.00  0.00     0.160 A 
ATOM     19  C   UNL     1      22.533  54.414  48.671  1.00  0.00     0.050 A 
ATOM     20  C   UNL     1      22.439  53.017  48.722  1.00  0.00     0.157 A 
BRANCH  18  21
ATOM     21  O   UNL     1      22.738  50.924  49.883  1.00  0.00    -0.493 OA
ATOM     22  C   UNL     1      23.835  50.047  50.111  1.00  0.00     0.278 C 
ENDBRANCH  18  21
BRANCH  20  23
ATOM     23  O   UNL     1      21.964  52.305  47.621  1.00  0.00    -0.504 OA
ATOM     24  H   UNL     1      22.408  51.448  47.312  1.00  0.00     0.293 HD
ENDBRANCH  20  23
ENDBRANCH  14  15
ENDBRANCH  12  14
ENDBRANCH   9  10
ENDBRANCH   1   9
TORSDOF 10
ENDMDL
MODEL 7
REMARK VINA RESULT:    -1.243      4.997      8.922
REMARK INTER + INTRA:          -3.180
REMARK INTER:                  -2.708
REMARK INTRA:                  -0.472
REMARK UNBOUND:                -1.247
REMARK SMILES COc1cc(CNC(=O)CCCCC=CC(C)C)ccc1O
REMARK SMILES IDX 11 1 12 2 13 3 14 4 15 5 16 6 17 7 18 8 10 9 8 10 9 11 7 12
REMARK SMILES IDX 6 14 5 15 4 16 19 17 3 18 20 19 21 20 2 21 1 22 22 23
REMARK H PARENT 7 13 22 24
REMARK Flexibility Score: inf
ROOT
ATOM      1  C   UNL     1      21.684  52.417  46.001  1.00  0.00     0.010 C 
ENDROOT
BRANCH   1   2
ATOM      2  C   UNL     1      20.754  52.430  44.771  1.00  0.00     0.005 C 
BRANCH   2   3
ATOM      3  C   UNL     1      21.436  52.853  43.458  1.00  0.00     0.027 C 
BRANCH   3   4
ATOM      4  C   UNL     1      20.473  52.927  42.305  1.00  0.00    -0.031 C 
ATOM      5  C   UNL     1      20.886  52.814  41.034  1.00  0.00    -0.028 C 
BRANCH   5   6
ATOM      6  C   UNL     1      19.912  52.898  39.881  1.00  0.00     0.005 C 
ATOM      7  C   UNL     1      19.054  54.162  39.998  1.00  0.00     0.012 C 
ATOM      8  C   UNL     1      20.660  52.881  38.544  1.00  0.00     0.012 C 
ENDBRANCH   5   6
ENDBRANCH   3   4
ENDBRANCH   2   3
ENDBRANCH   1   2
BRANCH   1   9
ATOM      9  C   UNL     1      20.984  52.709  47.341  1.00  0.00     0.100 C 
BRANCH   9  10
ATOM     10  C   UNL     1      21.946  52.737  48.495  1.00  0.00     0.220 C 
ATOM     11  O   UNL     1      22.721  53.722  48.637  1.00  0.00    -0.275 OA
ATOM     12  N   UNL     1      21.988  51.647  49.426  1.00  0.00    -0.352 N 
ATOM     13  H   UNL     1      21.234  50.924  49.392  1.00  0.00     0.163 HD
BRANCH  12  14
ATOM     14  C   UNL     1      23.175  51.353  50.222  1.00  0.00     0.151 C 
BRANCH  14  15
ATOM     15  C   UNL     1      22.798  51.286  51.676  1.00  0.00    -0.025 A 
ATOM     16  C   UNL     1      21.579  51.822  52.119  1.00  0.00     0.056 A 
ATOM     17  C   UNL     1      23.708  50.775  52.611  1.00  0.00     0.009 A 
ATOM     18  C   UNL     1      21.265  51.843  53.494  1.00  0.00     0.160 A 
ATOM     19  C   UNL     1      23.399  50.784  53.973  1.00  0.00     0.050 A 
ATOM     20  C   UNL     1      22.181  51.317  54.416  1.00  0.00     0.157 A 
BRANCH  18  21
ATOM     21  O   UNL     1      20.063  52.384  53.978  1.00  0.00    -0.493 OA
ATOM     22  C   UNL     1      19.864  53.760  54.280  1.00  0.00     0.278 C 
ENDBRANCH  18  21
BRANCH  20  23
ATOM     23  O   UNL     1      21.876  51.336  55.776  1.00  0.00    -0.504 OA
ATOM     24  H   UNL     1      21.009  50.948  56.131  1.00  0.00     0.293 HD
ENDBRANCH  20  23
ENDBRANCH  14  15
ENDBRANCH  12  14
ENDBRANCH   9  10
ENDBRANCH   1   9
TORSDOF 10
ENDMDL
MODEL 8
REMARK VINA RESULT:    -1.192      5.300      9.206
REMARK INTER + INTRA:          -3.100
REMARK INTER:                  -2.552
REMARK INTRA:                  -0.548
REMARK UNBOUND:                -1.247
REMARK SMILES COc1cc(CNC(=O)CCCCC=CC(C)C)ccc1O
REMARK SMILES IDX 11 1 12 2 13 3 14 4 15 5 16 6 17 7 18 8 10 9 8 10 9 11 7 12
REMARK SMILES IDX 6 14 5 15 4 16 19 17 3 18 20 19 21 20 2 21 1 22 22 23
REMARK H PARENT 7 13 22 24
REMARK Flexibility Score: inf
ROOT
ATOM      1  C   UNL     1      21.549  52.507  45.246  1.00  0.00     0.010 C 
ENDROOT
BRANCH   1   2
ATOM      2  C   UNL     1      20.778  52.723  43.928  1.00  0.00     0.005 C 
BRANCH   2   3
ATOM      3  C   UNL     1      21.659  53.111  42.728  1.00  0.00     0.027 C 
BRANCH   3   4
ATOM      4  C   UNL     1      20.880  53.194  41.443  1.00  0.00    -0.031 C 
ATOM      5  C   UNL     1      19.757  53.920  41.346  1.00  0.00    -0.028 C 
BRANCH   5   6
ATOM      6  C   UNL     1      18.978  53.991  40.053  1.00  0.00     0.005 C 
ATOM      7  C   UNL     1      18.905  55.437  39.551  1.00  0.00     0.012 C 
ATOM      8  C   UNL     1      19.615  53.088  38.992  1.00  0.00     0.012 C 
ENDBRANCH   5   6
ENDBRANCH   3   4
ENDBRANCH   2   3
ENDBRANCH   1   2
BRANCH   1   9
ATOM      9  C   UNL     1      20.676  52.523  46.514  1.00  0.00     0.100 C 
BRANCH   9  10
ATOM     10  C   UNL     1      21.485  52.727  47.763  1.00  0.00     0.220 C 
ATOM     11  O   UNL     1      22.459  53.527  47.751  1.00  0.00    -0.275 OA
ATOM     12  N   UNL     1      21.154  52.010  48.962  1.00  0.00    -0.352 N 
ATOM     13  H   UNL     1      20.253  51.483  49.003  1.00  0.00     0.163 HD
BRANCH  12  14
ATOM     14  C   UNL     1      22.139  51.757  50.008  1.00  0.00     0.151 C 
BRANCH  14  15
ATOM     15  C   UNL     1      21.712  52.445  51.274  1.00  0.00    -0.025 A 
ATOM     16  C   UNL     1      21.447  51.700  52.434  1.00  0.00     0.056 A 
ATOM     17  C   UNL     1      21.481  53.828  51.274  1.00  0.00     0.009 A 
ATOM     18  C   UNL     1      20.958  52.334  53.595  1.00  0.00     0.160 A 
ATOM     19  C   UNL     1      21.005  54.463  52.424  1.00  0.00     0.050 A 
ATOM     20  C   UNL     1      20.743  53.719  53.582  1.00  0.00     0.157 A 
BRANCH  18  21
ATOM     21  O   UNL     1      20.667  51.622  54.769  1.00  0.00    -0.493 OA
ATOM     22  C   UNL     1      21.631  51.264  55.753  1.00  0.00     0.278 C 
ENDBRANCH  18  21
BRANCH  20  23
ATOM     23  O   UNL     1      20.259  54.352  54.727  1.00  0.00    -0.504 OA
ATOM     24  H   UNL     1      19.973  55.324  54.715  1.00  0.00     0.293 HD
ENDBRANCH  20  23
ENDBRANCH  14  15
ENDBRANCH  12  14
ENDBRANCH   9  10
ENDBRANCH   1   9
TORSDOF 10
ENDMDL
MODEL 9
REMARK VINA RESULT:    -1.006      8.790     11.512
REMARK INTER + INTRA:          -2.811
REMARK INTER:                  -2.265
REMARK INTRA:                  -0.547
REMARK UNBOUND:                -1.247
REMARK SMILES COc1cc(CNC(=O)CCCCC=CC(C)C)ccc1O
REMARK SMILES IDX 11 1 12 2 13 3 14 4 15 5 16 6 17 7 18 8 10 9 8 10 9 11 7 12
REMARK SMILES IDX 6 14 5 15 4 16 19 17 3 18 20 19 21 20 2 21 1 22 22 23
REMARK H PARENT 7 13 22 24
REMARK Flexibility Score: inf
ROOT
ATOM      1  C   UNL     1      20.736  52.751  44.402  1.00  0.00     0.010 C 
ENDROOT
BRANCH   1   2
ATOM      2  C   UNL     1      21.508  52.237  45.634  1.00  0.00     0.005 C 
BRANCH   2   3
ATOM      3  C   UNL     1      21.006  52.789  46.979  1.00  0.00     0.027 C 
BRANCH   3   4
ATOM      4  C   UNL     1      21.857  52.347  48.138  1.00  0.00    -0.031 C 
ATOM      5  C   UNL     1      21.414  52.411  49.403  1.00  0.00    -0.028 C 
BRANCH   5   6
ATOM      6  C   UNL     1      22.279  51.972  50.561  1.00  0.00     0.005 C 
ATOM      7  C   UNL     1      21.414  51.653  51.785  1.00  0.00     0.012 C 
ATOM      8  C   UNL     1      23.122  50.754  50.170  1.00  0.00     0.012 C 
ENDBRANCH   5   6
ENDBRANCH   3   4
ENDBRANCH   2   3
ENDBRANCH   1   2
BRANCH   1   9
ATOM      9  C   UNL     1      21.373  52.396  43.046  1.00  0.00     0.100 C 
BRANCH   9  10
ATOM     10  C   UNL     1      20.901  53.293  41.939  1.00  0.00     0.220 C 
ATOM     11  O   UNL     1      19.665  53.401  41.708  1.00  0.00    -0.275 OA
ATOM     12  N   UNL     1      21.849  54.018  41.143  1.00  0.00    -0.352 N 
ATOM     13  H   UNL     1      22.848  54.049  41.450  1.00  0.00     0.163 HD
BRANCH  12  14
ATOM     14  C   UNL     1      21.539  54.474  39.792  1.00  0.00     0.151 C 
BRANCH  14  15
ATOM     15  C   UNL     1      21.616  53.311  38.842  1.00  0.00    -0.025 A 
ATOM     16  C   UNL     1      20.599  53.097  37.898  1.00  0.00     0.056 A 
ATOM     17  C   UNL     1      22.655  52.378  38.962  1.00  0.00     0.009 A 
ATOM     18  C   UNL     1      20.622  51.957  37.069  1.00  0.00     0.160 A 
ATOM     19  C   UNL     1      22.688  51.251  38.138  1.00  0.00     0.050 A 
ATOM     20  C   UNL     1      21.674  51.039  37.193  1.00  0.00     0.157 A 
BRANCH  18  21
ATOM     21  O   UNL     1      19.617  51.700  36.123  1.00  0.00    -0.493 OA
ATOM     22  C   UNL     1      18.508  52.557  35.875  1.00  0.00     0.278 C 
ENDBRANCH  18  21
BRANCH  20  23
ATOM     23  O   UNL     1      21.702  49.908  36.377  1.00  0.00    -0.504 OA
ATOM     24  H   UNL     1      22.367  49.820  35.617  1.00  0.00     0.293 HD
ENDBRANCH  20  23
ENDBRANCH  14  15
ENDBRANCH  12  14
ENDBRANCH   9  10
ENDBRANCH   1   9
TORSDOF 10
ENDMDL
