MODEL 1
REMARK VINA RESULT:    -6.944      0.000      0.000
REMARK INTER + INTRA:         -11.523
REMARK INTER:                 -10.192
REMARK INTRA:                  -1.331
REMARK UNBOUND:                -1.331
REMARK SMILES Cc1cc2c(C(C)C)c(O)c(O)c(C=O)c2c(O)c1-c1c(C)cc2c(C(C)C)c(O)c(O)c(C=O)c2c1O
REMARK SMILES IDX 1 1 2 2 3 3 4 4 16 5 13 6 11 7 9 8 5 9 17 10 19 11 20 12
REMARK SMILES IDX 37 13 21 14 36 15 23 16 22 17 24 18 33 19 25 20 31 21 29 22
REMARK SMILES IDX 38 23 34 25 35 26 26 27 27 28 28 29 32 30 30 32 18 34 6 36
REMARK SMILES IDX 7 37 8 38 14 39 15 40 10 41 12 43
REMARK H PARENT 38 24 32 31 30 33 18 35 10 42 12 44
REMARK Flexibility Score: inf
ROOT
ATOM      1  C   UNL     1     -18.641 -43.440 106.542  1.00  0.00     0.045 C 
ATOM      2  C   UNL     1     -17.400 -44.287 106.696  1.00  0.00    -0.039 A 
ATOM      3  C   UNL     1     -16.520 -44.023 107.745  1.00  0.00     0.013 A 
ATOM      4  C   UNL     1     -15.340 -44.770 107.946  1.00  0.00    -0.006 A 
ATOM      5  C   UNL     1     -15.048 -45.839 107.041  1.00  0.00     0.039 A 
ATOM      6  C   UNL     1     -13.895 -46.647 107.270  1.00  0.00     0.072 A 
ATOM      7  C   UNL     1     -13.028 -46.347 108.339  1.00  0.00     0.169 A 
ATOM      8  C   UNL     1     -13.279 -45.258 109.177  1.00  0.00     0.162 A 
ATOM      9  C   UNL     1     -14.442 -44.469 109.022  1.00  0.00     0.008 A 
ATOM     10  C   UNL     1     -15.906 -46.047 105.916  1.00  0.00     0.132 A 
ATOM     11  C   UNL     1     -17.085 -45.288 105.765  1.00  0.00     0.031 A 
ENDROOT
BRANCH  11  12
ATOM     12  C   UNL     1     -17.993 -45.540 104.615  1.00  0.00     0.031 A 
ATOM     13  C   UNL     1     -19.107 -46.394 104.763  1.00  0.00     0.132 A 
ATOM     14  C   UNL     1     -17.718 -44.952 103.370  1.00  0.00    -0.039 A 
ATOM     15  C   UNL     1     -20.000 -46.613 103.670  1.00  0.00     0.039 A 
ATOM     16  C   UNL     1     -18.544 -45.227 102.280  1.00  0.00     0.013 A 
ATOM     17  C   UNL     1     -16.513 -44.061 103.182  1.00  0.00     0.045 C 
ATOM     18  C   UNL     1     -19.706 -46.022 102.404  1.00  0.00    -0.006 A 
ATOM     19  C   UNL     1     -21.156 -47.439 103.791  1.00  0.00     0.072 A 
ATOM     20  C   UNL     1     -20.551 -46.275 101.279  1.00  0.00     0.008 A 
ATOM     21  C   UNL     1     -21.882 -47.803 102.642  1.00  0.00     0.169 A 
ATOM     22  C   UNL     1     -21.527 -47.289 101.384  1.00  0.00     0.162 A 
BRANCH  13  23
ATOM     23  O   UNL     1     -19.302 -47.056 105.980  1.00  0.00    -0.507 OA
ATOM     24  H   UNL     1     -19.985 -46.779 106.673  1.00  0.00     0.293 HD
ENDBRANCH  13  23
BRANCH  19  25
ATOM     25  C   UNL     1     -21.683 -47.874 105.106  1.00  0.00     0.264 C 
ATOM     26  O   UNL     1     -21.573 -49.069 105.489  1.00  0.00    -0.298 OA
ENDBRANCH  19  25
BRANCH  20  27
ATOM     27  C   UNL     1     -20.392 -45.506  99.955  1.00  0.00     0.017 C 
ATOM     28  C   UNL     1     -19.839 -46.419  98.856  1.00  0.00     0.012 C 
ATOM     29  C   UNL     1     -21.675 -44.788  99.493  1.00  0.00     0.012 C 
ENDBRANCH  20  27
BRANCH  21  30
ATOM     30  O   UNL     1     -22.994 -48.642 102.787  1.00  0.00    -0.504 OA
ATOM     31  H   UNL     1     -23.001 -49.477 103.356  1.00  0.00     0.293 HD
ENDBRANCH  21  30
BRANCH  22  32
ATOM     32  O   UNL     1     -22.124 -47.783 100.221  1.00  0.00    -0.504 OA
ATOM     33  H   UNL     1     -22.844 -47.299  99.703  1.00  0.00     0.293 HD
ENDBRANCH  22  32
ENDBRANCH  11  12
BRANCH  10  34
ATOM     34  O   UNL     1     -15.574 -46.987 104.934  1.00  0.00    -0.507 OA
ATOM     35  H   UNL     1     -14.639 -47.123 104.572  1.00  0.00     0.293 HD
ENDBRANCH  10  34
BRANCH   9  36
ATOM     36  C   UNL     1     -14.655 -43.309 110.018  1.00  0.00     0.017 C 
ATOM     37  C   UNL     1     -14.677 -43.791 111.476  1.00  0.00     0.012 C 
ATOM     38  C   UNL     1     -13.715 -42.106 109.788  1.00  0.00     0.012 C 
ENDBRANCH   9  36
BRANCH   6  39
ATOM     39  C   UNL     1     -13.601 -47.840 106.448  1.00  0.00     0.264 C 
ATOM     40  O   UNL     1     -12.648 -47.832 105.624  1.00  0.00    -0.298 OA
ENDBRANCH   6  39
BRANCH   8  41
ATOM     41  O   UNL     1     -12.365 -44.960 110.194  1.00  0.00    -0.504 OA
ATOM     42  H   UNL     1     -12.623 -44.489 111.052  1.00  0.00     0.293 HD
ENDBRANCH   8  41
BRANCH   7  43
ATOM     43  O   UNL     1     -11.906 -47.138 108.618  1.00  0.00    -0.504 OA
ATOM     44  H   UNL     1     -11.279 -46.984 109.396  1.00  0.00     0.293 HD
ENDBRANCH   7  43
TORSDOF 11
ENDMDL
MODEL 2
REMARK VINA RESULT:    -6.838      1.628      2.290
REMARK INTER + INTRA:         -11.367
REMARK INTER:                 -10.052
REMARK INTRA:                  -1.316
REMARK UNBOUND:                -1.331
REMARK SMILES Cc1cc2c(C(C)C)c(O)c(O)c(C=O)c2c(O)c1-c1c(C)cc2c(C(C)C)c(O)c(O)c(C=O)c2c1O
REMARK SMILES IDX 1 1 2 2 3 3 4 4 16 5 13 6 11 7 9 8 5 9 17 10 19 11 20 12
REMARK SMILES IDX 37 13 21 14 36 15 23 16 22 17 24 18 33 19 25 20 31 21 29 22
REMARK SMILES IDX 38 23 34 25 35 26 26 27 27 28 28 29 32 30 30 32 18 34 6 36
REMARK SMILES IDX 7 37 8 38 14 39 15 40 10 41 12 43
REMARK H PARENT 38 24 32 31 30 33 18 35 10 42 12 44
REMARK Flexibility Score: inf
ROOT
ATOM      1  C   UNL     1     -18.705 -44.845 106.888  1.00  0.00     0.045 C 
ATOM      2  C   UNL     1     -17.400 -45.570 106.662  1.00  0.00    -0.039 A 
ATOM      3  C   UNL     1     -16.590 -45.874 107.756  1.00  0.00     0.013 A 
ATOM      4  C   UNL     1     -15.356 -46.544 107.618  1.00  0.00    -0.006 A 
ATOM      5  C   UNL     1     -14.933 -46.928 106.306  1.00  0.00     0.039 A 
ATOM      6  C   UNL     1     -13.720 -47.666 106.157  1.00  0.00     0.072 A 
ATOM      7  C   UNL     1     -12.928 -47.952 107.285  1.00  0.00     0.169 A 
ATOM      8  C   UNL     1     -13.310 -47.512 108.555  1.00  0.00     0.162 A 
ATOM      9  C   UNL     1     -14.533 -46.832 108.756  1.00  0.00     0.008 A 
ATOM     10  C   UNL     1     -15.722 -46.535 105.181  1.00  0.00     0.132 A 
ATOM     11  C   UNL     1     -16.958 -45.882 105.368  1.00  0.00     0.031 A 
ENDROOT
BRANCH  11  12
ATOM     12  C   UNL     1     -17.793 -45.514 104.193  1.00  0.00     0.031 A 
ATOM     13  C   UNL     1     -18.736 -46.428 103.678  1.00  0.00     0.132 A 
ATOM     14  C   UNL     1     -17.614 -44.265 103.577  1.00  0.00    -0.039 A 
ATOM     15  C   UNL     1     -19.563 -46.067 102.571  1.00  0.00     0.039 A 
ATOM     16  C   UNL     1     -18.365 -43.940 102.447  1.00  0.00     0.013 A 
ATOM     17  C   UNL     1     -16.588 -43.285 104.093  1.00  0.00     0.045 C 
ATOM     18  C   UNL     1     -19.365 -44.800 101.941  1.00  0.00    -0.006 A 
ATOM     19  C   UNL     1     -20.552 -46.949 102.045  1.00  0.00     0.072 A 
ATOM     20  C   UNL     1     -20.139 -44.440 100.795  1.00  0.00     0.008 A 
ATOM     21  C   UNL     1     -21.188 -46.645 100.827  1.00  0.00     0.169 A 
ATOM     22  C   UNL     1     -20.917 -45.436 100.166  1.00  0.00     0.162 A 
BRANCH  13  23
ATOM     23  O   UNL     1     -18.823 -47.708 104.237  1.00  0.00    -0.507 OA
ATOM     24  H   UNL     1     -19.166 -48.521 103.742  1.00  0.00     0.293 HD
ENDBRANCH  13  23
BRANCH  19  25
ATOM     25  C   UNL     1     -21.008 -48.154 102.778  1.00  0.00     0.264 C 
ATOM     26  O   UNL     1     -22.211 -48.289 103.123  1.00  0.00    -0.298 OA
ENDBRANCH  19  25
BRANCH  20  27
ATOM     27  C   UNL     1     -20.106 -43.017 100.207  1.00  0.00     0.017 C 
ATOM     28  C   UNL     1     -20.874 -42.038 101.101  1.00  0.00     0.012 C 
ATOM     29  C   UNL     1     -18.687 -42.501  99.902  1.00  0.00     0.012 C 
ENDBRANCH  20  27
BRANCH  21  30
ATOM     30  O   UNL     1     -22.132 -47.545 100.318  1.00  0.00    -0.504 OA
ATOM     31  H   UNL     1     -22.729 -47.351  99.527  1.00  0.00     0.293 HD
ENDBRANCH  21  30
BRANCH  22  32
ATOM     32  O   UNL     1     -21.402 -45.207  98.875  1.00  0.00    -0.504 OA
ATOM     33  H   UNL     1     -21.460 -45.916  98.157  1.00  0.00     0.293 HD
ENDBRANCH  22  32
ENDBRANCH  11  12
BRANCH  10  34
ATOM     34  O   UNL     1     -15.267 -46.767 103.878  1.00  0.00    -0.507 OA
ATOM     35  H   UNL     1     -15.803 -47.248 103.168  1.00  0.00     0.293 HD
ENDBRANCH  10  34
BRANCH   9  36
ATOM     36  C   UNL     1     -14.889 -46.417 110.199  1.00  0.00     0.017 C 
ATOM     37  C   UNL     1     -14.872 -44.893 110.388  1.00  0.00     0.012 C 
ATOM     38  C   UNL     1     -16.171 -47.085 110.744  1.00  0.00     0.012 C 
ENDBRANCH   9  36
BRANCH   6  39
ATOM     39  C   UNL     1     -13.287 -48.199 104.848  1.00  0.00     0.264 C 
ATOM     40  O   UNL     1     -12.312 -47.686 104.237  1.00  0.00    -0.298 OA
ENDBRANCH   6  39
BRANCH   8  41
ATOM     41  O   UNL     1     -12.468 -47.769 109.643  1.00  0.00    -0.504 OA
ATOM     42  H   UNL     1     -11.928 -48.620 109.738  1.00  0.00     0.293 HD
ENDBRANCH   8  41
BRANCH   7  43
ATOM     43  O   UNL     1     -11.750 -48.705 107.184  1.00  0.00    -0.504 OA
ATOM     44  H   UNL     1     -11.626 -49.486 106.554  1.00  0.00     0.293 HD
ENDBRANCH   7  43
TORSDOF 11
ENDMDL
MODEL 3
REMARK VINA RESULT:    -6.713      0.510      9.207
REMARK INTER + INTRA:         -11.184
REMARK INTER:                  -9.896
REMARK INTRA:                  -1.288
REMARK UNBOUND:                -1.331
REMARK SMILES Cc1cc2c(C(C)C)c(O)c(O)c(C=O)c2c(O)c1-c1c(C)cc2c(C(C)C)c(O)c(O)c(C=O)c2c1O
REMARK SMILES IDX 1 1 2 2 3 3 4 4 16 5 13 6 11 7 9 8 5 9 17 10 19 11 20 12
REMARK SMILES IDX 37 13 21 14 36 15 23 16 22 17 24 18 33 19 25 20 31 21 29 22
REMARK SMILES IDX 38 23 34 25 35 26 26 27 27 28 28 29 32 30 30 32 18 34 6 36
REMARK SMILES IDX 7 37 8 38 14 39 15 40 10 41 12 43
REMARK H PARENT 38 24 32 31 30 33 18 35 10 42 12 44
REMARK Flexibility Score: inf
ROOT
ATOM      1  C   UNL     1     -16.345 -43.877 103.277  1.00  0.00     0.045 C 
ATOM      2  C   UNL     1     -17.452 -44.887 103.458  1.00  0.00    -0.039 A 
ATOM      3  C   UNL     1     -18.300 -45.170 102.387  1.00  0.00     0.013 A 
ATOM      4  C   UNL     1     -19.358 -46.098 102.487  1.00  0.00    -0.006 A 
ATOM      5  C   UNL     1     -19.556 -46.773 103.733  1.00  0.00     0.039 A 
ATOM      6  C   UNL     1     -20.579 -47.764 103.830  1.00  0.00     0.072 A 
ATOM      7  C   UNL     1     -21.416 -48.020 102.727  1.00  0.00     0.169 A 
ATOM      8  C   UNL     1     -21.264 -47.307 101.536  1.00  0.00     0.162 A 
ATOM      9  C   UNL     1     -20.226 -46.361 101.376  1.00  0.00     0.008 A 
ATOM     10  C   UNL     1     -18.743 -46.413 104.852  1.00  0.00     0.132 A 
ATOM     11  C   UNL     1     -17.685 -45.493 104.701  1.00  0.00     0.031 A 
ENDROOT
BRANCH  11  12
ATOM     12  C   UNL     1     -16.818 -45.157 105.861  1.00  0.00     0.031 A 
ATOM     13  C   UNL     1     -15.609 -45.854 106.071  1.00  0.00     0.132 A 
ATOM     14  C   UNL     1     -17.223 -44.164 106.768  1.00  0.00    -0.039 A 
ATOM     15  C   UNL     1     -14.757 -45.512 107.165  1.00  0.00     0.039 A 
ATOM     16  C   UNL     1     -16.431 -43.882 107.881  1.00  0.00     0.013 A 
ATOM     17  C   UNL     1     -18.528 -43.429 106.580  1.00  0.00     0.045 C 
ATOM     18  C   UNL     1     -15.183 -44.511 108.090  1.00  0.00    -0.006 A 
ATOM     19  C   UNL     1     -13.511 -46.169 107.389  1.00  0.00     0.072 A 
ATOM     20  C   UNL     1     -14.376 -44.193 109.226  1.00  0.00     0.008 A 
ATOM     21  C   UNL     1     -12.812 -45.957 108.591  1.00  0.00     0.169 A 
ATOM     22  C   UNL     1     -13.289 -45.037 109.539  1.00  0.00     0.162 A 
BRANCH  13  23
ATOM     23  O   UNL     1     -15.275 -46.913 105.219  1.00  0.00    -0.507 OA
ATOM     24  H   UNL     1     -15.733 -47.816 105.231  1.00  0.00     0.293 HD
ENDBRANCH  13  23
BRANCH  19  25
ATOM     25  C   UNL     1     -12.868 -47.018 106.358  1.00  0.00     0.264 C 
ATOM     26  O   UNL     1     -12.811 -48.269 106.489  1.00  0.00    -0.298 OA
ENDBRANCH  19  25
BRANCH  20  27
ATOM     27  C   UNL     1     -14.691 -42.991 110.135  1.00  0.00     0.017 C 
ATOM     28  C   UNL     1     -14.951 -43.446 111.574  1.00  0.00     0.012 C 
ATOM     29  C   UNL     1     -13.629 -41.875 110.084  1.00  0.00     0.012 C 
ENDBRANCH  20  27
BRANCH  21  30
ATOM     30  O   UNL     1     -11.607 -46.640 108.797  1.00  0.00    -0.504 OA
ATOM     31  H   UNL     1     -11.375 -47.132 109.648  1.00  0.00     0.293 HD
ENDBRANCH  21  30
BRANCH  22  32
ATOM     32  O   UNL     1     -12.705 -44.954 110.806  1.00  0.00    -0.504 OA
ATOM     33  H   UNL     1     -11.736 -44.714 110.969  1.00  0.00     0.293 HD
ENDBRANCH  22  32
ENDBRANCH  11  12
BRANCH  10  34
ATOM     34  O   UNL     1     -19.003 -46.946 106.120  1.00  0.00    -0.507 OA
ATOM     35  H   UNL     1     -19.528 -47.796 106.280  1.00  0.00     0.293 HD
ENDBRANCH  10  34
BRANCH   9  36
ATOM     36  C   UNL     1     -20.112 -45.649 100.012  1.00  0.00     0.017 C 
ATOM     37  C   UNL     1     -19.632 -46.595  98.900  1.00  0.00     0.012 C 
ATOM     38  C   UNL     1     -21.367 -44.837  99.622  1.00  0.00     0.012 C 
ENDBRANCH   9  36
BRANCH   6  39
ATOM     39  C   UNL     1     -20.759 -48.583 105.047  1.00  0.00     0.264 C 
ATOM     40  O   UNL     1     -21.817 -48.502 105.724  1.00  0.00    -0.298 OA
ENDBRANCH   6  39
BRANCH   8  41
ATOM     41  O   UNL     1     -22.151 -47.552 100.481  1.00  0.00    -0.504 OA
ATOM     42  H   UNL     1     -21.983 -47.246  99.531  1.00  0.00     0.293 HD
ENDBRANCH   8  41
BRANCH   7  43
ATOM     43  O   UNL     1     -22.407 -49.010 102.772  1.00  0.00    -0.504 OA
ATOM     44  H   UNL     1     -23.013 -49.245 101.997  1.00  0.00     0.293 HD
ENDBRANCH   7  43
TORSDOF 11
ENDMDL
MODEL 4
REMARK VINA RESULT:    -6.703      2.675      9.788
REMARK INTER + INTRA:         -11.170
REMARK INTER:                  -9.970
REMARK INTRA:                  -1.200
REMARK UNBOUND:                -1.331
REMARK SMILES Cc1cc2c(C(C)C)c(O)c(O)c(C=O)c2c(O)c1-c1c(C)cc2c(C(C)C)c(O)c(O)c(C=O)c2c1O
REMARK SMILES IDX 1 1 2 2 3 3 4 4 16 5 13 6 11 7 9 8 5 9 17 10 19 11 20 12
REMARK SMILES IDX 37 13 21 14 36 15 23 16 22 17 24 18 33 19 25 20 31 21 29 22
REMARK SMILES IDX 38 23 34 25 35 26 26 27 27 28 28 29 32 30 30 32 18 34 6 36
REMARK SMILES IDX 7 37 8 38 14 39 15 40 10 41 12 43
REMARK H PARENT 38 24 32 31 30 33 18 35 10 42 12 44
REMARK Flexibility Score: inf
ROOT
ATOM      1  C   UNL     1     -14.129 -45.839 106.175  1.00  0.00     0.045 C 
ATOM      2  C   UNL     1     -15.477 -46.457 106.458  1.00  0.00    -0.039 A 
ATOM      3  C   UNL     1     -16.303 -46.811 105.392  1.00  0.00     0.013 A 
ATOM      4  C   UNL     1     -17.576 -47.387 105.583  1.00  0.00    -0.006 A 
ATOM      5  C   UNL     1     -18.025 -47.619 106.922  1.00  0.00     0.039 A 
ATOM      6  C   UNL     1     -19.281 -48.263 107.131  1.00  0.00     0.072 A 
ATOM      7  C   UNL     1     -20.089 -48.604 106.029  1.00  0.00     0.169 A 
ATOM      8  C   UNL     1     -19.678 -48.309 104.727  1.00  0.00     0.162 A 
ATOM      9  C   UNL     1     -18.415 -47.728 104.471  1.00  0.00     0.008 A 
ATOM     10  C   UNL     1     -17.213 -47.172 108.011  1.00  0.00     0.132 A 
ATOM     11  C   UNL     1     -15.939 -46.618 107.773  1.00  0.00     0.031 A 
ENDROOT
BRANCH  11  12
ATOM     12  C   UNL     1     -15.084 -46.194 108.914  1.00  0.00     0.031 A 
ATOM     13  C   UNL     1     -14.307 -47.144 109.611  1.00  0.00     0.132 A 
ATOM     14  C   UNL     1     -15.079 -44.850 109.317  1.00  0.00    -0.039 A 
ATOM     15  C   UNL     1     -13.460 -46.737 110.686  1.00  0.00     0.039 A 
ATOM     16  C   UNL     1     -14.313 -44.462 110.417  1.00  0.00     0.013 A 
ATOM     17  C   UNL     1     -15.927 -43.823 108.605  1.00  0.00     0.045 C 
ATOM     18  C   UNL     1     -13.471 -45.370 111.099  1.00  0.00    -0.006 A 
ATOM     19  C   UNL     1     -12.634 -47.661 111.391  1.00  0.00     0.072 A 
ATOM     20  C   UNL     1     -12.678 -44.948 112.210  1.00  0.00     0.008 A 
ATOM     21  C   UNL     1     -11.986 -47.262 112.575  1.00  0.00     0.169 A 
ATOM     22  C   UNL     1     -12.080 -45.934 113.024  1.00  0.00     0.162 A 
BRANCH  13  23
ATOM     23  O   UNL     1     -14.409 -48.496 109.264  1.00  0.00    -0.507 OA
ATOM     24  H   UNL     1     -15.048 -48.856 108.567  1.00  0.00     0.293 HD
ENDBRANCH  13  23
BRANCH  19  25
ATOM     25  C   UNL     1     -12.356 -49.024 110.878  1.00  0.00     0.264 C 
ATOM     26  O   UNL     1     -12.866 -50.039 111.421  1.00  0.00    -0.298 OA
ENDBRANCH  19  25
BRANCH  20  27
ATOM     27  C   UNL     1     -12.501 -43.461 112.565  1.00  0.00     0.017 C 
ATOM     28  C   UNL     1     -11.979 -42.670 111.361  1.00  0.00     0.012 C 
ATOM     29  C   UNL     1     -13.763 -42.807 113.160  1.00  0.00     0.012 C 
ENDBRANCH  20  27
BRANCH  21  30
ATOM     30  O   UNL     1     -11.207 -48.200 113.263  1.00  0.00    -0.504 OA
ATOM     31  H   UNL     1     -10.342 -47.979 113.735  1.00  0.00     0.293 HD
ENDBRANCH  21  30
BRANCH  22  32
ATOM     32  O   UNL     1     -11.595 -45.576 114.285  1.00  0.00    -0.504 OA
ATOM     33  H   UNL     1     -11.845 -46.045 115.144  1.00  0.00     0.293 HD
ENDBRANCH  22  32
ENDBRANCH  11  12
BRANCH  10  34
ATOM     34  O   UNL     1     -17.684 -47.252 109.327  1.00  0.00    -0.507 OA
ATOM     35  H   UNL     1     -17.566 -46.521 110.016  1.00  0.00     0.293 HD
ENDBRANCH  10  34
BRANCH   9  36
ATOM     36  C   UNL     1     -18.031 -47.474 102.998  1.00  0.00     0.017 C 
ATOM     37  C   UNL     1     -18.398 -46.055 102.538  1.00  0.00     0.012 C 
ATOM     38  C   UNL     1     -16.580 -47.872 102.652  1.00  0.00     0.012 C 
ENDBRANCH   9  36
BRANCH   6  39
ATOM     39  C   UNL     1     -19.748 -48.643 108.481  1.00  0.00     0.264 C 
ATOM     40  O   UNL     1     -19.591 -49.817 108.908  1.00  0.00    -0.298 OA
ENDBRANCH   6  39
BRANCH   8  41
ATOM     41  O   UNL     1     -20.533 -48.614 103.661  1.00  0.00    -0.504 OA
ATOM     42  H   UNL     1     -21.497 -48.306 103.617  1.00  0.00     0.293 HD
ENDBRANCH   8  41
BRANCH   7  43
ATOM     43  O   UNL     1     -21.311 -49.269 106.192  1.00  0.00    -0.504 OA
ATOM     44  H   UNL     1     -21.952 -49.104 106.956  1.00  0.00     0.293 HD
ENDBRANCH   7  43
TORSDOF 11
ENDMDL
MODEL 5
REMARK VINA RESULT:    -6.615      1.508      2.918
REMARK INTER + INTRA:         -11.040
REMARK INTER:                  -9.555
REMARK INTRA:                  -1.485
REMARK UNBOUND:                -1.331
REMARK SMILES Cc1cc2c(C(C)C)c(O)c(O)c(C=O)c2c(O)c1-c1c(C)cc2c(C(C)C)c(O)c(O)c(C=O)c2c1O
REMARK SMILES IDX 1 1 2 2 3 3 4 4 16 5 13 6 11 7 9 8 5 9 17 10 19 11 20 12
REMARK SMILES IDX 37 13 21 14 36 15 23 16 22 17 24 18 33 19 25 20 31 21 29 22
REMARK SMILES IDX 38 23 34 25 35 26 26 27 27 28 28 29 32 30 30 32 18 34 6 36
REMARK SMILES IDX 7 37 8 38 14 39 15 40 10 41 12 43
REMARK H PARENT 38 24 32 31 30 33 18 35 10 42 12 44
REMARK Flexibility Score: inf
ROOT
ATOM      1  C   UNL     1     -15.231 -48.344 104.552  1.00  0.00     0.045 C 
ATOM      2  C   UNL     1     -15.264 -47.231 105.572  1.00  0.00    -0.039 A 
ATOM      3  C   UNL     1     -14.315 -47.215 106.594  1.00  0.00     0.013 A 
ATOM      4  C   UNL     1     -14.290 -46.210 107.583  1.00  0.00    -0.006 A 
ATOM      5  C   UNL     1     -15.272 -45.170 107.524  1.00  0.00     0.039 A 
ATOM      6  C   UNL     1     -15.218 -44.110 108.477  1.00  0.00     0.072 A 
ATOM      7  C   UNL     1     -14.247 -44.129 109.496  1.00  0.00     0.169 A 
ATOM      8  C   UNL     1     -13.336 -45.184 109.592  1.00  0.00     0.162 A 
ATOM      9  C   UNL     1     -13.315 -46.223 108.634  1.00  0.00     0.008 A 
ATOM     10  C   UNL     1     -16.295 -45.242 106.528  1.00  0.00     0.132 A 
ATOM     11  C   UNL     1     -16.271 -46.255 105.548  1.00  0.00     0.031 A 
ENDROOT
BRANCH  11  12
ATOM     12  C   UNL     1     -17.316 -46.297 104.491  1.00  0.00     0.031 A 
ATOM     13  C   UNL     1     -18.519 -47.003 104.709  1.00  0.00     0.132 A 
ATOM     14  C   UNL     1     -17.087 -45.659 103.262  1.00  0.00    -0.039 A 
ATOM     15  C   UNL     1     -19.539 -47.019 103.709  1.00  0.00     0.039 A 
ATOM     16  C   UNL     1     -18.049 -45.739 102.254  1.00  0.00     0.013 A 
ATOM     17  C   UNL     1     -15.795 -44.926 102.997  1.00  0.00     0.045 C 
ATOM     18  C   UNL     1     -19.293 -46.379 102.456  1.00  0.00    -0.006 A 
ATOM     19  C   UNL     1     -20.781 -47.690 103.906  1.00  0.00     0.072 A 
ATOM     20  C   UNL     1     -20.274 -46.432 101.418  1.00  0.00     0.008 A 
ATOM     21  C   UNL     1     -21.663 -47.866 102.824  1.00  0.00     0.169 A 
ATOM     22  C   UNL     1     -21.367 -47.312 101.567  1.00  0.00     0.162 A 
BRANCH  13  23
ATOM     23  O   UNL     1     -18.682 -47.723 105.897  1.00  0.00    -0.507 OA
ATOM     24  H   UNL     1     -19.290 -47.437 106.654  1.00  0.00     0.293 HD
ENDBRANCH  13  23
BRANCH  19  25
ATOM     25  C   UNL     1     -21.230 -48.147 105.242  1.00  0.00     0.264 C 
ATOM     26  O   UNL     1     -21.378 -49.372 105.495  1.00  0.00    -0.298 OA
ENDBRANCH  19  25
BRANCH  20  27
ATOM     27  C   UNL     1     -20.142 -45.594 100.133  1.00  0.00     0.017 C 
ATOM     28  C   UNL     1     -19.786 -46.482  98.936  1.00  0.00     0.012 C 
ATOM     29  C   UNL     1     -21.372 -44.716  99.832  1.00  0.00     0.012 C 
ENDBRANCH  20  27
BRANCH  21  30
ATOM     30  O   UNL     1     -22.861 -48.558 103.039  1.00  0.00    -0.504 OA
ATOM     31  H   UNL     1     -23.749 -48.289 102.638  1.00  0.00     0.293 HD
ENDBRANCH  21  30
BRANCH  22  32
ATOM     32  O   UNL     1     -22.141 -47.633 100.449  1.00  0.00    -0.504 OA
ATOM     33  H   UNL     1     -21.768 -48.015  99.591  1.00  0.00     0.293 HD
ENDBRANCH  22  32
ENDBRANCH  11  12
BRANCH  10  34
ATOM     34  O   UNL     1     -17.353 -44.324 106.530  1.00  0.00    -0.507 OA
ATOM     35  H   UNL     1     -18.318 -44.572 106.356  1.00  0.00     0.293 HD
ENDBRANCH  10  34
BRANCH   9  36
ATOM     36  C   UNL     1     -12.248 -47.325 108.801  1.00  0.00     0.017 C 
ATOM     37  C   UNL     1     -12.865 -48.677 109.190  1.00  0.00     0.012 C 
ATOM     38  C   UNL     1     -11.259 -47.423 107.619  1.00  0.00     0.012 C 
ENDBRANCH   9  36
BRANCH   6  39
ATOM     39  C   UNL     1     -16.124 -42.944 108.399  1.00  0.00     0.264 C 
ATOM     40  O   UNL     1     -15.748 -41.875 107.849  1.00  0.00    -0.298 OA
ENDBRANCH   6  39
BRANCH   8  41
ATOM     41  O   UNL     1     -12.421 -45.194 110.652  1.00  0.00    -0.504 OA
ATOM     42  H   UNL     1     -12.668 -45.465 111.596  1.00  0.00     0.293 HD
ENDBRANCH   8  41
BRANCH   7  43
ATOM     43  O   UNL     1     -14.139 -43.088 110.428  1.00  0.00    -0.504 OA
ATOM     44  H   UNL     1     -14.122 -43.220 111.430  1.00  0.00     0.293 HD
ENDBRANCH   7  43
TORSDOF 11
ENDMDL
MODEL 6
REMARK VINA RESULT:    -6.613      2.751      9.516
REMARK INTER + INTRA:         -11.038
REMARK INTER:                 -10.113
REMARK INTRA:                  -0.924
REMARK UNBOUND:                -1.331
REMARK SMILES Cc1cc2c(C(C)C)c(O)c(O)c(C=O)c2c(O)c1-c1c(C)cc2c(C(C)C)c(O)c(O)c(C=O)c2c1O
REMARK SMILES IDX 1 1 2 2 3 3 4 4 16 5 13 6 11 7 9 8 5 9 17 10 19 11 20 12
REMARK SMILES IDX 37 13 21 14 36 15 23 16 22 17 24 18 33 19 25 20 31 21 29 22
REMARK SMILES IDX 38 23 34 25 35 26 26 27 27 28 28 29 32 30 30 32 18 34 6 36
REMARK SMILES IDX 7 37 8 38 14 39 15 40 10 41 12 43
REMARK H PARENT 38 24 32 31 30 33 18 35 10 42 12 44
REMARK Flexibility Score: inf
ROOT
ATOM      1  C   UNL     1     -17.958 -47.259 109.880  1.00  0.00     0.045 C 
ATOM      2  C   UNL     1     -17.623 -47.150 108.412  1.00  0.00    -0.039 A 
ATOM      3  C   UNL     1     -18.545 -47.600 107.467  1.00  0.00     0.013 A 
ATOM      4  C   UNL     1     -18.296 -47.533 106.080  1.00  0.00    -0.006 A 
ATOM      5  C   UNL     1     -17.054 -46.977 105.637  1.00  0.00     0.039 A 
ATOM      6  C   UNL     1     -16.816 -46.840 104.236  1.00  0.00     0.072 A 
ATOM      7  C   UNL     1     -17.769 -47.308 103.312  1.00  0.00     0.169 A 
ATOM      8  C   UNL     1     -18.948 -47.916 103.750  1.00  0.00     0.162 A 
ATOM      9  C   UNL     1     -19.252 -48.016 105.127  1.00  0.00     0.008 A 
ATOM     10  C   UNL     1     -16.077 -46.601 106.611  1.00  0.00     0.132 A 
ATOM     11  C   UNL     1     -16.376 -46.668 107.987  1.00  0.00     0.031 A 
ENDROOT
BRANCH  11  12
ATOM     12  C   UNL     1     -15.369 -46.236 108.992  1.00  0.00     0.031 A 
ATOM     13  C   UNL     1     -14.600 -47.195 109.685  1.00  0.00     0.132 A 
ATOM     14  C   UNL     1     -15.210 -44.870 109.273  1.00  0.00    -0.039 A 
ATOM     15  C   UNL     1     -13.608 -46.783 110.627  1.00  0.00     0.039 A 
ATOM     16  C   UNL     1     -14.297 -44.469 110.250  1.00  0.00     0.013 A 
ATOM     17  C   UNL     1     -16.045 -43.830 108.566  1.00  0.00     0.045 C 
ATOM     18  C   UNL     1     -13.462 -45.393 110.918  1.00  0.00    -0.006 A 
ATOM     19  C   UNL     1     -12.787 -47.720 111.320  1.00  0.00     0.072 A 
ATOM     20  C   UNL     1     -12.519 -44.960 111.900  1.00  0.00     0.008 A 
ATOM     21  C   UNL     1     -11.982 -47.291 112.391  1.00  0.00     0.169 A 
ATOM     22  C   UNL     1     -11.917 -45.929 112.731  1.00  0.00     0.162 A 
BRANCH  13  23
ATOM     23  O   UNL     1     -14.849 -48.555 109.470  1.00  0.00    -0.507 OA
ATOM     24  H   UNL     1     -15.734 -48.926 109.147  1.00  0.00     0.293 HD
ENDBRANCH  13  23
BRANCH  19  25
ATOM     25  C   UNL     1     -12.679 -49.139 110.902  1.00  0.00     0.264 C 
ATOM     26  O   UNL     1     -13.213 -50.058 111.578  1.00  0.00    -0.298 OA
ENDBRANCH  19  25
BRANCH  20  27
ATOM     27  C   UNL     1     -12.183 -43.471 112.103  1.00  0.00     0.017 C 
ATOM     28  C   UNL     1     -11.558 -42.874 110.839  1.00  0.00     0.012 C 
ATOM     29  C   UNL     1     -13.374 -42.624 112.592  1.00  0.00     0.012 C 
ENDBRANCH  20  27
BRANCH  21  30
ATOM     30  O   UNL     1     -11.211 -48.239 113.074  1.00  0.00    -0.504 OA
ATOM     31  H   UNL     1     -11.041 -48.218 114.070  1.00  0.00     0.293 HD
ENDBRANCH  21  30
BRANCH  22  32
ATOM     32  O   UNL     1     -11.268 -45.519 113.898  1.00  0.00    -0.504 OA
ATOM     33  H   UNL     1     -11.094 -46.119 114.692  1.00  0.00     0.293 HD
ENDBRANCH  22  32
ENDBRANCH  11  12
BRANCH  10  34
ATOM     34  O   UNL     1     -14.799 -46.190 106.213  1.00  0.00    -0.507 OA
ATOM     35  H   UNL     1     -14.568 -45.887 105.276  1.00  0.00     0.293 HD
ENDBRANCH  10  34
BRANCH   9  36
ATOM     36  C   UNL     1     -20.595 -48.669 105.516  1.00  0.00     0.017 C 
ATOM     37  C   UNL     1     -20.484 -49.511 106.796  1.00  0.00     0.012 C 
ATOM     38  C   UNL     1     -21.787 -47.688 105.533  1.00  0.00     0.012 C 
ENDBRANCH   9  36
BRANCH   6  39
ATOM     39  C   UNL     1     -15.610 -46.164 103.712  1.00  0.00     0.264 C 
ATOM     40  O   UNL     1     -14.739 -46.811 103.072  1.00  0.00    -0.298 OA
ENDBRANCH   6  39
BRANCH   8  41
ATOM     41  O   UNL     1     -19.846 -48.417 102.800  1.00  0.00    -0.504 OA
ATOM     42  H   UNL     1     -20.750 -48.000 102.616  1.00  0.00     0.293 HD
ENDBRANCH   8  41
BRANCH   7  43
ATOM     43  O   UNL     1     -17.588 -47.159 101.930  1.00  0.00    -0.504 OA
ATOM     44  H   UNL     1     -18.038 -46.448 101.370  1.00  0.00     0.293 HD
ENDBRANCH   7  43
TORSDOF 11
ENDMDL
MODEL 7
REMARK VINA RESULT:    -6.588      1.613      8.984
REMARK INTER + INTRA:         -11.001
REMARK INTER:                  -9.486
REMARK INTRA:                  -1.515
REMARK UNBOUND:                -1.331
REMARK SMILES Cc1cc2c(C(C)C)c(O)c(O)c(C=O)c2c(O)c1-c1c(C)cc2c(C(C)C)c(O)c(O)c(C=O)c2c1O
REMARK SMILES IDX 1 1 2 2 3 3 4 4 16 5 13 6 11 7 9 8 5 9 17 10 19 11 20 12
REMARK SMILES IDX 37 13 21 14 36 15 23 16 22 17 24 18 33 19 25 20 31 21 29 22
REMARK SMILES IDX 38 23 34 25 35 26 26 27 27 28 28 29 32 30 30 32 18 34 6 36
REMARK SMILES IDX 7 37 8 38 14 39 15 40 10 41 12 43
REMARK H PARENT 38 24 32 31 30 33 18 35 10 42 12 44
REMARK Flexibility Score: inf
ROOT
ATOM      1  C   UNL     1     -16.409 -43.173 104.204  1.00  0.00     0.045 C 
ATOM      2  C   UNL     1     -17.455 -44.164 103.756  1.00  0.00    -0.039 A 
ATOM      3  C   UNL     1     -18.241 -43.870 102.642  1.00  0.00     0.013 A 
ATOM      4  C   UNL     1     -19.241 -44.747 102.171  1.00  0.00    -0.006 A 
ATOM      5  C   UNL     1     -19.444 -45.983 102.863  1.00  0.00     0.039 A 
ATOM      6  C   UNL     1     -20.404 -46.911 102.359  1.00  0.00     0.072 A 
ATOM      7  C   UNL     1     -21.180 -46.577 101.232  1.00  0.00     0.169 A 
ATOM      8  C   UNL     1     -21.028 -45.339 100.604  1.00  0.00     0.162 A 
ATOM      9  C   UNL     1     -20.047 -44.415 101.033  1.00  0.00     0.008 A 
ATOM     10  C   UNL     1     -18.699 -46.239 104.056  1.00  0.00     0.132 A 
ATOM     11  C   UNL     1     -17.697 -45.342 104.479  1.00  0.00     0.031 A 
ENDROOT
BRANCH  11  12
ATOM     12  C   UNL     1     -16.898 -45.637 105.699  1.00  0.00     0.031 A 
ATOM     13  C   UNL     1     -15.701 -46.378 105.602  1.00  0.00     0.132 A 
ATOM     14  C   UNL     1     -17.357 -45.204 106.952  1.00  0.00    -0.039 A 
ATOM     15  C   UNL     1     -14.913 -46.636 106.765  1.00  0.00     0.039 A 
ATOM     16  C   UNL     1     -16.631 -45.521 108.101  1.00  0.00     0.013 A 
ATOM     17  C   UNL     1     -18.651 -44.437 107.082  1.00  0.00     0.045 C 
ATOM     18  C   UNL     1     -15.395 -46.204 108.038  1.00  0.00    -0.006 A 
ATOM     19  C   UNL     1     -13.681 -47.349 106.702  1.00  0.00     0.072 A 
ATOM     20  C   UNL     1     -14.655 -46.501 109.224  1.00  0.00     0.008 A 
ATOM     21  C   UNL     1     -13.051 -47.769 107.888  1.00  0.00     0.169 A 
ATOM     22  C   UNL     1     -13.585 -47.418 109.140  1.00  0.00     0.162 A 
BRANCH  13  23
ATOM     23  O   UNL     1     -15.316 -46.894 104.359  1.00  0.00    -0.507 OA
ATOM     24  H   UNL     1     -14.392 -46.784 103.960  1.00  0.00     0.293 HD
ENDBRANCH  13  23
BRANCH  19  25
ATOM     25  C   UNL     1     -12.978 -47.602 105.422  1.00  0.00     0.264 C 
ATOM     26  O   UNL     1     -12.973 -48.748 104.898  1.00  0.00    -0.298 OA
ENDBRANCH  19  25
BRANCH  20  27
ATOM     27  C   UNL     1     -15.024 -45.888 110.587  1.00  0.00     0.017 C 
ATOM     28  C   UNL     1     -15.709 -46.924 111.485  1.00  0.00     0.012 C 
ATOM     29  C   UNL     1     -13.841 -45.215 111.310  1.00  0.00     0.012 C 
ENDBRANCH  20  27
BRANCH  21  30
ATOM     30  O   UNL     1     -11.858 -48.496 107.795  1.00  0.00    -0.504 OA
ATOM     31  H   UNL     1     -11.361 -48.659 106.931  1.00  0.00     0.293 HD
ENDBRANCH  21  30
BRANCH  22  32
ATOM     32  O   UNL     1     -13.073 -47.979 110.313  1.00  0.00    -0.504 OA
ATOM     33  H   UNL     1     -12.452 -48.776 110.338  1.00  0.00     0.293 HD
ENDBRANCH  22  32
ENDBRANCH  11  12
BRANCH  10  34
ATOM     34  O   UNL     1     -18.973 -47.368 104.836  1.00  0.00    -0.507 OA
ATOM     35  H   UNL     1     -19.617 -48.100 104.568  1.00  0.00     0.293 HD
ENDBRANCH  10  34
BRANCH   9  36
ATOM     36  C   UNL     1     -19.927 -43.089 100.254  1.00  0.00     0.017 C 
ATOM     37  C   UNL     1     -20.691 -41.943 100.934  1.00  0.00     0.012 C 
ATOM     38  C   UNL     1     -18.478 -42.715  99.874  1.00  0.00     0.012 C 
ENDBRANCH   9  36
BRANCH   6  39
ATOM     39  C   UNL     1     -20.577 -48.254 102.951  1.00  0.00     0.264 C 
ATOM     40  O   UNL     1     -21.615 -48.537 103.607  1.00  0.00    -0.298 OA
ENDBRANCH   6  39
BRANCH   8  41
ATOM     41  O   UNL     1     -21.857 -45.022  99.520  1.00  0.00    -0.504 OA
ATOM     42  H   UNL     1     -22.016 -44.075  99.201  1.00  0.00     0.293 HD
ENDBRANCH   8  41
BRANCH   7  43
ATOM     43  O   UNL     1     -22.107 -47.475 100.686  1.00  0.00    -0.504 OA
ATOM     44  H   UNL     1     -21.987 -47.949  99.802  1.00  0.00     0.293 HD
ENDBRANCH   7  43
TORSDOF 11
ENDMDL
MODEL 8
REMARK VINA RESULT:    -6.553      1.581      9.066
REMARK INTER + INTRA:         -10.949
REMARK INTER:                  -9.868
REMARK INTRA:                  -1.081
REMARK UNBOUND:                -1.331
REMARK SMILES Cc1cc2c(C(C)C)c(O)c(O)c(C=O)c2c(O)c1-c1c(C)cc2c(C(C)C)c(O)c(O)c(C=O)c2c1O
REMARK SMILES IDX 1 1 2 2 3 3 4 4 16 5 13 6 11 7 9 8 5 9 17 10 19 11 20 12
REMARK SMILES IDX 37 13 21 14 36 15 23 16 22 17 24 18 33 19 25 20 31 21 29 22
REMARK SMILES IDX 38 23 34 25 35 26 26 27 27 28 28 29 32 30 30 32 18 34 6 36
REMARK SMILES IDX 7 37 8 38 14 39 15 40 10 41 12 43
REMARK H PARENT 38 24 32 31 30 33 18 35 10 42 12 44
REMARK Flexibility Score: inf
ROOT
ATOM      1  C   UNL     1     -19.131 -47.882 107.441  1.00  0.00     0.045 C 
ATOM      2  C   UNL     1     -19.395 -47.508 106.002  1.00  0.00    -0.039 A 
ATOM      3  C   UNL     1     -20.466 -48.098 105.329  1.00  0.00     0.013 A 
ATOM      4  C   UNL     1     -20.767 -47.799 103.984  1.00  0.00    -0.006 A 
ATOM      5  C   UNL     1     -19.945 -46.851 103.296  1.00  0.00     0.039 A 
ATOM      6  C   UNL     1     -20.278 -46.487 101.957  1.00  0.00     0.072 A 
ATOM      7  C   UNL     1     -21.365 -47.107 101.309  1.00  0.00     0.169 A 
ATOM      8  C   UNL     1     -22.120 -48.084 101.962  1.00  0.00     0.162 A 
ATOM      9  C   UNL     1     -21.863 -48.430 103.308  1.00  0.00     0.008 A 
ATOM     10  C   UNL     1     -18.797 -46.319 103.961  1.00  0.00     0.132 A 
ATOM     11  C   UNL     1     -18.545 -46.632 105.313  1.00  0.00     0.031 A 
ENDROOT
BRANCH  11  12
ATOM     12  C   UNL     1     -17.371 -46.040 106.009  1.00  0.00     0.031 A 
ATOM     13  C   UNL     1     -16.128 -46.707 106.000  1.00  0.00     0.132 A 
ATOM     14  C   UNL     1     -17.515 -44.830 106.706  1.00  0.00    -0.039 A 
ATOM     15  C   UNL     1     -14.991 -46.127 106.639  1.00  0.00     0.039 A 
ATOM     16  C   UNL     1     -16.425 -44.299 107.398  1.00  0.00     0.013 A 
ATOM     17  C   UNL     1     -18.844 -44.115 106.756  1.00  0.00     0.045 C 
ATOM     18  C   UNL     1     -15.148 -44.903 107.358  1.00  0.00    -0.006 A 
ATOM     19  C   UNL     1     -13.710 -46.754 106.620  1.00  0.00     0.072 A 
ATOM     20  C   UNL     1     -14.039 -44.333 108.056  1.00  0.00     0.008 A 
ATOM     21  C   UNL     1     -12.677 -46.264 107.441  1.00  0.00     0.169 A 
ATOM     22  C   UNL     1     -12.872 -45.110 108.218  1.00  0.00     0.162 A 
BRANCH  13  23
ATOM     23  O   UNL     1     -16.033 -47.965 105.393  1.00  0.00    -0.507 OA
ATOM     24  H   UNL     1     -15.328 -48.214 104.711  1.00  0.00     0.293 HD
ENDBRANCH  13  23
BRANCH  19  25
ATOM     25  C   UNL     1     -13.388 -47.868 105.697  1.00  0.00     0.264 C 
ATOM     26  O   UNL     1     -13.127 -47.652 104.484  1.00  0.00    -0.298 OA
ENDBRANCH  19  25
BRANCH  20  27
ATOM     27  C   UNL     1     -14.105 -42.923 108.672  1.00  0.00     0.017 C 
ATOM     28  C   UNL     1     -14.435 -41.875 107.605  1.00  0.00     0.012 C 
ATOM     29  C   UNL     1     -15.057 -42.813 109.878  1.00  0.00     0.012 C 
ENDBRANCH  20  27
BRANCH  21  30
ATOM     30  O   UNL     1     -11.440 -46.919 107.426  1.00  0.00    -0.504 OA
ATOM     31  H   UNL     1     -10.778 -46.895 108.189  1.00  0.00     0.293 HD
ENDBRANCH  21  30
BRANCH  22  32
ATOM     32  O   UNL     1     -11.922 -44.723 109.167  1.00  0.00    -0.504 OA
ATOM     33  H   UNL     1     -11.269 -43.962 109.039  1.00  0.00     0.293 HD
ENDBRANCH  22  32
ENDBRANCH  11  12
BRANCH  10  34
ATOM     34  O   UNL     1     -17.892 -45.503 103.273  1.00  0.00    -0.507 OA
ATOM     35  H   UNL     1     -17.511 -45.722 102.362  1.00  0.00     0.293 HD
ENDBRANCH  10  34
BRANCH   9  36
ATOM     36  C   UNL     1     -22.774 -49.493 103.958  1.00  0.00     0.017 C 
ATOM     37  C   UNL     1     -24.219 -48.999 104.122  1.00  0.00     0.012 C 
ATOM     38  C   UNL     1     -22.676 -50.887 103.301  1.00  0.00     0.012 C 
ENDBRANCH   9  36
BRANCH   6  39
ATOM     39  C   UNL     1     -19.546 -45.428 101.231  1.00  0.00     0.264 C 
ATOM     40  O   UNL     1     -19.172 -45.606 100.041  1.00  0.00    -0.298 OA
ENDBRANCH   6  39
BRANCH   8  41
ATOM     41  O   UNL     1     -23.158 -48.714 101.266  1.00  0.00    -0.504 OA
ATOM     42  H   UNL     1     -23.284 -48.634 100.265  1.00  0.00     0.293 HD
ENDBRANCH   8  41
BRANCH   7  43
ATOM     43  O   UNL     1     -21.744 -46.750 100.008  1.00  0.00    -0.504 OA
ATOM     44  H   UNL     1     -22.698 -46.758  99.671  1.00  0.00     0.293 HD
ENDBRANCH   7  43
TORSDOF 11
ENDMDL
MODEL 9
REMARK VINA RESULT:    -6.438      2.760      4.817
REMARK INTER + INTRA:         -10.781
REMARK INTER:                 -10.002
REMARK INTRA:                  -0.779
REMARK UNBOUND:                -1.331
REMARK SMILES Cc1cc2c(C(C)C)c(O)c(O)c(C=O)c2c(O)c1-c1c(C)cc2c(C(C)C)c(O)c(O)c(C=O)c2c1O
REMARK SMILES IDX 1 1 2 2 3 3 4 4 16 5 13 6 11 7 9 8 5 9 17 10 19 11 20 12
REMARK SMILES IDX 37 13 21 14 36 15 23 16 22 17 24 18 33 19 25 20 31 21 29 22
REMARK SMILES IDX 38 23 34 25 35 26 26 27 27 28 28 29 32 30 30 32 18 34 6 36
REMARK SMILES IDX 7 37 8 38 14 39 15 40 10 41 12 43
REMARK H PARENT 38 24 32 31 30 33 18 35 10 42 12 44
REMARK Flexibility Score: inf
ROOT
ATOM      1  C   UNL     1     -16.115 -43.941 108.497  1.00  0.00     0.045 C 
ATOM      2  C   UNL     1     -15.310 -44.972 109.251  1.00  0.00    -0.039 A 
ATOM      3  C   UNL     1     -14.373 -44.550 110.194  1.00  0.00     0.013 A 
ATOM      4  C   UNL     1     -13.583 -45.457 110.931  1.00  0.00    -0.006 A 
ATOM      5  C   UNL     1     -13.762 -46.858 110.701  1.00  0.00     0.039 A 
ATOM      6  C   UNL     1     -13.020 -47.790 111.487  1.00  0.00     0.072 A 
ATOM      7  C   UNL     1     -12.081 -47.325 112.428  1.00  0.00     0.169 A 
ATOM      8  C   UNL     1     -11.859 -45.957 112.597  1.00  0.00     0.162 A 
ATOM      9  C   UNL     1     -12.615 -44.999 111.884  1.00  0.00     0.008 A 
ATOM     10  C   UNL     1     -14.658 -47.282 109.671  1.00  0.00     0.132 A 
ATOM     11  C   UNL     1     -15.440 -46.340 108.971  1.00  0.00     0.031 A 
ENDROOT
BRANCH  11  12
ATOM     12  C   UNL     1     -16.400 -46.793 107.930  1.00  0.00     0.031 A 
ATOM     13  C   UNL     1     -16.030 -46.782 106.568  1.00  0.00     0.132 A 
ATOM     14  C   UNL     1     -17.690 -47.201 108.304  1.00  0.00    -0.039 A 
ATOM     15  C   UNL     1     -16.936 -47.247 105.568  1.00  0.00     0.039 A 
ATOM     16  C   UNL     1     -18.606 -47.582 107.322  1.00  0.00     0.013 A 
ATOM     17  C   UNL     1     -18.118 -47.191 109.752  1.00  0.00     0.045 C 
ATOM     18  C   UNL     1     -18.251 -47.647 105.955  1.00  0.00    -0.006 A 
ATOM     19  C   UNL     1     -16.586 -47.284 104.186  1.00  0.00     0.072 A 
ATOM     20  C   UNL     1     -19.197 -48.060 104.966  1.00  0.00     0.008 A 
ATOM     21  C   UNL     1     -17.574 -47.539 103.218  1.00  0.00     0.169 A 
ATOM     22  C   UNL     1     -18.890 -47.841 103.606  1.00  0.00     0.162 A 
BRANCH  13  23
ATOM     23  O   UNL     1     -14.779 -46.269 106.206  1.00  0.00    -0.507 OA
ATOM     24  H   UNL     1     -14.501 -45.305 106.336  1.00  0.00     0.293 HD
ENDBRANCH  13  23
BRANCH  19  25
ATOM     25  C   UNL     1     -15.185 -47.145 103.722  1.00  0.00     0.264 C 
ATOM     26  O   UNL     1     -14.804 -46.115 103.105  1.00  0.00    -0.298 OA
ENDBRANCH  19  25
BRANCH  20  27
ATOM     27  C   UNL     1     -20.550 -48.687 105.348  1.00  0.00     0.017 C 
ATOM     28  C   UNL     1     -20.459 -49.404 106.699  1.00  0.00     0.012 C 
ATOM     29  C   UNL     1     -21.729 -47.695 105.319  1.00  0.00     0.012 C 
ENDBRANCH  20  27
BRANCH  21  30
ATOM     30  O   UNL     1     -17.207 -47.538 101.867  1.00  0.00    -0.504 OA
ATOM     31  H   UNL     1     -17.173 -46.708 101.291  1.00  0.00     0.293 HD
ENDBRANCH  21  30
BRANCH  22  32
ATOM     32  O   UNL     1     -19.912 -47.915 102.656  1.00  0.00    -0.504 OA
ATOM     33  H   UNL     1     -20.208 -47.141 102.078  1.00  0.00     0.293 HD
ENDBRANCH  22  32
ENDBRANCH  11  12
BRANCH  10  34
ATOM     34  O   UNL     1     -14.750 -48.634 109.321  1.00  0.00    -0.507 OA
ATOM     35  H   UNL     1     -14.898 -49.382 109.985  1.00  0.00     0.293 HD
ENDBRANCH  10  34
BRANCH   9  36
ATOM     36  C   UNL     1     -12.326 -43.509 112.164  1.00  0.00     0.017 C 
ATOM     37  C   UNL     1     -11.773 -42.781 110.929  1.00  0.00     0.012 C 
ATOM     38  C   UNL     1     -13.495 -42.761 112.841  1.00  0.00     0.012 C 
ENDBRANCH   9  36
BRANCH   6  39
ATOM     39  C   UNL     1     -13.244 -49.248 111.387  1.00  0.00     0.264 C 
ATOM     40  O   UNL     1     -12.281 -50.053 111.489  1.00  0.00    -0.298 OA
ENDBRANCH   6  39
BRANCH   8  41
ATOM     41  O   UNL     1     -10.878 -45.537 113.503  1.00  0.00    -0.504 OA
ATOM     42  H   UNL     1     -11.084 -44.995 114.333  1.00  0.00     0.293 HD
ENDBRANCH   8  41
BRANCH   7  43
ATOM     43  O   UNL     1     -11.359 -48.208 113.243  1.00  0.00    -0.504 OA
ATOM     44  H   UNL     1     -11.716 -49.091 113.582  1.00  0.00     0.293 HD
ENDBRANCH   7  43
TORSDOF 11
ENDMDL
