MODEL 1
REMARK VINA RESULT:    -7.366      0.000      0.000
REMARK INTER + INTRA:          -8.047
REMARK INTER:                  -7.797
REMARK INTRA:                  -0.250
REMARK UNBOUND:                -0.250
REMARK SMILES O=c1cc(-c2ccccc2)oc2ccccc12
REMARK SMILES IDX 4 1 3 2 2 3 1 4 17 5 16 6 15 7 14 8 13 9 12 10 11 11 5 12
REMARK SMILES IDX 8 13 7 14 9 15 6 16 10 17
REMARK H PARENT
REMARK Flexibility Score: inf
ROOT
ATOM      1  C   UNL     1     165.249 147.035 146.998  1.00  0.00     0.138 A 
ATOM      2  C   UNL     1     164.106 147.250 147.796  1.00  0.00     0.100 A 
ATOM      3  C   UNL     1     163.722 148.553 148.112  1.00  0.00     0.193 A 
ATOM      4  O   UNL     1     162.701 148.744 148.827  1.00  0.00    -0.289 OA
ATOM      5  C   UNL     1     164.477 149.632 147.632  1.00  0.00     0.065 A 
ATOM      6  C   UNL     1     164.145 150.970 147.914  1.00  0.00     0.016 A 
ATOM      7  C   UNL     1     164.933 152.008 147.408  1.00  0.00     0.001 A 
ATOM      8  C   UNL     1     166.053 151.723 146.622  1.00  0.00     0.004 A 
ATOM      9  C   UNL     1     166.391 150.396 146.338  1.00  0.00     0.048 A 
ATOM     10  C   UNL     1     165.609 149.349 146.838  1.00  0.00     0.138 A 
ATOM     11  O   UNL     1     165.939 148.091 146.562  1.00  0.00    -0.456 OA
ENDROOT
BRANCH   1  12
ATOM     12  C   UNL     1     165.731 145.673 146.612  1.00  0.00     0.017 A 
ATOM     13  C   UNL     1     166.549 143.074 145.875  1.00  0.00     0.000 A 
ATOM     14  C   UNL     1     167.502 144.044 146.181  1.00  0.00     0.001 A 
ATOM     15  C   UNL     1     165.192 143.389 145.934  1.00  0.00     0.001 A 
ATOM     16  C   UNL     1     167.103 145.335 146.547  1.00  0.00     0.012 A 
ATOM     17  C   UNL     1     164.785 144.675 146.298  1.00  0.00     0.012 A 
ENDBRANCH   1  12
TORSDOF 1
ENDMDL
MODEL 2
REMARK VINA RESULT:    -6.769      7.542     10.025
REMARK INTER + INTRA:          -7.414
REMARK INTER:                  -7.159
REMARK INTRA:                  -0.256
REMARK UNBOUND:                -0.250
REMARK SMILES O=c1cc(-c2ccccc2)oc2ccccc12
REMARK SMILES IDX 4 1 3 2 2 3 1 4 17 5 16 6 15 7 14 8 13 9 12 10 11 11 5 12
REMARK SMILES IDX 8 13 7 14 9 15 6 16 10 17
REMARK H PARENT
REMARK Flexibility Score: inf
ROOT
ATOM      1  C   UNL     1     170.461 143.335 151.462  1.00  0.00     0.138 A 
ATOM      2  C   UNL     1     170.217 143.742 150.134  1.00  0.00     0.100 A 
ATOM      3  C   UNL     1     171.151 143.443 149.140  1.00  0.00     0.193 A 
ATOM      4  O   UNL     1     170.933 143.808 147.953  1.00  0.00    -0.289 OA
ATOM      5  C   UNL     1     172.317 142.742 149.477  1.00  0.00     0.065 A 
ATOM      6  C   UNL     1     173.298 142.409 148.524  1.00  0.00     0.016 A 
ATOM      7  C   UNL     1     174.443 141.708 148.914  1.00  0.00     0.001 A 
ATOM      8  C   UNL     1     174.619 141.336 150.250  1.00  0.00     0.004 A 
ATOM      9  C   UNL     1     173.650 141.664 151.203  1.00  0.00     0.048 A 
ATOM     10  C   UNL     1     172.500 142.364 150.824  1.00  0.00     0.138 A 
ATOM     11  O   UNL     1     171.584 142.670 151.738  1.00  0.00    -0.456 OA
ENDROOT
BRANCH   1  12
ATOM     12  C   UNL     1     169.515 143.614 152.587  1.00  0.00     0.017 A 
ATOM     13  C   UNL     1     167.758 144.060 154.751  1.00  0.00     0.000 A 
ATOM     14  C   UNL     1     167.813 144.972 153.698  1.00  0.00     0.001 A 
ATOM     15  C   UNL     1     168.572 142.927 154.733  1.00  0.00     0.001 A 
ATOM     16  C   UNL     1     168.682 144.757 152.622  1.00  0.00     0.012 A 
ATOM     17  C   UNL     1     169.442 142.705 153.663  1.00  0.00     0.012 A 
ENDBRANCH   1  12
TORSDOF 1
ENDMDL
MODEL 3
REMARK VINA RESULT:    -6.659      7.073      8.608
REMARK INTER + INTRA:          -7.298
REMARK INTER:                  -7.035
REMARK INTRA:                  -0.263
REMARK UNBOUND:                -0.250
REMARK SMILES O=c1cc(-c2ccccc2)oc2ccccc12
REMARK SMILES IDX 4 1 3 2 2 3 1 4 17 5 16 6 15 7 14 8 13 9 12 10 11 11 5 12
REMARK SMILES IDX 8 13 7 14 9 15 6 16 10 17
REMARK H PARENT
REMARK Flexibility Score: inf
ROOT
ATOM      1  C   UNL     1     170.177 143.832 151.173  1.00  0.00     0.138 A 
ATOM      2  C   UNL     1     170.679 142.648 150.593  1.00  0.00     0.100 A 
ATOM      3  C   UNL     1     171.407 142.719 149.405  1.00  0.00     0.193 A 
ATOM      4  O   UNL     1     171.855 141.660 148.886  1.00  0.00    -0.289 OA
ATOM      5  C   UNL     1     171.631 143.966 148.805  1.00  0.00     0.065 A 
ATOM      6  C   UNL     1     172.356 144.107 147.607  1.00  0.00     0.016 A 
ATOM      7  C   UNL     1     172.550 145.376 147.051  1.00  0.00     0.001 A 
ATOM      8  C   UNL     1     172.024 146.507 147.682  1.00  0.00     0.004 A 
ATOM      9  C   UNL     1     171.301 146.376 148.871  1.00  0.00     0.048 A 
ATOM     10  C   UNL     1     171.101 145.111 149.436  1.00  0.00     0.138 A 
ATOM     11  O   UNL     1     170.413 144.997 150.568  1.00  0.00    -0.456 OA
ENDROOT
BRANCH   1  12
ATOM     12  C   UNL     1     169.387 143.846 152.443  1.00  0.00     0.017 A 
ATOM     13  C   UNL     1     167.866 143.961 154.818  1.00  0.00     0.000 A 
ATOM     14  C   UNL     1     168.623 142.826 154.528  1.00  0.00     0.001 A 
ATOM     15  C   UNL     1     167.862 145.038 153.933  1.00  0.00     0.001 A 
ATOM     16  C   UNL     1     169.379 142.763 153.352  1.00  0.00     0.012 A 
ATOM     17  C   UNL     1     168.614 144.983 152.756  1.00  0.00     0.012 A 
ENDBRANCH   1  12
TORSDOF 1
ENDMDL
MODEL 4
REMARK VINA RESULT:    -6.476      6.449      8.450
REMARK INTER + INTRA:          -7.104
REMARK INTER:                  -6.884
REMARK INTRA:                  -0.220
REMARK UNBOUND:                -0.250
REMARK SMILES O=c1cc(-c2ccccc2)oc2ccccc12
REMARK SMILES IDX 4 1 3 2 2 3 1 4 17 5 16 6 15 7 14 8 13 9 12 10 11 11 5 12
REMARK SMILES IDX 8 13 7 14 9 15 6 16 10 17
REMARK H PARENT
REMARK Flexibility Score: inf
ROOT
ATOM      1  C   UNL     1     169.958 144.053 150.533  1.00  0.00     0.138 A 
ATOM      2  C   UNL     1     170.467 142.792 150.908  1.00  0.00     0.100 A 
ATOM      3  C   UNL     1     170.176 142.283 152.174  1.00  0.00     0.193 A 
ATOM      4  O   UNL     1     170.632 141.155 152.510  1.00  0.00    -0.289 OA
ATOM      5  C   UNL     1     169.383 143.031 153.055  1.00  0.00     0.065 A 
ATOM      6  C   UNL     1     169.053 142.575 154.345  1.00  0.00     0.016 A 
ATOM      7  C   UNL     1     168.258 143.363 155.183  1.00  0.00     0.001 A 
ATOM      8  C   UNL     1     167.788 144.604 154.745  1.00  0.00     0.004 A 
ATOM      9  C   UNL     1     168.111 145.064 153.465  1.00  0.00     0.048 A 
ATOM     10  C   UNL     1     168.906 144.285 152.618  1.00  0.00     0.138 A 
ATOM     11  O   UNL     1     169.208 144.731 151.403  1.00  0.00    -0.456 OA
ENDROOT
BRANCH   1  12
ATOM     12  C   UNL     1     170.221 144.673 149.197  1.00  0.00     0.017 A 
ATOM     13  C   UNL     1     170.791 145.889 146.714  1.00  0.00     0.000 A 
ATOM     14  C   UNL     1     169.708 145.020 146.833  1.00  0.00     0.001 A 
ATOM     15  C   UNL     1     171.593 146.157 147.824  1.00  0.00     0.001 A 
ATOM     16  C   UNL     1     169.420 144.413 148.061  1.00  0.00     0.012 A 
ATOM     17  C   UNL     1     171.312 145.556 149.054  1.00  0.00     0.012 A 
ENDBRANCH   1  12
TORSDOF 1
ENDMDL
MODEL 5
REMARK VINA RESULT:    -6.439     10.723     11.499
REMARK INTER + INTRA:          -7.065
REMARK INTER:                  -6.820
REMARK INTRA:                  -0.245
REMARK UNBOUND:                -0.250
REMARK SMILES O=c1cc(-c2ccccc2)oc2ccccc12
REMARK SMILES IDX 4 1 3 2 2 3 1 4 17 5 16 6 15 7 14 8 13 9 12 10 11 11 5 12
REMARK SMILES IDX 8 13 7 14 9 15 6 16 10 17
REMARK H PARENT
REMARK Flexibility Score: inf
ROOT
ATOM      1  C   UNL     1     170.033 144.684 155.678  1.00  0.00     0.138 A 
ATOM      2  C   UNL     1     169.239 143.893 156.535  1.00  0.00     0.100 A 
ATOM      3  C   UNL     1     169.470 143.925 157.911  1.00  0.00     0.193 A 
ATOM      4  O   UNL     1     168.761 143.218 158.677  1.00  0.00    -0.289 OA
ATOM      5  C   UNL     1     170.487 144.743 158.422  1.00  0.00     0.065 A 
ATOM      6  C   UNL     1     170.772 144.821 159.798  1.00  0.00     0.016 A 
ATOM      7  C   UNL     1     171.799 145.654 160.254  1.00  0.00     0.001 A 
ATOM      8  C   UNL     1     172.546 146.411 159.347  1.00  0.00     0.004 A 
ATOM      9  C   UNL     1     172.270 146.339 157.978  1.00  0.00     0.048 A 
ATOM     10  C   UNL     1     171.245 145.509 157.510  1.00  0.00     0.138 A 
ATOM     11  O   UNL     1     170.991 145.448 156.207  1.00  0.00    -0.456 OA
ENDROOT
BRANCH   1  12
ATOM     12  C   UNL     1     169.853 144.709 154.193  1.00  0.00     0.017 A 
ATOM     13  C   UNL     1     169.520 144.852 151.394  1.00  0.00     0.000 A 
ATOM     14  C   UNL     1     169.527 143.613 152.033  1.00  0.00     0.001 A 
ATOM     15  C   UNL     1     169.678 146.020 152.140  1.00  0.00     0.001 A 
ATOM     16  C   UNL     1     169.693 143.535 153.421  1.00  0.00     0.012 A 
ATOM     17  C   UNL     1     169.843 145.951 153.525  1.00  0.00     0.012 A 
ENDBRANCH   1  12
TORSDOF 1
ENDMDL
MODEL 6
REMARK VINA RESULT:    -6.419      7.746      9.255
REMARK INTER + INTRA:          -7.044
REMARK INTER:                  -6.806
REMARK INTRA:                  -0.238
REMARK UNBOUND:                -0.250
REMARK SMILES O=c1cc(-c2ccccc2)oc2ccccc12
REMARK SMILES IDX 4 1 3 2 2 3 1 4 17 5 16 6 15 7 14 8 13 9 12 10 11 11 5 12
REMARK SMILES IDX 8 13 7 14 9 15 6 16 10 17
REMARK H PARENT
REMARK Flexibility Score: inf
ROOT
ATOM      1  C   UNL     1     171.392 143.384 151.365  1.00  0.00     0.138 A 
ATOM      2  C   UNL     1     171.065 144.737 151.133  1.00  0.00     0.100 A 
ATOM      3  C   UNL     1     170.055 145.339 151.885  1.00  0.00     0.193 A 
ATOM      4  O   UNL     1     169.762 146.548 151.677  1.00  0.00    -0.289 OA
ATOM      5  C   UNL     1     169.380 144.591 152.859  1.00  0.00     0.065 A 
ATOM      6  C   UNL     1     168.352 145.138 153.651  1.00  0.00     0.016 A 
ATOM      7  C   UNL     1     167.712 144.347 154.610  1.00  0.00     0.001 A 
ATOM      8  C   UNL     1     168.088 143.012 154.786  1.00  0.00     0.004 A 
ATOM      9  C   UNL     1     169.108 142.461 154.003  1.00  0.00     0.048 A 
ATOM     10  C   UNL     1     169.755 143.243 153.041  1.00  0.00     0.138 A 
ATOM     11  O   UNL     1     170.724 142.710 152.303  1.00  0.00    -0.456 OA
ENDROOT
BRANCH   1  12
ATOM     12  C   UNL     1     172.460 142.662 150.606  1.00  0.00     0.017 A 
ATOM     13  C   UNL     1     174.515 141.277 149.256  1.00  0.00     0.000 A 
ATOM     14  C   UNL     1     173.503 141.903 148.530  1.00  0.00     0.001 A 
ATOM     15  C   UNL     1     174.510 141.335 150.650  1.00  0.00     0.001 A 
ATOM     16  C   UNL     1     172.481 142.591 149.193  1.00  0.00     0.012 A 
ATOM     17  C   UNL     1     173.493 142.021 151.320  1.00  0.00     0.012 A 
ENDBRANCH   1  12
TORSDOF 1
ENDMDL
MODEL 7
REMARK VINA RESULT:    -6.302     11.251     12.248
REMARK INTER + INTRA:          -6.920
REMARK INTER:                  -6.688
REMARK INTRA:                  -0.232
REMARK UNBOUND:                -0.250
REMARK SMILES O=c1cc(-c2ccccc2)oc2ccccc12
REMARK SMILES IDX 4 1 3 2 2 3 1 4 17 5 16 6 15 7 14 8 13 9 12 10 11 11 5 12
REMARK SMILES IDX 8 13 7 14 9 15 6 16 10 17
REMARK H PARENT
REMARK Flexibility Score: inf
ROOT
ATOM      1  C   UNL     1     171.323 145.502 157.059  1.00  0.00     0.138 A 
ATOM      2  C   UNL     1     170.429 144.642 157.730  1.00  0.00     0.100 A 
ATOM      3  C   UNL     1     169.285 144.189 157.072  1.00  0.00     0.193 A 
ATOM      4  O   UNL     1     168.485 143.421 157.674  1.00  0.00    -0.289 OA
ATOM      5  C   UNL     1     169.041 144.594 155.753  1.00  0.00     0.065 A 
ATOM      6  C   UNL     1     167.907 144.174 155.033  1.00  0.00     0.016 A 
ATOM      7  C   UNL     1     167.712 144.609 153.718  1.00  0.00     0.001 A 
ATOM      8  C   UNL     1     168.641 145.461 153.115  1.00  0.00     0.004 A 
ATOM      9  C   UNL     1     169.770 145.884 153.823  1.00  0.00     0.048 A 
ATOM     10  C   UNL     1     169.975 145.455 155.139  1.00  0.00     0.138 A 
ATOM     11  O   UNL     1     171.052 145.862 155.803  1.00  0.00    -0.456 OA
ENDROOT
BRANCH   1  12
ATOM     12  C   UNL     1     172.572 146.034 157.689  1.00  0.00     0.017 A 
ATOM     13  C   UNL     1     174.977 146.991 158.812  1.00  0.00     0.000 A 
ATOM     14  C   UNL     1     173.754 147.335 159.386  1.00  0.00     0.001 A 
ATOM     15  C   UNL     1     175.010 146.174 157.683  1.00  0.00     0.001 A 
ATOM     16  C   UNL     1     172.558 146.864 158.834  1.00  0.00     0.012 A 
ATOM     17  C   UNL     1     173.820 145.699 157.125  1.00  0.00     0.012 A 
ENDBRANCH   1  12
TORSDOF 1
ENDMDL
MODEL 8
REMARK VINA RESULT:    -6.206      8.164     10.785
REMARK INTER + INTRA:          -6.819
REMARK INTER:                  -6.566
REMARK INTRA:                  -0.253
REMARK UNBOUND:                -0.250
REMARK SMILES O=c1cc(-c2ccccc2)oc2ccccc12
REMARK SMILES IDX 4 1 3 2 2 3 1 4 17 5 16 6 15 7 14 8 13 9 12 10 11 11 5 12
REMARK SMILES IDX 8 13 7 14 9 15 6 16 10 17
REMARK H PARENT
REMARK Flexibility Score: inf
ROOT
ATOM      1  C   UNL     1     171.119 142.889 152.585  1.00  0.00     0.138 A 
ATOM      2  C   UNL     1     172.203 142.390 153.336  1.00  0.00     0.100 A 
ATOM      3  C   UNL     1     173.351 141.946 152.677  1.00  0.00     0.193 A 
ATOM      4  O   UNL     1     174.320 141.498 153.349  1.00  0.00    -0.289 OA
ATOM      5  C   UNL     1     173.409 142.003 151.278  1.00  0.00     0.065 A 
ATOM      6  C   UNL     1     174.536 141.571 150.552  1.00  0.00     0.016 A 
ATOM      7  C   UNL     1     174.541 141.651 149.156  1.00  0.00     0.001 A 
ATOM      8  C   UNL     1     173.430 142.158 148.476  1.00  0.00     0.004 A 
ATOM      9  C   UNL     1     172.307 142.588 149.189  1.00  0.00     0.048 A 
ATOM     10  C   UNL     1     172.290 142.513 150.586  1.00  0.00     0.138 A 
ATOM     11  O   UNL     1     171.218 142.925 151.255  1.00  0.00    -0.456 OA
ENDROOT
BRANCH   1  12
ATOM     12  C   UNL     1     169.853 143.385 153.210  1.00  0.00     0.017 A 
ATOM     13  C   UNL     1     167.475 144.252 154.457  1.00  0.00     0.000 A 
ATOM     14  C   UNL     1     167.926 144.884 153.298  1.00  0.00     0.001 A 
ATOM     15  C   UNL     1     168.201 143.192 154.998  1.00  0.00     0.001 A 
ATOM     16  C   UNL     1     169.104 144.459 152.675  1.00  0.00     0.012 A 
ATOM     17  C   UNL     1     169.379 142.761 154.382  1.00  0.00     0.012 A 
ENDBRANCH   1  12
TORSDOF 1
ENDMDL
MODEL 9
REMARK VINA RESULT:    -6.138     11.681     12.468
REMARK INTER + INTRA:          -6.747
REMARK INTER:                  -6.488
REMARK INTRA:                  -0.260
REMARK UNBOUND:                -0.250
REMARK SMILES O=c1cc(-c2ccccc2)oc2ccccc12
REMARK SMILES IDX 4 1 3 2 2 3 1 4 17 5 16 6 15 7 14 8 13 9 12 10 11 11 5 12
REMARK SMILES IDX 8 13 7 14 9 15 6 16 10 17
REMARK H PARENT
REMARK Flexibility Score: inf
ROOT
ATOM      1  C   UNL     1     170.849 145.310 156.625  1.00  0.00     0.138 A 
ATOM      2  C   UNL     1     170.451 145.051 157.953  1.00  0.00     0.100 A 
ATOM      3  C   UNL     1     171.384 145.162 158.985  1.00  0.00     0.193 A 
ATOM      4  O   UNL     1     171.028 144.928 160.172  1.00  0.00    -0.289 OA
ATOM      5  C   UNL     1     172.703 145.530 158.687  1.00  0.00     0.065 A 
ATOM      6  C   UNL     1     173.692 145.660 159.680  1.00  0.00     0.016 A 
ATOM      7  C   UNL     1     174.993 146.031 159.327  1.00  0.00     0.001 A 
ATOM      8  C   UNL     1     175.317 146.274 157.990  1.00  0.00     0.004 A 
ATOM      9  C   UNL     1     174.341 146.146 156.997  1.00  0.00     0.048 A 
ATOM     10  C   UNL     1     173.036 145.776 157.338  1.00  0.00     0.138 A 
ATOM     11  O   UNL     1     172.115 145.658 156.387  1.00  0.00    -0.456 OA
ENDROOT
BRANCH   1  12
ATOM     12  C   UNL     1     169.915 145.215 155.460  1.00  0.00     0.017 A 
ATOM     13  C   UNL     1     168.098 144.974 153.314  1.00  0.00     0.000 A 
ATOM     14  C   UNL     1     169.226 145.783 153.186  1.00  0.00     0.001 A 
ATOM     15  C   UNL     1     167.868 144.285 154.505  1.00  0.00     0.001 A 
ATOM     16  C   UNL     1     170.131 145.907 154.246  1.00  0.00     0.012 A 
ATOM     17  C   UNL     1     168.767 144.403 155.568  1.00  0.00     0.012 A 
ENDBRANCH   1  12
TORSDOF 1
ENDMDL
