MODEL 1
REMARK VINA RESULT:    -6.178      0.000      0.000
REMARK INTER + INTRA:          -8.512
REMARK INTER:                  -7.803
REMARK INTRA:                  -0.709
REMARK UNBOUND:                -0.709
REMARK SMILES O=C(C=Cc1ccc(O)cc1)c1ccc(O)cc1O
REMARK SMILES IDX 4 1 3 2 5 3 6 4 7 5 8 6 11 7 10 8 9 9 2 11 1 12 12 13 18 14
REMARK SMILES IDX 13 15 17 16 14 17 15 18 19 19 16 21
REMARK H PARENT 9 10 19 20 16 22
REMARK Flexibility Score: inf
ROOT
ATOM      1  C   UNL     1      39.103 -24.278  -3.557  1.00  0.00     0.012 C 
ATOM      2  C   UNL     1      38.907 -25.280  -4.427  1.00  0.00     0.053 C 
ENDROOT
BRANCH   1   3
ATOM      3  C   UNL     1      39.335 -24.483  -2.107  1.00  0.00    -0.025 A 
ATOM      4  C   UNL     1      38.411 -25.252  -1.379  1.00  0.00     0.012 A 
ATOM      5  C   UNL     1      38.583 -25.462  -0.008  1.00  0.00     0.047 A 
ATOM      6  C   UNL     1      39.677 -24.897   0.659  1.00  0.00     0.115 A 
ATOM      7  C   UNL     1      40.425 -23.905  -1.424  1.00  0.00     0.012 A 
ATOM      8  C   UNL     1      40.593 -24.117  -0.052  1.00  0.00     0.047 A 
BRANCH   6   9
ATOM      9  O   UNL     1      39.859 -25.101   2.025  1.00  0.00    -0.508 OA
ATOM     10  H   UNL     1      40.752 -25.394   2.402  1.00  0.00     0.293 HD
ENDBRANCH   6   9
ENDBRANCH   1   3
BRANCH   2  11
ATOM     11  C   UNL     1      38.662 -25.038  -5.865  1.00  0.00     0.189 C 
ATOM     12  O   UNL     1      37.523 -25.267  -6.357  1.00  0.00    -0.289 OA
BRANCH  11  13
ATOM     13  C   UNL     1      39.751 -24.575  -6.758  1.00  0.00     0.064 A 
ATOM     14  C   UNL     1      39.550 -23.547  -7.706  1.00  0.00     0.130 A 
ATOM     15  C   UNL     1      41.010 -25.193  -6.678  1.00  0.00     0.020 A 
ATOM     16  C   UNL     1      40.614 -23.131  -8.521  1.00  0.00     0.093 A 
ATOM     17  C   UNL     1      42.062 -24.776  -7.498  1.00  0.00     0.047 A 
ATOM     18  C   UNL     1      41.867 -23.740  -8.418  1.00  0.00     0.119 A 
BRANCH  14  19
ATOM     19  O   UNL     1      38.295 -22.957  -7.860  1.00  0.00    -0.507 OA
ATOM     20  H   UNL     1      37.895 -22.785  -8.775  1.00  0.00     0.293 HD
ENDBRANCH  14  19
BRANCH  18  21
ATOM     21  O   UNL     1      42.909 -23.314  -9.238  1.00  0.00    -0.508 OA
ATOM     22  H   UNL     1      43.042 -23.696 -10.168  1.00  0.00     0.293 HD
ENDBRANCH  18  21
ENDBRANCH  11  13
ENDBRANCH   2  11
TORSDOF 6
ENDMDL
MODEL 2
REMARK VINA RESULT:    -6.024     11.980     13.217
REMARK INTER + INTRA:          -8.317
REMARK INTER:                  -7.591
REMARK INTRA:                  -0.726
REMARK UNBOUND:                -0.709
REMARK SMILES O=C(C=Cc1ccc(O)cc1)c1ccc(O)cc1O
REMARK SMILES IDX 4 1 3 2 5 3 6 4 7 5 8 6 11 7 10 8 9 9 2 11 1 12 12 13 18 14
REMARK SMILES IDX 13 15 17 16 14 17 15 18 19 19 16 21
REMARK H PARENT 9 10 19 20 16 22
REMARK Flexibility Score: inf
ROOT
ATOM      1  C   UNL     1      47.450 -27.123   5.075  1.00  0.00     0.012 C 
ATOM      2  C   UNL     1      48.584 -26.414   4.971  1.00  0.00     0.053 C 
ENDROOT
BRANCH   1   3
ATOM      3  C   UNL     1      46.839 -27.510   6.370  1.00  0.00    -0.025 A 
ATOM      4  C   UNL     1      47.489 -27.137   7.559  1.00  0.00     0.012 A 
ATOM      5  C   UNL     1      46.956 -27.490   8.802  1.00  0.00     0.047 A 
ATOM      6  C   UNL     1      45.770 -28.231   8.875  1.00  0.00     0.115 A 
ATOM      7  C   UNL     1      45.654 -28.269   6.452  1.00  0.00     0.012 A 
ATOM      8  C   UNL     1      45.124 -28.620   7.698  1.00  0.00     0.047 A 
BRANCH   6   9
ATOM      9  O   UNL     1      45.229 -28.587  10.108  1.00  0.00    -0.508 OA
ATOM     10  H   UNL     1      45.567 -28.180  10.972  1.00  0.00     0.293 HD
ENDBRANCH   6   9
ENDBRANCH   1   3
BRANCH   2  11
ATOM     11  C   UNL     1      49.173 -26.060   3.662  1.00  0.00     0.189 C 
ATOM     12  O   UNL     1      49.000 -24.903   3.187  1.00  0.00    -0.289 OA
BRANCH  11  13
ATOM     13  C   UNL     1      49.927 -27.058   2.867  1.00  0.00     0.064 A 
ATOM     14  C   UNL     1      49.651 -27.283   1.500  1.00  0.00     0.130 A 
ATOM     15  C   UNL     1      50.926 -27.820   3.496  1.00  0.00     0.020 A 
ATOM     16  C   UNL     1      50.401 -28.230   0.783  1.00  0.00     0.093 A 
ATOM     17  C   UNL     1      51.663 -28.763   2.775  1.00  0.00     0.047 A 
ATOM     18  C   UNL     1      51.405 -28.966   1.416  1.00  0.00     0.119 A 
BRANCH  14  19
ATOM     19  O   UNL     1      48.621 -26.594   0.859  1.00  0.00    -0.507 OA
ATOM     20  H   UNL     1      48.773 -25.691   0.426  1.00  0.00     0.293 HD
ENDBRANCH  14  19
BRANCH  18  21
ATOM     21  O   UNL     1      52.135 -29.901   0.686  1.00  0.00    -0.508 OA
ATOM     22  H   UNL     1      51.735 -30.792   0.415  1.00  0.00     0.293 HD
ENDBRANCH  18  21
ENDBRANCH  11  13
ENDBRANCH   2  11
TORSDOF 6
ENDMDL
MODEL 3
REMARK VINA RESULT:    -6.021      1.748      7.294
REMARK INTER + INTRA:          -8.313
REMARK INTER:                  -8.047
REMARK INTRA:                  -0.266
REMARK UNBOUND:                -0.709
REMARK SMILES O=C(C=Cc1ccc(O)cc1)c1ccc(O)cc1O
REMARK SMILES IDX 4 1 3 2 5 3 6 4 7 5 8 6 11 7 10 8 9 9 2 11 1 12 12 13 18 14
REMARK SMILES IDX 13 15 17 16 14 17 15 18 19 19 16 21
REMARK H PARENT 9 10 19 20 16 22
REMARK Flexibility Score: inf
ROOT
ATOM      1  C   UNL     1      39.149 -25.035  -4.268  1.00  0.00     0.012 C 
ATOM      2  C   UNL     1      38.673 -24.010  -3.546  1.00  0.00     0.053 C 
ENDROOT
BRANCH   1   3
ATOM      3  C   UNL     1      39.725 -24.885  -5.627  1.00  0.00    -0.025 A 
ATOM      4  C   UNL     1      38.930 -24.315  -6.636  1.00  0.00     0.012 A 
ATOM      5  C   UNL     1      39.427 -24.164  -7.933  1.00  0.00     0.047 A 
ATOM      6  C   UNL     1      40.724 -24.591  -8.245  1.00  0.00     0.115 A 
ATOM      7  C   UNL     1      41.024 -25.326  -5.953  1.00  0.00     0.012 A 
ATOM      8  C   UNL     1      41.517 -25.174  -7.253  1.00  0.00     0.047 A 
BRANCH   6   9
ATOM      9  O   UNL     1      41.230 -24.445  -9.534  1.00  0.00    -0.508 OA
ATOM     10  H   UNL     1      41.837 -25.143  -9.948  1.00  0.00     0.293 HD
ENDBRANCH   6   9
ENDBRANCH   1   3
BRANCH   2  11
ATOM     11  C   UNL     1      38.091 -24.199  -2.200  1.00  0.00     0.189 C 
ATOM     12  O   UNL     1      36.880 -23.911  -1.992  1.00  0.00    -0.289 OA
BRANCH  11  13
ATOM     13  C   UNL     1      38.920 -24.677  -1.068  1.00  0.00     0.064 A 
ATOM     14  C   UNL     1      40.142 -24.057  -0.726  1.00  0.00     0.130 A 
ATOM     15  C   UNL     1      38.492 -25.795  -0.332  1.00  0.00     0.020 A 
ATOM     16  C   UNL     1      40.887 -24.535   0.363  1.00  0.00     0.093 A 
ATOM     17  C   UNL     1      39.244 -26.268   0.747  1.00  0.00     0.047 A 
ATOM     18  C   UNL     1      40.441 -25.635   1.099  1.00  0.00     0.119 A 
BRANCH  14  19
ATOM     19  O   UNL     1      40.631 -22.988  -1.477  1.00  0.00    -0.507 OA
ATOM     20  H   UNL     1      41.032 -22.167  -1.038  1.00  0.00     0.293 HD
ENDBRANCH  14  19
BRANCH  18  21
ATOM     21  O   UNL     1      41.197 -26.095   2.175  1.00  0.00    -0.508 OA
ATOM     22  H   UNL     1      41.510 -25.469   2.908  1.00  0.00     0.293 HD
ENDBRANCH  18  21
ENDBRANCH  11  13
ENDBRANCH   2  11
TORSDOF 6
ENDMDL
MODEL 4
REMARK VINA RESULT:    -5.971     13.401     15.352
REMARK INTER + INTRA:          -8.251
REMARK INTER:                  -7.544
REMARK INTRA:                  -0.707
REMARK UNBOUND:                -0.709
REMARK SMILES O=C(C=Cc1ccc(O)cc1)c1ccc(O)cc1O
REMARK SMILES IDX 4 1 3 2 5 3 6 4 7 5 8 6 11 7 10 8 9 9 2 11 1 12 12 13 18 14
REMARK SMILES IDX 13 15 17 16 14 17 15 18 19 19 16 21
REMARK H PARENT 9 10 19 20 16 22
REMARK Flexibility Score: inf
ROOT
ATOM      1  C   UNL     1      48.992 -27.458   6.372  1.00  0.00     0.012 C 
ATOM      2  C   UNL     1      50.069 -27.857   7.065  1.00  0.00     0.053 C 
ENDROOT
BRANCH   1   3
ATOM      3  C   UNL     1      47.596 -27.697   6.814  1.00  0.00    -0.025 A 
ATOM      4  C   UNL     1      47.301 -27.615   8.186  1.00  0.00     0.012 A 
ATOM      5  C   UNL     1      46.002 -27.842   8.649  1.00  0.00     0.047 A 
ATOM      6  C   UNL     1      44.980 -28.167   7.748  1.00  0.00     0.115 A 
ATOM      7  C   UNL     1      46.565 -28.039   5.916  1.00  0.00     0.012 A 
ATOM      8  C   UNL     1      45.266 -28.267   6.384  1.00  0.00     0.047 A 
BRANCH   6   9
ATOM      9  O   UNL     1      43.682 -28.395   8.198  1.00  0.00    -0.508 OA
ATOM     10  H   UNL     1      42.877 -28.208   7.612  1.00  0.00     0.293 HD
ENDBRANCH   6   9
ENDBRANCH   1   3
BRANCH   2  11
ATOM     11  C   UNL     1      51.447 -27.615   6.586  1.00  0.00     0.189 C 
ATOM     12  O   UNL     1      52.155 -26.725   7.131  1.00  0.00    -0.289 OA
BRANCH  11  13
ATOM     13  C   UNL     1      52.000 -28.370   5.436  1.00  0.00     0.064 A 
ATOM     14  C   UNL     1      52.248 -27.752   4.191  1.00  0.00     0.130 A 
ATOM     15  C   UNL     1      52.259 -29.743   5.582  1.00  0.00     0.020 A 
ATOM     16  C   UNL     1      52.786 -28.504   3.134  1.00  0.00     0.093 A 
ATOM     17  C   UNL     1      52.789 -30.484   4.522  1.00  0.00     0.047 A 
ATOM     18  C   UNL     1      53.058 -29.864   3.297  1.00  0.00     0.119 A 
BRANCH  14  19
ATOM     19  O   UNL     1      51.940 -26.407   3.990  1.00  0.00    -0.507 OA
ATOM     20  H   UNL     1      52.430 -25.668   4.479  1.00  0.00     0.293 HD
ENDBRANCH  14  19
BRANCH  18  21
ATOM     21  O   UNL     1      53.591 -30.591   2.235  1.00  0.00    -0.508 OA
ATOM     22  H   UNL     1      54.435 -30.293   1.760  1.00  0.00     0.293 HD
ENDBRANCH  18  21
ENDBRANCH  11  13
ENDBRANCH   2  11
TORSDOF 6
ENDMDL
MODEL 5
REMARK VINA RESULT:    -5.932      1.673      2.645
REMARK INTER + INTRA:          -8.201
REMARK INTER:                  -7.537
REMARK INTRA:                  -0.664
REMARK UNBOUND:                -0.709
REMARK SMILES O=C(C=Cc1ccc(O)cc1)c1ccc(O)cc1O
REMARK SMILES IDX 4 1 3 2 5 3 6 4 7 5 8 6 11 7 10 8 9 9 2 11 1 12 12 13 18 14
REMARK SMILES IDX 13 15 17 16 14 17 15 18 19 19 16 21
REMARK H PARENT 9 10 19 20 16 22
REMARK Flexibility Score: inf
ROOT
ATOM      1  C   UNL     1      39.969 -24.236  -3.785  1.00  0.00     0.012 C 
ATOM      2  C   UNL     1      39.656 -25.182  -4.683  1.00  0.00     0.053 C 
ENDROOT
BRANCH   1   3
ATOM      3  C   UNL     1      39.509 -24.256  -2.375  1.00  0.00    -0.025 A 
ATOM      4  C   UNL     1      38.203 -24.695  -2.100  1.00  0.00     0.012 A 
ATOM      5  C   UNL     1      37.723 -24.722  -0.788  1.00  0.00     0.047 A 
ATOM      6  C   UNL     1      38.538 -24.298   0.269  1.00  0.00     0.115 A 
ATOM      7  C   UNL     1      40.318 -23.817  -1.307  1.00  0.00     0.012 A 
ATOM      8  C   UNL     1      39.833 -23.844   0.005  1.00  0.00     0.047 A 
BRANCH   6   9
ATOM      9  O   UNL     1      38.070 -24.320   1.580  1.00  0.00    -0.508 OA
ATOM     10  H   UNL     1      38.666 -24.069   2.360  1.00  0.00     0.293 HD
ENDBRANCH   6   9
ENDBRANCH   1   3
BRANCH   2  11
ATOM     11  C   UNL     1      40.120 -25.121  -6.085  1.00  0.00     0.189 C 
ATOM     12  O   UNL     1      41.260 -25.568  -6.391  1.00  0.00    -0.289 OA
BRANCH  11  13
ATOM     13  C   UNL     1      39.288 -24.494  -7.140  1.00  0.00     0.064 A 
ATOM     14  C   UNL     1      39.863 -23.837  -8.250  1.00  0.00     0.130 A 
ATOM     15  C   UNL     1      37.888 -24.531  -7.018  1.00  0.00     0.020 A 
ATOM     16  C   UNL     1      39.035 -23.270  -9.231  1.00  0.00     0.093 A 
ATOM     17  C   UNL     1      37.073 -23.959  -7.997  1.00  0.00     0.047 A 
ATOM     18  C   UNL     1      37.645 -23.331  -9.108  1.00  0.00     0.119 A 
BRANCH  14  19
ATOM     19  O   UNL     1      41.248 -23.721  -8.369  1.00  0.00    -0.507 OA
ATOM     20  H   UNL     1      41.678 -22.943  -8.855  1.00  0.00     0.293 HD
ENDBRANCH  14  19
BRANCH  18  21
ATOM     21  O   UNL     1      36.841 -22.761 -10.093  1.00  0.00    -0.508 OA
ATOM     22  H   UNL     1      37.232 -22.420 -10.964  1.00  0.00     0.293 HD
ENDBRANCH  18  21
ENDBRANCH  11  13
ENDBRANCH   2  11
TORSDOF 6
ENDMDL
MODEL 6
REMARK VINA RESULT:    -5.905     11.803     13.284
REMARK INTER + INTRA:          -8.167
REMARK INTER:                  -7.502
REMARK INTRA:                  -0.666
REMARK UNBOUND:                -0.709
REMARK SMILES O=C(C=Cc1ccc(O)cc1)c1ccc(O)cc1O
REMARK SMILES IDX 4 1 3 2 5 3 6 4 7 5 8 6 11 7 10 8 9 9 2 11 1 12 12 13 18 14
REMARK SMILES IDX 13 15 17 16 14 17 15 18 19 19 16 21
REMARK H PARENT 9 10 19 20 16 22
REMARK Flexibility Score: inf
ROOT
ATOM      1  C   UNL     1      47.996 -27.425   5.382  1.00  0.00     0.012 C 
ATOM      2  C   UNL     1      49.333 -27.535   5.384  1.00  0.00     0.053 C 
ENDROOT
BRANCH   1   3
ATOM      3  C   UNL     1      47.158 -27.576   6.597  1.00  0.00    -0.025 A 
ATOM      4  C   UNL     1      47.685 -27.166   7.834  1.00  0.00     0.012 A 
ATOM      5  C   UNL     1      46.935 -27.298   9.006  1.00  0.00     0.047 A 
ATOM      6  C   UNL     1      45.650 -27.854   8.961  1.00  0.00     0.115 A 
ATOM      7  C   UNL     1      45.870 -28.148   6.564  1.00  0.00     0.012 A 
ATOM      8  C   UNL     1      45.123 -28.280   7.739  1.00  0.00     0.047 A 
BRANCH   6   9
ATOM      9  O   UNL     1      44.895 -27.991  10.123  1.00  0.00    -0.508 OA
ATOM     10  H   UNL     1      44.204 -28.726  10.222  1.00  0.00     0.293 HD
ENDBRANCH   6   9
ENDBRANCH   1   3
BRANCH   2  11
ATOM     11  C   UNL     1      50.135 -27.394   4.150  1.00  0.00     0.189 C 
ATOM     12  O   UNL     1      50.872 -28.345   3.767  1.00  0.00    -0.289 OA
BRANCH  11  13
ATOM     13  C   UNL     1      50.130 -26.131   3.374  1.00  0.00     0.064 A 
ATOM     14  C   UNL     1      49.377 -25.989   2.188  1.00  0.00     0.130 A 
ATOM     15  C   UNL     1      50.917 -25.054   3.817  1.00  0.00     0.020 A 
ATOM     16  C   UNL     1      49.391 -24.769   1.494  1.00  0.00     0.093 A 
ATOM     17  C   UNL     1      50.929 -23.846   3.116  1.00  0.00     0.047 A 
ATOM     18  C   UNL     1      50.163 -23.699   1.955  1.00  0.00     0.119 A 
BRANCH  14  19
ATOM     19  O   UNL     1      48.638 -27.058   1.683  1.00  0.00    -0.507 OA
ATOM     20  H   UNL     1      48.071 -27.646   2.283  1.00  0.00     0.293 HD
ENDBRANCH  14  19
BRANCH  18  21
ATOM     21  O   UNL     1      50.164 -22.498   1.251  1.00  0.00    -0.508 OA
ATOM     22  H   UNL     1      50.955 -21.865   1.285  1.00  0.00     0.293 HD
ENDBRANCH  18  21
ENDBRANCH  11  13
ENDBRANCH   2  11
TORSDOF 6
ENDMDL
MODEL 7
REMARK VINA RESULT:    -5.846     13.361     15.218
REMARK INTER + INTRA:          -8.093
REMARK INTER:                  -7.442
REMARK INTRA:                  -0.650
REMARK UNBOUND:                -0.709
REMARK SMILES O=C(C=Cc1ccc(O)cc1)c1ccc(O)cc1O
REMARK SMILES IDX 4 1 3 2 5 3 6 4 7 5 8 6 11 7 10 8 9 9 2 11 1 12 12 13 18 14
REMARK SMILES IDX 13 15 17 16 14 17 15 18 19 19 16 21
REMARK H PARENT 9 10 19 20 16 22
REMARK Flexibility Score: inf
ROOT
ATOM      1  C   UNL     1      48.879 -27.229   6.250  1.00  0.00     0.012 C 
ATOM      2  C   UNL     1      50.019 -27.820   6.639  1.00  0.00     0.053 C 
ENDROOT
BRANCH   1   3
ATOM      3  C   UNL     1      47.546 -27.571   6.803  1.00  0.00    -0.025 A 
ATOM      4  C   UNL     1      46.508 -27.887   5.911  1.00  0.00     0.012 A 
ATOM      5  C   UNL     1      45.233 -28.205   6.386  1.00  0.00     0.047 A 
ATOM      6  C   UNL     1      44.973 -28.201   7.762  1.00  0.00     0.115 A 
ATOM      7  C   UNL     1      47.272 -27.555   8.186  1.00  0.00     0.012 A 
ATOM      8  C   UNL     1      45.994 -27.873   8.658  1.00  0.00     0.047 A 
BRANCH   6   9
ATOM      9  O   UNL     1      43.706 -28.517   8.247  1.00  0.00    -0.508 OA
ATOM     10  H   UNL     1      43.578 -28.930   9.163  1.00  0.00     0.293 HD
ENDBRANCH   6   9
ENDBRANCH   1   3
BRANCH   2  11
ATOM     11  C   UNL     1      51.329 -27.464   6.053  1.00  0.00     0.189 C 
ATOM     12  O   UNL     1      51.880 -26.371   6.360  1.00  0.00    -0.289 OA
BRANCH  11  13
ATOM     13  C   UNL     1      51.991 -28.349   5.065  1.00  0.00     0.064 A 
ATOM     14  C   UNL     1      52.376 -27.884   3.788  1.00  0.00     0.130 A 
ATOM     15  C   UNL     1      52.218 -29.695   5.399  1.00  0.00     0.020 A 
ATOM     16  C   UNL     1      53.013 -28.755   2.891  1.00  0.00     0.093 A 
ATOM     17  C   UNL     1      52.848 -30.556   4.496  1.00  0.00     0.047 A 
ATOM     18  C   UNL     1      53.251 -30.086   3.242  1.00  0.00     0.119 A 
BRANCH  14  19
ATOM     19  O   UNL     1      52.105 -26.573   3.398  1.00  0.00    -0.507 OA
ATOM     20  H   UNL     1      51.690 -25.902   4.034  1.00  0.00     0.293 HD
ENDBRANCH  14  19
BRANCH  18  21
ATOM     21  O   UNL     1      53.884 -30.934   2.336  1.00  0.00    -0.508 OA
ATOM     22  H   UNL     1      54.816 -30.738   1.988  1.00  0.00     0.293 HD
ENDBRANCH  18  21
ENDBRANCH  11  13
ENDBRANCH   2  11
TORSDOF 6
ENDMDL
MODEL 8
REMARK VINA RESULT:    -5.802     11.986     13.196
REMARK INTER + INTRA:          -8.037
REMARK INTER:                  -7.502
REMARK INTRA:                  -0.535
REMARK UNBOUND:                -0.709
REMARK SMILES O=C(C=Cc1ccc(O)cc1)c1ccc(O)cc1O
REMARK SMILES IDX 4 1 3 2 5 3 6 4 7 5 8 6 11 7 10 8 9 9 2 11 1 12 12 13 18 14
REMARK SMILES IDX 13 15 17 16 14 17 15 18 19 19 16 21
REMARK H PARENT 9 10 19 20 16 22
REMARK Flexibility Score: inf
ROOT
ATOM      1  C   UNL     1      47.641 -27.047   4.961  1.00  0.00     0.012 C 
ATOM      2  C   UNL     1      48.496 -26.022   4.830  1.00  0.00     0.053 C 
ENDROOT
BRANCH   1   3
ATOM      3  C   UNL     1      47.025 -27.444   6.251  1.00  0.00    -0.025 A 
ATOM      4  C   UNL     1      45.792 -28.118   6.229  1.00  0.00     0.012 A 
ATOM      5  C   UNL     1      45.169 -28.502   7.420  1.00  0.00     0.047 A 
ATOM      6  C   UNL     1      45.765 -28.208   8.653  1.00  0.00     0.115 A 
ATOM      7  C   UNL     1      47.610 -27.139   7.496  1.00  0.00     0.012 A 
ATOM      8  C   UNL     1      46.983 -27.524   8.686  1.00  0.00     0.047 A 
BRANCH   6   9
ATOM      9  O   UNL     1      45.154 -28.586   9.845  1.00  0.00    -0.508 OA
ATOM     10  H   UNL     1      45.693 -28.757  10.686  1.00  0.00     0.293 HD
ENDBRANCH   6   9
ENDBRANCH   1   3
BRANCH   2  11
ATOM     11  C   UNL     1      49.103 -25.665   3.530  1.00  0.00     0.189 C 
ATOM     12  O   UNL     1      49.069 -24.469   3.127  1.00  0.00    -0.289 OA
BRANCH  11  13
ATOM     13  C   UNL     1      49.711 -26.699   2.660  1.00  0.00     0.064 A 
ATOM     14  C   UNL     1      50.942 -27.312   2.982  1.00  0.00     0.130 A 
ATOM     15  C   UNL     1      49.059 -27.061   1.469  1.00  0.00     0.020 A 
ATOM     16  C   UNL     1      51.474 -28.298   2.135  1.00  0.00     0.093 A 
ATOM     17  C   UNL     1      49.599 -28.039   0.630  1.00  0.00     0.047 A 
ATOM     18  C   UNL     1      50.805 -28.663   0.964  1.00  0.00     0.119 A 
BRANCH  14  19
ATOM     19  O   UNL     1      51.651 -26.930   4.120  1.00  0.00    -0.507 OA
ATOM     20  H   UNL     1      51.937 -25.970   4.272  1.00  0.00     0.293 HD
ENDBRANCH  14  19
BRANCH  18  21
ATOM     21  O   UNL     1      51.351 -29.642   0.137  1.00  0.00    -0.508 OA
ATOM     22  H   UNL     1      51.858 -29.401  -0.707  1.00  0.00     0.293 HD
ENDBRANCH  18  21
ENDBRANCH  11  13
ENDBRANCH   2  11
TORSDOF 6
ENDMDL
MODEL 9
REMARK VINA RESULT:    -5.763     13.554     16.284
REMARK INTER + INTRA:          -7.988
REMARK INTER:                  -7.373
REMARK INTRA:                  -0.615
REMARK UNBOUND:                -0.709
REMARK SMILES O=C(C=Cc1ccc(O)cc1)c1ccc(O)cc1O
REMARK SMILES IDX 4 1 3 2 5 3 6 4 7 5 8 6 11 7 10 8 9 9 2 11 1 12 12 13 18 14
REMARK SMILES IDX 13 15 17 16 14 17 15 18 19 19 16 21
REMARK H PARENT 9 10 19 20 16 22
REMARK Flexibility Score: inf
ROOT
ATOM      1  C   UNL     1      51.051 -27.736   5.763  1.00  0.00     0.012 C 
ATOM      2  C   UNL     1      49.711 -27.724   5.706  1.00  0.00     0.053 C 
ENDROOT
BRANCH   1   3
ATOM      3  C   UNL     1      51.904 -28.561   4.873  1.00  0.00    -0.025 A 
ATOM      4  C   UNL     1      52.371 -27.995   3.674  1.00  0.00     0.012 A 
ATOM      5  C   UNL     1      53.168 -28.738   2.799  1.00  0.00     0.047 A 
ATOM      6  C   UNL     1      53.502 -30.064   3.104  1.00  0.00     0.115 A 
ATOM      7  C   UNL     1      52.232 -29.900   5.164  1.00  0.00     0.012 A 
ATOM      8  C   UNL     1      53.030 -30.641   4.286  1.00  0.00     0.047 A 
BRANCH   6   9
ATOM      9  O   UNL     1      54.296 -30.813   2.241  1.00  0.00    -0.508 OA
ATOM     10  H   UNL     1      53.953 -31.663   1.809  1.00  0.00     0.293 HD
ENDBRANCH   6   9
ENDBRANCH   1   3
BRANCH   2  11
ATOM     11  C   UNL     1      48.892 -26.900   6.621  1.00  0.00     0.189 C 
ATOM     12  O   UNL     1      49.351 -25.814   7.071  1.00  0.00    -0.289 OA
BRANCH  11  13
ATOM     13  C   UNL     1      47.551 -27.352   7.063  1.00  0.00     0.064 A 
ATOM     14  C   UNL     1      47.221 -27.476   8.431  1.00  0.00     0.130 A 
ATOM     15  C   UNL     1      46.590 -27.690   6.095  1.00  0.00     0.020 A 
ATOM     16  C   UNL     1      45.933 -27.894   8.803  1.00  0.00     0.093 A 
ATOM     17  C   UNL     1      45.314 -28.111   6.476  1.00  0.00     0.047 A 
ATOM     18  C   UNL     1      44.981 -28.209   7.831  1.00  0.00     0.119 A 
BRANCH  14  19
ATOM     19  O   UNL     1      48.170 -27.214   9.418  1.00  0.00    -0.507 OA
ATOM     20  H   UNL     1      48.967 -26.611   9.246  1.00  0.00     0.293 HD
ENDBRANCH  14  19
BRANCH  18  21
ATOM     21  O   UNL     1      43.710 -28.623   8.222  1.00  0.00    -0.508 OA
ATOM     22  H   UNL     1      42.957 -28.727   7.551  1.00  0.00     0.293 HD
ENDBRANCH  18  21
ENDBRANCH  11  13
ENDBRANCH   2  11
TORSDOF 6
ENDMDL
