MODEL 1
REMARK VINA RESULT:    -4.107      0.000      0.000
REMARK INTER + INTRA:          -4.756
REMARK INTER:                  -4.707
REMARK INTRA:                  -0.049
REMARK UNBOUND:                -0.049
REMARK SMILES O=C([O-])c1cc(O)c(O)c(O)c1
REMARK SMILES IDX 4 1 5 2 12 3 6 4 10 5 8 6 2 7 1 8 3 9 7 10 11 12 9 14
REMARK H PARENT 7 11 11 13 9 15
REMARK Flexibility Score: inf
ROOT
ATOM      1  C   UNL     1      42.677  20.387  -3.664  1.00  0.00     0.005 A 
ATOM      2  C   UNL     1      41.988  21.105  -2.676  1.00  0.00     0.060 A 
ATOM      3  C   UNL     1      42.994  19.040  -3.431  1.00  0.00     0.060 A 
ATOM      4  C   UNL     1      41.620  20.492  -1.475  1.00  0.00     0.162 A 
ATOM      5  C   UNL     1      42.633  18.411  -2.234  1.00  0.00     0.162 A 
ATOM      6  C   UNL     1      41.936  19.142  -1.241  1.00  0.00     0.200 A 
ENDROOT
BRANCH   1   7
ATOM      7  C   UNL     1      43.067  21.036  -4.935  1.00  0.00     0.072 C 
ATOM      8  O   UNL     1      44.216  20.857  -5.421  1.00  0.00    -0.545 OA
ATOM      9  O   UNL     1      42.171  21.855  -5.614  1.00  0.00    -0.545 OA
ENDBRANCH   1   7
BRANCH   4  10
ATOM     10  O   UNL     1      40.934  21.246  -0.521  1.00  0.00    -0.504 OA
ATOM     11  H   UNL     1      41.030  21.078   0.473  1.00  0.00     0.293 HD
ENDBRANCH   4  10
BRANCH   5  12
ATOM     12  O   UNL     1      42.983  17.068  -2.076  1.00  0.00    -0.504 OA
ATOM     13  H   UNL     1      42.440  16.398  -1.549  1.00  0.00     0.293 HD
ENDBRANCH   5  12
BRANCH   6  14
ATOM     14  O   UNL     1      41.549  18.568  -0.027  1.00  0.00    -0.502 OA
ATOM     15  H   UNL     1      41.068  19.064   0.708  1.00  0.00     0.293 HD
ENDBRANCH   6  14
TORSDOF 4
ENDMDL
MODEL 2
REMARK VINA RESULT:    -4.074      1.626      2.047
REMARK INTER + INTRA:          -4.717
REMARK INTER:                  -4.670
REMARK INTRA:                  -0.048
REMARK UNBOUND:                -0.049
REMARK SMILES O=C([O-])c1cc(O)c(O)c(O)c1
REMARK SMILES IDX 4 1 5 2 12 3 6 4 10 5 8 6 2 7 1 8 3 9 7 10 11 12 9 14
REMARK H PARENT 7 11 11 13 9 15
REMARK Flexibility Score: inf
ROOT
ATOM      1  C   UNL     1      41.739  20.672  -3.601  1.00  0.00     0.005 A 
ATOM      2  C   UNL     1      42.706  20.893  -2.608  1.00  0.00     0.060 A 
ATOM      3  C   UNL     1      40.677  19.794  -3.333  1.00  0.00     0.060 A 
ATOM      4  C   UNL     1      42.618  20.250  -1.371  1.00  0.00     0.162 A 
ATOM      5  C   UNL     1      40.574  19.142  -2.099  1.00  0.00     0.162 A 
ATOM      6  C   UNL     1      41.554  19.371  -1.102  1.00  0.00     0.200 A 
ENDROOT
BRANCH   1   7
ATOM      7  C   UNL     1      41.833  21.353  -4.911  1.00  0.00     0.072 C 
ATOM      8  O   UNL     1      40.835  21.950  -5.397  1.00  0.00    -0.545 OA
ATOM      9  O   UNL     1      43.025  21.343  -5.627  1.00  0.00    -0.545 OA
ENDBRANCH   1   7
BRANCH   4  10
ATOM     10  O   UNL     1      43.603  20.502  -0.414  1.00  0.00    -0.504 OA
ATOM     11  H   UNL     1      44.533  20.105  -0.478  1.00  0.00     0.293 HD
ENDBRANCH   4  10
BRANCH   5  12
ATOM     12  O   UNL     1      39.489  18.284  -1.908  1.00  0.00    -0.504 OA
ATOM     13  H   UNL     1      39.553  17.379  -1.464  1.00  0.00     0.293 HD
ENDBRANCH   5  12
BRANCH   6  14
ATOM     14  O   UNL     1      41.504  18.749   0.149  1.00  0.00    -0.502 OA
ATOM     15  H   UNL     1      42.021  17.918   0.391  1.00  0.00     0.293 HD
ENDBRANCH   6  14
TORSDOF 4
ENDMDL
MODEL 3
REMARK VINA RESULT:    -4.046      1.617      2.045
REMARK INTER + INTRA:          -4.686
REMARK INTER:                  -4.638
REMARK INTRA:                  -0.047
REMARK UNBOUND:                -0.049
REMARK SMILES O=C([O-])c1cc(O)c(O)c(O)c1
REMARK SMILES IDX 4 1 5 2 12 3 6 4 10 5 8 6 2 7 1 8 3 9 7 10 11 12 9 14
REMARK H PARENT 7 11 11 13 9 15
REMARK Flexibility Score: inf
ROOT
ATOM      1  C   UNL     1      41.892  20.704  -3.529  1.00  0.00     0.005 A 
ATOM      2  C   UNL     1      40.861  19.778  -3.307  1.00  0.00     0.060 A 
ATOM      3  C   UNL     1      42.802  20.972  -2.495  1.00  0.00     0.060 A 
ATOM      4  C   UNL     1      40.738  19.131  -2.075  1.00  0.00     0.162 A 
ATOM      5  C   UNL     1      42.692  20.333  -1.255  1.00  0.00     0.162 A 
ATOM      6  C   UNL     1      41.650  19.399  -1.038  1.00  0.00     0.200 A 
ENDROOT
BRANCH   1   7
ATOM      7  C   UNL     1      42.022  21.390  -4.834  1.00  0.00     0.072 C 
ATOM      8  O   UNL     1      43.114  21.373  -5.462  1.00  0.00    -0.545 OA
ATOM      9  O   UNL     1      40.939  22.065  -5.387  1.00  0.00    -0.545 OA
ENDBRANCH   1   7
BRANCH   4  10
ATOM     10  O   UNL     1      39.698  18.217  -1.900  1.00  0.00    -0.504 OA
ATOM     11  H   UNL     1      38.738  18.437  -2.138  1.00  0.00     0.293 HD
ENDBRANCH   4  10
BRANCH   5  12
ATOM     12  O   UNL     1      43.635  20.652  -0.276  1.00  0.00    -0.504 OA
ATOM     13  H   UNL     1      43.993  21.583  -0.114  1.00  0.00     0.293 HD
ENDBRANCH   5  12
BRANCH   6  14
ATOM     14  O   UNL     1      41.491  18.729   0.179  1.00  0.00    -0.502 OA
ATOM     15  H   UNL     1      41.478  17.725   0.276  1.00  0.00     0.293 HD
ENDBRANCH   6  14
TORSDOF 4
ENDMDL
MODEL 4
REMARK VINA RESULT:    -3.992      1.993      3.469
REMARK INTER + INTRA:          -4.624
REMARK INTER:                  -4.574
REMARK INTRA:                  -0.050
REMARK UNBOUND:                -0.049
REMARK SMILES O=C([O-])c1cc(O)c(O)c(O)c1
REMARK SMILES IDX 4 1 5 2 12 3 6 4 10 5 8 6 2 7 1 8 3 9 7 10 11 12 9 14
REMARK H PARENT 7 11 11 13 9 15
REMARK Flexibility Score: inf
ROOT
ATOM      1  C   UNL     1      42.092  19.140  -2.055  1.00  0.00     0.005 A 
ATOM      2  C   UNL     1      41.290  18.158  -1.452  1.00  0.00     0.060 A 
ATOM      3  C   UNL     1      43.212  18.741  -2.801  1.00  0.00     0.060 A 
ATOM      4  C   UNL     1      41.599  16.802  -1.591  1.00  0.00     0.162 A 
ATOM      5  C   UNL     1      43.534  17.387  -2.949  1.00  0.00     0.162 A 
ATOM      6  C   UNL     1      42.720  16.402  -2.339  1.00  0.00     0.200 A 
ENDROOT
BRANCH   1   7
ATOM      7  C   UNL     1      41.765  20.575  -1.908  1.00  0.00     0.072 C 
ATOM      8  O   UNL     1      42.021  21.389  -2.835  1.00  0.00    -0.545 OA
ATOM      9  O   UNL     1      41.171  21.048  -0.743  1.00  0.00    -0.545 OA
ENDBRANCH   1   7
BRANCH   4  10
ATOM     10  O   UNL     1      40.772  15.862  -0.974  1.00  0.00    -0.504 OA
ATOM     11  H   UNL     1      40.650  14.925  -1.341  1.00  0.00     0.293 HD
ENDBRANCH   4  10
BRANCH   5  12
ATOM     12  O   UNL     1      44.664  17.069  -3.707  1.00  0.00    -0.504 OA
ATOM     13  H   UNL     1      45.450  16.538  -3.359  1.00  0.00     0.293 HD
ENDBRANCH   5  12
BRANCH   6  14
ATOM     14  O   UNL     1      42.992  15.035  -2.452  1.00  0.00    -0.502 OA
ATOM     15  H   UNL     1      42.983  14.389  -1.677  1.00  0.00     0.293 HD
ENDBRANCH   6  14
TORSDOF 4
ENDMDL
MODEL 5
REMARK VINA RESULT:    -3.978      1.978      3.723
REMARK INTER + INTRA:          -4.608
REMARK INTER:                  -4.558
REMARK INTRA:                  -0.050
REMARK UNBOUND:                -0.049
REMARK SMILES O=C([O-])c1cc(O)c(O)c(O)c1
REMARK SMILES IDX 4 1 5 2 12 3 6 4 10 5 8 6 2 7 1 8 3 9 7 10 11 12 9 14
REMARK H PARENT 7 11 11 13 9 15
REMARK Flexibility Score: inf
ROOT
ATOM      1  C   UNL     1      42.114  19.103  -2.111  1.00  0.00     0.005 A 
ATOM      2  C   UNL     1      43.242  18.687  -2.834  1.00  0.00     0.060 A 
ATOM      3  C   UNL     1      41.299  18.136  -1.503  1.00  0.00     0.060 A 
ATOM      4  C   UNL     1      43.554  17.329  -2.950  1.00  0.00     0.162 A 
ATOM      5  C   UNL     1      41.597  16.772  -1.610  1.00  0.00     0.162 A 
ATOM      6  C   UNL     1      42.738  16.359  -2.340  1.00  0.00     0.200 A 
ENDROOT
BRANCH   1   7
ATOM      7  C   UNL     1      41.785  20.541  -1.989  1.00  0.00     0.072 C 
ATOM      8  O   UNL     1      42.027  21.337  -2.935  1.00  0.00    -0.545 OA
ATOM      9  O   UNL     1      41.201  21.035  -0.827  1.00  0.00    -0.545 OA
ENDBRANCH   1   7
BRANCH   4  10
ATOM     10  O   UNL     1      44.687  16.962  -3.677  1.00  0.00    -0.504 OA
ATOM     11  H   UNL     1      44.635  16.370  -4.498  1.00  0.00     0.293 HD
ENDBRANCH   4  10
BRANCH   5  12
ATOM     12  O   UNL     1      40.738  15.870  -0.978  1.00  0.00    -0.504 OA
ATOM     13  H   UNL     1      40.707  15.721   0.021  1.00  0.00     0.293 HD
ENDBRANCH   5  12
BRANCH   6  14
ATOM     14  O   UNL     1      43.085  15.013  -2.481  1.00  0.00    -0.502 OA
ATOM     15  H   UNL     1      43.834  14.564  -1.975  1.00  0.00     0.293 HD
ENDBRANCH   6  14
TORSDOF 4
ENDMDL
MODEL 6
REMARK VINA RESULT:    -3.893      7.985      9.475
REMARK INTER + INTRA:          -4.510
REMARK INTER:                  -4.458
REMARK INTRA:                  -0.053
REMARK UNBOUND:                -0.049
REMARK SMILES O=C([O-])c1cc(O)c(O)c(O)c1
REMARK SMILES IDX 4 1 5 2 12 3 6 4 10 5 8 6 2 7 1 8 3 9 7 10 11 12 9 14
REMARK H PARENT 7 11 11 13 9 15
REMARK Flexibility Score: inf
ROOT
ATOM      1  C   UNL     1      50.459  14.949  -4.867  1.00  0.00     0.005 A 
ATOM      2  C   UNL     1      50.314  13.699  -4.247  1.00  0.00     0.060 A 
ATOM      3  C   UNL     1      49.458  15.917  -4.689  1.00  0.00     0.060 A 
ATOM      4  C   UNL     1      49.191  13.417  -3.463  1.00  0.00     0.162 A 
ATOM      5  C   UNL     1      48.328  15.651  -3.908  1.00  0.00     0.162 A 
ATOM      6  C   UNL     1      48.189  14.387  -3.284  1.00  0.00     0.200 A 
ENDROOT
BRANCH   1   7
ATOM      7  C   UNL     1      51.647  15.247  -5.696  1.00  0.00     0.072 C 
ATOM      8  O   UNL     1      51.889  16.426  -6.070  1.00  0.00    -0.545 OA
ATOM      9  O   UNL     1      52.516  14.230  -6.076  1.00  0.00    -0.545 OA
ENDBRANCH   1   7
BRANCH   4  10
ATOM     10  O   UNL     1      49.091  12.160  -2.865  1.00  0.00    -0.504 OA
ATOM     11  H   UNL     1      48.295  11.891  -2.300  1.00  0.00     0.293 HD
ENDBRANCH   4  10
BRANCH   5  12
ATOM     12  O   UNL     1      47.376  16.665  -3.778  1.00  0.00    -0.504 OA
ATOM     13  H   UNL     1      47.298  17.454  -4.405  1.00  0.00     0.293 HD
ENDBRANCH   5  12
BRANCH   6  14
ATOM     14  O   UNL     1      47.083  14.064  -2.493  1.00  0.00    -0.502 OA
ATOM     15  H   UNL     1      46.721  13.130  -2.379  1.00  0.00     0.293 HD
ENDBRANCH   6  14
TORSDOF 4
ENDMDL
MODEL 7
REMARK VINA RESULT:    -3.871      7.740      8.944
REMARK INTER + INTRA:          -4.486
REMARK INTER:                  -4.436
REMARK INTRA:                  -0.050
REMARK UNBOUND:                -0.049
REMARK SMILES O=C([O-])c1cc(O)c(O)c(O)c1
REMARK SMILES IDX 4 1 5 2 12 3 6 4 10 5 8 6 2 7 1 8 3 9 7 10 11 12 9 14
REMARK H PARENT 7 11 11 13 9 15
REMARK Flexibility Score: inf
ROOT
ATOM      1  C   UNL     1      50.192  14.818  -4.661  1.00  0.00     0.005 A 
ATOM      2  C   UNL     1      49.250  15.857  -4.611  1.00  0.00     0.060 A 
ATOM      3  C   UNL     1      49.953  13.645  -3.929  1.00  0.00     0.060 A 
ATOM      4  C   UNL     1      48.090  15.730  -3.842  1.00  0.00     0.162 A 
ATOM      5  C   UNL     1      48.796  13.502  -3.154  1.00  0.00     0.162 A 
ATOM      6  C   UNL     1      47.849  14.554  -3.108  1.00  0.00     0.200 A 
ENDROOT
BRANCH   1   7
ATOM      7  C   UNL     1      51.421  14.953  -5.475  1.00  0.00     0.072 C 
ATOM      8  O   UNL     1      51.917  13.952  -6.058  1.00  0.00    -0.545 OA
ATOM      9  O   UNL     1      52.048  16.187  -5.607  1.00  0.00    -0.545 OA
ENDBRANCH   1   7
BRANCH   4  10
ATOM     10  O   UNL     1      47.181  16.789  -3.823  1.00  0.00    -0.504 OA
ATOM     11  H   UNL     1      46.322  16.775  -4.360  1.00  0.00     0.293 HD
ENDBRANCH   4  10
BRANCH   5  12
ATOM     12  O   UNL     1      48.629  12.306  -2.453  1.00  0.00    -0.504 OA
ATOM     13  H   UNL     1      49.390  11.755  -2.081  1.00  0.00     0.293 HD
ENDBRANCH   5  12
BRANCH   6  14
ATOM     14  O   UNL     1      46.676  14.469  -2.353  1.00  0.00    -0.502 OA
ATOM     15  H   UNL     1      46.061  15.247  -2.170  1.00  0.00     0.293 HD
ENDBRANCH   6  14
TORSDOF 4
ENDMDL
MODEL 8
REMARK VINA RESULT:    -3.856      7.753      9.724
REMARK INTER + INTRA:          -4.468
REMARK INTER:                  -4.416
REMARK INTRA:                  -0.053
REMARK UNBOUND:                -0.049
REMARK SMILES O=C([O-])c1cc(O)c(O)c(O)c1
REMARK SMILES IDX 4 1 5 2 12 3 6 4 10 5 8 6 2 7 1 8 3 9 7 10 11 12 9 14
REMARK H PARENT 7 11 11 13 9 15
REMARK Flexibility Score: inf
ROOT
ATOM      1  C   UNL     1      48.898  13.978  -3.569  1.00  0.00     0.005 A 
ATOM      2  C   UNL     1      48.298  15.209  -3.875  1.00  0.00     0.060 A 
ATOM      3  C   UNL     1      50.173  13.696  -4.083  1.00  0.00     0.060 A 
ATOM      4  C   UNL     1      48.956  16.143  -4.680  1.00  0.00     0.162 A 
ATOM      5  C   UNL     1      50.845  14.620  -4.891  1.00  0.00     0.162 A 
ATOM      6  C   UNL     1      50.234  15.860  -5.195  1.00  0.00     0.200 A 
ENDROOT
BRANCH   1   7
ATOM      7  C   UNL     1      48.200  12.990  -2.717  1.00  0.00     0.072 C 
ATOM      8  O   UNL     1      48.623  11.806  -2.631  1.00  0.00    -0.545 OA
ATOM      9  O   UNL     1      47.067  13.353  -1.998  1.00  0.00    -0.545 OA
ENDBRANCH   1   7
BRANCH   4  10
ATOM     10  O   UNL     1      48.320  17.354  -4.956  1.00  0.00    -0.504 OA
ATOM     11  H   UNL     1      47.767  17.846  -4.264  1.00  0.00     0.293 HD
ENDBRANCH   4  10
BRANCH   5  12
ATOM     12  O   UNL     1      52.111  14.266  -5.364  1.00  0.00    -0.504 OA
ATOM     13  H   UNL     1      52.285  13.864  -6.275  1.00  0.00     0.293 HD
ENDBRANCH   5  12
BRANCH   6  14
ATOM     14  O   UNL     1      50.857  16.822  -5.995  1.00  0.00    -0.502 OA
ATOM     15  H   UNL     1      51.804  16.750  -6.336  1.00  0.00     0.293 HD
ENDBRANCH   6  14
TORSDOF 4
ENDMDL
MODEL 9
REMARK VINA RESULT:    -3.755      7.617      9.877
REMARK INTER + INTRA:          -4.353
REMARK INTER:                  -4.305
REMARK INTRA:                  -0.047
REMARK UNBOUND:                -0.049
REMARK SMILES O=C([O-])c1cc(O)c(O)c(O)c1
REMARK SMILES IDX 4 1 5 2 12 3 6 4 10 5 8 6 2 7 1 8 3 9 7 10 11 12 9 14
REMARK H PARENT 7 11 11 13 9 15
REMARK Flexibility Score: inf
ROOT
ATOM      1  C   UNL     1      48.578  14.018  -3.490  1.00  0.00     0.005 A 
ATOM      2  C   UNL     1      49.849  13.566  -3.876  1.00  0.00     0.060 A 
ATOM      3  C   UNL     1      48.163  15.300  -3.883  1.00  0.00     0.060 A 
ATOM      4  C   UNL     1      50.693  14.377  -4.639  1.00  0.00     0.162 A 
ATOM      5  C   UNL     1      48.996  16.125  -4.648  1.00  0.00     0.162 A 
ATOM      6  C   UNL     1      50.278  15.661  -5.034  1.00  0.00     0.200 A 
ENDROOT
BRANCH   1   7
ATOM      7  C   UNL     1      47.684  13.160  -2.681  1.00  0.00     0.072 C 
ATOM      8  O   UNL     1      47.421  11.984  -3.048  1.00  0.00    -0.545 OA
ATOM      9  O   UNL     1      47.123  13.639  -1.503  1.00  0.00    -0.545 OA
ENDBRANCH   1   7
BRANCH   4  10
ATOM     10  O   UNL     1      51.948  13.884  -5.000  1.00  0.00    -0.504 OA
ATOM     11  H   UNL     1      52.060  13.097  -5.628  1.00  0.00     0.293 HD
ENDBRANCH   4  10
BRANCH   5  12
ATOM     12  O   UNL     1      48.513  17.387  -5.000  1.00  0.00    -0.504 OA
ATOM     13  H   UNL     1      48.748  18.241  -4.514  1.00  0.00     0.293 HD
ENDBRANCH   5  12
BRANCH   6  14
ATOM     14  O   UNL     1      51.153  16.439  -5.797  1.00  0.00    -0.502 OA
ATOM     15  H   UNL     1      51.770  17.140  -5.415  1.00  0.00     0.293 HD
ENDBRANCH   6  14
TORSDOF 4
ENDMDL
