MODEL 1
REMARK VINA RESULT:    -4.664      0.000      0.000
REMARK INTER + INTRA:          -5.842
REMARK INTER:                  -5.619
REMARK INTRA:                  -0.223
REMARK UNBOUND:                -0.223
REMARK SMILES [NH3+][C@H](Cc1cnc[nH]1)C(=O)[O-]
REMARK SMILES IDX 3 1 2 2 1 3 9 7 10 8 11 9 4 10 5 11 8 12 6 13 7 14
REMARK H PARENT 1 4 1 5 1 6 8 15
REMARK Flexibility Score: inf
ROOT
ATOM      1  C   UNL     1      22.547 -25.883  23.990  1.00  0.00     0.127 C 
ENDROOT
BRANCH   1   2
ATOM      2  C   UNL     1      23.765 -25.536  23.105  1.00  0.00     0.233 C 
BRANCH   2   3
ATOM      3  N   UNL     1      23.581 -25.993  21.721  1.00  0.00    -0.350 N 
ATOM      4  H   UNL     1      22.868 -25.413  21.221  1.00  0.00     0.345 HD
ATOM      5  H   UNL     1      23.272 -26.992  21.716  1.00  0.00     0.345 HD
ATOM      6  H   UNL     1      24.489 -25.929  21.208  1.00  0.00     0.345 HD
ENDBRANCH   2   3
BRANCH   2   7
ATOM      7  C   UNL     1      24.078 -24.061  23.155  1.00  0.00     0.099 C 
ATOM      8  O   UNL     1      23.198 -23.222  22.828  1.00  0.00    -0.544 OA
ATOM      9  O   UNL     1      25.347 -23.617  23.507  1.00  0.00    -0.544 OA
ENDBRANCH   2   7
ENDBRANCH   1   2
BRANCH   1  10
ATOM     10  C   UNL     1      22.772 -25.599  25.447  1.00  0.00     0.041 A 
ATOM     11  C   UNL     1      22.068 -24.709  26.228  1.00  0.00     0.134 A 
ATOM     12  N   UNL     1      23.682 -26.218  26.215  1.00  0.00    -0.348 N 
ATOM     13  N   UNL     1      22.538 -24.763  27.491  1.00  0.00    -0.245 NA
ATOM     14  C   UNL     1      23.519 -25.692  27.443  1.00  0.00     0.196 A 
ATOM     15  H   UNL     1      24.365 -26.953  25.928  1.00  0.00     0.167 HD
ENDBRANCH   1  10
TORSDOF 4
ENDMDL
MODEL 2
REMARK VINA RESULT:    -4.596      0.873      1.068
REMARK INTER + INTRA:          -5.759
REMARK INTER:                  -5.688
REMARK INTRA:                  -0.071
REMARK UNBOUND:                -0.223
REMARK SMILES [NH3+][C@H](Cc1cnc[nH]1)C(=O)[O-]
REMARK SMILES IDX 3 1 2 2 1 3 9 7 10 8 11 9 4 10 5 11 8 12 6 13 7 14
REMARK H PARENT 1 4 1 5 1 6 8 15
REMARK Flexibility Score: inf
ROOT
ATOM      1  C   UNL     1      22.561 -26.007  24.017  1.00  0.00     0.127 C 
ENDROOT
BRANCH   1   2
ATOM      2  C   UNL     1      23.748 -25.478  23.182  1.00  0.00     0.233 C 
BRANCH   2   3
ATOM      3  N   UNL     1      23.682 -25.938  21.788  1.00  0.00    -0.350 N 
ATOM      4  H   UNL     1      24.630 -26.196  21.429  1.00  0.00     0.345 HD
ATOM      5  H   UNL     1      23.282 -25.184  21.184  1.00  0.00     0.345 HD
ATOM      6  H   UNL     1      23.058 -26.774  21.725  1.00  0.00     0.345 HD
ENDBRANCH   2   3
BRANCH   2   7
ATOM      7  C   UNL     1      23.846 -23.974  23.256  1.00  0.00     0.099 C 
ATOM      8  O   UNL     1      22.848 -23.266  22.961  1.00  0.00    -0.544 OA
ATOM      9  O   UNL     1      25.044 -23.358  23.597  1.00  0.00    -0.544 OA
ENDBRANCH   2   7
ENDBRANCH   1   2
BRANCH   1  10
ATOM     10  C   UNL     1      22.760 -25.851  25.497  1.00  0.00     0.041 A 
ATOM     11  C   UNL     1      23.965 -25.757  26.158  1.00  0.00     0.134 A 
ATOM     12  N   UNL     1      21.769 -25.738  26.394  1.00  0.00    -0.348 N 
ATOM     13  N   UNL     1      23.733 -25.589  27.475  1.00  0.00    -0.245 NA
ATOM     14  C   UNL     1      22.386 -25.583  27.580  1.00  0.00     0.196 A 
ATOM     15  H   UNL     1      20.741 -25.759  26.214  1.00  0.00     0.167 HD
ENDBRANCH   1  10
TORSDOF 4
ENDMDL
MODEL 3
REMARK VINA RESULT:    -4.340      2.165      2.700
REMARK INTER + INTRA:          -5.451
REMARK INTER:                  -5.381
REMARK INTRA:                  -0.070
REMARK UNBOUND:                -0.223
REMARK SMILES [NH3+][C@H](Cc1cnc[nH]1)C(=O)[O-]
REMARK SMILES IDX 3 1 2 2 1 3 9 7 10 8 11 9 4 10 5 11 8 12 6 13 7 14
REMARK H PARENT 1 4 1 5 1 6 8 15
REMARK Flexibility Score: inf
ROOT
ATOM      1  C   UNL     1      25.295 -24.897  23.430  1.00  0.00     0.127 C 
ENDROOT
BRANCH   1   2
ATOM      2  C   UNL     1      23.892 -24.798  22.792  1.00  0.00     0.233 C 
BRANCH   2   3
ATOM      3  N   UNL     1      23.705 -25.797  21.730  1.00  0.00    -0.350 N 
ATOM      4  H   UNL     1      23.716 -25.351  20.784  1.00  0.00     0.345 HD
ATOM      5  H   UNL     1      22.792 -26.290  21.864  1.00  0.00     0.345 HD
ATOM      6  H   UNL     1      24.470 -26.507  21.779  1.00  0.00     0.345 HD
ENDBRANCH   2   3
BRANCH   2   7
ATOM      7  C   UNL     1      22.805 -24.898  23.833  1.00  0.00     0.099 C 
ATOM      8  O   UNL     1      22.574 -26.002  24.393  1.00  0.00    -0.544 OA
ATOM      9  O   UNL     1      22.018 -23.795  24.144  1.00  0.00    -0.544 OA
ENDBRANCH   2   7
ENDBRANCH   1   2
BRANCH   1  10
ATOM     10  C   UNL     1      25.347 -24.367  24.834  1.00  0.00     0.041 A 
ATOM     11  C   UNL     1      25.501 -23.050  25.208  1.00  0.00     0.134 A 
ATOM     12  N   UNL     1      25.205 -25.113  25.939  1.00  0.00    -0.348 N 
ATOM     13  N   UNL     1      25.461 -22.967  26.554  1.00  0.00    -0.245 NA
ATOM     14  C   UNL     1      25.280 -24.242  26.962  1.00  0.00     0.196 A 
ATOM     15  H   UNL     1      25.060 -26.146  25.998  1.00  0.00     0.167 HD
ENDBRANCH   1  10
TORSDOF 4
ENDMDL
MODEL 4
REMARK VINA RESULT:    -4.322      2.268      3.953
REMARK INTER + INTRA:          -5.430
REMARK INTER:                  -5.259
REMARK INTRA:                  -0.171
REMARK UNBOUND:                -0.223
REMARK SMILES [NH3+][C@H](Cc1cnc[nH]1)C(=O)[O-]
REMARK SMILES IDX 3 1 2 2 1 3 9 7 10 8 11 9 4 10 5 11 8 12 6 13 7 14
REMARK H PARENT 1 4 1 5 1 6 8 15
REMARK Flexibility Score: inf
ROOT
ATOM      1  C   UNL     1      21.486 -23.946  25.129  1.00  0.00     0.127 C 
ENDROOT
BRANCH   1   2
ATOM      2  C   UNL     1      21.845 -24.535  26.511  1.00  0.00     0.233 C 
BRANCH   2   3
ATOM      3  N   UNL     1      21.397 -25.929  26.642  1.00  0.00    -0.350 N 
ATOM      4  H   UNL     1      20.788 -26.208  25.839  1.00  0.00     0.345 HD
ATOM      5  H   UNL     1      20.863 -26.048  27.533  1.00  0.00     0.345 HD
ATOM      6  H   UNL     1      22.229 -26.562  26.672  1.00  0.00     0.345 HD
ENDBRANCH   2   3
BRANCH   2   7
ATOM      7  C   UNL     1      23.321 -24.408  26.796  1.00  0.00     0.099 C 
ATOM      8  O   UNL     1      23.790 -23.307  27.190  1.00  0.00    -0.544 OA
ATOM      9  O   UNL     1      24.181 -25.478  26.579  1.00  0.00    -0.544 OA
ENDBRANCH   2   7
ENDBRANCH   1   2
BRANCH   1  10
ATOM     10  C   UNL     1      22.520 -24.226  24.077  1.00  0.00     0.041 A 
ATOM     11  C   UNL     1      23.324 -23.300  23.449  1.00  0.00     0.134 A 
ATOM     12  N   UNL     1      22.840 -25.448  23.625  1.00  0.00    -0.348 N 
ATOM     13  N   UNL     1      24.149 -23.939  22.595  1.00  0.00    -0.245 NA
ATOM     14  C   UNL     1      23.824 -25.244  22.730  1.00  0.00     0.196 A 
ATOM     15  H   UNL     1      22.423 -26.362  23.908  1.00  0.00     0.167 HD
ENDBRANCH   1  10
TORSDOF 4
ENDMDL
MODEL 5
REMARK VINA RESULT:    -4.298      1.966      2.388
REMARK INTER + INTRA:          -5.400
REMARK INTER:                  -5.173
REMARK INTRA:                  -0.228
REMARK UNBOUND:                -0.223
REMARK SMILES [NH3+][C@H](Cc1cnc[nH]1)C(=O)[O-]
REMARK SMILES IDX 3 1 2 2 1 3 9 7 10 8 11 9 4 10 5 11 8 12 6 13 7 14
REMARK H PARENT 1 4 1 5 1 6 8 15
REMARK Flexibility Score: inf
ROOT
ATOM      1  C   UNL     1      22.829 -25.117  24.244  1.00  0.00     0.127 C 
ENDROOT
BRANCH   1   2
ATOM      2  C   UNL     1      23.408 -23.700  24.038  1.00  0.00     0.233 C 
BRANCH   2   3
ATOM      3  N   UNL     1      23.376 -23.298  22.624  1.00  0.00    -0.350 N 
ATOM      4  H   UNL     1      22.432 -23.464  22.204  1.00  0.00     0.345 HD
ATOM      5  H   UNL     1      24.090 -23.840  22.085  1.00  0.00     0.345 HD
ATOM      6  H   UNL     1      23.608 -22.282  22.544  1.00  0.00     0.345 HD
ENDBRANCH   2   3
BRANCH   2   7
ATOM      7  C   UNL     1      22.706 -22.687  24.908  1.00  0.00     0.099 C 
ATOM      8  O   UNL     1      23.373 -21.793  25.492  1.00  0.00    -0.544 OA
ATOM      9  O   UNL     1      21.334 -22.761  25.116  1.00  0.00    -0.544 OA
ENDBRANCH   2   7
ENDBRANCH   1   2
BRANCH   1  10
ATOM     10  C   UNL     1      22.830 -25.555  25.680  1.00  0.00     0.041 A 
ATOM     11  C   UNL     1      23.934 -25.865  26.443  1.00  0.00     0.134 A 
ATOM     12  N   UNL     1      21.734 -25.667  26.445  1.00  0.00    -0.348 N 
ATOM     13  N   UNL     1      23.533 -26.177  27.692  1.00  0.00    -0.245 NA
ATOM     14  C   UNL     1      22.189 -26.046  27.654  1.00  0.00     0.196 A 
ATOM     15  H   UNL     1      20.743 -25.493  26.170  1.00  0.00     0.167 HD
ENDBRANCH   1  10
TORSDOF 4
ENDMDL
MODEL 6
REMARK VINA RESULT:    -4.296      2.257      2.692
REMARK INTER + INTRA:          -5.399
REMARK INTER:                  -5.216
REMARK INTRA:                  -0.183
REMARK UNBOUND:                -0.223
REMARK SMILES [NH3+][C@H](Cc1cnc[nH]1)C(=O)[O-]
REMARK SMILES IDX 3 1 2 2 1 3 9 7 10 8 11 9 4 10 5 11 8 12 6 13 7 14
REMARK H PARENT 1 4 1 5 1 6 8 15
REMARK Flexibility Score: inf
ROOT
ATOM      1  C   UNL     1      22.027 -24.083  24.407  1.00  0.00     0.127 C 
ENDROOT
BRANCH   1   2
ATOM      2  C   UNL     1      23.097 -25.164  24.139  1.00  0.00     0.233 C 
BRANCH   2   3
ATOM      3  N   UNL     1      22.504 -26.505  24.041  1.00  0.00    -0.350 N 
ATOM      4  H   UNL     1      21.582 -26.549  24.533  1.00  0.00     0.345 HD
ATOM      5  H   UNL     1      23.150 -27.211  24.462  1.00  0.00     0.345 HD
ATOM      6  H   UNL     1      22.362 -26.752  23.034  1.00  0.00     0.345 HD
ENDBRANCH   2   3
BRANCH   2   7
ATOM      7  C   UNL     1      23.915 -24.838  22.915  1.00  0.00     0.099 C 
ATOM      8  O   UNL     1      23.978 -25.663  21.965  1.00  0.00    -0.544 OA
ATOM      9  O   UNL     1      24.646 -23.658  22.843  1.00  0.00    -0.544 OA
ENDBRANCH   2   7
ENDBRANCH   1   2
BRANCH   1  10
ATOM     10  C   UNL     1      22.395 -23.147  25.522  1.00  0.00     0.041 A 
ATOM     11  C   UNL     1      23.499 -23.239  26.341  1.00  0.00     0.134 A 
ATOM     12  N   UNL     1      21.705 -22.046  25.855  1.00  0.00    -0.348 N 
ATOM     13  N   UNL     1      23.503 -22.196  27.194  1.00  0.00    -0.245 NA
ATOM     14  C   UNL     1      22.397 -21.492  26.868  1.00  0.00     0.196 A 
ATOM     15  H   UNL     1      20.827 -21.688  25.420  1.00  0.00     0.167 HD
ENDBRANCH   1  10
TORSDOF 4
ENDMDL
MODEL 7
REMARK VINA RESULT:    -4.269      1.770      2.277
REMARK INTER + INTRA:          -5.366
REMARK INTER:                  -5.233
REMARK INTRA:                  -0.133
REMARK UNBOUND:                -0.223
REMARK SMILES [NH3+][C@H](Cc1cnc[nH]1)C(=O)[O-]
REMARK SMILES IDX 3 1 2 2 1 3 9 7 10 8 11 9 4 10 5 11 8 12 6 13 7 14
REMARK H PARENT 1 4 1 5 1 6 8 15
REMARK Flexibility Score: inf
ROOT
ATOM      1  C   UNL     1      23.516 -24.555  25.577  1.00  0.00     0.127 C 
ENDROOT
BRANCH   1   2
ATOM      2  C   UNL     1      22.931 -25.284  24.347  1.00  0.00     0.233 C 
BRANCH   2   3
ATOM      3  N   UNL     1      21.463 -25.233  24.331  1.00  0.00    -0.350 N 
ATOM      4  H   UNL     1      21.113 -24.628  23.553  1.00  0.00     0.345 HD
ATOM      5  H   UNL     1      21.111 -24.856  25.241  1.00  0.00     0.345 HD
ATOM      6  H   UNL     1      21.080 -26.198  24.207  1.00  0.00     0.345 HD
ENDBRANCH   2   3
BRANCH   2   7
ATOM      7  C   UNL     1      23.509 -24.746  23.062  1.00  0.00     0.099 C 
ATOM      8  O   UNL     1      23.533 -23.504  22.857  1.00  0.00    -0.544 OA
ATOM      9  O   UNL     1      23.969 -25.610  22.075  1.00  0.00    -0.544 OA
ENDBRANCH   2   7
ENDBRANCH   1   2
BRANCH   1  10
ATOM     10  C   UNL     1      24.135 -25.486  26.579  1.00  0.00     0.041 A 
ATOM     11  C   UNL     1      25.030 -25.148  27.570  1.00  0.00     0.134 A 
ATOM     12  N   UNL     1      23.862 -26.796  26.677  1.00  0.00    -0.348 N 
ATOM     13  N   UNL     1      25.327 -26.248  28.291  1.00  0.00    -0.245 NA
ATOM     14  C   UNL     1      24.597 -27.231  27.717  1.00  0.00     0.196 A 
ATOM     15  H   UNL     1      23.215 -27.359  26.081  1.00  0.00     0.167 HD
ENDBRANCH   1  10
TORSDOF 4
ENDMDL
MODEL 8
REMARK VINA RESULT:    -4.262      2.910      3.783
REMARK INTER + INTRA:          -5.357
REMARK INTER:                  -5.191
REMARK INTRA:                  -0.166
REMARK UNBOUND:                -0.223
REMARK SMILES [NH3+][C@H](Cc1cnc[nH]1)C(=O)[O-]
REMARK SMILES IDX 3 1 2 2 1 3 9 7 10 8 11 9 4 10 5 11 8 12 6 13 7 14
REMARK H PARENT 1 4 1 5 1 6 8 15
REMARK Flexibility Score: inf
ROOT
ATOM      1  C   UNL     1      24.096 -24.839  25.246  1.00  0.00     0.127 C 
ENDROOT
BRANCH   1   2
ATOM      2  C   UNL     1      22.938 -25.032  24.243  1.00  0.00     0.233 C 
BRANCH   2   3
ATOM      3  N   UNL     1      22.763 -26.444  23.877  1.00  0.00    -0.350 N 
ATOM      4  H   UNL     1      22.554 -27.030  24.718  1.00  0.00     0.345 HD
ATOM      5  H   UNL     1      23.631 -26.802  23.418  1.00  0.00     0.345 HD
ATOM      6  H   UNL     1      21.973 -26.534  23.198  1.00  0.00     0.345 HD
ENDBRANCH   2   3
BRANCH   2   7
ATOM      7  C   UNL     1      21.652 -24.441  24.766  1.00  0.00     0.099 C 
ATOM      8  O   UNL     1      20.631 -25.167  24.884  1.00  0.00    -0.544 OA
ATOM      9  O   UNL     1      21.567 -23.087  25.070  1.00  0.00    -0.544 OA
ENDBRANCH   2   7
ENDBRANCH   1   2
BRANCH   1  10
ATOM     10  C   UNL     1      25.241 -24.045  24.685  1.00  0.00     0.041 A 
ATOM     11  C   UNL     1      25.254 -22.692  24.429  1.00  0.00     0.134 A 
ATOM     12  N   UNL     1      26.449 -24.549  24.391  1.00  0.00    -0.348 N 
ATOM     13  N   UNL     1      26.471 -22.343  23.967  1.00  0.00    -0.245 NA
ATOM     14  C   UNL     1      27.170 -23.499  23.958  1.00  0.00     0.196 A 
ATOM     15  H   UNL     1      26.767 -25.539  24.484  1.00  0.00     0.167 HD
ENDBRANCH   1  10
TORSDOF 4
ENDMDL
MODEL 9
REMARK VINA RESULT:    -4.260      2.101      2.991
REMARK INTER + INTRA:          -5.355
REMARK INTER:                  -5.148
REMARK INTRA:                  -0.207
REMARK UNBOUND:                -0.223
REMARK SMILES [NH3+][C@H](Cc1cnc[nH]1)C(=O)[O-]
REMARK SMILES IDX 3 1 2 2 1 3 9 7 10 8 11 9 4 10 5 11 8 12 6 13 7 14
REMARK H PARENT 1 4 1 5 1 6 8 15
REMARK Flexibility Score: inf
ROOT
ATOM      1  C   UNL     1      24.522 -25.070  26.329  1.00  0.00     0.127 C 
ENDROOT
BRANCH   1   2
ATOM      2  C   UNL     1      25.312 -23.770  26.062  1.00  0.00     0.233 C 
BRANCH   2   3
ATOM      3  N   UNL     1      26.527 -23.692  26.884  1.00  0.00    -0.350 N 
ATOM      4  H   UNL     1      26.653 -24.557  27.458  1.00  0.00     0.345 HD
ATOM      5  H   UNL     1      26.472 -22.864  27.521  1.00  0.00     0.345 HD
ATOM      6  H   UNL     1      27.361 -23.573  26.264  1.00  0.00     0.345 HD
ENDBRANCH   2   3
BRANCH   2   7
ATOM      7  C   UNL     1      25.633 -23.613  24.596  1.00  0.00     0.099 C 
ATOM      8  O   UNL     1      25.082 -22.698  23.928  1.00  0.00    -0.544 OA
ATOM      9  O   UNL     1      26.492 -24.501  23.960  1.00  0.00    -0.544 OA
ENDBRANCH   2   7
ENDBRANCH   1   2
BRANCH   1  10
ATOM     10  C   UNL     1      23.080 -24.985  25.918  1.00  0.00     0.041 A 
ATOM     11  C   UNL     1      22.209 -23.954  26.192  1.00  0.00     0.134 A 
ATOM     12  N   UNL     1      22.442 -25.901  25.175  1.00  0.00    -0.348 N 
ATOM     13  N   UNL     1      21.016 -24.223  25.625  1.00  0.00    -0.245 NA
ATOM     14  C   UNL     1      21.196 -25.416  25.016  1.00  0.00     0.196 A 
ATOM     15  H   UNL     1      22.825 -26.795  24.796  1.00  0.00     0.167 HD
ENDBRANCH   1  10
TORSDOF 4
ENDMDL
