MODEL 1
REMARK VINA RESULT:     0.877      0.000      0.000
REMARK INTER + INTRA:           3.340
REMARK INTER:                   0.929
REMARK INTRA:                   2.412
REMARK UNBOUND:                 2.412
REMARK SMILES CC(C)[C@H]1CC[C@@H](C)[C@H]2C=C[C@@H](C)C[C@H]21
REMARK SMILES IDX 8 1 7 2 6 3 5 4 4 5 15 6 9 7 10 8 11 9 12 10 14 11 13 12
REMARK SMILES IDX 2 13 1 14 3 15
REMARK H PARENT
REMARK Flexibility Score: inf
ROOT
ATOM      1  C   UNL     1       2.993   8.405  14.412  1.00  0.00     0.008 C 
ATOM      2  C   UNL     1       3.711   7.677  13.266  1.00  0.00    -0.007 C 
ATOM      3  C   UNL     1       3.496   6.158  13.350  1.00  0.00     0.004 C 
ATOM      4  C   UNL     1       4.161   5.427  12.171  1.00  0.00     0.004 C 
ATOM      5  C   UNL     1       5.663   5.765  11.987  1.00  0.00    -0.005 C 
ATOM      6  C   UNL     1       5.892   7.318  11.987  1.00  0.00    -0.000 C 
ATOM      7  C   UNL     1       5.214   8.051  13.169  1.00  0.00     0.018 C 
ATOM      8  C   UNL     1       6.016   7.818  14.426  1.00  0.00    -0.027 C 
ATOM      9  C   UNL     1       7.351   7.910  14.375  1.00  0.00    -0.028 C 
ATOM     10  C   UNL     1       8.038   8.346  13.097  1.00  0.00     0.008 C 
ATOM     11  C   UNL     1       7.384   7.743  11.817  1.00  0.00     0.012 C 
ATOM     12  C   UNL     1       9.536   8.035  13.152  1.00  0.00     0.012 C 
ENDROOT
BRANCH   5  13
ATOM     13  C   UNL     1       6.662   4.878  12.840  1.00  0.00    -0.014 C 
ATOM     14  C   UNL     1       8.134   4.878  12.392  1.00  0.00     0.007 C 
ATOM     15  C   UNL     1       6.604   5.283  14.324  1.00  0.00     0.007 C 
ENDBRANCH   5  13
TORSDOF 1
ENDMDL
