MODEL 1
REMARK VINA RESULT:    -5.742      0.000      0.000
REMARK INTER + INTRA:          -8.716
REMARK INTER:                  -7.757
REMARK INTRA:                  -0.959
REMARK UNBOUND:                -0.959
REMARK SMILES CC(=O)CCC=C(C)CCC=C(C)C
REMARK SMILES IDX 7 1 6 2 8 3 9 4 10 5 11 6 13 7 12 8 14 9 5 10 4 11 2 12 3 13
REMARK SMILES IDX 1 14
REMARK H PARENT
REMARK Flexibility Score: inf
ROOT
ATOM      1  C   UNL     1      72.087  62.068  27.474  1.00  0.00    -0.077 C 
ATOM      2  C   UNL     1      72.343  62.221  26.153  1.00  0.00    -0.028 C 
ATOM      3  C   UNL     1      73.130  61.384  28.322  1.00  0.00     0.039 C 
ENDROOT
BRANCH   1   4
ATOM      4  C   UNL     1      70.812  62.553  28.138  1.00  0.00     0.034 C 
BRANCH   4   5
ATOM      5  C   UNL     1      70.027  61.387  28.751  1.00  0.00     0.032 C 
BRANCH   5   6
ATOM      6  C   UNL     1      68.663  61.272  28.118  1.00  0.00    -0.028 C 
ATOM      7  C   UNL     1      66.977  60.514  26.498  1.00  0.00     0.039 C 
ATOM      8  C   UNL     1      68.400  60.573  26.991  1.00  0.00    -0.080 C 
ATOM      9  C   UNL     1      69.488  59.871  26.212  1.00  0.00     0.039 C 
ENDBRANCH   5   6
ENDBRANCH   4   5
ENDBRANCH   1   4
BRANCH   2  10
ATOM     10  C   UNL     1      71.419  62.857  25.142  1.00  0.00     0.035 C 
BRANCH  10  11
ATOM     11  C   UNL     1      71.428  62.050  23.840  1.00  0.00     0.079 C 
BRANCH  11  12
ATOM     12  C   UNL     1      71.680  62.948  22.657  1.00  0.00     0.130 C 
ATOM     13  O   UNL     1      72.049  64.098  22.843  1.00  0.00    -0.300 OA
ATOM     14  C   UNL     1      71.475  62.466  21.252  1.00  0.00     0.087 C 
ENDBRANCH  11  12
ENDBRANCH  10  11
ENDBRANCH   2  10
TORSDOF 6
ENDMDL
MODEL 2
REMARK VINA RESULT:    -5.636      1.478      2.402
REMARK INTER + INTRA:          -8.572
REMARK INTER:                  -7.947
REMARK INTRA:                  -0.625
REMARK UNBOUND:                -0.959
REMARK SMILES CC(=O)CCC=C(C)CCC=C(C)C
REMARK SMILES IDX 7 1 6 2 8 3 9 4 10 5 11 6 13 7 12 8 14 9 5 10 4 11 2 12 3 13
REMARK SMILES IDX 1 14
REMARK H PARENT
REMARK Flexibility Score: inf
ROOT
ATOM      1  C   UNL     1      71.552  62.332  25.248  1.00  0.00    -0.077 C 
ATOM      2  C   UNL     1      71.745  63.221  24.246  1.00  0.00    -0.028 C 
ATOM      3  C   UNL     1      71.885  62.767  26.654  1.00  0.00     0.039 C 
ENDROOT
BRANCH   1   4
ATOM      4  C   UNL     1      71.017  60.929  25.028  1.00  0.00     0.034 C 
BRANCH   4   5
ATOM      5  C   UNL     1      70.448  60.341  26.325  1.00  0.00     0.032 C 
BRANCH   5   6
ATOM      6  C   UNL     1      68.987  60.006  26.162  1.00  0.00    -0.028 C 
ATOM      7  C   UNL     1      66.568  60.187  26.550  1.00  0.00     0.039 C 
ATOM      8  C   UNL     1      67.986  60.598  26.851  1.00  0.00    -0.080 C 
ATOM      9  C   UNL     1      68.251  61.638  27.913  1.00  0.00     0.039 C 
ENDBRANCH   5   6
ENDBRANCH   4   5
ENDBRANCH   1   4
BRANCH   2  10
ATOM     10  C   UNL     1      71.492  62.967  22.779  1.00  0.00     0.035 C 
BRANCH  10  11
ATOM     11  C   UNL     1      72.118  64.081  21.936  1.00  0.00     0.079 C 
BRANCH  11  12
ATOM     12  C   UNL     1      72.545  63.557  20.589  1.00  0.00     0.130 C 
ATOM     13  O   UNL     1      73.412  64.147  19.961  1.00  0.00    -0.300 OA
ATOM     14  C   UNL     1      71.918  62.332  19.993  1.00  0.00     0.087 C 
ENDBRANCH  11  12
ENDBRANCH  10  11
ENDBRANCH   2  10
TORSDOF 6
ENDMDL
MODEL 3
REMARK VINA RESULT:    -5.464      1.868      5.280
REMARK INTER + INTRA:          -8.340
REMARK INTER:                  -7.758
REMARK INTRA:                  -0.582
REMARK UNBOUND:                -0.959
REMARK SMILES CC(=O)CCC=C(C)CCC=C(C)C
REMARK SMILES IDX 7 1 6 2 8 3 9 4 10 5 11 6 13 7 12 8 14 9 5 10 4 11 2 12 3 13
REMARK SMILES IDX 1 14
REMARK H PARENT
REMARK Flexibility Score: inf
ROOT
ATOM      1  C   UNL     1      71.268  62.898  27.157  1.00  0.00    -0.077 C 
ATOM      2  C   UNL     1      70.835  62.181  28.221  1.00  0.00    -0.028 C 
ATOM      3  C   UNL     1      71.310  64.400  27.286  1.00  0.00     0.039 C 
ENDROOT
BRANCH   1   4
ATOM      4  C   UNL     1      71.714  62.266  25.852  1.00  0.00     0.034 C 
BRANCH   4   5
ATOM      5  C   UNL     1      71.774  63.303  24.724  1.00  0.00     0.032 C 
BRANCH   5   6
ATOM      6  C   UNL     1      71.526  62.652  23.387  1.00  0.00    -0.028 C 
ATOM      7  C   UNL     1      71.554  62.426  20.940  1.00  0.00     0.039 C 
ATOM      8  C   UNL     1      71.820  63.217  22.195  1.00  0.00    -0.080 C 
ATOM      9  C   UNL     1      72.388  64.613  22.090  1.00  0.00     0.039 C 
ENDBRANCH   5   6
ENDBRANCH   4   5
ENDBRANCH   1   4
BRANCH   2  10
ATOM     10  C   UNL     1      70.702  60.678  28.279  1.00  0.00     0.035 C 
BRANCH  10  11
ATOM     11  C   UNL     1      69.223  60.281  28.300  1.00  0.00     0.079 C 
BRANCH  11  12
ATOM     12  C   UNL     1      68.664  60.231  26.902  1.00  0.00     0.130 C 
ATOM     13  O   UNL     1      69.386  59.888  25.978  1.00  0.00    -0.300 OA
ATOM     14  C   UNL     1      67.241  60.607  26.615  1.00  0.00     0.087 C 
ENDBRANCH  11  12
ENDBRANCH  10  11
ENDBRANCH   2  10
TORSDOF 6
ENDMDL
MODEL 4
REMARK VINA RESULT:    -5.322      2.116      4.800
REMARK INTER + INTRA:          -8.149
REMARK INTER:                  -7.620
REMARK INTRA:                  -0.529
REMARK UNBOUND:                -0.959
REMARK SMILES CC(=O)CCC=C(C)CCC=C(C)C
REMARK SMILES IDX 7 1 6 2 8 3 9 4 10 5 11 6 13 7 12 8 14 9 5 10 4 11 2 12 3 13
REMARK SMILES IDX 1 14
REMARK H PARENT
REMARK Flexibility Score: inf
ROOT
ATOM      1  C   UNL     1      72.279  61.741  28.082  1.00  0.00    -0.077 C 
ATOM      2  C   UNL     1      71.243  61.429  28.896  1.00  0.00    -0.028 C 
ATOM      3  C   UNL     1      73.615  61.099  28.360  1.00  0.00     0.039 C 
ENDROOT
BRANCH   1   4
ATOM      4  C   UNL     1      72.160  62.697  26.909  1.00  0.00     0.034 C 
BRANCH   4   5
ATOM      5  C   UNL     1      71.558  62.000  25.683  1.00  0.00     0.032 C 
BRANCH   5   6
ATOM      6  C   UNL     1      71.626  62.897  24.473  1.00  0.00    -0.028 C 
ATOM      7  C   UNL     1      71.650  63.479  22.086  1.00  0.00     0.039 C 
ATOM      8  C   UNL     1      71.620  62.459  23.195  1.00  0.00    -0.080 C 
ATOM      9  C   UNL     1      71.600  60.988  22.854  1.00  0.00     0.039 C 
ENDBRANCH   5   6
ENDBRANCH   4   5
ENDBRANCH   1   4
BRANCH   2  10
ATOM     10  C   UNL     1      69.841  61.982  28.794  1.00  0.00     0.035 C 
BRANCH  10  11
ATOM     11  C   UNL     1      68.825  60.837  28.750  1.00  0.00     0.079 C 
BRANCH  11  12
ATOM     12  C   UNL     1      68.253  60.684  27.365  1.00  0.00     0.130 C 
ATOM     13  O   UNL     1      67.110  61.056  27.142  1.00  0.00    -0.300 OA
ATOM     14  C   UNL     1      69.050  60.070  26.253  1.00  0.00     0.087 C 
ENDBRANCH  11  12
ENDBRANCH  10  11
ENDBRANCH   2  10
TORSDOF 6
ENDMDL
MODEL 5
REMARK VINA RESULT:    -5.236      1.314      2.659
REMARK INTER + INTRA:          -8.032
REMARK INTER:                  -7.360
REMARK INTRA:                  -0.672
REMARK UNBOUND:                -0.959
REMARK SMILES CC(=O)CCC=C(C)CCC=C(C)C
REMARK SMILES IDX 7 1 6 2 8 3 9 4 10 5 11 6 13 7 12 8 14 9 5 10 4 11 2 12 3 13
REMARK SMILES IDX 1 14
REMARK H PARENT
REMARK Flexibility Score: inf
ROOT
ATOM      1  C   UNL     1      71.061  61.365  25.387  1.00  0.00    -0.077 C 
ATOM      2  C   UNL     1      71.083  61.808  24.107  1.00  0.00    -0.028 C 
ATOM      3  C   UNL     1      70.285  60.107  25.687  1.00  0.00     0.039 C 
ENDROOT
BRANCH   1   4
ATOM      4  C   UNL     1      71.778  62.068  26.524  1.00  0.00     0.034 C 
BRANCH   4   5
ATOM      5  C   UNL     1      70.806  62.913  27.356  1.00  0.00     0.032 C 
BRANCH   5   6
ATOM      6  C   UNL     1      70.606  62.306  28.722  1.00  0.00    -0.028 C 
ATOM      7  C   UNL     1      69.444  61.076  30.504  1.00  0.00     0.039 C 
ATOM      8  C   UNL     1      69.482  61.670  29.119  1.00  0.00    -0.080 C 
ATOM      9  C   UNL     1      68.270  61.553  28.226  1.00  0.00     0.039 C 
ENDBRANCH   5   6
ENDBRANCH   4   5
ENDBRANCH   1   4
BRANCH   2  10
ATOM     10  C   UNL     1      71.782  63.052  23.614  1.00  0.00     0.035 C 
BRANCH  10  11
ATOM     11  C   UNL     1      71.449  63.295  22.140  1.00  0.00     0.079 C 
BRANCH  11  12
ATOM     12  C   UNL     1      72.411  64.282  21.530  1.00  0.00     0.130 C 
ATOM     13  O   UNL     1      72.753  65.263  22.173  1.00  0.00    -0.300 OA
ATOM     14  C   UNL     1      72.949  64.095  20.143  1.00  0.00     0.087 C 
ENDBRANCH  11  12
ENDBRANCH  10  11
ENDBRANCH   2  10
TORSDOF 6
ENDMDL
MODEL 6
REMARK VINA RESULT:    -4.956      2.645      5.942
REMARK INTER + INTRA:          -7.653
REMARK INTER:                  -7.257
REMARK INTRA:                  -0.396
REMARK UNBOUND:                -0.959
REMARK SMILES CC(=O)CCC=C(C)CCC=C(C)C
REMARK SMILES IDX 7 1 6 2 8 3 9 4 10 5 11 6 13 7 12 8 14 9 5 10 4 11 2 12 3 13
REMARK SMILES IDX 1 14
REMARK H PARENT
REMARK Flexibility Score: inf
ROOT
ATOM      1  C   UNL     1      70.828  60.637  26.051  1.00  0.00    -0.077 C 
ATOM      2  C   UNL     1      71.034  60.313  27.349  1.00  0.00    -0.028 C 
ATOM      3  C   UNL     1      70.195  59.601  25.156  1.00  0.00     0.039 C 
ENDROOT
BRANCH   1   4
ATOM      4  C   UNL     1      71.196  61.984  25.458  1.00  0.00     0.034 C 
BRANCH   4   5
ATOM      5  C   UNL     1      71.313  61.906  23.931  1.00  0.00     0.032 C 
BRANCH   5   6
ATOM      6  C   UNL     1      71.796  63.218  23.366  1.00  0.00    -0.028 C 
ATOM      7  C   UNL     1      72.365  64.861  21.630  1.00  0.00     0.039 C 
ATOM      8  C   UNL     1      71.906  63.487  22.046  1.00  0.00    -0.080 C 
ATOM      9  C   UNL     1      71.600  62.452  20.990  1.00  0.00     0.039 C 
ENDBRANCH   5   6
ENDBRANCH   4   5
ENDBRANCH   1   4
BRANCH   2  10
ATOM     10  C   UNL     1      71.671  61.202  28.391  1.00  0.00     0.035 C 
BRANCH  10  11
ATOM     11  C   UNL     1      70.670  62.261  28.862  1.00  0.00     0.079 C 
BRANCH  11  12
ATOM     12  C   UNL     1      69.461  61.614  29.486  1.00  0.00     0.130 C 
ATOM     13  O   UNL     1      69.532  61.183  30.628  1.00  0.00    -0.300 OA
ATOM     14  C   UNL     1      68.173  61.474  28.732  1.00  0.00     0.087 C 
ENDBRANCH  11  12
ENDBRANCH  10  11
ENDBRANCH   2  10
TORSDOF 6
ENDMDL
MODEL 7
REMARK VINA RESULT:    -4.922      2.601      4.861
REMARK INTER + INTRA:          -7.608
REMARK INTER:                  -6.332
REMARK INTRA:                  -1.276
REMARK UNBOUND:                -0.959
REMARK SMILES CC(=O)CCC=C(C)CCC=C(C)C
REMARK SMILES IDX 7 1 6 2 8 3 9 4 10 5 11 6 13 7 12 8 14 9 5 10 4 11 2 12 3 13
REMARK SMILES IDX 1 14
REMARK H PARENT
REMARK Flexibility Score: inf
ROOT
ATOM      1  C   UNL     1      69.502  61.291  29.813  1.00  0.00    -0.077 C 
ATOM      2  C   UNL     1      68.478  61.899  29.169  1.00  0.00    -0.028 C 
ATOM      3  C   UNL     1      69.541  61.375  31.319  1.00  0.00     0.039 C 
ENDROOT
BRANCH   1   4
ATOM      4  C   UNL     1      70.603  60.530  29.098  1.00  0.00     0.034 C 
BRANCH   4   5
ATOM      5  C   UNL     1      71.751  61.463  28.694  1.00  0.00     0.032 C 
BRANCH   5   6
ATOM      6  C   UNL     1      71.820  61.604  27.194  1.00  0.00    -0.028 C 
ATOM      7  C   UNL     1      71.748  62.754  25.024  1.00  0.00     0.039 C 
ATOM      8  C   UNL     1      71.602  62.757  26.523  1.00  0.00    -0.080 C 
ATOM      9  C   UNL     1      71.206  64.032  27.231  1.00  0.00     0.039 C 
ENDBRANCH   5   6
ENDBRANCH   4   5
ENDBRANCH   1   4
BRANCH   2  10
ATOM     10  C   UNL     1      68.278  61.945  27.673  1.00  0.00     0.035 C 
BRANCH  10  11
ATOM     11  C   UNL     1      67.088  61.068  27.273  1.00  0.00     0.079 C 
BRANCH  11  12
ATOM     12  C   UNL     1      67.528  59.959  26.353  1.00  0.00     0.130 C 
ATOM     13  O   UNL     1      66.697  59.176  25.916  1.00  0.00    -0.300 OA
ATOM     14  C   UNL     1      68.967  59.785  25.969  1.00  0.00     0.087 C 
ENDBRANCH  11  12
ENDBRANCH  10  11
ENDBRANCH   2  10
TORSDOF 6
ENDMDL
MODEL 8
REMARK VINA RESULT:    -4.757      1.331      3.281
REMARK INTER + INTRA:          -7.385
REMARK INTER:                  -6.574
REMARK INTRA:                  -0.811
REMARK UNBOUND:                -0.959
REMARK SMILES CC(=O)CCC=C(C)CCC=C(C)C
REMARK SMILES IDX 7 1 6 2 8 3 9 4 10 5 11 6 13 7 12 8 14 9 5 10 4 11 2 12 3 13
REMARK SMILES IDX 1 14
REMARK H PARENT
REMARK Flexibility Score: inf
ROOT
ATOM      1  C   UNL     1      69.160  60.269  26.739  1.00  0.00    -0.077 C 
ATOM      2  C   UNL     1      69.569  60.606  25.493  1.00  0.00    -0.028 C 
ATOM      3  C   UNL     1      67.679  60.279  27.024  1.00  0.00     0.039 C 
ENDROOT
BRANCH   1   4
ATOM      4  C   UNL     1      70.113  59.881  27.854  1.00  0.00     0.034 C 
BRANCH   4   5
ATOM      5  C   UNL     1      70.091  60.913  28.988  1.00  0.00     0.032 C 
BRANCH   5   6
ATOM      6  C   UNL     1      70.186  62.313  28.437  1.00  0.00    -0.028 C 
ATOM      7  C   UNL     1      71.249  64.264  27.386  1.00  0.00     0.039 C 
ATOM      8  C   UNL     1      71.316  62.865  27.943  1.00  0.00    -0.080 C 
ATOM      9  C   UNL     1      72.635  62.128  27.948  1.00  0.00     0.039 C 
ENDBRANCH   5   6
ENDBRANCH   4   5
ENDBRANCH   1   4
BRANCH   2  10
ATOM     10  C   UNL     1      71.002  60.675  25.022  1.00  0.00     0.035 C 
BRANCH  10  11
ATOM     11  C   UNL     1      71.343  62.102  24.582  1.00  0.00     0.079 C 
BRANCH  11  12
ATOM     12  C   UNL     1      71.604  62.155  23.099  1.00  0.00     0.130 C 
ATOM     13  O   UNL     1      71.757  61.113  22.478  1.00  0.00    -0.300 OA
ATOM     14  C   UNL     1      71.693  63.460  22.367  1.00  0.00     0.087 C 
ENDBRANCH  11  12
ENDBRANCH  10  11
ENDBRANCH   2  10
TORSDOF 6
ENDMDL
MODEL 9
REMARK VINA RESULT:    -4.751      2.174      5.030
REMARK INTER + INTRA:          -7.377
REMARK INTER:                  -6.560
REMARK INTRA:                  -0.817
REMARK UNBOUND:                -0.959
REMARK SMILES CC(=O)CCC=C(C)CCC=C(C)C
REMARK SMILES IDX 7 1 6 2 8 3 9 4 10 5 11 6 13 7 12 8 14 9 5 10 4 11 2 12 3 13
REMARK SMILES IDX 1 14
REMARK H PARENT
REMARK Flexibility Score: inf
ROOT
ATOM      1  C   UNL     1      68.492  60.494  27.302  1.00  0.00    -0.077 C 
ATOM      2  C   UNL     1      68.622  61.289  28.390  1.00  0.00    -0.028 C 
ATOM      3  C   UNL     1      67.232  60.619  26.481  1.00  0.00     0.039 C 
ENDROOT
BRANCH   1   4
ATOM      4  C   UNL     1      69.547  59.494  26.868  1.00  0.00     0.034 C 
BRANCH   4   5
ATOM      5  C   UNL     1      70.050  59.796  25.451  1.00  0.00     0.032 C 
BRANCH   5   6
ATOM      6  C   UNL     1      70.601  61.197  25.369  1.00  0.00    -0.028 C 
ATOM      7  C   UNL     1      71.745  63.122  24.358  1.00  0.00     0.039 C 
ATOM      8  C   UNL     1      71.292  61.686  24.315  1.00  0.00    -0.080 C 
ATOM      9  C   UNL     1      71.631  60.833  23.116  1.00  0.00     0.039 C 
ENDBRANCH   5   6
ENDBRANCH   4   5
ENDBRANCH   1   4
BRANCH   2  10
ATOM     10  C   UNL     1      69.792  61.296  29.344  1.00  0.00     0.035 C 
BRANCH  10  11
ATOM     11  C   UNL     1      70.906  62.198  28.804  1.00  0.00     0.079 C 
BRANCH  11  12
ATOM     12  C   UNL     1      72.100  61.379  28.387  1.00  0.00     0.130 C 
ATOM     13  O   UNL     1      72.115  60.179  28.613  1.00  0.00    -0.300 OA
ATOM     14  C   UNL     1      73.281  62.009  27.710  1.00  0.00     0.087 C 
ENDBRANCH  11  12
ENDBRANCH  10  11
ENDBRANCH   2  10
TORSDOF 6
ENDMDL
