MODEL 1
REMARK VINA RESULT:     6.208      0.000      0.000
REMARK INTER + INTRA:           9.255
REMARK INTER:                   9.475
REMARK INTRA:                  -0.220
REMARK UNBOUND:                -0.220
REMARK SMILES O=C([O-])CCCCCCCCC(=O)[O-]
REMARK SMILES IDX 7 1 6 2 5 3 4 4 2 5 1 6 3 7 8 8 9 9 10 10 11 11 12 12 13 13
REMARK SMILES IDX 14 14
REMARK H PARENT
REMARK Flexibility Score: inf
ROOT
ATOM      1  C   UNL     1      12.423  11.951  17.702  1.00  0.00     0.000 C 
ENDROOT
BRANCH   1   2
ATOM      2  C   UNL     1      13.860  11.957  17.151  1.00  0.00     0.000 C 
BRANCH   2   3
ATOM      3  C   UNL     1      14.290  13.341  16.639  1.00  0.00     0.006 C 
BRANCH   3   4
ATOM      4  C   UNL     1      14.615  14.316  17.777  1.00  0.00     0.053 C 
BRANCH   4   5
ATOM      5  C   UNL     1      14.271  15.717  17.380  1.00  0.00     0.041 C 
ATOM      6  O   UNL     1      13.424  15.927  16.472  1.00  0.00    -0.550 OA
ATOM      7  O   UNL     1      14.847  16.790  18.046  1.00  0.00    -0.550 OA
ENDBRANCH   4   5
ENDBRANCH   3   4
ENDBRANCH   2   3
ENDBRANCH   1   2
BRANCH   1   8
ATOM      8  C   UNL     1      11.407  12.546  16.714  1.00  0.00     0.000 C 
BRANCH   8   9
ATOM      9  C   UNL     1      10.082  11.762  16.688  1.00  0.00     0.000 C 
BRANCH   9  10
ATOM     10  C   UNL     1       8.855  12.674  16.843  1.00  0.00     0.006 C 
BRANCH  10  11
ATOM     11  C   UNL     1       7.931  12.638  15.617  1.00  0.00     0.053 C 
BRANCH  11  12
ATOM     12  C   UNL     1       8.688  12.190  14.407  1.00  0.00     0.041 C 
ATOM     13  O   UNL     1       8.566  11.009  13.984  1.00  0.00    -0.550 OA
ATOM     14  O   UNL     1       9.492  13.088  13.717  1.00  0.00    -0.550 OA
ENDBRANCH  11  12
ENDBRANCH  10  11
ENDBRANCH   9  10
ENDBRANCH   8   9
ENDBRANCH   1   8
TORSDOF 9
ENDMDL
MODEL 2
REMARK VINA RESULT:     6.239      0.086      6.232
REMARK INTER + INTRA:           9.302
REMARK INTER:                   9.464
REMARK INTRA:                  -0.162
REMARK UNBOUND:                -0.220
REMARK SMILES O=C([O-])CCCCCCCCC(=O)[O-]
REMARK SMILES IDX 7 1 6 2 5 3 4 4 2 5 1 6 3 7 8 8 9 9 10 10 11 11 12 12 13 13
REMARK SMILES IDX 14 14
REMARK H PARENT
REMARK Flexibility Score: inf
ROOT
ATOM      1  C   UNL     1      11.430  12.528  16.731  1.00  0.00     0.000 C 
ENDROOT
BRANCH   1   2
ATOM      2  C   UNL     1      10.101  11.754  16.678  1.00  0.00     0.000 C 
BRANCH   2   3
ATOM      3  C   UNL     1       8.878  12.668  16.864  1.00  0.00     0.006 C 
BRANCH   3   4
ATOM      4  C   UNL     1       7.942  12.654  15.649  1.00  0.00     0.053 C 
BRANCH   4   5
ATOM      5  C   UNL     1       8.688  12.243  14.419  1.00  0.00     0.041 C 
ATOM      6  O   UNL     1       9.445  13.063  13.835  1.00  0.00    -0.550 OA
ATOM      7  O   UNL     1       8.587  10.942  13.946  1.00  0.00    -0.550 OA
ENDBRANCH   4   5
ENDBRANCH   3   4
ENDBRANCH   2   3
ENDBRANCH   1   2
BRANCH   1   8
ATOM      8  C   UNL     1      12.461  11.873  17.663  1.00  0.00     0.000 C 
BRANCH   8   9
ATOM      9  C   UNL     1      13.902  12.017  17.142  1.00  0.00     0.000 C 
BRANCH   9  10
ATOM     10  C   UNL     1      14.204  13.434  16.627  1.00  0.00     0.006 C 
BRANCH  10  11
ATOM     11  C   UNL     1      14.659  14.385  17.742  1.00  0.00     0.053 C 
BRANCH  11  12
ATOM     12  C   UNL     1      14.284  15.794  17.410  1.00  0.00     0.041 C 
ATOM     13  O   UNL     1      14.820  16.754  18.025  1.00  0.00    -0.550 OA
ATOM     14  O   UNL     1      13.378  16.051  16.389  1.00  0.00    -0.550 OA
ENDBRANCH  11  12
ENDBRANCH  10  11
ENDBRANCH   9  10
ENDBRANCH   8   9
ENDBRANCH   1   8
TORSDOF 9
ENDMDL
MODEL 3
REMARK VINA RESULT:     6.544      1.784      1.988
REMARK INTER + INTRA:           9.767
REMARK INTER:                   9.879
REMARK INTRA:                  -0.112
REMARK UNBOUND:                -0.220
REMARK SMILES O=C([O-])CCCCCCCCC(=O)[O-]
REMARK SMILES IDX 7 1 6 2 5 3 4 4 2 5 1 6 3 7 8 8 9 9 10 10 11 11 12 12 13 13
REMARK SMILES IDX 14 14
REMARK H PARENT
REMARK Flexibility Score: inf
ROOT
ATOM      1  C   UNL     1      12.179  11.743  17.483  1.00  0.00     0.000 C 
ENDROOT
BRANCH   1   2
ATOM      2  C   UNL     1      13.691  12.032  17.454  1.00  0.00     0.000 C 
BRANCH   2   3
ATOM      3  C   UNL     1      14.024  13.367  16.768  1.00  0.00     0.006 C 
BRANCH   3   4
ATOM      4  C   UNL     1      14.734  14.350  17.707  1.00  0.00     0.053 C 
BRANCH   4   5
ATOM      5  C   UNL     1      14.326  15.756  17.397  1.00  0.00     0.041 C 
ATOM      6  O   UNL     1      13.529  15.990  16.450  1.00  0.00    -0.550 OA
ATOM      7  O   UNL     1      14.787  16.804  18.184  1.00  0.00    -0.550 OA
ENDBRANCH   4   5
ENDBRANCH   3   4
ENDBRANCH   2   3
ENDBRANCH   1   2
BRANCH   1   8
ATOM      8  C   UNL     1      11.406  12.522  16.407  1.00  0.00     0.000 C 
BRANCH   8   9
ATOM      9  C   UNL     1      10.194  11.740  15.869  1.00  0.00     0.000 C 
BRANCH   9  10
ATOM     10  C   UNL     1       9.168  12.649  15.173  1.00  0.00     0.006 C 
BRANCH  10  11
ATOM     11  C   UNL     1       7.876  12.813  15.985  1.00  0.00     0.053 C 
BRANCH  11  12
ATOM     12  C   UNL     1       8.161  13.495  17.286  1.00  0.00     0.041 C 
ATOM     13  O   UNL     1       8.629  12.840  18.255  1.00  0.00    -0.550 OA
ATOM     14  O   UNL     1       7.956  14.863  17.414  1.00  0.00    -0.550 OA
ENDBRANCH  11  12
ENDBRANCH  10  11
ENDBRANCH   9  10
ENDBRANCH   8   9
ENDBRANCH   1   8
TORSDOF 9
ENDMDL
