MODEL 1
REMARK VINA RESULT:    -4.200      0.000      0.000
REMARK INTER + INTRA:          -4.722
REMARK INTER:                  -4.691
REMARK INTRA:                  -0.031
REMARK UNBOUND:                -0.031
REMARK SMILES CCCC(=O)[O-]
REMARK SMILES IDX 3 1 4 2 5 3 6 4 2 5 1 6
REMARK H PARENT
REMARK Flexibility Score: inf
ROOT
ATOM      1  C   UNL     1      -8.579  -8.359  -1.273  1.00  0.00     0.052 C 
ENDROOT
BRANCH   1   2
ATOM      2  C   UNL     1      -7.359  -8.377  -2.142  1.00  0.00     0.041 C 
ATOM      3  O   UNL     1      -7.421  -7.970  -3.332  1.00  0.00    -0.550 OA
ATOM      4  O   UNL     1      -6.145  -8.812  -1.627  1.00  0.00    -0.550 OA
ENDBRANCH   1   2
BRANCH   1   5
ATOM      5  C   UNL     1      -9.826  -7.929  -2.055  1.00  0.00     0.003 C 
ATOM      6  C   UNL     1     -10.907  -9.009  -2.067  1.00  0.00     0.004 C 
ENDBRANCH   1   5
TORSDOF 2
ENDMDL
MODEL 2
REMARK VINA RESULT:    -3.428      2.369      3.375
REMARK INTER + INTRA:          -3.859
REMARK INTER:                  -3.854
REMARK INTRA:                  -0.005
REMARK UNBOUND:                -0.031
REMARK SMILES CCCC(=O)[O-]
REMARK SMILES IDX 3 1 4 2 5 3 6 4 2 5 1 6
REMARK H PARENT
REMARK Flexibility Score: inf
ROOT
ATOM      1  C   UNL     1      -8.937  -8.313  -1.120  1.00  0.00     0.052 C 
ENDROOT
BRANCH   1   2
ATOM      2  C   UNL     1     -10.140  -8.108  -1.989  1.00  0.00     0.041 C 
ATOM      3  O   UNL     1     -10.341  -6.994  -2.541  1.00  0.00    -0.550 OA
ATOM      4  O   UNL     1     -11.021  -9.157  -2.215  1.00  0.00    -0.550 OA
ENDBRANCH   1   2
BRANCH   1   5
ATOM      5  C   UNL     1      -7.651  -8.429  -1.950  1.00  0.00     0.003 C 
ATOM      6  C   UNL     1      -6.434  -8.773  -1.092  1.00  0.00     0.004 C 
ENDBRANCH   1   5
TORSDOF 2
ENDMDL
MODEL 3
REMARK VINA RESULT:    -3.311     20.920     21.688
REMARK INTER + INTRA:          -3.729
REMARK INTER:                  -3.720
REMARK INTRA:                  -0.008
REMARK UNBOUND:                -0.031
REMARK SMILES CCCC(=O)[O-]
REMARK SMILES IDX 3 1 4 2 5 3 6 4 2 5 1 6
REMARK H PARENT
REMARK Flexibility Score: inf
ROOT
ATOM      1  C   UNL     1       4.543   8.103  -9.264  1.00  0.00     0.052 C 
ENDROOT
BRANCH   1   2
ATOM      2  C   UNL     1       4.219   7.436  -7.963  1.00  0.00     0.041 C 
ATOM      3  O   UNL     1       4.624   6.267  -7.731  1.00  0.00    -0.550 OA
ATOM      4  O   UNL     1       3.497   8.119  -6.992  1.00  0.00    -0.550 OA
ENDBRANCH   1   2
BRANCH   1   5
ATOM      5  C   UNL     1       4.625   7.092 -10.415  1.00  0.00     0.003 C 
ATOM      6  C   UNL     1       4.623   7.769 -11.785  1.00  0.00     0.004 C 
ENDBRANCH   1   5
TORSDOF 2
ENDMDL
MODEL 4
REMARK VINA RESULT:    -3.102     18.126     18.422
REMARK INTER + INTRA:          -3.496
REMARK INTER:                  -3.482
REMARK INTRA:                  -0.014
REMARK UNBOUND:                -0.031
REMARK SMILES CCCC(=O)[O-]
REMARK SMILES IDX 3 1 4 2 5 3 6 4 2 5 1 6
REMARK H PARENT
REMARK Flexibility Score: inf
ROOT
ATOM      1  C   UNL     1       6.509  -4.062 -13.147  1.00  0.00     0.052 C 
ENDROOT
BRANCH   1   2
ATOM      2  C   UNL     1       6.125  -3.436 -11.841  1.00  0.00     0.041 C 
ATOM      3  O   UNL     1       6.498  -3.954 -10.755  1.00  0.00    -0.550 OA
ATOM      4  O   UNL     1       5.385  -2.261 -11.825  1.00  0.00    -0.550 OA
ENDBRANCH   1   2
BRANCH   1   5
ATOM      5  C   UNL     1       5.323  -4.783 -13.800  1.00  0.00     0.003 C 
ATOM      6  C   UNL     1       5.637  -6.243 -14.125  1.00  0.00     0.004 C 
ENDBRANCH   1   5
TORSDOF 2
ENDMDL
MODEL 5
REMARK VINA RESULT:    -3.073     21.574     22.398
REMARK INTER + INTRA:          -3.463
REMARK INTER:                  -3.454
REMARK INTRA:                  -0.009
REMARK UNBOUND:                -0.031
REMARK SMILES CCCC(=O)[O-]
REMARK SMILES IDX 3 1 4 2 5 3 6 4 2 5 1 6
REMARK H PARENT
REMARK Flexibility Score: inf
ROOT
ATOM      1  C   UNL     1       4.543   8.106 -10.830  1.00  0.00     0.052 C 
ENDROOT
BRANCH   1   2
ATOM      2  C   UNL     1       4.511   7.409 -12.155  1.00  0.00     0.041 C 
ATOM      3  O   UNL     1       5.029   7.948 -13.169  1.00  0.00    -0.550 OA
ATOM      4  O   UNL     1       3.940   6.148 -12.264  1.00  0.00    -0.550 OA
ENDBRANCH   1   2
BRANCH   1   5
ATOM      5  C   UNL     1       4.526   7.109  -9.664  1.00  0.00     0.003 C 
ATOM      6  C   UNL     1       4.259   7.789  -8.321  1.00  0.00     0.004 C 
ENDBRANCH   1   5
TORSDOF 2
ENDMDL
MODEL 6
REMARK VINA RESULT:    -3.058     17.784     18.340
REMARK INTER + INTRA:          -3.446
REMARK INTER:                  -3.441
REMARK INTRA:                  -0.005
REMARK UNBOUND:                -0.031
REMARK SMILES CCCC(=O)[O-]
REMARK SMILES IDX 3 1 4 2 5 3 6 4 2 5 1 6
REMARK H PARENT
REMARK Flexibility Score: inf
ROOT
ATOM      1  C   UNL     1       5.934  -2.780 -12.939  1.00  0.00     0.052 C 
ENDROOT
BRANCH   1   2
ATOM      2  C   UNL     1       6.473  -3.932 -12.148  1.00  0.00     0.041 C 
ATOM      3  O   UNL     1       6.914  -4.955 -12.736  1.00  0.00    -0.550 OA
ATOM      4  O   UNL     1       6.518  -3.863 -10.762  1.00  0.00    -0.550 OA
ENDBRANCH   1   2
BRANCH   1   5
ATOM      5  C   UNL     1       4.401  -2.776 -12.963  1.00  0.00     0.003 C 
ATOM      6  C   UNL     1       3.835  -1.656 -13.836  1.00  0.00     0.004 C 
ENDBRANCH   1   5
TORSDOF 2
ENDMDL
MODEL 7
REMARK VINA RESULT:    -3.001     17.120     17.881
REMARK INTER + INTRA:          -3.383
REMARK INTER:                  -3.378
REMARK INTRA:                  -0.005
REMARK UNBOUND:                -0.031
REMARK SMILES CCCC(=O)[O-]
REMARK SMILES IDX 3 1 4 2 5 3 6 4 2 5 1 6
REMARK H PARENT
REMARK Flexibility Score: inf
ROOT
ATOM      1  C   UNL     1       1.957   3.385   5.048  1.00  0.00     0.052 C 
ENDROOT
BRANCH   1   2
ATOM      2  C   UNL     1       3.170   4.095   5.565  1.00  0.00     0.041 C 
ATOM      3  O   UNL     1       4.247   3.466   5.741  1.00  0.00    -0.550 OA
ATOM      4  O   UNL     1       3.121   5.459   5.821  1.00  0.00    -0.550 OA
ENDBRANCH   1   2
BRANCH   1   5
ATOM      5  C   UNL     1       0.871   3.259   6.125  1.00  0.00     0.003 C 
ATOM      6  C   UNL     1      -0.109   2.124   5.833  1.00  0.00     0.004 C 
ENDBRANCH   1   5
TORSDOF 2
ENDMDL
MODEL 8
REMARK VINA RESULT:    -2.838     17.913     18.496
REMARK INTER + INTRA:          -3.200
REMARK INTER:                  -3.186
REMARK INTRA:                  -0.014
REMARK UNBOUND:                -0.031
REMARK SMILES CCCC(=O)[O-]
REMARK SMILES IDX 3 1 4 2 5 3 6 4 2 5 1 6
REMARK H PARENT
REMARK Flexibility Score: inf
ROOT
ATOM      1  C   UNL     1       4.784  -3.921 -13.501  1.00  0.00     0.052 C 
ENDROOT
BRANCH   1   2
ATOM      2  C   UNL     1       4.631  -2.590 -12.831  1.00  0.00     0.041 C 
ATOM      3  O   UNL     1       3.796  -1.753 -13.266  1.00  0.00    -0.550 OA
ATOM      4  O   UNL     1       5.387  -2.287 -11.707  1.00  0.00    -0.550 OA
ENDBRANCH   1   2
BRANCH   1   5
ATOM      5  C   UNL     1       6.221  -4.150 -13.986  1.00  0.00     0.003 C 
ATOM      6  C   UNL     1       6.652  -5.611 -13.857  1.00  0.00     0.004 C 
ENDBRANCH   1   5
TORSDOF 2
ENDMDL
MODEL 9
REMARK VINA RESULT:    -2.767     17.998     18.619
REMARK INTER + INTRA:          -3.122
REMARK INTER:                  -3.079
REMARK INTRA:                  -0.043
REMARK UNBOUND:                -0.031
REMARK SMILES CCCC(=O)[O-]
REMARK SMILES IDX 3 1 4 2 5 3 6 4 2 5 1 6
REMARK H PARENT
REMARK Flexibility Score: inf
ROOT
ATOM      1  C   UNL     1       5.072  -4.007 -13.070  1.00  0.00     0.052 C 
ENDROOT
BRANCH   1   2
ATOM      2  C   UNL     1       4.960  -2.586 -13.530  1.00  0.00     0.041 C 
ATOM      3  O   UNL     1       5.924  -2.034 -14.124  1.00  0.00    -0.550 OA
ATOM      4  O   UNL     1       3.780  -1.882 -13.332  1.00  0.00    -0.550 OA
ENDBRANCH   1   2
BRANCH   1   5
ATOM      5  C   UNL     1       6.492  -4.341 -12.597  1.00  0.00     0.003 C 
ATOM      6  C   UNL     1       6.703  -4.021 -11.117  1.00  0.00     0.004 C 
ENDBRANCH   1   5
TORSDOF 2
ENDMDL
