MODEL 1
REMARK VINA RESULT:     2.950      0.000      0.000
REMARK INTER + INTRA:           6.222
REMARK INTER:                   4.330
REMARK INTRA:                   1.892
REMARK UNBOUND:                 1.892
REMARK SMILES C=C1CC=CC(C)(C)CC=C(C)CCC1
REMARK SMILES IDX 2 1 1 2 15 3 14 4 13 5 11 6 12 7 10 8 3 10 4 11 5 12 6 13
REMARK SMILES IDX 7 14 8 15 9 16
REMARK H PARENT
REMARK Flexibility Score: 60.00
ROOT
ATOM      1  C   UNL     1     -14.581  -4.205  15.698  1.00  0.00    -0.074 C 
ATOM      2  C   UNL     1     -14.643  -5.361  15.019  1.00  0.00     0.008 C 
ENDROOT
BRANCH   1   3
ATOM      3  C   UNL     1     -13.239  -3.568  15.992  1.00  0.00     0.031 C 
BRANCH   3   4
ATOM      4  C   UNL     1     -13.358  -2.497  17.105  1.00  0.00     0.009 C 
BRANCH   4   5
ATOM      5  C   UNL     1     -13.615  -3.027  18.537  1.00  0.00     0.030 C 
BRANCH   5   6
ATOM      6  C   UNL     1     -14.150  -2.015  19.543  1.00  0.00    -0.077 C 
ATOM      7  C   UNL     1     -13.273  -1.625  20.707  1.00  0.00     0.039 C 
ATOM      8  C   UNL     1     -15.373  -1.438  19.459  1.00  0.00    -0.027 CG0
ATOM      9  G   UNL     1     -16.419  -1.721  18.399  1.00  0.00     0.000 G0
ENDBRANCH   5   6
ENDBRANCH   4   5
ENDBRANCH   3   4
ENDBRANCH   1   3
BRANCH   1  10
ATOM     10  C   UNL     1     -15.844  -3.568  16.243  1.00  0.00     0.057 C 
BRANCH  10  11
ATOM     11  C   UNL     1     -16.220  -2.352  15.435  1.00  0.00    -0.026 C 
ATOM     12  C   UNL     1     -16.526  -1.114  15.888  1.00  0.00    -0.024 C 
BRANCH  12  13
ATOM     13  C   UNL     1     -16.543  -0.579  17.330  1.00  0.00    -0.014 C 
ATOM     14  C   UNL     1     -15.346   0.396  17.487  1.00  0.00     0.016 C 
ATOM     15  C   UNL     1     -17.818   0.258  17.591  1.00  0.00     0.016 C 
BRANCH  13  16
ATOM     16  C   UNL     1     -16.407  -1.716  18.392  1.00  0.00     0.038 CG0
ATOM     17  G   UNL     1     -15.373  -1.415  19.459  1.00  0.00     0.000 G0
ENDBRANCH  13  16
ENDBRANCH  12  13
ENDBRANCH  10  11
ENDBRANCH   1  10
TORSDOF 0
ENDMDL
MODEL 2
REMARK VINA RESULT:     3.902      0.970      3.486
REMARK INTER + INTRA:           7.618
REMARK INTER:                   6.052
REMARK INTRA:                   1.566
REMARK UNBOUND:                 1.892
REMARK SMILES C=C1CC=CC(C)(C)CC=C(C)CCC1
REMARK SMILES IDX 2 1 1 2 15 3 14 4 13 5 11 6 12 7 10 8 3 10 4 11 5 12 6 13
REMARK SMILES IDX 7 14 8 15 9 16
REMARK H PARENT
REMARK Flexibility Score: 60.00
ROOT
ATOM      1  C   UNL     1     -15.086  -3.561  15.918  1.00  0.00    -0.074 C 
ATOM      2  C   UNL     1     -14.678  -4.819  15.687  1.00  0.00     0.008 C 
ENDROOT
BRANCH   1   3
ATOM      3  C   UNL     1     -16.513  -3.158  15.613  1.00  0.00     0.031 C 
BRANCH   3   4
ATOM      4  C   UNL     1     -16.644  -1.621  15.477  1.00  0.00     0.009 C 
BRANCH   4   5
ATOM      5  C   UNL     1     -17.244  -0.876  16.695  1.00  0.00     0.030 C 
BRANCH   5   6
ATOM      6  C   UNL     1     -16.280  -0.007  17.494  1.00  0.00    -0.077 C 
ATOM      7  C   UNL     1     -16.177   1.459  17.148  1.00  0.00     0.039 C 
ATOM      8  C   UNL     1     -15.503  -0.469  18.503  1.00  0.00    -0.027 CG0
ATOM      9  G   UNL     1     -15.423  -1.907  18.977  1.00  0.00     0.000 G0
ENDBRANCH   5   6
ENDBRANCH   4   5
ENDBRANCH   3   4
ENDBRANCH   1   3
BRANCH   1  10
ATOM     10  C   UNL     1     -14.105  -2.517  16.414  1.00  0.00     0.057 C 
BRANCH  10  11
ATOM     11  C   UNL     1     -13.121  -3.125  17.381  1.00  0.00    -0.026 C 
ATOM     12  C   UNL     1     -13.087  -2.992  18.727  1.00  0.00    -0.024 C 
BRANCH  12  13
ATOM     13  C   UNL     1     -14.045  -2.228  19.657  1.00  0.00    -0.014 C 
ATOM     14  C   UNL     1     -14.309  -3.120  20.900  1.00  0.00     0.016 C 
ATOM     15  C   UNL     1     -13.382  -0.935  20.188  1.00  0.00     0.016 C 
BRANCH  13  16
ATOM     16  C   UNL     1     -15.411  -1.904  18.973  1.00  0.00     0.038 CG0
ATOM     17  G   UNL     1     -15.514  -0.467  18.497  1.00  0.00     0.000 G0
ENDBRANCH  13  16
ENDBRANCH  12  13
ENDBRANCH  10  11
ENDBRANCH   1  10
TORSDOF 0
ENDMDL
MODEL 3
REMARK VINA RESULT:     4.613      1.316      4.057
REMARK INTER + INTRA:           8.662
REMARK INTER:                   7.885
REMARK INTRA:                   0.778
REMARK UNBOUND:                 1.892
REMARK SMILES C=C1CC=CC(C)(C)CC=C(C)CCC1
REMARK SMILES IDX 2 1 1 2 15 3 14 4 13 5 11 6 12 7 10 8 3 10 4 11 5 12 6 13
REMARK SMILES IDX 7 14 8 15 9 16
REMARK H PARENT
REMARK Flexibility Score: 60.00
ROOT
ATOM      1  C   UNL     1     -16.647  -0.679  16.702  1.00  0.00    -0.074 C 
ATOM      2  C   UNL     1     -17.159   0.528  16.410  1.00  0.00     0.008 C 
ENDROOT
BRANCH   1   3
ATOM      3  C   UNL     1     -16.312  -1.651  15.590  1.00  0.00     0.031 C 
BRANCH   3   4
ATOM      4  C   UNL     1     -16.212  -3.100  16.126  1.00  0.00     0.009 C 
BRANCH   4   5
ATOM      5  C   UNL     1     -14.823  -3.777  16.013  1.00  0.00     0.030 C 
BRANCH   5   6
ATOM      6  C   UNL     1     -13.628  -2.931  16.432  1.00  0.00    -0.077 C 
ATOM      7  C   UNL     1     -12.736  -2.362  15.356  1.00  0.00     0.039 C 
ATOM      8  C   UNL     1     -13.310  -2.655  17.720  1.00  0.00    -0.027 CG0
ATOM      9  G   UNL     1     -14.044  -3.161  18.946  1.00  0.00     0.000 G0
ENDBRANCH   5   6
ENDBRANCH   4   5
ENDBRANCH   3   4
ENDBRANCH   1   3
BRANCH   1  10
ATOM     10  C   UNL     1     -16.470  -1.106  18.146  1.00  0.00     0.057 C 
BRANCH  10  11
ATOM     11  C   UNL     1     -15.411  -0.275  18.824  1.00  0.00    -0.026 C 
ATOM     12  C   UNL     1     -14.434  -0.693  19.661  1.00  0.00    -0.024 C 
BRANCH  12  13
ATOM     13  C   UNL     1     -14.094  -2.117  20.131  1.00  0.00    -0.014 C 
ATOM     14  C   UNL     1     -12.691  -2.076  20.794  1.00  0.00     0.016 C 
ATOM     15  C   UNL     1     -15.077  -2.583  21.231  1.00  0.00     0.016 C 
BRANCH  13  16
ATOM     16  C   UNL     1     -14.062  -3.144  18.953  1.00  0.00     0.038 CG0
ATOM     17  G   UNL     1     -13.319  -2.631  17.735  1.00  0.00     0.000 G0
ENDBRANCH  13  16
ENDBRANCH  12  13
ENDBRANCH  10  11
ENDBRANCH   1  10
TORSDOF 0
ENDMDL
MODEL 4
REMARK VINA RESULT:     4.899      1.358      3.675
REMARK INTER + INTRA:           9.082
REMARK INTER:                   6.544
REMARK INTRA:                   2.538
REMARK UNBOUND:                 1.892
REMARK SMILES C=C1CC=CC(C)(C)CC=C(C)CCC1
REMARK SMILES IDX 2 1 1 2 15 3 14 4 13 5 11 6 12 7 10 8 3 10 4 11 5 12 6 13
REMARK SMILES IDX 7 14 8 15 9 16
REMARK H PARENT
REMARK Flexibility Score: 60.00
ROOT
ATOM      1  C   UNL     1     -16.544  -0.904  16.919  1.00  0.00    -0.074 C 
ATOM      2  C   UNL     1     -16.943   0.378  16.925  1.00  0.00     0.008 C 
ENDROOT
BRANCH   1   3
ATOM      3  C   UNL     1     -16.336  -1.641  18.225  1.00  0.00     0.031 C 
BRANCH   3   4
ATOM      4  C   UNL     1     -15.388  -0.856  19.165  1.00  0.00     0.009 C 
BRANCH   4   5
ATOM      5  C   UNL     1     -14.864  -1.624  20.404  1.00  0.00     0.030 C 
BRANCH   5   6
ATOM      6  C   UNL     1     -13.639  -2.501  20.184  1.00  0.00    -0.077 C 
ATOM      7  C   UNL     1     -13.034  -3.205  21.374  1.00  0.00     0.039 C 
ATOM      8  C   UNL     1     -13.051  -2.693  18.979  1.00  0.00    -0.027 CG0
ATOM      9  G   UNL     1     -13.472  -2.048  17.672  1.00  0.00     0.000 G0
ENDBRANCH   5   6
ENDBRANCH   4   5
ENDBRANCH   3   4
ENDBRANCH   1   3
BRANCH   1  10
ATOM     10  C   UNL     1     -16.227  -1.601  15.610  1.00  0.00     0.057 C 
BRANCH  10  11
ATOM     11  C   UNL     1     -15.955  -3.066  15.837  1.00  0.00    -0.026 C 
ATOM     12  C   UNL     1     -14.780  -3.654  16.162  1.00  0.00    -0.024 C 
BRANCH  12  13
ATOM     13  C   UNL     1     -13.409  -3.012  16.429  1.00  0.00    -0.014 C 
ATOM     14  C   UNL     1     -12.399  -4.156  16.717  1.00  0.00     0.016 C 
ATOM     15  C   UNL     1     -12.886  -2.284  15.169  1.00  0.00     0.016 C 
BRANCH  13  16
ATOM     16  C   UNL     1     -13.430  -2.042  17.654  1.00  0.00     0.038 CG0
ATOM     17  G   UNL     1     -13.062  -2.721  18.959  1.00  0.00     0.000 G0
ENDBRANCH  13  16
ENDBRANCH  12  13
ENDBRANCH  10  11
ENDBRANCH   1  10
TORSDOF 0
ENDMDL
MODEL 5
REMARK VINA RESULT:     5.483      1.270      3.856
REMARK INTER + INTRA:           9.938
REMARK INTER:                   7.868
REMARK INTRA:                   2.070
REMARK UNBOUND:                 1.892
REMARK SMILES C=C1CC=CC(C)(C)CC=C(C)CCC1
REMARK SMILES IDX 2 1 1 2 15 3 14 4 13 5 11 6 12 7 10 8 3 10 4 11 5 12 6 13
REMARK SMILES IDX 7 14 8 15 9 16
REMARK H PARENT
REMARK Flexibility Score: 60.00
ROOT
ATOM      1  C   UNL     1     -13.567  -2.003  20.227  1.00  0.00    -0.074 C 
ATOM      2  C   UNL     1     -12.968  -2.432  21.350  1.00  0.00     0.008 C 
ENDROOT
BRANCH   1   3
ATOM      3  C   UNL     1     -12.801  -1.975  18.922  1.00  0.00     0.031 C 
BRANCH   3   4
ATOM      4  C   UNL     1     -13.220  -3.148  18.001  1.00  0.00     0.009 C 
BRANCH   4   5
ATOM      5  C   UNL     1     -13.515  -2.786  16.524  1.00  0.00     0.030 C 
BRANCH   5   6
ATOM      6  C   UNL     1     -14.757  -3.421  15.912  1.00  0.00    -0.077 C 
ATOM      7  C   UNL     1     -14.722  -4.891  15.574  1.00  0.00     0.039 C 
ATOM      8  C   UNL     1     -15.901  -2.745  15.648  1.00  0.00    -0.027 CG0
ATOM      9  G   UNL     1     -16.130  -1.262  15.870  1.00  0.00     0.000 G0
ENDBRANCH   5   6
ENDBRANCH   4   5
ENDBRANCH   3   4
ENDBRANCH   1   3
BRANCH   1  10
ATOM     10  C   UNL     1     -14.987  -1.473  20.272  1.00  0.00     0.057 C 
BRANCH  10  11
ATOM     11  C   UNL     1     -15.912  -2.358  19.476  1.00  0.00    -0.026 C 
ATOM     12  C   UNL     1     -16.479  -2.103  18.274  1.00  0.00    -0.024 C 
BRANCH  12  13
ATOM     13  C   UNL     1     -16.321  -0.875  17.362  1.00  0.00    -0.014 C 
ATOM     14  C   UNL     1     -17.605  -0.013  17.501  1.00  0.00     0.016 C 
ATOM     15  C   UNL     1     -15.150   0.017  17.837  1.00  0.00     0.016 C 
BRANCH  13  16
ATOM     16  C   UNL     1     -16.139  -1.265  15.860  1.00  0.00     0.038 CG0
ATOM     17  G   UNL     1     -15.921  -2.751  15.652  1.00  0.00     0.000 G0
ENDBRANCH  13  16
ENDBRANCH  12  13
ENDBRANCH  10  11
ENDBRANCH   1  10
TORSDOF 0
ENDMDL
