MODEL 1
REMARK VINA RESULT:    -9.320      0.000      0.000
REMARK INTER + INTRA:         -25.856
REMARK INTER:                 -22.123
REMARK INTRA:                  -3.733
REMARK UNBOUND:                -3.733
REMARK SMILES O=C(OC[C@@H]1O[C@@H](OC(=O)c2cc(O)c(O)c(O)c2)[C@@H](OC(=O)c2cc(O)c(O)c(O)c2)[C@H](OC(=O)c2cc(O)c(O)c(O)c2)[C@@H]1OC(=O)c1cc(O)c(O)c(O)c1)c1cc(O)c(O)c(O)c1
REMARK SMILES IDX 5 1 46 2 33 3 20 4 7 5 6 6 4 7 3 8 2 9 1 10 59 11 60 12
REMARK SMILES IDX 61 13 67 14 63 15 65 16 62 17 64 19 66 21 47 23 48 24 49 25
REMARK SMILES IDX 50 26 58 27 51 28 56 29 52 30 54 31 57 32 53 34 55 36 34 38
REMARK SMILES IDX 35 39 36 40 37 41 45 42 38 43 43 44 39 45 41 46 44 47 40 49
REMARK SMILES IDX 42 51 8 53 9 54 10 55 11 56 19 57 12 58 17 59 13 60 15 61
REMARK SMILES IDX 18 62 14 64 16 66 21 68 22 69 23 70 24 71 32 72 25 73 30 74
REMARK SMILES IDX 26 75 28 76 31 77 27 79 29 81
REMARK H PARENT 62 18 64 20 66 22 57 33 53 35 55 37 44 48 40 50 42 52 18 63
REMARK H PARENT 14 65 16 67 31 78 27 80 29 82
REMARK Flexibility Score: inf
ROOT
ATOM      1  C   UNL     1      22.758  26.975  27.842  1.00  0.00     0.205 C 
ATOM      2  C   UNL     1      21.472  27.743  28.218  1.00  0.00     0.254 C 
ATOM      3  C   UNL     1      21.854  29.032  28.973  1.00  0.00     0.267 C 
ATOM      4  C   UNL     1      22.789  28.697  30.150  1.00  0.00     0.290 C 
ATOM      5  C   UNL     1      23.963  27.829  29.665  1.00  0.00     0.357 C 
ATOM      6  O   UNL     1      23.506  26.659  29.007  1.00  0.00    -0.329 OA
ENDROOT
BRANCH   1   7
ATOM      7  C   UNL     1      22.427  25.677  27.086  1.00  0.00     0.269 C 
BRANCH   7   8
ATOM      8  O   UNL     1      23.507  25.303  26.232  1.00  0.00    -0.459 OA
BRANCH   8   9
ATOM      9  C   UNL     1      23.506  25.477  24.843  1.00  0.00     0.338 C 
ATOM     10  O   UNL     1      23.429  26.634  24.348  1.00  0.00    -0.246 OA
BRANCH   9  11
ATOM     11  C   UNL     1      23.632  24.298  23.959  1.00  0.00     0.067 A 
ATOM     12  C   UNL     1      22.506  23.523  23.651  1.00  0.00     0.066 A 
ATOM     13  C   UNL     1      22.614  22.398  22.832  1.00  0.00     0.162 A 
ATOM     14  C   UNL     1      24.876  23.934  23.422  1.00  0.00     0.066 A 
ATOM     15  C   UNL     1      23.863  22.027  22.303  1.00  0.00     0.200 A 
ATOM     16  C   UNL     1      25.006  22.812  22.597  1.00  0.00     0.162 A 
BRANCH  13  17
ATOM     17  O   UNL     1      21.467  21.646  22.566  1.00  0.00    -0.504 OA
ATOM     18  H   UNL     1      21.361  21.100  21.719  1.00  0.00     0.293 HD
ENDBRANCH  13  17
BRANCH  15  19
ATOM     19  O   UNL     1      23.933  20.882  21.504  1.00  0.00    -0.502 OA
ATOM     20  H   UNL     1      23.691  20.860  20.525  1.00  0.00     0.293 HD
ENDBRANCH  15  19
BRANCH  16  21
ATOM     21  O   UNL     1      26.275  22.521  22.089  1.00  0.00    -0.504 OA
ATOM     22  H   UNL     1      26.516  21.663  21.620  1.00  0.00     0.293 HD
ENDBRANCH  16  21
ENDBRANCH   9  11
ENDBRANCH   8   9
ENDBRANCH   7   8
ENDBRANCH   1   7
BRANCH   2  23
ATOM     23  O   UNL     1      20.653  26.920  29.050  1.00  0.00    -0.452 OA
BRANCH  23  24
ATOM     24  C   UNL     1      19.270  26.764  28.880  1.00  0.00     0.338 C 
ATOM     25  O   UNL     1      18.478  27.681  29.233  1.00  0.00    -0.246 OA
BRANCH  24  26
ATOM     26  C   UNL     1      18.746  25.520  28.281  1.00  0.00     0.067 A 
ATOM     27  C   UNL     1      17.433  25.093  28.550  1.00  0.00     0.066 A 
ATOM     28  C   UNL     1      19.553  24.755  27.427  1.00  0.00     0.066 A 
ATOM     29  C   UNL     1      16.935  23.921  27.975  1.00  0.00     0.162 A 
ATOM     30  C   UNL     1      19.066  23.578  26.853  1.00  0.00     0.162 A 
ATOM     31  C   UNL     1      17.753  23.154  27.127  1.00  0.00     0.200 A 
BRANCH  29  32
ATOM     32  O   UNL     1      15.618  23.542  28.242  1.00  0.00    -0.504 OA
ATOM     33  H   UNL     1      15.398  22.698  28.757  1.00  0.00     0.293 HD
ENDBRANCH  29  32
BRANCH  30  34
ATOM     34  O   UNL     1      19.883  22.819  26.013  1.00  0.00    -0.504 OA
ATOM     35  H   UNL     1      20.876  22.718  26.197  1.00  0.00     0.293 HD
ENDBRANCH  30  34
BRANCH  31  36
ATOM     36  O   UNL     1      17.249  21.984  26.557  1.00  0.00    -0.502 OA
ATOM     37  H   UNL     1      17.664  21.074  26.733  1.00  0.00     0.293 HD
ENDBRANCH  31  36
ENDBRANCH  24  26
ENDBRANCH  23  24
ENDBRANCH   2  23
BRANCH   3  38
ATOM     38  O   UNL     1      20.691  29.689  29.475  1.00  0.00    -0.450 OA
BRANCH  38  39
ATOM     39  C   UNL     1      20.493  31.074  29.455  1.00  0.00     0.338 C 
ATOM     40  O   UNL     1      21.382  31.834  28.982  1.00  0.00    -0.246 OA
BRANCH  39  41
ATOM     41  C   UNL     1      19.238  31.640  30.002  1.00  0.00     0.067 A 
ATOM     42  C   UNL     1      18.891  32.985  29.787  1.00  0.00     0.066 A 
ATOM     43  C   UNL     1      18.375  30.830  30.756  1.00  0.00     0.066 A 
ATOM     44  C   UNL     1      17.721  33.523  30.343  1.00  0.00     0.162 A 
ATOM     45  C   UNL     1      17.208  31.356  31.317  1.00  0.00     0.162 A 
ATOM     46  C   UNL     1      16.879  32.706  31.117  1.00  0.00     0.200 A 
BRANCH  44  47
ATOM     47  O   UNL     1      17.392  34.865  30.131  1.00  0.00    -0.504 OA
ATOM     48  H   UNL     1      16.580  35.138  29.588  1.00  0.00     0.293 HD
ENDBRANCH  44  47
BRANCH  45  49
ATOM     49  O   UNL     1      16.380  30.520  32.068  1.00  0.00    -0.504 OA
ATOM     50  H   UNL     1      15.496  30.838  32.442  1.00  0.00     0.293 HD
ENDBRANCH  45  49
BRANCH  46  51
ATOM     51  O   UNL     1      15.715  33.221  31.687  1.00  0.00    -0.502 OA
ATOM     52  H   UNL     1      14.808  33.145  31.238  1.00  0.00     0.293 HD
ENDBRANCH  46  51
ENDBRANCH  39  41
ENDBRANCH  38  39
ENDBRANCH   3  38
BRANCH   5  53
ATOM     53  O   UNL     1      24.833  28.580  28.814  1.00  0.00    -0.428 OA
BRANCH  53  54
ATOM     54  C   UNL     1      26.186  28.269  28.627  1.00  0.00     0.340 C 
ATOM     55  O   UNL     1      26.929  28.050  29.622  1.00  0.00    -0.246 OA
BRANCH  54  56
ATOM     56  C   UNL     1      26.740  28.229  27.255  1.00  0.00     0.067 A 
ATOM     57  C   UNL     1      28.119  28.046  27.058  1.00  0.00     0.066 A 
ATOM     58  C   UNL     1      25.898  28.361  26.139  1.00  0.00     0.066 A 
ATOM     59  C   UNL     1      28.653  28.005  25.762  1.00  0.00     0.162 A 
ATOM     60  C   UNL     1      26.424  28.312  24.842  1.00  0.00     0.162 A 
ATOM     61  C   UNL     1      27.804  28.142  24.649  1.00  0.00     0.200 A 
BRANCH  59  62
ATOM     62  O   UNL     1      30.021  27.828  25.573  1.00  0.00    -0.504 OA
ATOM     63  H   UNL     1      30.506  28.234  24.781  1.00  0.00     0.293 HD
ENDBRANCH  59  62
BRANCH  60  64
ATOM     64  O   UNL     1      25.568  28.449  23.749  1.00  0.00    -0.504 OA
ATOM     65  H   UNL     1      25.871  28.876  22.881  1.00  0.00     0.293 HD
ENDBRANCH  60  64
BRANCH  61  66
ATOM     66  O   UNL     1      28.316  28.107  23.350  1.00  0.00    -0.502 OA
ATOM     67  H   UNL     1      28.011  28.766  22.634  1.00  0.00     0.293 HD
ENDBRANCH  61  66
ENDBRANCH  54  56
ENDBRANCH  53  54
ENDBRANCH   5  53
BRANCH   4  68
ATOM     68  O   UNL     1      23.297  29.900  30.737  1.00  0.00    -0.448 OA
BRANCH  68  69
ATOM     69  C   UNL     1      24.328  29.922  31.688  1.00  0.00     0.339 C 
ATOM     70  O   UNL     1      24.215  29.264  32.757  1.00  0.00    -0.246 OA
BRANCH  69  71
ATOM     71  C   UNL     1      25.566  30.685  31.421  1.00  0.00     0.067 A 
ATOM     72  C   UNL     1      26.812  30.202  31.858  1.00  0.00     0.066 A 
ATOM     73  C   UNL     1      25.513  31.901  30.722  1.00  0.00     0.066 A 
ATOM     74  C   UNL     1      27.990  30.907  31.572  1.00  0.00     0.162 A 
ATOM     75  C   UNL     1      26.680  32.625  30.443  1.00  0.00     0.162 A 
ATOM     76  C   UNL     1      27.935  32.112  30.856  1.00  0.00     0.200 A 
BRANCH  74  77
ATOM     77  O   UNL     1      29.226  30.411  31.985  1.00  0.00    -0.504 OA
ATOM     78  H   UNL     1      29.919  31.009  32.409  1.00  0.00     0.293 HD
ENDBRANCH  74  77
BRANCH  75  79
ATOM     79  O   UNL     1      26.541  33.842  29.768  1.00  0.00    -0.504 OA
ATOM     80  H   UNL     1      27.043  34.082  28.928  1.00  0.00     0.293 HD
ENDBRANCH  75  79
BRANCH  76  81
ATOM     81  O   UNL     1      29.137  32.760  30.565  1.00  0.00    -0.502 OA
ATOM     82  H   UNL     1      29.710  33.206  31.261  1.00  0.00     0.293 HD
ENDBRANCH  76  81
ENDBRANCH  69  71
ENDBRANCH  68  69
ENDBRANCH   4  68
TORSDOF 31
ENDMDL
MODEL 2
REMARK VINA RESULT:    -9.315      0.205      1.473
REMARK INTER + INTRA:         -25.845
REMARK INTER:                 -21.836
REMARK INTRA:                  -4.010
REMARK UNBOUND:                -3.733
REMARK SMILES O=C(OC[C@@H]1O[C@@H](OC(=O)c2cc(O)c(O)c(O)c2)[C@@H](OC(=O)c2cc(O)c(O)c(O)c2)[C@H](OC(=O)c2cc(O)c(O)c(O)c2)[C@@H]1OC(=O)c1cc(O)c(O)c(O)c1)c1cc(O)c(O)c(O)c1
REMARK SMILES IDX 5 1 46 2 33 3 20 4 7 5 6 6 4 7 3 8 2 9 1 10 59 11 60 12
REMARK SMILES IDX 61 13 67 14 63 15 65 16 62 17 64 19 66 21 47 23 48 24 49 25
REMARK SMILES IDX 50 26 58 27 51 28 56 29 52 30 54 31 57 32 53 34 55 36 34 38
REMARK SMILES IDX 35 39 36 40 37 41 45 42 38 43 43 44 39 45 41 46 44 47 40 49
REMARK SMILES IDX 42 51 8 53 9 54 10 55 11 56 19 57 12 58 17 59 13 60 15 61
REMARK SMILES IDX 18 62 14 64 16 66 21 68 22 69 23 70 24 71 32 72 25 73 30 74
REMARK SMILES IDX 26 75 28 76 31 77 27 79 29 81
REMARK H PARENT 62 18 64 20 66 22 57 33 53 35 55 37 44 48 40 50 42 52 18 63
REMARK H PARENT 14 65 16 67 31 78 27 80 29 82
REMARK Flexibility Score: inf
ROOT
ATOM      1  C   UNL     1      22.768  27.068  27.810  1.00  0.00     0.205 C 
ATOM      2  C   UNL     1      21.470  27.806  28.206  1.00  0.00     0.254 C 
ATOM      3  C   UNL     1      21.832  29.073  29.007  1.00  0.00     0.267 C 
ATOM      4  C   UNL     1      22.764  28.709  30.177  1.00  0.00     0.290 C 
ATOM      5  C   UNL     1      23.952  27.873  29.669  1.00  0.00     0.357 C 
ATOM      6  O   UNL     1      23.513  26.721  28.968  1.00  0.00    -0.329 OA
ENDROOT
BRANCH   1   7
ATOM      7  C   UNL     1      22.457  25.793  27.008  1.00  0.00     0.269 C 
BRANCH   7   8
ATOM      8  O   UNL     1      23.551  25.456  26.156  1.00  0.00    -0.459 OA
BRANCH   8   9
ATOM      9  C   UNL     1      23.527  25.580  24.762  1.00  0.00     0.338 C 
ATOM     10  O   UNL     1      23.419  26.717  24.227  1.00  0.00    -0.246 OA
BRANCH   9  11
ATOM     11  C   UNL     1      23.665  24.372  23.918  1.00  0.00     0.067 A 
ATOM     12  C   UNL     1      24.921  24.000  23.420  1.00  0.00     0.066 A 
ATOM     13  C   UNL     1      25.062  22.872  22.609  1.00  0.00     0.162 A 
ATOM     14  C   UNL     1      22.546  23.589  23.600  1.00  0.00     0.066 A 
ATOM     15  C   UNL     1      23.938  22.093  22.281  1.00  0.00     0.200 A 
ATOM     16  C   UNL     1      22.666  22.454  22.791  1.00  0.00     0.162 A 
BRANCH  13  17
ATOM     17  O   UNL     1      26.330  22.548  22.121  1.00  0.00    -0.504 OA
ATOM     18  H   UNL     1      26.525  22.467  21.130  1.00  0.00     0.293 HD
ENDBRANCH  13  17
BRANCH  15  19
ATOM     19  O   UNL     1      24.118  20.983  21.449  1.00  0.00    -0.502 OA
ATOM     20  H   UNL     1      24.906  20.862  20.832  1.00  0.00     0.293 HD
ENDBRANCH  15  19
BRANCH  16  21
ATOM     21  O   UNL     1      21.509  21.716  22.529  1.00  0.00    -0.504 OA
ATOM     22  H   UNL     1      20.595  21.946  22.885  1.00  0.00     0.293 HD
ENDBRANCH  16  21
ENDBRANCH   9  11
ENDBRANCH   8   9
ENDBRANCH   7   8
ENDBRANCH   1   7
BRANCH   2  23
ATOM     23  O   UNL     1      20.658  26.944  29.003  1.00  0.00    -0.452 OA
BRANCH  23  24
ATOM     24  C   UNL     1      19.274  26.795  28.835  1.00  0.00     0.338 C 
ATOM     25  O   UNL     1      18.486  27.713  29.191  1.00  0.00    -0.246 OA
BRANCH  24  26
ATOM     26  C   UNL     1      18.744  25.555  28.233  1.00  0.00     0.067 A 
ATOM     27  C   UNL     1      17.426  25.138  28.492  1.00  0.00     0.066 A 
ATOM     28  C   UNL     1      19.551  24.783  27.385  1.00  0.00     0.066 A 
ATOM     29  C   UNL     1      16.922  23.970  27.914  1.00  0.00     0.162 A 
ATOM     30  C   UNL     1      19.058  23.609  26.807  1.00  0.00     0.162 A 
ATOM     31  C   UNL     1      17.740  23.196  27.072  1.00  0.00     0.200 A 
BRANCH  29  32
ATOM     32  O   UNL     1      15.601  23.602  28.171  1.00  0.00    -0.504 OA
ATOM     33  H   UNL     1      14.821  24.197  27.919  1.00  0.00     0.293 HD
ENDBRANCH  29  32
BRANCH  30  34
ATOM     34  O   UNL     1      19.875  22.843  25.974  1.00  0.00    -0.504 OA
ATOM     35  H   UNL     1      20.822  23.135  25.754  1.00  0.00     0.293 HD
ENDBRANCH  30  34
BRANCH  31  36
ATOM     36  O   UNL     1      17.231  22.030  26.499  1.00  0.00    -0.502 OA
ATOM     37  H   UNL     1      17.117  21.171  27.030  1.00  0.00     0.293 HD
ENDBRANCH  31  36
ENDBRANCH  24  26
ENDBRANCH  23  24
ENDBRANCH   2  23
BRANCH   3  38
ATOM     38  O   UNL     1      20.658  29.698  29.525  1.00  0.00    -0.450 OA
BRANCH  38  39
ATOM     39  C   UNL     1      20.416  31.075  29.497  1.00  0.00     0.338 C 
ATOM     40  O   UNL     1      21.263  31.857  28.983  1.00  0.00    -0.246 OA
BRANCH  39  41
ATOM     41  C   UNL     1      19.164  31.610  30.082  1.00  0.00     0.067 A 
ATOM     42  C   UNL     1      18.290  30.784  30.809  1.00  0.00     0.066 A 
ATOM     43  C   UNL     1      18.831  32.962  29.906  1.00  0.00     0.066 A 
ATOM     44  C   UNL     1      17.087  31.290  31.324  1.00  0.00     0.162 A 
ATOM     45  C   UNL     1      17.635  33.475  30.413  1.00  0.00     0.162 A 
ATOM     46  C   UNL     1      16.755  32.640  31.119  1.00  0.00     0.200 A 
BRANCH  44  47
ATOM     47  O   UNL     1      16.220  30.457  32.036  1.00  0.00    -0.504 OA
ATOM     48  H   UNL     1      15.986  30.633  33.008  1.00  0.00     0.293 HD
ENDBRANCH  44  47
BRANCH  45  49
ATOM     49  O   UNL     1      17.335  34.823  30.210  1.00  0.00    -0.504 OA
ATOM     50  H   UNL     1      17.744  35.355  29.453  1.00  0.00     0.293 HD
ENDBRANCH  45  49
BRANCH  46  51
ATOM     51  O   UNL     1      15.560  33.163  31.614  1.00  0.00    -0.502 OA
ATOM     52  H   UNL     1      14.949  33.749  31.057  1.00  0.00     0.293 HD
ENDBRANCH  46  51
ENDBRANCH  39  41
ENDBRANCH  38  39
ENDBRANCH   3  38
BRANCH   5  53
ATOM     53  O   UNL     1      24.817  28.663  28.849  1.00  0.00    -0.428 OA
BRANCH  53  54
ATOM     54  C   UNL     1      26.182  28.395  28.685  1.00  0.00     0.340 C 
ATOM     55  O   UNL     1      26.931  28.280  29.693  1.00  0.00    -0.246 OA
BRANCH  54  56
ATOM     56  C   UNL     1      26.742  28.277  27.320  1.00  0.00     0.067 A 
ATOM     57  C   UNL     1      28.106  27.995  27.140  1.00  0.00     0.066 A 
ATOM     58  C   UNL     1      25.917  28.432  26.194  1.00  0.00     0.066 A 
ATOM     59  C   UNL     1      28.644  27.879  25.850  1.00  0.00     0.162 A 
ATOM     60  C   UNL     1      26.447  28.310  24.903  1.00  0.00     0.162 A 
ATOM     61  C   UNL     1      27.814  28.040  24.727  1.00  0.00     0.200 A 
BRANCH  59  62
ATOM     62  O   UNL     1      29.998  27.604  25.679  1.00  0.00    -0.504 OA
ATOM     63  H   UNL     1      30.542  28.043  24.945  1.00  0.00     0.293 HD
ENDBRANCH  59  62
BRANCH  60  64
ATOM     64  O   UNL     1      25.610  28.472  23.799  1.00  0.00    -0.504 OA
ATOM     65  H   UNL     1      25.551  27.776  23.065  1.00  0.00     0.293 HD
ENDBRANCH  60  64
BRANCH  61  66
ATOM     66  O   UNL     1      28.331  27.933  23.433  1.00  0.00    -0.502 OA
ATOM     67  H   UNL     1      27.733  27.982  22.609  1.00  0.00     0.293 HD
ENDBRANCH  61  66
ENDBRANCH  54  56
ENDBRANCH  53  54
ENDBRANCH   5  53
BRANCH   4  68
ATOM     68  O   UNL     1      23.255  29.897  30.807  1.00  0.00    -0.448 OA
BRANCH  68  69
ATOM     69  C   UNL     1      24.232  29.893  31.814  1.00  0.00     0.339 C 
ATOM     70  O   UNL     1      24.071  29.190  32.848  1.00  0.00    -0.246 OA
BRANCH  69  71
ATOM     71  C   UNL     1      25.471  30.681  31.645  1.00  0.00     0.067 A 
ATOM     72  C   UNL     1      26.648  30.319  32.326  1.00  0.00     0.066 A 
ATOM     73  C   UNL     1      25.491  31.801  30.799  1.00  0.00     0.066 A 
ATOM     74  C   UNL     1      27.832  31.044  32.137  1.00  0.00     0.162 A 
ATOM     75  C   UNL     1      26.663  32.545  30.613  1.00  0.00     0.162 A 
ATOM     76  C   UNL     1      27.853  32.150  31.274  1.00  0.00     0.200 A 
BRANCH  74  77
ATOM     77  O   UNL     1      29.003  30.665  32.793  1.00  0.00    -0.504 OA
ATOM     78  H   UNL     1      28.999  29.954  33.508  1.00  0.00     0.293 HD
ENDBRANCH  74  77
BRANCH  75  79
ATOM     79  O   UNL     1      26.594  33.664  29.777  1.00  0.00    -0.504 OA
ATOM     80  H   UNL     1      26.474  33.616  28.778  1.00  0.00     0.293 HD
ENDBRANCH  75  79
BRANCH  76  81
ATOM     81  O   UNL     1      29.065  32.820  31.092  1.00  0.00    -0.502 OA
ATOM     82  H   UNL     1      29.565  32.833  30.220  1.00  0.00     0.293 HD
ENDBRANCH  76  81
ENDBRANCH  69  71
ENDBRANCH  68  69
ENDBRANCH   4  68
TORSDOF 31
ENDMDL
MODEL 3
REMARK VINA RESULT:    -9.311      0.249      1.794
REMARK INTER + INTRA:         -25.836
REMARK INTER:                 -21.816
REMARK INTRA:                  -4.020
REMARK UNBOUND:                -3.733
REMARK SMILES O=C(OC[C@@H]1O[C@@H](OC(=O)c2cc(O)c(O)c(O)c2)[C@@H](OC(=O)c2cc(O)c(O)c(O)c2)[C@H](OC(=O)c2cc(O)c(O)c(O)c2)[C@@H]1OC(=O)c1cc(O)c(O)c(O)c1)c1cc(O)c(O)c(O)c1
REMARK SMILES IDX 5 1 46 2 33 3 20 4 7 5 6 6 4 7 3 8 2 9 1 10 59 11 60 12
REMARK SMILES IDX 61 13 67 14 63 15 65 16 62 17 64 19 66 21 47 23 48 24 49 25
REMARK SMILES IDX 50 26 58 27 51 28 56 29 52 30 54 31 57 32 53 34 55 36 34 38
REMARK SMILES IDX 35 39 36 40 37 41 45 42 38 43 43 44 39 45 41 46 44 47 40 49
REMARK SMILES IDX 42 51 8 53 9 54 10 55 11 56 19 57 12 58 17 59 13 60 15 61
REMARK SMILES IDX 18 62 14 64 16 66 21 68 22 69 23 70 24 71 32 72 25 73 30 74
REMARK SMILES IDX 26 75 28 76 31 77 27 79 29 81
REMARK H PARENT 62 18 64 20 66 22 57 33 53 35 55 37 44 48 40 50 42 52 18 63
REMARK H PARENT 14 65 16 67 31 78 27 80 29 82
REMARK Flexibility Score: inf
ROOT
ATOM      1  C   UNL     1      22.745  27.092  27.818  1.00  0.00     0.205 C 
ATOM      2  C   UNL     1      21.449  27.838  28.203  1.00  0.00     0.254 C 
ATOM      3  C   UNL     1      21.814  29.104  29.005  1.00  0.00     0.267 C 
ATOM      4  C   UNL     1      22.736  28.736  30.182  1.00  0.00     0.290 C 
ATOM      5  C   UNL     1      23.922  27.891  29.684  1.00  0.00     0.357 C 
ATOM      6  O   UNL     1      23.480  26.741  28.981  1.00  0.00    -0.329 OA
ENDROOT
BRANCH   1   7
ATOM      7  C   UNL     1      22.432  25.818  27.014  1.00  0.00     0.269 C 
BRANCH   7   8
ATOM      8  O   UNL     1      23.532  25.467  26.178  1.00  0.00    -0.459 OA
BRANCH   8   9
ATOM      9  C   UNL     1      23.533  25.597  24.784  1.00  0.00     0.338 C 
ATOM     10  O   UNL     1      23.445  26.737  24.253  1.00  0.00    -0.246 OA
BRANCH   9  11
ATOM     11  C   UNL     1      23.671  24.392  23.938  1.00  0.00     0.067 A 
ATOM     12  C   UNL     1      24.929  24.017  23.446  1.00  0.00     0.066 A 
ATOM     13  C   UNL     1      25.071  22.892  22.632  1.00  0.00     0.162 A 
ATOM     14  C   UNL     1      22.551  23.614  23.610  1.00  0.00     0.066 A 
ATOM     15  C   UNL     1      23.947  22.117  22.294  1.00  0.00     0.200 A 
ATOM     16  C   UNL     1      22.673  22.481  22.798  1.00  0.00     0.162 A 
BRANCH  13  17
ATOM     17  O   UNL     1      26.341  22.565  22.150  1.00  0.00    -0.504 OA
ATOM     18  H   UNL     1      26.497  22.259  21.197  1.00  0.00     0.293 HD
ENDBRANCH  13  17
BRANCH  15  19
ATOM     19  O   UNL     1      24.128  21.010  21.459  1.00  0.00    -0.502 OA
ATOM     20  H   UNL     1      24.934  20.874  20.868  1.00  0.00     0.293 HD
ENDBRANCH  15  19
BRANCH  16  21
ATOM     21  O   UNL     1      21.515  21.748  22.526  1.00  0.00    -0.504 OA
ATOM     22  H   UNL     1      20.741  21.652  23.163  1.00  0.00     0.293 HD
ENDBRANCH  16  21
ENDBRANCH   9  11
ENDBRANCH   8   9
ENDBRANCH   7   8
ENDBRANCH   1   7
BRANCH   2  23
ATOM     23  O   UNL     1      20.625  26.983  28.996  1.00  0.00    -0.452 OA
BRANCH  23  24
ATOM     24  C   UNL     1      19.242  26.844  28.819  1.00  0.00     0.338 C 
ATOM     25  O   UNL     1      18.462  27.789  29.121  1.00  0.00    -0.246 OA
BRANCH  24  26
ATOM     26  C   UNL     1      18.701  25.583  28.272  1.00  0.00     0.067 A 
ATOM     27  C   UNL     1      17.391  25.173  28.575  1.00  0.00     0.066 A 
ATOM     28  C   UNL     1      19.491  24.783  27.434  1.00  0.00     0.066 A 
ATOM     29  C   UNL     1      16.877  23.985  28.050  1.00  0.00     0.162 A 
ATOM     30  C   UNL     1      18.989  23.589  26.909  1.00  0.00     0.162 A 
ATOM     31  C   UNL     1      17.678  23.183  27.217  1.00  0.00     0.200 A 
BRANCH  29  32
ATOM     32  O   UNL     1      15.562  23.624  28.349  1.00  0.00    -0.504 OA
ATOM     33  H   UNL     1      15.277  23.373  29.288  1.00  0.00     0.293 HD
ENDBRANCH  29  32
BRANCH  30  34
ATOM     34  O   UNL     1      19.789  22.795  26.085  1.00  0.00    -0.504 OA
ATOM     35  H   UNL     1      19.479  22.519  25.159  1.00  0.00     0.293 HD
ENDBRANCH  30  34
BRANCH  31  36
ATOM     36  O   UNL     1      17.159  21.997  26.697  1.00  0.00    -0.502 OA
ATOM     37  H   UNL     1      16.264  21.962  26.218  1.00  0.00     0.293 HD
ENDBRANCH  31  36
ENDBRANCH  24  26
ENDBRANCH  23  24
ENDBRANCH   2  23
BRANCH   3  38
ATOM     38  O   UNL     1      20.641  29.737  29.514  1.00  0.00    -0.450 OA
BRANCH  38  39
ATOM     39  C   UNL     1      20.412  31.117  29.491  1.00  0.00     0.338 C 
ATOM     40  O   UNL     1      21.259  31.890  28.965  1.00  0.00    -0.246 OA
BRANCH  39  41
ATOM     41  C   UNL     1      19.174  31.663  30.096  1.00  0.00     0.067 A 
ATOM     42  C   UNL     1      18.324  30.855  30.871  1.00  0.00     0.066 A 
ATOM     43  C   UNL     1      18.830  33.008  29.890  1.00  0.00     0.066 A 
ATOM     44  C   UNL     1      17.134  31.371  31.404  1.00  0.00     0.162 A 
ATOM     45  C   UNL     1      17.646  33.532  30.416  1.00  0.00     0.162 A 
ATOM     46  C   UNL     1      16.790  32.713  31.171  1.00  0.00     0.200 A 
BRANCH  44  47
ATOM     47  O   UNL     1      16.291  30.555  32.164  1.00  0.00    -0.504 OA
ATOM     48  H   UNL     1      16.520  30.287  33.116  1.00  0.00     0.293 HD
ENDBRANCH  44  47
BRANCH  45  49
ATOM     49  O   UNL     1      17.335  34.872  30.183  1.00  0.00    -0.504 OA
ATOM     50  H   UNL     1      16.729  35.158  29.425  1.00  0.00     0.293 HD
ENDBRANCH  45  49
BRANCH  46  51
ATOM     51  O   UNL     1      15.607  33.246  31.684  1.00  0.00    -0.502 OA
ATOM     52  H   UNL     1      14.756  33.312  31.136  1.00  0.00     0.293 HD
ENDBRANCH  46  51
ENDBRANCH  39  41
ENDBRANCH  38  39
ENDBRANCH   3  38
BRANCH   5  53
ATOM     53  O   UNL     1      24.797  28.675  28.869  1.00  0.00    -0.428 OA
BRANCH  53  54
ATOM     54  C   UNL     1      26.165  28.409  28.731  1.00  0.00     0.340 C 
ATOM     55  O   UNL     1      26.892  28.276  29.754  1.00  0.00    -0.246 OA
BRANCH  54  56
ATOM     56  C   UNL     1      26.756  28.316  27.377  1.00  0.00     0.067 A 
ATOM     57  C   UNL     1      28.137  28.115  27.223  1.00  0.00     0.066 A 
ATOM     58  C   UNL     1      25.944  28.415  26.235  1.00  0.00     0.066 A 
ATOM     59  C   UNL     1      28.705  28.022  25.944  1.00  0.00     0.162 A 
ATOM     60  C   UNL     1      26.504  28.315  24.954  1.00  0.00     0.162 A 
ATOM     61  C   UNL     1      27.887  28.127  24.805  1.00  0.00     0.200 A 
BRANCH  59  62
ATOM     62  O   UNL     1      30.076  27.827  25.798  1.00  0.00    -0.504 OA
ATOM     63  H   UNL     1      30.481  26.899  25.770  1.00  0.00     0.293 HD
ENDBRANCH  59  62
BRANCH  60  64
ATOM     64  O   UNL     1      25.678  28.420  23.835  1.00  0.00    -0.504 OA
ATOM     65  H   UNL     1      25.261  29.302  23.558  1.00  0.00     0.293 HD
ENDBRANCH  60  64
BRANCH  61  66
ATOM     66  O   UNL     1      28.433  28.042  23.521  1.00  0.00    -0.502 OA
ATOM     67  H   UNL     1      28.608  28.871  22.956  1.00  0.00     0.293 HD
ENDBRANCH  61  66
ENDBRANCH  54  56
ENDBRANCH  53  54
ENDBRANCH   5  53
BRANCH   4  68
ATOM     68  O   UNL     1      23.229  29.921  30.815  1.00  0.00    -0.448 OA
BRANCH  68  69
ATOM     69  C   UNL     1      24.205  29.912  31.823  1.00  0.00     0.339 C 
ATOM     70  O   UNL     1      24.029  29.227  32.866  1.00  0.00    -0.246 OA
BRANCH  69  71
ATOM     71  C   UNL     1      25.459  30.674  31.646  1.00  0.00     0.067 A 
ATOM     72  C   UNL     1      25.523  31.746  30.737  1.00  0.00     0.066 A 
ATOM     73  C   UNL     1      26.603  30.340  32.388  1.00  0.00     0.066 A 
ATOM     74  C   UNL     1      26.702  32.492  30.597  1.00  0.00     0.162 A 
ATOM     75  C   UNL     1      27.793  31.067  32.246  1.00  0.00     0.162 A 
ATOM     76  C   UNL     1      27.837  32.168  31.355  1.00  0.00     0.200 A 
BRANCH  74  77
ATOM     77  O   UNL     1      26.752  33.570  29.714  1.00  0.00    -0.504 OA
ATOM     78  H   UNL     1      26.670  34.522  30.039  1.00  0.00     0.293 HD
ENDBRANCH  74  77
BRANCH  75  79
ATOM     79  O   UNL     1      28.897  30.654  32.998  1.00  0.00    -0.504 OA
ATOM     80  H   UNL     1      28.837  30.064  33.812  1.00  0.00     0.293 HD
ENDBRANCH  75  79
BRANCH  76  81
ATOM     81  O   UNL     1      28.976  32.962  31.206  1.00  0.00    -0.502 OA
ATOM     82  H   UNL     1      29.900  32.658  31.459  1.00  0.00     0.293 HD
ENDBRANCH  76  81
ENDBRANCH  69  71
ENDBRANCH  68  69
ENDBRANCH   4  68
TORSDOF 31
ENDMDL
MODEL 4
REMARK VINA RESULT:    -9.211      1.823      8.219
REMARK INTER + INTRA:         -25.599
REMARK INTER:                 -21.518
REMARK INTRA:                  -4.081
REMARK UNBOUND:                -3.733
REMARK SMILES O=C(OC[C@@H]1O[C@@H](OC(=O)c2cc(O)c(O)c(O)c2)[C@@H](OC(=O)c2cc(O)c(O)c(O)c2)[C@H](OC(=O)c2cc(O)c(O)c(O)c2)[C@@H]1OC(=O)c1cc(O)c(O)c(O)c1)c1cc(O)c(O)c(O)c1
REMARK SMILES IDX 5 1 46 2 33 3 20 4 7 5 6 6 4 7 3 8 2 9 1 10 59 11 60 12
REMARK SMILES IDX 61 13 67 14 63 15 65 16 62 17 64 19 66 21 47 23 48 24 49 25
REMARK SMILES IDX 50 26 58 27 51 28 56 29 52 30 54 31 57 32 53 34 55 36 34 38
REMARK SMILES IDX 35 39 36 40 37 41 45 42 38 43 43 44 39 45 41 46 44 47 40 49
REMARK SMILES IDX 42 51 8 53 9 54 10 55 11 56 19 57 12 58 17 59 13 60 15 61
REMARK SMILES IDX 18 62 14 64 16 66 21 68 22 69 23 70 24 71 32 72 25 73 30 74
REMARK SMILES IDX 26 75 28 76 31 77 27 79 29 81
REMARK H PARENT 62 18 64 20 66 22 57 33 53 35 55 37 44 48 40 50 42 52 18 63
REMARK H PARENT 14 65 16 67 31 78 27 80 29 82
REMARK Flexibility Score: inf
ROOT
ATOM      1  C   UNL     1      21.969  25.967  28.771  1.00  0.00     0.205 C 
ATOM      2  C   UNL     1      22.876  26.918  29.583  1.00  0.00     0.254 C 
ATOM      3  C   UNL     1      22.003  27.993  30.262  1.00  0.00     0.267 C 
ATOM      4  C   UNL     1      21.100  28.676  29.219  1.00  0.00     0.290 C 
ATOM      5  C   UNL     1      20.344  27.618  28.397  1.00  0.00     0.357 C 
ATOM      6  O   UNL     1      21.237  26.693  27.796  1.00  0.00    -0.329 OA
ENDROOT
BRANCH   1   7
ATOM      7  C   UNL     1      22.797  24.875  28.073  1.00  0.00     0.269 C 
BRANCH   7   8
ATOM      8  O   UNL     1      22.701  25.001  26.655  1.00  0.00    -0.459 OA
BRANCH   8   9
ATOM      9  C   UNL     1      22.173  24.015  25.813  1.00  0.00     0.338 C 
ATOM     10  O   UNL     1      21.039  23.518  26.052  1.00  0.00    -0.246 OA
BRANCH   9  11
ATOM     11  C   UNL     1      22.937  23.585  24.622  1.00  0.00     0.067 A 
ATOM     12  C   UNL     1      22.276  23.001  23.533  1.00  0.00     0.066 A 
ATOM     13  C   UNL     1      22.987  22.575  22.410  1.00  0.00     0.162 A 
ATOM     14  C   UNL     1      24.329  23.747  24.567  1.00  0.00     0.066 A 
ATOM     15  C   UNL     1      24.385  22.727  22.359  1.00  0.00     0.200 A 
ATOM     16  C   UNL     1      25.060  23.329  23.450  1.00  0.00     0.162 A 
BRANCH  13  17
ATOM     17  O   UNL     1      22.289  21.983  21.355  1.00  0.00    -0.504 OA
ATOM     18  H   UNL     1      22.157  22.447  20.464  1.00  0.00     0.293 HD
ENDBRANCH  13  17
BRANCH  15  19
ATOM     19  O   UNL     1      25.063  22.269  21.225  1.00  0.00    -0.502 OA
ATOM     20  H   UNL     1      25.710  22.826  20.690  1.00  0.00     0.293 HD
ENDBRANCH  15  19
BRANCH  16  21
ATOM     21  O   UNL     1      26.443  23.536  23.462  1.00  0.00    -0.504 OA
ATOM     22  H   UNL     1      26.961  23.860  24.262  1.00  0.00     0.293 HD
ENDBRANCH  16  21
ENDBRANCH   9  11
ENDBRANCH   8   9
ENDBRANCH   7   8
ENDBRANCH   1   7
BRANCH   2  23
ATOM     23  O   UNL     1      23.817  27.541  28.707  1.00  0.00    -0.452 OA
BRANCH  23  24
ATOM     24  C   UNL     1      25.201  27.328  28.766  1.00  0.00     0.338 C 
ATOM     25  O   UNL     1      25.659  26.182  29.029  1.00  0.00    -0.246 OA
BRANCH  24  26
ATOM     26  C   UNL     1      26.122  28.455  28.513  1.00  0.00     0.067 A 
ATOM     27  C   UNL     1      27.264  28.282  27.711  1.00  0.00     0.066 A 
ATOM     28  C   UNL     1      25.860  29.716  29.067  1.00  0.00     0.066 A 
ATOM     29  C   UNL     1      28.129  29.351  27.464  1.00  0.00     0.162 A 
ATOM     30  C   UNL     1      26.723  30.790  28.832  1.00  0.00     0.162 A 
ATOM     31  C   UNL     1      27.864  30.611  28.030  1.00  0.00     0.200 A 
BRANCH  29  32
ATOM     32  O   UNL     1      29.237  29.151  26.640  1.00  0.00    -0.504 OA
ATOM     33  H   UNL     1      29.303  29.572  25.721  1.00  0.00     0.293 HD
ENDBRANCH  29  32
BRANCH  30  34
ATOM     34  O   UNL     1      26.457  32.038  29.398  1.00  0.00    -0.504 OA
ATOM     35  H   UNL     1      25.513  32.309  29.654  1.00  0.00     0.293 HD
ENDBRANCH  30  34
BRANCH  31  36
ATOM     36  O   UNL     1      28.733  31.674  27.781  1.00  0.00    -0.502 OA
ATOM     37  H   UNL     1      28.632  32.575  28.239  1.00  0.00     0.293 HD
ENDBRANCH  31  36
ENDBRANCH  24  26
ENDBRANCH  23  24
ENDBRANCH   2  23
BRANCH   3  38
ATOM     38  O   UNL     1      22.816  28.982  30.892  1.00  0.00    -0.450 OA
BRANCH  38  39
ATOM     39  C   UNL     1      22.321  30.060  31.634  1.00  0.00     0.338 C 
ATOM     40  O   UNL     1      21.340  29.896  32.411  1.00  0.00    -0.246 OA
BRANCH  39  41
ATOM     41  C   UNL     1      22.949  31.394  31.494  1.00  0.00     0.067 A 
ATOM     42  C   UNL     1      22.541  32.289  30.490  1.00  0.00     0.066 A 
ATOM     43  C   UNL     1      23.976  31.779  32.369  1.00  0.00     0.066 A 
ATOM     44  C   UNL     1      23.170  33.534  30.339  1.00  0.00     0.162 A 
ATOM     45  C   UNL     1      24.611  33.016  32.226  1.00  0.00     0.162 A 
ATOM     46  C   UNL     1      24.214  33.896  31.207  1.00  0.00     0.200 A 
BRANCH  44  47
ATOM     47  O   UNL     1      22.763  34.411  29.330  1.00  0.00    -0.504 OA
ATOM     48  H   UNL     1      22.266  35.272  29.537  1.00  0.00     0.293 HD
ENDBRANCH  44  47
BRANCH  45  49
ATOM     49  O   UNL     1      25.634  33.359  33.111  1.00  0.00    -0.504 OA
ATOM     50  H   UNL     1      25.732  34.295  33.481  1.00  0.00     0.293 HD
ENDBRANCH  45  49
BRANCH  46  51
ATOM     51  O   UNL     1      24.860  35.125  31.071  1.00  0.00    -0.502 OA
ATOM     52  H   UNL     1      25.863  35.203  30.947  1.00  0.00     0.293 HD
ENDBRANCH  46  51
ENDBRANCH  39  41
ENDBRANCH  38  39
ENDBRANCH   3  38
BRANCH   5  53
ATOM     53  O   UNL     1      19.382  26.937  29.206  1.00  0.00    -0.428 OA
BRANCH  53  54
ATOM     54  C   UNL     1      18.078  26.654  28.780  1.00  0.00     0.340 C 
ATOM     55  O   UNL     1      17.261  27.593  28.574  1.00  0.00    -0.246 OA
BRANCH  54  56
ATOM     56  C   UNL     1      17.660  25.245  28.603  1.00  0.00     0.067 A 
ATOM     57  C   UNL     1      18.187  24.481  27.548  1.00  0.00     0.066 A 
ATOM     58  C   UNL     1      16.744  24.655  29.489  1.00  0.00     0.066 A 
ATOM     59  C   UNL     1      17.798  23.145  27.374  1.00  0.00     0.162 A 
ATOM     60  C   UNL     1      16.358  23.318  29.325  1.00  0.00     0.162 A 
ATOM     61  C   UNL     1      16.878  22.562  28.262  1.00  0.00     0.200 A 
BRANCH  59  62
ATOM     62  O   UNL     1      18.321  22.395  26.325  1.00  0.00    -0.504 OA
ATOM     63  H   UNL     1      19.283  22.077  26.325  1.00  0.00     0.293 HD
ENDBRANCH  59  62
BRANCH  60  64
ATOM     64  O   UNL     1      15.444  22.755  30.216  1.00  0.00    -0.504 OA
ATOM     65  H   UNL     1      14.527  22.444  29.917  1.00  0.00     0.293 HD
ENDBRANCH  60  64
BRANCH  61  66
ATOM     66  O   UNL     1      16.473  21.233  28.105  1.00  0.00    -0.502 OA
ATOM     67  H   UNL     1      15.807  20.956  27.385  1.00  0.00     0.293 HD
ENDBRANCH  61  66
ENDBRANCH  54  56
ENDBRANCH  53  54
ENDBRANCH   5  53
BRANCH   4  68
ATOM     68  O   UNL     1      20.158  29.536  29.867  1.00  0.00    -0.448 OA
BRANCH  68  69
ATOM     69  C   UNL     1      19.626  30.691  29.273  1.00  0.00     0.339 C 
ATOM     70  O   UNL     1      20.137  31.149  28.215  1.00  0.00    -0.246 OA
BRANCH  69  71
ATOM     71  C   UNL     1      18.443  31.350  29.865  1.00  0.00     0.067 A 
ATOM     72  C   UNL     1      17.282  30.611  30.155  1.00  0.00     0.066 A 
ATOM     73  C   UNL     1      18.464  32.725  30.149  1.00  0.00     0.066 A 
ATOM     74  C   UNL     1      16.174  31.229  30.750  1.00  0.00     0.162 A 
ATOM     75  C   UNL     1      17.358  33.360  30.729  1.00  0.00     0.162 A 
ATOM     76  C   UNL     1      16.206  32.599  31.051  1.00  0.00     0.200 A 
BRANCH  74  77
ATOM     77  O   UNL     1      15.035  30.486  31.061  1.00  0.00    -0.504 OA
ATOM     78  H   UNL     1      14.551  30.605  31.937  1.00  0.00     0.293 HD
ENDBRANCH  74  77
BRANCH  75  79
ATOM     79  O   UNL     1      17.445  34.737  30.954  1.00  0.00    -0.504 OA
ATOM     80  H   UNL     1      17.990  35.155  31.691  1.00  0.00     0.293 HD
ENDBRANCH  75  79
BRANCH  76  81
ATOM     81  O   UNL     1      15.091  33.162  31.676  1.00  0.00    -0.502 OA
ATOM     82  H   UNL     1      14.183  33.214  31.248  1.00  0.00     0.293 HD
ENDBRANCH  76  81
ENDBRANCH  69  71
ENDBRANCH  68  69
ENDBRANCH   4  68
TORSDOF 31
ENDMDL
MODEL 5
REMARK VINA RESULT:    -9.173      1.509      2.309
REMARK INTER + INTRA:         -25.507
REMARK INTER:                 -21.654
REMARK INTRA:                  -3.853
REMARK UNBOUND:                -3.733
REMARK SMILES O=C(OC[C@@H]1O[C@@H](OC(=O)c2cc(O)c(O)c(O)c2)[C@@H](OC(=O)c2cc(O)c(O)c(O)c2)[C@H](OC(=O)c2cc(O)c(O)c(O)c2)[C@@H]1OC(=O)c1cc(O)c(O)c(O)c1)c1cc(O)c(O)c(O)c1
REMARK SMILES IDX 5 1 46 2 33 3 20 4 7 5 6 6 4 7 3 8 2 9 1 10 59 11 60 12
REMARK SMILES IDX 61 13 67 14 63 15 65 16 62 17 64 19 66 21 47 23 48 24 49 25
REMARK SMILES IDX 50 26 58 27 51 28 56 29 52 30 54 31 57 32 53 34 55 36 34 38
REMARK SMILES IDX 35 39 36 40 37 41 45 42 38 43 43 44 39 45 41 46 44 47 40 49
REMARK SMILES IDX 42 51 8 53 9 54 10 55 11 56 19 57 12 58 17 59 13 60 15 61
REMARK SMILES IDX 18 62 14 64 16 66 21 68 22 69 23 70 24 71 32 72 25 73 30 74
REMARK SMILES IDX 26 75 28 76 31 77 27 79 29 81
REMARK H PARENT 62 18 64 20 66 22 57 33 53 35 55 37 44 48 40 50 42 52 18 63
REMARK H PARENT 14 65 16 67 31 78 27 80 29 82
REMARK Flexibility Score: inf
ROOT
ATOM      1  C   UNL     1      22.457  27.812  28.084  1.00  0.00     0.205 C 
ATOM      2  C   UNL     1      21.460  28.684  28.877  1.00  0.00     0.254 C 
ATOM      3  C   UNL     1      22.216  29.872  29.506  1.00  0.00     0.267 C 
ATOM      4  C   UNL     1      23.426  29.362  30.310  1.00  0.00     0.290 C 
ATOM      5  C   UNL     1      24.272  28.409  29.447  1.00  0.00     0.357 C 
ATOM      6  O   UNL     1      23.490  27.340  28.936  1.00  0.00    -0.329 OA
ENDROOT
BRANCH   1   7
ATOM      7  C   UNL     1      21.748  26.610  27.436  1.00  0.00     0.269 C 
BRANCH   7   8
ATOM      8  O   UNL     1      22.678  25.810  26.708  1.00  0.00    -0.459 OA
BRANCH   8   9
ATOM      9  C   UNL     1      22.465  24.467  26.374  1.00  0.00     0.338 C 
ATOM     10  O   UNL     1      21.799  23.720  27.140  1.00  0.00    -0.246 OA
BRANCH   9  11
ATOM     11  C   UNL     1      22.997  23.939  25.099  1.00  0.00     0.067 A 
ATOM     12  C   UNL     1      22.128  23.394  24.144  1.00  0.00     0.066 A 
ATOM     13  C   UNL     1      22.618  22.877  22.943  1.00  0.00     0.162 A 
ATOM     14  C   UNL     1      24.373  23.969  24.829  1.00  0.00     0.066 A 
ATOM     15  C   UNL     1      23.999  22.896  22.678  1.00  0.00     0.200 A 
ATOM     16  C   UNL     1      24.885  23.458  23.631  1.00  0.00     0.162 A 
BRANCH  13  17
ATOM     17  O   UNL     1      21.717  22.328  22.029  1.00  0.00    -0.504 OA
ATOM     18  H   UNL     1      22.004  22.000  21.114  1.00  0.00     0.293 HD
ENDBRANCH  13  17
BRANCH  15  19
ATOM     19  O   UNL     1      24.452  22.349  21.473  1.00  0.00    -0.502 OA
ATOM     20  H   UNL     1      24.106  21.489  21.078  1.00  0.00     0.293 HD
ENDBRANCH  15  19
BRANCH  16  21
ATOM     21  O   UNL     1      26.265  23.535  23.428  1.00  0.00    -0.504 OA
ATOM     22  H   UNL     1      26.745  24.352  23.087  1.00  0.00     0.293 HD
ENDBRANCH  16  21
ENDBRANCH   9  11
ENDBRANCH   8   9
ENDBRANCH   7   8
ENDBRANCH   1   7
BRANCH   2  23
ATOM     23  O   UNL     1      20.852  27.899  29.903  1.00  0.00    -0.452 OA
BRANCH  23  24
ATOM     24  C   UNL     1      19.467  27.747  30.056  1.00  0.00     0.338 C 
ATOM     25  O   UNL     1      18.866  28.310  31.012  1.00  0.00    -0.246 OA
BRANCH  24  26
ATOM     26  C   UNL     1      18.713  26.925  29.088  1.00  0.00     0.067 A 
ATOM     27  C   UNL     1      19.239  25.709  28.616  1.00  0.00     0.066 A 
ATOM     28  C   UNL     1      17.455  27.347  28.635  1.00  0.00     0.066 A 
ATOM     29  C   UNL     1      18.520  24.928  27.708  1.00  0.00     0.162 A 
ATOM     30  C   UNL     1      16.732  26.576  27.722  1.00  0.00     0.162 A 
ATOM     31  C   UNL     1      17.263  25.362  27.252  1.00  0.00     0.200 A 
BRANCH  29  32
ATOM     32  O   UNL     1      19.061  23.713  27.283  1.00  0.00    -0.504 OA
ATOM     33  H   UNL     1      20.058  23.583  27.166  1.00  0.00     0.293 HD
ENDBRANCH  29  32
BRANCH  30  34
ATOM     34  O   UNL     1      15.485  27.013  27.269  1.00  0.00    -0.504 OA
ATOM     35  H   UNL     1      14.679  26.395  27.272  1.00  0.00     0.293 HD
ENDBRANCH  30  34
BRANCH  31  36
ATOM     36  O   UNL     1      16.552  24.577  26.343  1.00  0.00    -0.502 OA
ATOM     37  H   UNL     1      16.565  23.562  26.378  1.00  0.00     0.293 HD
ENDBRANCH  31  36
ENDBRANCH  24  26
ENDBRANCH  23  24
ENDBRANCH   2  23
BRANCH   3  38
ATOM     38  O   UNL     1      21.360  30.614  30.376  1.00  0.00    -0.450 OA
BRANCH  38  39
ATOM     39  C   UNL     1      20.893  31.906  30.114  1.00  0.00     0.338 C 
ATOM     40  O   UNL     1      21.679  32.785  29.665  1.00  0.00    -0.246 OA
BRANCH  39  41
ATOM     41  C   UNL     1      19.472  32.236  30.375  1.00  0.00     0.067 A 
ATOM     42  C   UNL     1      19.113  33.398  31.080  1.00  0.00     0.066 A 
ATOM     43  C   UNL     1      18.460  31.376  29.924  1.00  0.00     0.066 A 
ATOM     44  C   UNL     1      17.768  33.681  31.358  1.00  0.00     0.162 A 
ATOM     45  C   UNL     1      17.117  31.647  30.197  1.00  0.00     0.162 A 
ATOM     46  C   UNL     1      16.765  32.798  30.921  1.00  0.00     0.200 A 
BRANCH  44  47
ATOM     47  O   UNL     1      17.422  34.834  32.069  1.00  0.00    -0.504 OA
ATOM     48  H   UNL     1      16.481  34.986  32.418  1.00  0.00     0.293 HD
ENDBRANCH  44  47
BRANCH  45  49
ATOM     49  O   UNL     1      16.139  30.763  29.738  1.00  0.00    -0.504 OA
ATOM     50  H   UNL     1      16.361  29.991  29.124  1.00  0.00     0.293 HD
ENDBRANCH  45  49
BRANCH  46  51
ATOM     51  O   UNL     1      15.421  33.054  31.193  1.00  0.00    -0.502 OA
ATOM     52  H   UNL     1      15.090  33.303  32.119  1.00  0.00     0.293 HD
ENDBRANCH  46  51
ENDBRANCH  39  41
ENDBRANCH  38  39
ENDBRANCH   3  38
BRANCH   5  53
ATOM     53  O   UNL     1      24.912  29.118  28.384  1.00  0.00    -0.428 OA
BRANCH  53  54
ATOM     54  C   UNL     1      25.852  28.535  27.524  1.00  0.00     0.340 C 
ATOM     55  O   UNL     1      25.508  27.599  26.751  1.00  0.00    -0.246 OA
BRANCH  54  56
ATOM     56  C   UNL     1      27.254  29.007  27.550  1.00  0.00     0.067 A 
ATOM     57  C   UNL     1      27.549  30.318  27.959  1.00  0.00     0.066 A 
ATOM     58  C   UNL     1      28.304  28.149  27.181  1.00  0.00     0.066 A 
ATOM     59  C   UNL     1      28.876  30.772  27.990  1.00  0.00     0.162 A 
ATOM     60  C   UNL     1      29.632  28.595  27.218  1.00  0.00     0.162 A 
ATOM     61  C   UNL     1      29.921  29.910  27.615  1.00  0.00     0.200 A 
BRANCH  59  62
ATOM     62  O   UNL     1      29.161  32.075  28.391  1.00  0.00    -0.504 OA
ATOM     63  H   UNL     1      29.449  32.785  27.728  1.00  0.00     0.293 HD
ENDBRANCH  59  62
BRANCH  60  64
ATOM     64  O   UNL     1      30.656  27.726  26.843  1.00  0.00    -0.504 OA
ATOM     65  H   UNL     1      30.499  26.957  26.201  1.00  0.00     0.293 HD
ENDBRANCH  60  64
BRANCH  61  66
ATOM     66  O   UNL     1      31.249  30.344  27.634  1.00  0.00    -0.502 OA
ATOM     67  H   UNL     1      31.525  31.250  27.257  1.00  0.00     0.293 HD
ENDBRANCH  61  66
ENDBRANCH  54  56
ENDBRANCH  53  54
ENDBRANCH   5  53
BRANCH   4  68
ATOM     68  O   UNL     1      24.237  30.461  30.736  1.00  0.00    -0.448 OA
BRANCH  68  69
ATOM     69  C   UNL     1      25.118  30.397  31.826  1.00  0.00     0.339 C 
ATOM     70  O   UNL     1      24.790  29.767  32.867  1.00  0.00    -0.246 OA
BRANCH  69  71
ATOM     71  C   UNL     1      26.450  31.034  31.739  1.00  0.00     0.067 A 
ATOM     72  C   UNL     1      27.617  30.285  31.974  1.00  0.00     0.066 A 
ATOM     73  C   UNL     1      26.566  32.395  31.416  1.00  0.00     0.066 A 
ATOM     74  C   UNL     1      28.881  30.880  31.855  1.00  0.00     0.162 A 
ATOM     75  C   UNL     1      27.822  33.007  31.310  1.00  0.00     0.162 A 
ATOM     76  C   UNL     1      28.994  32.236  31.513  1.00  0.00     0.200 A 
BRANCH  74  77
ATOM     77  O   UNL     1      30.037  30.128  32.063  1.00  0.00    -0.504 OA
ATOM     78  H   UNL     1      30.280  29.777  32.977  1.00  0.00     0.293 HD
ENDBRANCH  74  77
BRANCH  75  79
ATOM     79  O   UNL     1      27.853  34.373  31.014  1.00  0.00    -0.504 OA
ATOM     80  H   UNL     1      28.277  35.070  31.606  1.00  0.00     0.293 HD
ENDBRANCH  75  79
BRANCH  76  81
ATOM     81  O   UNL     1      30.274  32.775  31.372  1.00  0.00    -0.502 OA
ATOM     82  H   UNL     1      30.793  32.756  30.511  1.00  0.00     0.293 HD
ENDBRANCH  76  81
ENDBRANCH  69  71
ENDBRANCH  68  69
ENDBRANCH   4  68
TORSDOF 31
ENDMDL
MODEL 6
REMARK VINA RESULT:    -9.086      1.341      2.660
REMARK INTER + INTRA:         -25.301
REMARK INTER:                 -21.336
REMARK INTRA:                  -3.966
REMARK UNBOUND:                -3.733
REMARK SMILES O=C(OC[C@@H]1O[C@@H](OC(=O)c2cc(O)c(O)c(O)c2)[C@@H](OC(=O)c2cc(O)c(O)c(O)c2)[C@H](OC(=O)c2cc(O)c(O)c(O)c2)[C@@H]1OC(=O)c1cc(O)c(O)c(O)c1)c1cc(O)c(O)c(O)c1
REMARK SMILES IDX 5 1 46 2 33 3 20 4 7 5 6 6 4 7 3 8 2 9 1 10 59 11 60 12
REMARK SMILES IDX 61 13 67 14 63 15 65 16 62 17 64 19 66 21 47 23 48 24 49 25
REMARK SMILES IDX 50 26 58 27 51 28 56 29 52 30 54 31 57 32 53 34 55 36 34 38
REMARK SMILES IDX 35 39 36 40 37 41 45 42 38 43 43 44 39 45 41 46 44 47 40 49
REMARK SMILES IDX 42 51 8 53 9 54 10 55 11 56 19 57 12 58 17 59 13 60 15 61
REMARK SMILES IDX 18 62 14 64 16 66 21 68 22 69 23 70 24 71 32 72 25 73 30 74
REMARK SMILES IDX 26 75 28 76 31 77 27 79 29 81
REMARK H PARENT 62 18 64 20 66 22 57 33 53 35 55 37 44 48 40 50 42 52 18 63
REMARK H PARENT 14 65 16 67 31 78 27 80 29 82
REMARK Flexibility Score: inf
ROOT
ATOM      1  C   UNL     1      22.904  27.289  27.623  1.00  0.00     0.205 C 
ATOM      2  C   UNL     1      21.725  27.953  28.369  1.00  0.00     0.254 C 
ATOM      3  C   UNL     1      22.224  29.236  29.062  1.00  0.00     0.267 C 
ATOM      4  C   UNL     1      23.457  28.924  29.929  1.00  0.00     0.290 C 
ATOM      5  C   UNL     1      24.505  28.156  29.103  1.00  0.00     0.357 C 
ATOM      6  O   UNL     1      23.953  26.982  28.529  1.00  0.00    -0.329 OA
ENDROOT
BRANCH   1   7
ATOM      7  C   UNL     1      22.455  26.000  26.914  1.00  0.00     0.269 C 
BRANCH   7   8
ATOM      8  O   UNL     1      23.505  25.481  26.100  1.00  0.00    -0.459 OA
BRANCH   8   9
ATOM      9  C   UNL     1      23.546  25.593  24.706  1.00  0.00     0.338 C 
ATOM     10  O   UNL     1      23.502  26.728  24.159  1.00  0.00    -0.246 OA
BRANCH   9  11
ATOM     11  C   UNL     1      23.676  24.374  23.878  1.00  0.00     0.067 A 
ATOM     12  C   UNL     1      24.932  23.978  23.399  1.00  0.00     0.066 A 
ATOM     13  C   UNL     1      25.066  22.839  22.603  1.00  0.00     0.162 A 
ATOM     14  C   UNL     1      22.550  23.603  23.557  1.00  0.00     0.066 A 
ATOM     15  C   UNL     1      23.935  22.071  22.271  1.00  0.00     0.200 A 
ATOM     16  C   UNL     1      22.663  22.456  22.763  1.00  0.00     0.162 A 
BRANCH  13  17
ATOM     17  O   UNL     1      26.335  22.492  22.133  1.00  0.00    -0.504 OA
ATOM     18  H   UNL     1      26.945  23.159  21.675  1.00  0.00     0.293 HD
ENDBRANCH  13  17
BRANCH  15  19
ATOM     19  O   UNL     1      24.109  20.950  21.455  1.00  0.00    -0.502 OA
ATOM     20  H   UNL     1      24.005  19.999  21.772  1.00  0.00     0.293 HD
ENDBRANCH  15  19
BRANCH  16  21
ATOM     21  O   UNL     1      21.498  21.732  22.497  1.00  0.00    -0.504 OA
ATOM     22  H   UNL     1      21.343  20.779  22.784  1.00  0.00     0.293 HD
ENDBRANCH  16  21
ENDBRANCH   9  11
ENDBRANCH   8   9
ENDBRANCH   7   8
ENDBRANCH   1   7
BRANCH   2  23
ATOM     23  O   UNL     1      21.208  27.046  29.343  1.00  0.00    -0.452 OA
BRANCH  23  24
ATOM     24  C   UNL     1      19.841  26.872  29.603  1.00  0.00     0.338 C 
ATOM     25  O   UNL     1      19.337  27.303  30.677  1.00  0.00    -0.246 OA
BRANCH  24  26
ATOM     26  C   UNL     1      18.993  26.182  28.610  1.00  0.00     0.067 A 
ATOM     27  C   UNL     1      19.375  24.936  28.082  1.00  0.00     0.066 A 
ATOM     28  C   UNL     1      17.787  26.763  28.190  1.00  0.00     0.066 A 
ATOM     29  C   UNL     1      18.566  24.281  27.150  1.00  0.00     0.162 A 
ATOM     30  C   UNL     1      16.976  26.118  27.252  1.00  0.00     0.162 A 
ATOM     31  C   UNL     1      17.364  24.873  26.727  1.00  0.00     0.200 A 
BRANCH  29  32
ATOM     32  O   UNL     1      18.963  23.032  26.669  1.00  0.00    -0.504 OA
ATOM     33  H   UNL     1      19.626  22.452  27.168  1.00  0.00     0.293 HD
ENDBRANCH  29  32
BRANCH  30  34
ATOM     34  O   UNL     1      15.784  26.712  26.833  1.00  0.00    -0.504 OA
ATOM     35  H   UNL     1      15.213  27.254  27.474  1.00  0.00     0.293 HD
ENDBRANCH  30  34
BRANCH  31  36
ATOM     36  O   UNL     1      16.562  24.213  25.794  1.00  0.00    -0.502 OA
ATOM     37  H   UNL     1      15.567  24.071  25.940  1.00  0.00     0.293 HD
ENDBRANCH  31  36
ENDBRANCH  24  26
ENDBRANCH  23  24
ENDBRANCH   2  23
BRANCH   3  38
ATOM     38  O   UNL     1      21.203  29.794  29.890  1.00  0.00    -0.450 OA
BRANCH  38  39
ATOM     39  C   UNL     1      20.629  31.056  29.699  1.00  0.00     0.338 C 
ATOM     40  O   UNL     1      21.343  32.025  29.322  1.00  0.00    -0.246 OA
BRANCH  39  41
ATOM     41  C   UNL     1      19.182  31.246  29.951  1.00  0.00     0.067 A 
ATOM     42  C   UNL     1      18.273  30.183  29.813  1.00  0.00     0.066 A 
ATOM     43  C   UNL     1      18.698  32.508  30.327  1.00  0.00     0.066 A 
ATOM     44  C   UNL     1      16.899  30.383  30.013  1.00  0.00     0.162 A 
ATOM     45  C   UNL     1      17.331  32.719  30.528  1.00  0.00     0.162 A 
ATOM     46  C   UNL     1      16.425  31.658  30.366  1.00  0.00     0.200 A 
BRANCH  44  47
ATOM     47  O   UNL     1      16.003  29.321  29.862  1.00  0.00    -0.504 OA
ATOM     48  H   UNL     1      16.252  28.478  29.356  1.00  0.00     0.293 HD
ENDBRANCH  44  47
BRANCH  45  49
ATOM     49  O   UNL     1      16.887  33.990  30.893  1.00  0.00    -0.504 OA
ATOM     50  H   UNL     1      17.192  34.440  31.746  1.00  0.00     0.293 HD
ENDBRANCH  45  49
BRANCH  46  51
ATOM     51  O   UNL     1      15.062  31.883  30.563  1.00  0.00    -0.502 OA
ATOM     52  H   UNL     1      14.347  31.386  30.043  1.00  0.00     0.293 HD
ENDBRANCH  46  51
ENDBRANCH  39  41
ENDBRANCH  38  39
ENDBRANCH   3  38
BRANCH   5  53
ATOM     53  O   UNL     1      25.070  28.995  28.093  1.00  0.00    -0.428 OA
BRANCH  53  54
ATOM     54  C   UNL     1      26.053  28.563  27.194  1.00  0.00     0.340 C 
ATOM     55  O   UNL     1      25.756  27.763  26.265  1.00  0.00    -0.246 OA
BRANCH  54  56
ATOM     56  C   UNL     1      27.448  29.030  27.360  1.00  0.00     0.067 A 
ATOM     57  C   UNL     1      28.518  28.193  27.004  1.00  0.00     0.066 A 
ATOM     58  C   UNL     1      27.716  30.314  27.863  1.00  0.00     0.066 A 
ATOM     59  C   UNL     1      29.843  28.629  27.156  1.00  0.00     0.162 A 
ATOM     60  C   UNL     1      29.037  30.758  28.010  1.00  0.00     0.162 A 
ATOM     61  C   UNL     1      30.105  29.913  27.664  1.00  0.00     0.200 A 
BRANCH  59  62
ATOM     62  O   UNL     1      30.899  27.793  26.805  1.00  0.00    -0.504 OA
ATOM     63  H   UNL     1      30.813  27.108  26.063  1.00  0.00     0.293 HD
ENDBRANCH  59  62
BRANCH  60  64
ATOM     64  O   UNL     1      29.279  32.035  28.514  1.00  0.00    -0.504 OA
ATOM     65  H   UNL     1      28.838  32.859  28.120  1.00  0.00     0.293 HD
ENDBRANCH  60  64
BRANCH  61  66
ATOM     66  O   UNL     1      31.417  30.365  27.827  1.00  0.00    -0.502 OA
ATOM     67  H   UNL     1      32.205  29.721  27.882  1.00  0.00     0.293 HD
ENDBRANCH  61  66
ENDBRANCH  54  56
ENDBRANCH  53  54
ENDBRANCH   5  53
BRANCH   4  68
ATOM     68  O   UNL     1      24.036  30.136  30.422  1.00  0.00    -0.448 OA
BRANCH  68  69
ATOM     69  C   UNL     1      24.849  30.198  31.564  1.00  0.00     0.339 C 
ATOM     70  O   UNL     1      24.505  29.598  32.617  1.00  0.00    -0.246 OA
BRANCH  69  71
ATOM     71  C   UNL     1      26.131  30.934  31.521  1.00  0.00     0.067 A 
ATOM     72  C   UNL     1      26.159  32.303  31.199  1.00  0.00     0.066 A 
ATOM     73  C   UNL     1      27.337  30.275  31.807  1.00  0.00     0.066 A 
ATOM     74  C   UNL     1      27.371  33.009  31.196  1.00  0.00     0.162 A 
ATOM     75  C   UNL     1      28.557  30.964  31.792  1.00  0.00     0.162 A 
ATOM     76  C   UNL     1      28.572  32.352  31.502  1.00  0.00     0.200 A 
BRANCH  74  77
ATOM     77  O   UNL     1      27.391  34.372  30.902  1.00  0.00    -0.504 OA
ATOM     78  H   UNL     1      27.445  34.705  29.951  1.00  0.00     0.293 HD
ENDBRANCH  74  77
BRANCH  75  79
ATOM     79  O   UNL     1      29.718  30.232  32.058  1.00  0.00    -0.504 OA
ATOM     80  H   UNL     1      30.568  30.306  31.522  1.00  0.00     0.293 HD
ENDBRANCH  75  79
BRANCH  76  81
ATOM     81  O   UNL     1      29.748  33.105  31.519  1.00  0.00    -0.502 OA
ATOM     82  H   UNL     1      30.260  33.352  30.691  1.00  0.00     0.293 HD
ENDBRANCH  76  81
ENDBRANCH  69  71
ENDBRANCH  68  69
ENDBRANCH   4  68
TORSDOF 31
ENDMDL
MODEL 7
REMARK VINA RESULT:    -9.019      1.747     11.131
REMARK INTER + INTRA:         -25.142
REMARK INTER:                 -20.176
REMARK INTRA:                  -4.966
REMARK UNBOUND:                -3.733
REMARK SMILES O=C(OC[C@@H]1O[C@@H](OC(=O)c2cc(O)c(O)c(O)c2)[C@@H](OC(=O)c2cc(O)c(O)c(O)c2)[C@H](OC(=O)c2cc(O)c(O)c(O)c2)[C@@H]1OC(=O)c1cc(O)c(O)c(O)c1)c1cc(O)c(O)c(O)c1
REMARK SMILES IDX 5 1 46 2 33 3 20 4 7 5 6 6 4 7 3 8 2 9 1 10 59 11 60 12
REMARK SMILES IDX 61 13 67 14 63 15 65 16 62 17 64 19 66 21 47 23 48 24 49 25
REMARK SMILES IDX 50 26 58 27 51 28 56 29 52 30 54 31 57 32 53 34 55 36 34 38
REMARK SMILES IDX 35 39 36 40 37 41 45 42 38 43 43 44 39 45 41 46 44 47 40 49
REMARK SMILES IDX 42 51 8 53 9 54 10 55 11 56 19 57 12 58 17 59 13 60 15 61
REMARK SMILES IDX 18 62 14 64 16 66 21 68 22 69 23 70 24 71 32 72 25 73 30 74
REMARK SMILES IDX 26 75 28 76 31 77 27 79 29 81
REMARK H PARENT 62 18 64 20 66 22 57 33 53 35 55 37 44 48 40 50 42 52 18 63
REMARK H PARENT 14 65 16 67 31 78 27 80 29 82
REMARK Flexibility Score: inf
ROOT
ATOM      1  C   UNL     1      22.413  29.862  30.009  1.00  0.00     0.205 C 
ATOM      2  C   UNL     1      23.933  29.728  29.769  1.00  0.00     0.254 C 
ATOM      3  C   UNL     1      24.183  28.637  28.708  1.00  0.00     0.267 C 
ATOM      4  C   UNL     1      23.463  27.336  29.108  1.00  0.00     0.290 C 
ATOM      5  C   UNL     1      21.988  27.626  29.439  1.00  0.00     0.357 C 
ATOM      6  O   UNL     1      21.868  28.624  30.440  1.00  0.00    -0.329 OA
ENDROOT
BRANCH   1   7
ATOM      7  C   UNL     1      22.112  30.940  31.064  1.00  0.00     0.269 C 
BRANCH   7   8
ATOM      8  O   UNL     1      21.518  32.086  30.457  1.00  0.00    -0.459 OA
BRANCH   8   9
ATOM      9  C   UNL     1      20.604  32.930  31.099  1.00  0.00     0.338 C 
ATOM     10  O   UNL     1      21.009  33.956  31.711  1.00  0.00    -0.246 OA
BRANCH   9  11
ATOM     11  C   UNL     1      19.157  32.631  31.027  1.00  0.00     0.067 A 
ATOM     12  C   UNL     1      18.702  31.525  30.297  1.00  0.00     0.066 A 
ATOM     13  C   UNL     1      17.338  31.240  30.207  1.00  0.00     0.162 A 
ATOM     14  C   UNL     1      18.223  33.449  31.679  1.00  0.00     0.066 A 
ATOM     15  C   UNL     1      16.400  32.067  30.851  1.00  0.00     0.200 A 
ATOM     16  C   UNL     1      16.852  33.180  31.603  1.00  0.00     0.162 A 
BRANCH  13  17
ATOM     17  O   UNL     1      16.928  30.137  29.454  1.00  0.00    -0.504 OA
ATOM     18  H   UNL     1      16.081  29.623  29.663  1.00  0.00     0.293 HD
ENDBRANCH  13  17
BRANCH  15  19
ATOM     19  O   UNL     1      15.042  31.760  30.719  1.00  0.00    -0.502 OA
ATOM     20  H   UNL     1      14.634  30.877  30.984  1.00  0.00     0.293 HD
ENDBRANCH  15  19
BRANCH  16  21
ATOM     21  O   UNL     1      15.983  34.032  32.290  1.00  0.00    -0.504 OA
ATOM     22  H   UNL     1      15.118  34.384  31.915  1.00  0.00     0.293 HD
ENDBRANCH  16  21
ENDBRANCH   9  11
ENDBRANCH   8   9
ENDBRANCH   7   8
ENDBRANCH   1   7
BRANCH   2  23
ATOM     23  O   UNL     1      24.578  29.371  30.991  1.00  0.00    -0.452 OA
BRANCH  23  24
ATOM     24  C   UNL     1      25.109  30.300  31.897  1.00  0.00     0.338 C 
ATOM     25  O   UNL     1      24.829  30.224  33.125  1.00  0.00    -0.246 OA
BRANCH  24  26
ATOM     26  C   UNL     1      26.004  31.367  31.405  1.00  0.00     0.067 A 
ATOM     27  C   UNL     1      25.477  32.524  30.804  1.00  0.00     0.066 A 
ATOM     28  C   UNL     1      27.394  31.239  31.541  1.00  0.00     0.066 A 
ATOM     29  C   UNL     1      26.323  33.538  30.348  1.00  0.00     0.162 A 
ATOM     30  C   UNL     1      28.249  32.244  31.081  1.00  0.00     0.162 A 
ATOM     31  C   UNL     1      27.716  33.399  30.480  1.00  0.00     0.200 A 
BRANCH  29  32
ATOM     32  O   UNL     1      25.764  34.685  29.783  1.00  0.00    -0.504 OA
ATOM     33  H   UNL     1      26.075  35.614  30.040  1.00  0.00     0.293 HD
ENDBRANCH  29  32
BRANCH  30  34
ATOM     34  O   UNL     1      29.631  32.101  31.212  1.00  0.00    -0.504 OA
ATOM     35  H   UNL     1      30.182  31.639  30.495  1.00  0.00     0.293 HD
ENDBRANCH  30  34
BRANCH  31  36
ATOM     36  O   UNL     1      28.556  34.414  30.020  1.00  0.00    -0.502 OA
ATOM     37  H   UNL     1      29.227  34.877  30.626  1.00  0.00     0.293 HD
ENDBRANCH  31  36
ENDBRANCH  24  26
ENDBRANCH  23  24
ENDBRANCH   2  23
BRANCH   3  38
ATOM     38  O   UNL     1      25.579  28.373  28.571  1.00  0.00    -0.450 OA
BRANCH  38  39
ATOM     39  C   UNL     1      26.306  28.544  27.389  1.00  0.00     0.338 C 
ATOM     40  O   UNL     1      25.763  28.312  26.273  1.00  0.00    -0.246 OA
BRANCH  39  41
ATOM     41  C   UNL     1      27.717  28.990  27.456  1.00  0.00     0.067 A 
ATOM     42  C   UNL     1      28.049  30.300  27.845  1.00  0.00     0.066 A 
ATOM     43  C   UNL     1      28.748  28.100  27.120  1.00  0.00     0.066 A 
ATOM     44  C   UNL     1      29.385  30.724  27.866  1.00  0.00     0.162 A 
ATOM     45  C   UNL     1      30.083  28.513  27.136  1.00  0.00     0.162 A 
ATOM     46  C   UNL     1      30.407  29.830  27.503  1.00  0.00     0.200 A 
BRANCH  44  47
ATOM     47  O   UNL     1      29.703  32.032  28.243  1.00  0.00    -0.504 OA
ATOM     48  H   UNL     1      29.913  32.275  29.205  1.00  0.00     0.293 HD
ENDBRANCH  44  47
BRANCH  45  49
ATOM     49  O   UNL     1      31.080  27.601  26.787  1.00  0.00    -0.504 OA
ATOM     50  H   UNL     1      30.959  26.936  26.035  1.00  0.00     0.293 HD
ENDBRANCH  45  49
BRANCH  46  51
ATOM     51  O   UNL     1      31.742  30.232  27.508  1.00  0.00    -0.502 OA
ATOM     52  H   UNL     1      32.453  29.770  26.952  1.00  0.00     0.293 HD
ENDBRANCH  46  51
ENDBRANCH  39  41
ENDBRANCH  38  39
ENDBRANCH   3  38
BRANCH   5  53
ATOM     53  O   UNL     1      21.267  28.001  28.263  1.00  0.00    -0.428 OA
BRANCH  53  54
ATOM     54  C   UNL     1      19.879  28.182  28.234  1.00  0.00     0.340 C 
ATOM     55  O   UNL     1      19.390  29.277  27.844  1.00  0.00    -0.246 OA
BRANCH  54  56
ATOM     56  C   UNL     1      18.993  27.089  28.694  1.00  0.00     0.067 A 
ATOM     57  C   UNL     1      18.754  25.980  27.865  1.00  0.00     0.066 A 
ATOM     58  C   UNL     1      18.393  27.141  29.963  1.00  0.00     0.066 A 
ATOM     59  C   UNL     1      17.918  24.939  28.293  1.00  0.00     0.162 A 
ATOM     60  C   UNL     1      17.563  26.099  30.400  1.00  0.00     0.162 A 
ATOM     61  C   UNL     1      17.317  24.999  29.563  1.00  0.00     0.200 A 
BRANCH  59  62
ATOM     62  O   UNL     1      17.681  23.845  27.465  1.00  0.00    -0.504 OA
ATOM     63  H   UNL     1      17.855  23.886  26.467  1.00  0.00     0.293 HD
ENDBRANCH  59  62
BRANCH  60  64
ATOM     64  O   UNL     1      16.976  26.175  31.662  1.00  0.00    -0.504 OA
ATOM     65  H   UNL     1      16.132  26.711  31.829  1.00  0.00     0.293 HD
ENDBRANCH  60  64
BRANCH  61  66
ATOM     66  O   UNL     1      16.478  23.975  30.007  1.00  0.00    -0.502 OA
ATOM     67  H   UNL     1      16.600  23.537  30.920  1.00  0.00     0.293 HD
ENDBRANCH  61  66
ENDBRANCH  54  56
ENDBRANCH  53  54
ENDBRANCH   5  53
BRANCH   4  68
ATOM     68  O   UNL     1      23.532  26.383  28.042  1.00  0.00    -0.448 OA
BRANCH  68  69
ATOM     69  C   UNL     1      22.940  25.113  28.099  1.00  0.00     0.339 C 
ATOM     70  O   UNL     1      22.768  24.546  29.211  1.00  0.00    -0.246 OA
BRANCH  69  71
ATOM     71  C   UNL     1      22.480  24.454  26.858  1.00  0.00     0.067 A 
ATOM     72  C   UNL     1      23.219  24.577  25.667  1.00  0.00     0.066 A 
ATOM     73  C   UNL     1      21.301  23.692  26.853  1.00  0.00     0.066 A 
ATOM     74  C   UNL     1      22.802  23.922  24.499  1.00  0.00     0.162 A 
ATOM     75  C   UNL     1      20.864  23.045  25.690  1.00  0.00     0.162 A 
ATOM     76  C   UNL     1      21.635  23.145  24.504  1.00  0.00     0.200 A 
BRANCH  74  77
ATOM     77  O   UNL     1      23.552  24.025  23.328  1.00  0.00    -0.504 OA
ATOM     78  H   UNL     1      24.513  23.719  23.289  1.00  0.00     0.293 HD
ENDBRANCH  74  77
BRANCH  75  79
ATOM     79  O   UNL     1      19.665  22.330  25.758  1.00  0.00    -0.504 OA
ATOM     80  H   UNL     1      19.590  21.337  25.608  1.00  0.00     0.293 HD
ENDBRANCH  75  79
BRANCH  76  81
ATOM     81  O   UNL     1      21.279  22.483  23.327  1.00  0.00    -0.502 OA
ATOM     82  H   UNL     1      20.583  21.759  23.286  1.00  0.00     0.293 HD
ENDBRANCH  76  81
ENDBRANCH  69  71
ENDBRANCH  68  69
ENDBRANCH   4  68
TORSDOF 31
ENDMDL
MODEL 8
REMARK VINA RESULT:    -9.017      1.938     11.372
REMARK INTER + INTRA:         -25.138
REMARK INTER:                 -20.439
REMARK INTRA:                  -4.698
REMARK UNBOUND:                -3.733
REMARK SMILES O=C(OC[C@@H]1O[C@@H](OC(=O)c2cc(O)c(O)c(O)c2)[C@@H](OC(=O)c2cc(O)c(O)c(O)c2)[C@H](OC(=O)c2cc(O)c(O)c(O)c2)[C@@H]1OC(=O)c1cc(O)c(O)c(O)c1)c1cc(O)c(O)c(O)c1
REMARK SMILES IDX 5 1 46 2 33 3 20 4 7 5 6 6 4 7 3 8 2 9 1 10 59 11 60 12
REMARK SMILES IDX 61 13 67 14 63 15 65 16 62 17 64 19 66 21 47 23 48 24 49 25
REMARK SMILES IDX 50 26 58 27 51 28 56 29 52 30 54 31 57 32 53 34 55 36 34 38
REMARK SMILES IDX 35 39 36 40 37 41 45 42 38 43 43 44 39 45 41 46 44 47 40 49
REMARK SMILES IDX 42 51 8 53 9 54 10 55 11 56 19 57 12 58 17 59 13 60 15 61
REMARK SMILES IDX 18 62 14 64 16 66 21 68 22 69 23 70 24 71 32 72 25 73 30 74
REMARK SMILES IDX 26 75 28 76 31 77 27 79 29 81
REMARK H PARENT 62 18 64 20 66 22 57 33 53 35 55 37 44 48 40 50 42 52 18 63
REMARK H PARENT 14 65 16 67 31 78 27 80 29 82
REMARK Flexibility Score: inf
ROOT
ATOM      1  C   UNL     1      22.409  29.766  30.439  1.00  0.00     0.205 C 
ATOM      2  C   UNL     1      23.875  29.689  29.958  1.00  0.00     0.254 C 
ATOM      3  C   UNL     1      23.955  28.760  28.729  1.00  0.00     0.267 C 
ATOM      4  C   UNL     1      23.296  27.406  29.047  1.00  0.00     0.290 C 
ATOM      5  C   UNL     1      21.889  27.625  29.632  1.00  0.00     0.357 C 
ATOM      6  O   UNL     1      21.927  28.472  30.770  1.00  0.00    -0.329 OA
ENDROOT
BRANCH   1   7
ATOM      7  C   UNL     1      22.278  30.683  31.667  1.00  0.00     0.269 C 
BRANCH   7   8
ATOM      8  O   UNL     1      22.832  31.969  31.397  1.00  0.00    -0.459 OA
BRANCH   8   9
ATOM      9  C   UNL     1      22.310  33.169  31.893  1.00  0.00     0.338 C 
ATOM     10  O   UNL     1      22.968  33.852  32.724  1.00  0.00    -0.246 OA
BRANCH   9  11
ATOM     11  C   UNL     1      20.996  33.649  31.411  1.00  0.00     0.067 A 
ATOM     12  C   UNL     1      20.813  33.961  30.057  1.00  0.00     0.066 A 
ATOM     13  C   UNL     1      19.583  34.431  29.592  1.00  0.00     0.162 A 
ATOM     14  C   UNL     1      19.921  33.805  32.298  1.00  0.00     0.066 A 
ATOM     15  C   UNL     1      18.508  34.599  30.484  1.00  0.00     0.200 A 
ATOM     16  C   UNL     1      18.680  34.273  31.852  1.00  0.00     0.162 A 
BRANCH  13  17
ATOM     17  O   UNL     1      19.451  34.746  28.238  1.00  0.00    -0.504 OA
ATOM     18  H   UNL     1      18.988  35.589  27.920  1.00  0.00     0.293 HD
ENDBRANCH  13  17
BRANCH  15  19
ATOM     19  O   UNL     1      17.299  35.092  29.982  1.00  0.00    -0.502 OA
ATOM     20  H   UNL     1      16.966  34.925  29.046  1.00  0.00     0.293 HD
ENDBRANCH  15  19
BRANCH  16  21
ATOM     21  O   UNL     1      17.652  34.389  32.792  1.00  0.00    -0.504 OA
ATOM     22  H   UNL     1      17.702  34.959  33.621  1.00  0.00     0.293 HD
ENDBRANCH  16  21
ENDBRANCH   9  11
ENDBRANCH   8   9
ENDBRANCH   7   8
ENDBRANCH   1   7
BRANCH   2  23
ATOM     23  O   UNL     1      24.694  29.175  31.008  1.00  0.00    -0.452 OA
BRANCH  23  24
ATOM     24  C   UNL     1      25.397  29.978  31.917  1.00  0.00     0.338 C 
ATOM     25  O   UNL     1      25.036  30.038  33.125  1.00  0.00    -0.246 OA
BRANCH  24  26
ATOM     26  C   UNL     1      26.566  30.751  31.454  1.00  0.00     0.067 A 
ATOM     27  C   UNL     1      27.870  30.255  31.631  1.00  0.00     0.066 A 
ATOM     28  C   UNL     1      26.386  31.989  30.820  1.00  0.00     0.066 A 
ATOM     29  C   UNL     1      28.976  30.983  31.183  1.00  0.00     0.162 A 
ATOM     30  C   UNL     1      27.485  32.728  30.375  1.00  0.00     0.162 A 
ATOM     31  C   UNL     1      28.787  32.228  30.557  1.00  0.00     0.200 A 
BRANCH  29  32
ATOM     32  O   UNL     1      30.253  30.447  31.351  1.00  0.00    -0.504 OA
ATOM     33  H   UNL     1      31.063  30.838  30.883  1.00  0.00     0.293 HD
ENDBRANCH  29  32
BRANCH  30  34
ATOM     34  O   UNL     1      27.293  33.964  29.756  1.00  0.00    -0.504 OA
ATOM     35  H   UNL     1      27.829  34.780  30.034  1.00  0.00     0.293 HD
ENDBRANCH  30  34
BRANCH  31  36
ATOM     36  O   UNL     1      29.896  32.950  30.113  1.00  0.00    -0.502 OA
ATOM     37  H   UNL     1      30.845  32.696  30.368  1.00  0.00     0.293 HD
ENDBRANCH  31  36
ENDBRANCH  24  26
ENDBRANCH  23  24
ENDBRANCH   2  23
BRANCH   3  38
ATOM     38  O   UNL     1      25.313  28.538  28.350  1.00  0.00    -0.450 OA
BRANCH  38  39
ATOM     39  C   UNL     1      26.143  29.506  27.773  1.00  0.00     0.338 C 
ATOM     40  O   UNL     1      25.687  30.650  27.501  1.00  0.00    -0.246 OA
BRANCH  39  41
ATOM     41  C   UNL     1      27.556  29.174  27.477  1.00  0.00     0.067 A 
ATOM     42  C   UNL     1      27.893  28.068  26.678  1.00  0.00     0.066 A 
ATOM     43  C   UNL     1      28.586  29.968  28.005  1.00  0.00     0.066 A 
ATOM     44  C   UNL     1      29.234  27.738  26.438  1.00  0.00     0.162 A 
ATOM     45  C   UNL     1      29.926  29.647  27.773  1.00  0.00     0.162 A 
ATOM     46  C   UNL     1      30.256  28.528  26.993  1.00  0.00     0.200 A 
BRANCH  44  47
ATOM     47  O   UNL     1      29.558  26.629  25.651  1.00  0.00    -0.504 OA
ATOM     48  H   UNL     1      28.857  26.136  25.108  1.00  0.00     0.293 HD
ENDBRANCH  44  47
BRANCH  45  49
ATOM     49  O   UNL     1      30.922  30.456  28.323  1.00  0.00    -0.504 OA
ATOM     50  H   UNL     1      30.739  31.407  28.616  1.00  0.00     0.293 HD
ENDBRANCH  45  49
BRANCH  46  51
ATOM     51  O   UNL     1      31.598  28.214  26.774  1.00  0.00    -0.502 OA
ATOM     52  H   UNL     1      31.890  27.483  26.135  1.00  0.00     0.293 HD
ENDBRANCH  46  51
ENDBRANCH  39  41
ENDBRANCH  38  39
ENDBRANCH   3  38
BRANCH   5  53
ATOM     53  O   UNL     1      21.002  28.149  28.642  1.00  0.00    -0.428 OA
BRANCH  53  54
ATOM     54  C   UNL     1      19.626  28.311  28.847  1.00  0.00     0.340 C 
ATOM     55  O   UNL     1      19.135  29.466  28.975  1.00  0.00    -0.246 OA
BRANCH  54  56
ATOM     56  C   UNL     1      18.759  27.115  28.942  1.00  0.00     0.067 A 
ATOM     57  C   UNL     1      18.721  26.187  27.888  1.00  0.00     0.066 A 
ATOM     58  C   UNL     1      17.977  26.888  30.086  1.00  0.00     0.066 A 
ATOM     59  C   UNL     1      17.905  25.050  27.971  1.00  0.00     0.162 A 
ATOM     60  C   UNL     1      17.165  25.750  30.178  1.00  0.00     0.162 A 
ATOM     61  C   UNL     1      17.121  24.831  29.117  1.00  0.00     0.200 A 
BRANCH  59  62
ATOM     62  O   UNL     1      17.868  24.136  26.921  1.00  0.00    -0.504 OA
ATOM     63  H   UNL     1      18.517  24.191  26.145  1.00  0.00     0.293 HD
ENDBRANCH  59  62
BRANCH  60  64
ATOM     64  O   UNL     1      16.395  25.548  31.323  1.00  0.00    -0.504 OA
ATOM     65  H   UNL     1      15.408  25.322  31.272  1.00  0.00     0.293 HD
ENDBRANCH  60  64
BRANCH  61  66
ATOM     66  O   UNL     1      16.297  23.707  29.219  1.00  0.00    -0.502 OA
ATOM     67  H   UNL     1      15.870  23.278  28.399  1.00  0.00     0.293 HD
ENDBRANCH  61  66
ENDBRANCH  54  56
ENDBRANCH  53  54
ENDBRANCH   5  53
BRANCH   4  68
ATOM     68  O   UNL     1      23.198  26.612  27.860  1.00  0.00    -0.448 OA
BRANCH  68  69
ATOM     69  C   UNL     1      23.039  25.218  27.871  1.00  0.00     0.339 C 
ATOM     70  O   UNL     1      23.265  24.565  28.926  1.00  0.00    -0.246 OA
BRANCH  69  71
ATOM     71  C   UNL     1      22.566  24.517  26.659  1.00  0.00     0.067 A 
ATOM     72  C   UNL     1      23.298  24.590  25.460  1.00  0.00     0.066 A 
ATOM     73  C   UNL     1      21.382  23.764  26.690  1.00  0.00     0.066 A 
ATOM     74  C   UNL     1      22.870  23.895  24.320  1.00  0.00     0.162 A 
ATOM     75  C   UNL     1      20.933  23.077  25.554  1.00  0.00     0.162 A 
ATOM     76  C   UNL     1      21.696  23.127  24.361  1.00  0.00     0.200 A 
BRANCH  74  77
ATOM     77  O   UNL     1      23.613  23.948  23.141  1.00  0.00    -0.504 OA
ATOM     78  H   UNL     1      24.609  24.108  23.153  1.00  0.00     0.293 HD
ENDBRANCH  74  77
BRANCH  75  79
ATOM     79  O   UNL     1      19.729  22.374  25.657  1.00  0.00    -0.504 OA
ATOM     80  H   UNL     1      18.972  22.450  24.996  1.00  0.00     0.293 HD
ENDBRANCH  75  79
BRANCH  76  81
ATOM     81  O   UNL     1      21.329  22.424  23.211  1.00  0.00    -0.502 OA
ATOM     82  H   UNL     1      21.310  21.421  23.157  1.00  0.00     0.293 HD
ENDBRANCH  76  81
ENDBRANCH  69  71
ENDBRANCH  68  69
ENDBRANCH   4  68
TORSDOF 31
ENDMDL
MODEL 9
REMARK VINA RESULT:    -8.866      1.765     11.235
REMARK INTER + INTRA:         -24.779
REMARK INTER:                 -20.143
REMARK INTRA:                  -4.636
REMARK UNBOUND:                -3.733
REMARK SMILES O=C(OC[C@@H]1O[C@@H](OC(=O)c2cc(O)c(O)c(O)c2)[C@@H](OC(=O)c2cc(O)c(O)c(O)c2)[C@H](OC(=O)c2cc(O)c(O)c(O)c2)[C@@H]1OC(=O)c1cc(O)c(O)c(O)c1)c1cc(O)c(O)c(O)c1
REMARK SMILES IDX 5 1 46 2 33 3 20 4 7 5 6 6 4 7 3 8 2 9 1 10 59 11 60 12
REMARK SMILES IDX 61 13 67 14 63 15 65 16 62 17 64 19 66 21 47 23 48 24 49 25
REMARK SMILES IDX 50 26 58 27 51 28 56 29 52 30 54 31 57 32 53 34 55 36 34 38
REMARK SMILES IDX 35 39 36 40 37 41 45 42 38 43 43 44 39 45 41 46 44 47 40 49
REMARK SMILES IDX 42 51 8 53 9 54 10 55 11 56 19 57 12 58 17 59 13 60 15 61
REMARK SMILES IDX 18 62 14 64 16 66 21 68 22 69 23 70 24 71 32 72 25 73 30 74
REMARK SMILES IDX 26 75 28 76 31 77 27 79 29 81
REMARK H PARENT 62 18 64 20 66 22 57 33 53 35 55 37 44 48 40 50 42 52 18 63
REMARK H PARENT 14 65 16 67 31 78 27 80 29 82
REMARK Flexibility Score: inf
ROOT
ATOM      1  C   UNL     1      22.593  30.013  30.131  1.00  0.00     0.205 C 
ATOM      2  C   UNL     1      24.104  29.841  29.861  1.00  0.00     0.254 C 
ATOM      3  C   UNL     1      24.303  28.781  28.759  1.00  0.00     0.267 C 
ATOM      4  C   UNL     1      23.550  27.489  29.125  1.00  0.00     0.290 C 
ATOM      5  C   UNL     1      22.090  27.812  29.491  1.00  0.00     0.357 C 
ATOM      6  O   UNL     1      22.016  28.777  30.528  1.00  0.00    -0.329 OA
ENDROOT
BRANCH   1   7
ATOM      7  C   UNL     1      22.343  31.062  31.228  1.00  0.00     0.269 C 
BRANCH   7   8
ATOM      8  O   UNL     1      21.606  32.167  30.708  1.00  0.00    -0.459 OA
BRANCH   8   9
ATOM      9  C   UNL     1      20.665  32.899  31.442  1.00  0.00     0.338 C 
ATOM     10  O   UNL     1      21.043  33.801  32.238  1.00  0.00    -0.246 OA
BRANCH   9  11
ATOM     11  C   UNL     1      19.223  32.632  31.254  1.00  0.00     0.067 A 
ATOM     12  C   UNL     1      18.267  33.455  31.865  1.00  0.00     0.066 A 
ATOM     13  C   UNL     1      16.903  33.204  31.709  1.00  0.00     0.162 A 
ATOM     14  C   UNL     1      18.790  31.552  30.470  1.00  0.00     0.066 A 
ATOM     15  C   UNL     1      16.469  32.114  30.932  1.00  0.00     0.200 A 
ATOM     16  C   UNL     1      17.428  31.284  30.299  1.00  0.00     0.162 A 
BRANCH  13  17
ATOM     17  O   UNL     1      15.986  34.040  32.350  1.00  0.00    -0.504 OA
ATOM     18  H   UNL     1      15.957  35.040  32.186  1.00  0.00     0.293 HD
ENDBRANCH  13  17
BRANCH  15  19
ATOM     19  O   UNL     1      15.095  31.884  30.818  1.00  0.00    -0.502 OA
ATOM     20  H   UNL     1      14.538  32.171  30.028  1.00  0.00     0.293 HD
ENDBRANCH  15  19
BRANCH  16  21
ATOM     21  O   UNL     1      17.074  30.199  29.493  1.00  0.00    -0.504 OA
ATOM     22  H   UNL     1      16.148  30.037  29.133  1.00  0.00     0.293 HD
ENDBRANCH  16  21
ENDBRANCH   9  11
ENDBRANCH   8   9
ENDBRANCH   7   8
ENDBRANCH   1   7
BRANCH   2  23
ATOM     23  O   UNL     1      24.757  29.421  31.060  1.00  0.00    -0.452 OA
BRANCH  23  24
ATOM     24  C   UNL     1      25.324  30.301  31.992  1.00  0.00     0.338 C 
ATOM     25  O   UNL     1      24.728  30.552  33.076  1.00  0.00    -0.246 OA
BRANCH  24  26
ATOM     26  C   UNL     1      26.627  30.931  31.699  1.00  0.00     0.067 A 
ATOM     27  C   UNL     1      26.691  32.183  31.062  1.00  0.00     0.066 A 
ATOM     28  C   UNL     1      27.818  30.287  32.065  1.00  0.00     0.066 A 
ATOM     29  C   UNL     1      27.925  32.783  30.795  1.00  0.00     0.162 A 
ATOM     30  C   UNL     1      29.057  30.876  31.795  1.00  0.00     0.162 A 
ATOM     31  C   UNL     1      29.115  32.127  31.156  1.00  0.00     0.200 A 
BRANCH  29  32
ATOM     32  O   UNL     1      27.950  34.039  30.187  1.00  0.00    -0.504 OA
ATOM     33  H   UNL     1      28.421  34.197  29.304  1.00  0.00     0.293 HD
ENDBRANCH  29  32
BRANCH  30  34
ATOM     34  O   UNL     1      30.236  30.220  32.153  1.00  0.00    -0.504 OA
ATOM     35  H   UNL     1      30.793  30.533  32.941  1.00  0.00     0.293 HD
ENDBRANCH  30  34
BRANCH  31  36
ATOM     36  O   UNL     1      30.344  32.732  30.884  1.00  0.00    -0.502 OA
ATOM     37  H   UNL     1      30.439  33.485  30.210  1.00  0.00     0.293 HD
ENDBRANCH  31  36
ENDBRANCH  24  26
ENDBRANCH  23  24
ENDBRANCH   2  23
BRANCH   3  38
ATOM     38  O   UNL     1      25.688  28.479  28.590  1.00  0.00    -0.450 OA
BRANCH  38  39
ATOM     39  C   UNL     1      26.364  28.520  27.366  1.00  0.00     0.338 C 
ATOM     40  O   UNL     1      25.735  28.335  26.289  1.00  0.00    -0.246 OA
BRANCH  39  41
ATOM     41  C   UNL     1      27.824  28.773  27.346  1.00  0.00     0.067 A 
ATOM     42  C   UNL     1      28.722  27.818  26.842  1.00  0.00     0.066 A 
ATOM     43  C   UNL     1      28.331  29.984  27.845  1.00  0.00     0.066 A 
ATOM     44  C   UNL     1      30.105  28.050  26.865  1.00  0.00     0.162 A 
ATOM     45  C   UNL     1      29.707  30.225  27.875  1.00  0.00     0.162 A 
ATOM     46  C   UNL     1      30.601  29.256  27.390  1.00  0.00     0.200 A 
BRANCH  44  47
ATOM     47  O   UNL     1      30.990  27.088  26.371  1.00  0.00    -0.504 OA
ATOM     48  H   UNL     1      31.138  26.958  25.375  1.00  0.00     0.293 HD
ENDBRANCH  44  47
BRANCH  45  49
ATOM     49  O   UNL     1      30.172  31.437  28.387  1.00  0.00    -0.504 OA
ATOM     50  H   UNL     1      29.600  32.270  28.394  1.00  0.00     0.293 HD
ENDBRANCH  45  49
BRANCH  46  51
ATOM     51  O   UNL     1      31.972  29.506  27.432  1.00  0.00    -0.502 OA
ATOM     52  H   UNL     1      32.428  29.915  28.240  1.00  0.00     0.293 HD
ENDBRANCH  46  51
ENDBRANCH  39  41
ENDBRANCH  38  39
ENDBRANCH   3  38
BRANCH   5  53
ATOM     53  O   UNL     1      21.363  28.251  28.341  1.00  0.00    -0.428 OA
BRANCH  53  54
ATOM     54  C   UNL     1      19.968  28.379  28.313  1.00  0.00     0.340 C 
ATOM     55  O   UNL     1      19.439  29.463  27.944  1.00  0.00    -0.246 OA
BRANCH  54  56
ATOM     56  C   UNL     1      19.124  27.244  28.747  1.00  0.00     0.067 A 
ATOM     57  C   UNL     1      18.514  27.262  30.012  1.00  0.00     0.066 A 
ATOM     58  C   UNL     1      18.913  26.145  27.898  1.00  0.00     0.066 A 
ATOM     59  C   UNL     1      17.711  26.192  30.431  1.00  0.00     0.162 A 
ATOM     60  C   UNL     1      18.104  25.076  28.307  1.00  0.00     0.162 A 
ATOM     61  C   UNL     1      17.507  25.093  29.578  1.00  0.00     0.200 A 
BRANCH  59  62
ATOM     62  O   UNL     1      17.113  26.214  31.688  1.00  0.00    -0.504 OA
ATOM     63  H   UNL     1      17.392  26.881  32.398  1.00  0.00     0.293 HD
ENDBRANCH  59  62
BRANCH  60  64
ATOM     64  O   UNL     1      17.912  23.994  27.449  1.00  0.00    -0.504 OA
ATOM     65  H   UNL     1      18.657  23.639  26.860  1.00  0.00     0.293 HD
ENDBRANCH  60  64
BRANCH  61  66
ATOM     66  O   UNL     1      16.714  24.014  29.977  1.00  0.00    -0.502 OA
ATOM     67  H   UNL     1      16.456  23.268  29.331  1.00  0.00     0.293 HD
ENDBRANCH  61  66
ENDBRANCH  54  56
ENDBRANCH  53  54
ENDBRANCH   5  53
BRANCH   4  68
ATOM     68  O   UNL     1      23.572  26.573  28.026  1.00  0.00    -0.448 OA
BRANCH  68  69
ATOM     69  C   UNL     1      23.098  25.255  28.106  1.00  0.00     0.339 C 
ATOM     70  O   UNL     1      23.016  24.680  29.225  1.00  0.00    -0.246 OA
BRANCH  69  71
ATOM     71  C   UNL     1      22.655  24.553  26.883  1.00  0.00     0.067 A 
ATOM     72  C   UNL     1      21.477  23.784  26.886  1.00  0.00     0.066 A 
ATOM     73  C   UNL     1      23.403  24.648  25.699  1.00  0.00     0.066 A 
ATOM     74  C   UNL     1      21.037  23.148  25.717  1.00  0.00     0.162 A 
ATOM     75  C   UNL     1      22.984  24.005  24.527  1.00  0.00     0.162 A 
ATOM     76  C   UNL     1      21.777  23.263  24.530  1.00  0.00     0.200 A 
BRANCH  74  77
ATOM     77  O   UNL     1      19.855  22.409  25.718  1.00  0.00    -0.504 OA
ATOM     78  H   UNL     1      19.666  21.718  26.429  1.00  0.00     0.293 HD
ENDBRANCH  74  77
BRANCH  75  79
ATOM     79  O   UNL     1      23.800  24.124  23.397  1.00  0.00    -0.504 OA
ATOM     80  H   UNL     1      23.545  24.636  22.568  1.00  0.00     0.293 HD
ENDBRANCH  75  79
BRANCH  76  81
ATOM     81  O   UNL     1      21.281  22.641  23.382  1.00  0.00    -0.502 OA
ATOM     82  H   UNL     1      20.808  21.754  23.393  1.00  0.00     0.293 HD
ENDBRANCH  76  81
ENDBRANCH  69  71
ENDBRANCH  68  69
ENDBRANCH   4  68
TORSDOF 31
ENDMDL
