MODEL 1
REMARK VINA RESULT:    -4.480      0.000      0.000
REMARK INTER + INTRA:          -4.611
REMARK INTER:                  -4.611
REMARK INTRA:                   0.000
REMARK UNBOUND:                 0.000
REMARK SMILES O=c1ccc2cc(O)ccc2o1
REMARK SMILES IDX 9 1 10 2 11 3 5 4 4 5 3 6 2 7 1 8 12 9 6 10 7 11 8 12
REMARK H PARENT 8 13
REMARK Flexibility Score: inf
ROOT
ATOM      1  C   UNL     1      -2.105  36.410   7.042  1.00  0.00     0.050 A 
ATOM      2  C   UNL     1      -1.220  37.478   6.861  1.00  0.00     0.052 A 
ATOM      3  C   UNL     1       0.031  37.262   6.275  1.00  0.00     0.138 A 
ATOM      4  C   UNL     1       0.398  35.960   5.867  1.00  0.00     0.021 A 
ATOM      5  C   UNL     1       1.655  35.774   5.284  1.00  0.00     0.019 A 
ATOM      6  C   UNL     1       2.504  36.869   5.124  1.00  0.00     0.094 A 
ATOM      7  C   UNL     1       2.073  38.129   5.551  1.00  0.00     0.336 A 
ATOM      8  O   UNL     1       2.825  39.129   5.416  1.00  0.00    -0.246 OA
ATOM      9  O   UNL     1       0.871  38.279   6.104  1.00  0.00    -0.423 OA
ATOM     10  C   UNL     1      -0.492  34.891   6.050  1.00  0.00     0.058 A 
ATOM     11  C   UNL     1      -1.745  35.118   6.639  1.00  0.00     0.116 A 
ENDROOT
BRANCH  11  12
ATOM     12  O   UNL     1      -2.640  34.067   6.828  1.00  0.00    -0.508 OA
ATOM     13  H   UNL     1      -3.478  33.977   6.267  1.00  0.00     0.293 HD
ENDBRANCH  11  12
TORSDOF 1
ENDMDL
MODEL 2
REMARK VINA RESULT:    -4.377      4.183      6.331
REMARK INTER + INTRA:          -4.505
REMARK INTER:                  -4.505
REMARK INTRA:                   0.000
REMARK UNBOUND:                 0.000
REMARK SMILES O=c1ccc2cc(O)ccc2o1
REMARK SMILES IDX 9 1 10 2 11 3 5 4 4 5 3 6 2 7 1 8 12 9 6 10 7 11 8 12
REMARK H PARENT 8 13
REMARK Flexibility Score: inf
ROOT
ATOM      1  C   UNL     1       7.079  39.005   7.937  1.00  0.00     0.050 A 
ATOM      2  C   UNL     1       6.470  39.509   6.783  1.00  0.00     0.052 A 
ATOM      3  C   UNL     1       5.193  39.073   6.416  1.00  0.00     0.138 A 
ATOM      4  C   UNL     1       4.520  38.122   7.215  1.00  0.00     0.021 A 
ATOM      5  C   UNL     1       3.244  37.705   6.823  1.00  0.00     0.019 A 
ATOM      6  C   UNL     1       2.677  38.235   5.665  1.00  0.00     0.094 A 
ATOM      7  C   UNL     1       3.402  39.174   4.924  1.00  0.00     0.336 A 
ATOM      8  O   UNL     1       2.907  39.664   3.875  1.00  0.00    -0.246 OA
ATOM      9  O   UNL     1       4.615  39.554   5.319  1.00  0.00    -0.423 OA
ATOM     10  C   UNL     1       5.134  37.619   8.372  1.00  0.00     0.058 A 
ATOM     11  C   UNL     1       6.416  38.061   8.733  1.00  0.00     0.116 A 
ENDROOT
BRANCH  11  12
ATOM     12  O   UNL     1       7.039  37.571   9.878  1.00  0.00    -0.508 OA
ATOM     13  H   UNL     1       7.960  37.886  10.156  1.00  0.00     0.293 HD
ENDBRANCH  11  12
TORSDOF 1
ENDMDL
MODEL 3
REMARK VINA RESULT:    -4.256      1.324      4.468
REMARK INTER + INTRA:          -4.381
REMARK INTER:                  -4.381
REMARK INTRA:                   0.000
REMARK UNBOUND:                 0.000
REMARK SMILES O=c1ccc2cc(O)ccc2o1
REMARK SMILES IDX 9 1 10 2 11 3 5 4 4 5 3 6 2 7 1 8 12 9 6 10 7 11 8 12
REMARK H PARENT 8 13
REMARK Flexibility Score: inf
ROOT
ATOM      1  C   UNL     1       2.083  39.499   6.527  1.00  0.00     0.050 A 
ATOM      2  C   UNL     1       0.892  38.831   6.831  1.00  0.00     0.052 A 
ATOM      3  C   UNL     1       0.708  37.505   6.429  1.00  0.00     0.138 A 
ATOM      4  C   UNL     1       1.730  36.841   5.713  1.00  0.00     0.021 A 
ATOM      5  C   UNL     1       1.518  35.515   5.323  1.00  0.00     0.019 A 
ATOM      6  C   UNL     1       0.314  34.891   5.650  1.00  0.00     0.094 A 
ATOM      7  C   UNL     1      -0.651  35.610   6.362  1.00  0.00     0.336 A 
ATOM      8  O   UNL     1      -1.744  35.063   6.666  1.00  0.00    -0.246 OA
ATOM      9  O   UNL     1      -0.425  36.871   6.720  1.00  0.00    -0.423 OA
ATOM     10  C   UNL     1       2.922  37.515   5.409  1.00  0.00     0.058 A 
ATOM     11  C   UNL     1       3.098  38.845   5.817  1.00  0.00     0.116 A 
ENDROOT
BRANCH  11  12
ATOM     12  O   UNL     1       4.277  39.527   5.522  1.00  0.00    -0.508 OA
ATOM     13  H   UNL     1       4.939  39.779   6.247  1.00  0.00     0.293 HD
ENDBRANCH  11  12
TORSDOF 1
ENDMDL
MODEL 4
REMARK VINA RESULT:    -4.198      1.595      4.484
REMARK INTER + INTRA:          -4.321
REMARK INTER:                  -4.321
REMARK INTRA:                   0.000
REMARK UNBOUND:                 0.000
REMARK SMILES O=c1ccc2cc(O)ccc2o1
REMARK SMILES IDX 9 1 10 2 11 3 5 4 4 5 3 6 2 7 1 8 12 9 6 10 7 11 8 12
REMARK H PARENT 8 13
REMARK Flexibility Score: inf
ROOT
ATOM      1  C   UNL     1       1.305  40.173   6.970  1.00  0.00     0.050 A 
ATOM      2  C   UNL     1       0.326  39.174   6.992  1.00  0.00     0.052 A 
ATOM      3  C   UNL     1       0.603  37.908   6.467  1.00  0.00     0.138 A 
ATOM      4  C   UNL     1       1.876  37.641   5.914  1.00  0.00     0.021 A 
ATOM      5  C   UNL     1       2.124  36.366   5.397  1.00  0.00     0.019 A 
ATOM      6  C   UNL     1       1.117  35.402   5.440  1.00  0.00     0.094 A 
ATOM      7  C   UNL     1      -0.118  35.737   6.004  1.00  0.00     0.336 A 
ATOM      8  O   UNL     1      -1.040  34.881   6.053  1.00  0.00    -0.246 OA
ATOM      9  O   UNL     1      -0.329  36.958   6.489  1.00  0.00    -0.423 OA
ATOM     10  C   UNL     1       2.855  38.646   5.894  1.00  0.00     0.058 A 
ATOM     11  C   UNL     1       2.568  39.913   6.422  1.00  0.00     0.116 A 
ENDROOT
BRANCH  11  12
ATOM     12  O   UNL     1       3.530  40.921   6.409  1.00  0.00    -0.508 OA
ATOM     13  H   UNL     1       4.430  40.800   6.858  1.00  0.00     0.293 HD
ENDBRANCH  11  12
TORSDOF 1
ENDMDL
MODEL 5
REMARK VINA RESULT:    -4.118      4.067      5.874
REMARK INTER + INTRA:          -4.238
REMARK INTER:                  -4.238
REMARK INTRA:                   0.000
REMARK UNBOUND:                 0.000
REMARK SMILES O=c1ccc2cc(O)ccc2o1
REMARK SMILES IDX 9 1 10 2 11 3 5 4 4 5 3 6 2 7 1 8 12 9 6 10 7 11 8 12
REMARK H PARENT 8 13
REMARK Flexibility Score: inf
ROOT
ATOM      1  C   UNL     1       3.290  39.916   5.832  1.00  0.00     0.050 A 
ATOM      2  C   UNL     1       4.473  40.379   6.419  1.00  0.00     0.052 A 
ATOM      3  C   UNL     1       5.195  39.554   7.286  1.00  0.00     0.138 A 
ATOM      4  C   UNL     1       4.726  38.252   7.569  1.00  0.00     0.021 A 
ATOM      5  C   UNL     1       5.470  37.450   8.440  1.00  0.00     0.019 A 
ATOM      6  C   UNL     1       6.643  37.954   9.001  1.00  0.00     0.094 A 
ATOM      7  C   UNL     1       7.046  39.253   8.675  1.00  0.00     0.336 A 
ATOM      8  O   UNL     1       8.102  39.726   9.172  1.00  0.00    -0.246 OA
ATOM      9  O   UNL     1       6.320  39.996   7.843  1.00  0.00    -0.423 OA
ATOM     10  C   UNL     1       3.540  37.791   6.978  1.00  0.00     0.058 A 
ATOM     11  C   UNL     1       2.821  38.626   6.109  1.00  0.00     0.116 A 
ENDROOT
BRANCH  11  12
ATOM     12  O   UNL     1       1.642  38.183   5.515  1.00  0.00    -0.508 OA
ATOM     13  H   UNL     1       0.815  37.980   6.065  1.00  0.00     0.293 HD
ENDBRANCH  11  12
TORSDOF 1
ENDMDL
MODEL 6
REMARK VINA RESULT:    -4.097      1.143      2.279
REMARK INTER + INTRA:          -4.217
REMARK INTER:                  -4.217
REMARK INTRA:                   0.000
REMARK UNBOUND:                 0.000
REMARK SMILES O=c1ccc2cc(O)ccc2o1
REMARK SMILES IDX 9 1 10 2 11 3 5 4 4 5 3 6 2 7 1 8 12 9 6 10 7 11 8 12
REMARK H PARENT 8 13
REMARK Flexibility Score: inf
ROOT
ATOM      1  C   UNL     1       0.290  34.792   5.718  1.00  0.00     0.050 A 
ATOM      2  C   UNL     1       1.369  35.633   5.426  1.00  0.00     0.052 A 
ATOM      3  C   UNL     1       1.355  36.965   5.850  1.00  0.00     0.138 A 
ATOM      4  C   UNL     1       0.246  37.460   6.573  1.00  0.00     0.021 A 
ATOM      5  C   UNL     1       0.260  38.797   6.982  1.00  0.00     0.019 A 
ATOM      6  C   UNL     1       1.358  39.597   6.668  1.00  0.00     0.094 A 
ATOM      7  C   UNL     1       2.421  39.038   5.951  1.00  0.00     0.336 A 
ATOM      8  O   UNL     1       3.421  39.745   5.658  1.00  0.00    -0.246 OA
ATOM      9  O   UNL     1       2.382  37.763   5.572  1.00  0.00    -0.423 OA
ATOM     10  C   UNL     1      -0.834  36.614   6.863  1.00  0.00     0.058 A 
ATOM     11  C   UNL     1      -0.812  35.278   6.434  1.00  0.00     0.116 A 
ENDROOT
BRANCH  11  12
ATOM     12  O   UNL     1      -1.877  34.426   6.715  1.00  0.00    -0.508 OA
ATOM     13  H   UNL     1      -2.830  34.767   6.762  1.00  0.00     0.293 HD
ENDBRANCH  11  12
TORSDOF 1
ENDMDL
MODEL 7
REMARK VINA RESULT:    -4.096      1.600      2.282
REMARK INTER + INTRA:          -4.216
REMARK INTER:                  -4.216
REMARK INTRA:                   0.000
REMARK UNBOUND:                 0.000
REMARK SMILES O=c1ccc2cc(O)ccc2o1
REMARK SMILES IDX 9 1 10 2 11 3 5 4 4 5 3 6 2 7 1 8 12 9 6 10 7 11 8 12
REMARK H PARENT 8 13
REMARK Flexibility Score: inf
ROOT
ATOM      1  C   UNL     1      -0.421  36.242   6.216  1.00  0.00     0.050 A 
ATOM      2  C   UNL     1      -0.238  37.619   6.379  1.00  0.00     0.052 A 
ATOM      3  C   UNL     1       0.981  38.211   6.033  1.00  0.00     0.138 A 
ATOM      4  C   UNL     1       2.027  37.412   5.519  1.00  0.00     0.021 A 
ATOM      5  C   UNL     1       3.235  38.031   5.183  1.00  0.00     0.019 A 
ATOM      6  C   UNL     1       3.372  39.407   5.362  1.00  0.00     0.094 A 
ATOM      7  C   UNL     1       2.293  40.134   5.875  1.00  0.00     0.336 A 
ATOM      8  O   UNL     1       2.397  41.378   6.045  1.00  0.00    -0.246 OA
ATOM      9  O   UNL     1       1.154  39.521   6.188  1.00  0.00    -0.423 OA
ATOM     10  C   UNL     1       1.839  36.031   5.358  1.00  0.00     0.058 A 
ATOM     11  C   UNL     1       0.613  35.446   5.707  1.00  0.00     0.116 A 
ENDROOT
BRANCH  11  12
ATOM     12  O   UNL     1       0.412  34.077   5.553  1.00  0.00    -0.508 OA
ATOM     13  H   UNL     1       0.653  33.420   6.285  1.00  0.00     0.293 HD
ENDBRANCH  11  12
TORSDOF 1
ENDMDL
MODEL 8
REMARK VINA RESULT:    -4.021      1.967      3.276
REMARK INTER + INTRA:          -4.138
REMARK INTER:                  -4.138
REMARK INTRA:                   0.000
REMARK UNBOUND:                 0.000
REMARK SMILES O=c1ccc2cc(O)ccc2o1
REMARK SMILES IDX 9 1 10 2 11 3 5 4 4 5 3 6 2 7 1 8 12 9 6 10 7 11 8 12
REMARK H PARENT 8 13
REMARK Flexibility Score: inf
ROOT
ATOM      1  C   UNL     1       2.046  36.176   5.041  1.00  0.00     0.050 A 
ATOM      2  C   UNL     1       2.273  37.551   5.156  1.00  0.00     0.052 A 
ATOM      3  C   UNL     1       1.320  38.372   5.767  1.00  0.00     0.138 A 
ATOM      4  C   UNL     1       0.126  37.806   6.268  1.00  0.00     0.021 A 
ATOM      5  C   UNL     1      -0.809  38.652   6.873  1.00  0.00     0.019 A 
ATOM      6  C   UNL     1      -0.538  40.017   6.965  1.00  0.00     0.094 A 
ATOM      7  C   UNL     1       0.666  40.505   6.448  1.00  0.00     0.336 A 
ATOM      8  O   UNL     1       0.928  41.735   6.521  1.00  0.00    -0.246 OA
ATOM      9  O   UNL     1       1.538  39.679   5.876  1.00  0.00    -0.423 OA
ATOM     10  C   UNL     1      -0.098  36.427   6.150  1.00  0.00     0.058 A 
ATOM     11  C   UNL     1       0.863  35.611   5.536  1.00  0.00     0.116 A 
ENDROOT
BRANCH  11  12
ATOM     12  O   UNL     1       0.654  34.239   5.412  1.00  0.00    -0.508 OA
ATOM     13  H   UNL     1      -0.263  33.859   5.211  1.00  0.00     0.293 HD
ENDBRANCH  11  12
TORSDOF 1
ENDMDL
MODEL 9
REMARK VINA RESULT:    -3.931      3.639      6.373
REMARK INTER + INTRA:          -4.046
REMARK INTER:                  -4.046
REMARK INTRA:                   0.000
REMARK UNBOUND:                 0.000
REMARK SMILES O=c1ccc2cc(O)ccc2o1
REMARK SMILES IDX 9 1 10 2 11 3 5 4 4 5 3 6 2 7 1 8 12 9 6 10 7 11 8 12
REMARK H PARENT 8 13
REMARK Flexibility Score: inf
ROOT
ATOM      1  C   UNL     1       6.047  37.664   8.724  1.00  0.00     0.050 A 
ATOM      2  C   UNL     1       4.726  37.392   8.354  1.00  0.00     0.052 A 
ATOM      3  C   UNL     1       4.158  38.038   7.251  1.00  0.00     0.138 A 
ATOM      4  C   UNL     1       4.925  38.966   6.511  1.00  0.00     0.021 A 
ATOM      5  C   UNL     1       4.331  39.596   5.414  1.00  0.00     0.019 A 
ATOM      6  C   UNL     1       3.010  39.293   5.083  1.00  0.00     0.094 A 
ATOM      7  C   UNL     1       2.313  38.363   5.861  1.00  0.00     0.336 A 
ATOM      8  O   UNL     1       1.120  38.077   5.578  1.00  0.00    -0.246 OA
ATOM      9  O   UNL     1       2.902  37.778   6.901  1.00  0.00    -0.423 OA
ATOM     10  C   UNL     1       6.250  39.236   6.885  1.00  0.00     0.058 A 
ATOM     11  C   UNL     1       6.811  38.583   7.993  1.00  0.00     0.116 A 
ENDROOT
BRANCH  11  12
ATOM     12  O   UNL     1       8.125  38.841   8.377  1.00  0.00    -0.508 OA
ATOM     13  H   UNL     1       8.607  38.253   9.046  1.00  0.00     0.293 HD
ENDBRANCH  11  12
TORSDOF 1
ENDMDL
