MODEL 1
REMARK VINA RESULT:    -4.558      0.000      0.000
REMARK INTER + INTRA:         -14.730
REMARK INTER:                 -10.420
REMARK INTRA:                  -4.309
REMARK UNBOUND:                -4.309
REMARK SMILES CCCCCCCCCCCCCCCCCCCCCCCC(=O)[O-]
REMARK SMILES IDX 13 1 14 2 15 3 16 4 17 5 18 6 19 7 20 8 21 9 22 10 23 11
REMARK SMILES IDX 24 12 25 13 26 14 12 15 11 16 10 17 9 18 8 19 7 20 6 21 5 22
REMARK SMILES IDX 4 23 3 24 2 25 1 26
REMARK H PARENT
REMARK Flexibility Score: inf
ROOT
ATOM      1  C   UNL     1      14.249 -13.197  37.754  1.00  0.00     0.000 C 
ENDROOT
BRANCH   1   2
ATOM      2  C   UNL     1      12.795 -12.771  38.025  1.00  0.00     0.000 C 
BRANCH   2   3
ATOM      3  C   UNL     1      11.821 -13.961  38.067  1.00  0.00     0.000 C 
BRANCH   3   4
ATOM      4  C   UNL     1      10.933 -13.964  39.325  1.00  0.00     0.000 C 
BRANCH   4   5
ATOM      5  C   UNL     1      11.267 -15.054  40.360  1.00  0.00     0.000 C 
BRANCH   5   6
ATOM      6  C   UNL     1      10.244 -16.199  40.376  1.00  0.00     0.000 C 
BRANCH   6   7
ATOM      7  C   UNL     1      10.706 -17.366  39.493  1.00  0.00     0.000 C 
BRANCH   7   8
ATOM      8  C   UNL     1      10.009 -17.393  38.122  1.00  0.00     0.000 C 
BRANCH   8   9
ATOM      9  C   UNL     1      10.985 -17.549  36.936  1.00  0.00     0.000 C 
BRANCH   9  10
ATOM     10  C   UNL     1      10.917 -18.950  36.311  1.00  0.00     0.006 C 
BRANCH  10  11
ATOM     11  C   UNL     1      12.261 -19.672  36.427  1.00  0.00     0.053 C 
BRANCH  11  12
ATOM     12  C   UNL     1      12.203 -20.724  37.489  1.00  0.00     0.041 C 
ATOM     13  O   UNL     1      13.126 -21.577  37.585  1.00  0.00    -0.550 OA
ATOM     14  O   UNL     1      11.107 -20.795  38.339  1.00  0.00    -0.550 OA
ENDBRANCH  11  12
ENDBRANCH  10  11
ENDBRANCH   9  10
ENDBRANCH   8   9
ENDBRANCH   7   8
ENDBRANCH   6   7
ENDBRANCH   5   6
ENDBRANCH   4   5
ENDBRANCH   3   4
ENDBRANCH   2   3
ENDBRANCH   1   2
BRANCH   1  15
ATOM     15  C   UNL     1      15.259 -12.827  38.859  1.00  0.00     0.000 C 
BRANCH  15  16
ATOM     16  C   UNL     1      15.878 -14.026  39.604  1.00  0.00     0.000 C 
BRANCH  16  17
ATOM     17  C   UNL     1      14.861 -14.967  40.283  1.00  0.00     0.000 C 
BRANCH  17  18
ATOM     18  C   UNL     1      14.971 -16.447  39.875  1.00  0.00    -0.000 C 
BRANCH  18  19
ATOM     19  C   UNL     1      14.144 -16.786  38.626  1.00  0.00    -0.000 C 
BRANCH  19  20
ATOM     20  C   UNL     1      15.047 -17.281  37.486  1.00  0.00    -0.000 C 
BRANCH  20  21
ATOM     21  C   UNL     1      14.981 -16.380  36.241  1.00  0.00    -0.000 C 
BRANCH  21  22
ATOM     22  C   UNL     1      16.373 -15.943  35.753  1.00  0.00    -0.000 C 
BRANCH  22  23
ATOM     23  C   UNL     1      17.321 -15.565  36.906  1.00  0.00    -0.000 C 
BRANCH  23  24
ATOM     24  C   UNL     1      18.142 -14.280  36.683  1.00  0.00    -0.000 C 
BRANCH  24  25
ATOM     25  C   UNL     1      17.699 -13.493  35.441  1.00  0.00    -0.003 C 
ATOM     26  C   UNL     1      18.802 -13.461  34.388  1.00  0.00     0.004 C 
ENDBRANCH  24  25
ENDBRANCH  23  24
ENDBRANCH  22  23
ENDBRANCH  21  22
ENDBRANCH  20  21
ENDBRANCH  19  20
ENDBRANCH  18  19
ENDBRANCH  17  18
ENDBRANCH  16  17
ENDBRANCH  15  16
ENDBRANCH   1  15
TORSDOF 22
ENDMDL
MODEL 2
REMARK VINA RESULT:    -4.373      2.498      6.481
REMARK INTER + INTRA:         -14.307
REMARK INTER:                  -9.689
REMARK INTRA:                  -4.618
REMARK UNBOUND:                -4.309
REMARK SMILES CCCCCCCCCCCCCCCCCCCCCCCC(=O)[O-]
REMARK SMILES IDX 13 1 14 2 15 3 16 4 17 5 18 6 19 7 20 8 21 9 22 10 23 11
REMARK SMILES IDX 24 12 25 13 26 14 12 15 11 16 10 17 9 18 8 19 7 20 6 21 5 22
REMARK SMILES IDX 4 23 3 24 2 25 1 26
REMARK H PARENT
REMARK Flexibility Score: inf
ROOT
ATOM      1  C   UNL     1      16.668 -17.629  37.318  1.00  0.00     0.000 C 
ENDROOT
BRANCH   1   2
ATOM      2  C   UNL     1      15.541 -17.056  36.439  1.00  0.00     0.000 C 
BRANCH   2   3
ATOM      3  C   UNL     1      15.871 -15.663  35.876  1.00  0.00     0.000 C 
BRANCH   3   4
ATOM      4  C   UNL     1      17.255 -15.152  36.318  1.00  0.00     0.000 C 
BRANCH   4   5
ATOM      5  C   UNL     1      17.232 -13.992  37.330  1.00  0.00     0.000 C 
BRANCH   5   6
ATOM      6  C   UNL     1      15.969 -13.124  37.218  1.00  0.00     0.000 C 
BRANCH   6   7
ATOM      7  C   UNL     1      15.197 -13.097  38.544  1.00  0.00     0.000 C 
BRANCH   7   8
ATOM      8  C   UNL     1      15.797 -14.034  39.606  1.00  0.00     0.000 C 
BRANCH   8   9
ATOM      9  C   UNL     1      14.831 -15.148  40.062  1.00  0.00     0.000 C 
BRANCH   9  10
ATOM     10  C   UNL     1      13.626 -15.291  39.121  1.00  0.00     0.006 C 
BRANCH  10  11
ATOM     11  C   UNL     1      12.321 -14.935  39.837  1.00  0.00     0.053 C 
BRANCH  11  12
ATOM     12  C   UNL     1      11.445 -14.107  38.951  1.00  0.00     0.041 C 
ATOM     13  O   UNL     1      11.276 -14.432  37.746  1.00  0.00    -0.550 OA
ATOM     14  O   UNL     1      10.855 -12.949  39.442  1.00  0.00    -0.550 OA
ENDBRANCH  11  12
ENDBRANCH  10  11
ENDBRANCH   9  10
ENDBRANCH   8   9
ENDBRANCH   7   8
ENDBRANCH   6   7
ENDBRANCH   5   6
ENDBRANCH   4   5
ENDBRANCH   3   4
ENDBRANCH   2   3
ENDBRANCH   1   2
BRANCH   1  15
ATOM     15  C   UNL     1      16.261 -17.974  38.766  1.00  0.00     0.000 C 
BRANCH  15  16
ATOM     16  C   UNL     1      15.221 -19.103  38.898  1.00  0.00     0.000 C 
BRANCH  16  17
ATOM     17  C   UNL     1      14.216 -18.932  40.056  1.00  0.00     0.000 C 
BRANCH  17  18
ATOM     18  C   UNL     1      13.396 -20.190  40.397  1.00  0.00    -0.000 C 
BRANCH  18  19
ATOM     19  C   UNL     1      11.883 -19.924  40.437  1.00  0.00    -0.000 C 
BRANCH  19  20
ATOM     20  C   UNL     1      11.581 -18.435  40.211  1.00  0.00    -0.000 C 
BRANCH  20  21
ATOM     21  C   UNL     1      10.700 -18.188  38.975  1.00  0.00    -0.000 C 
BRANCH  21  22
ATOM     22  C   UNL     1      11.524 -17.986  37.692  1.00  0.00    -0.000 C 
BRANCH  22  23
ATOM     23  C   UNL     1      11.345 -19.130  36.678  1.00  0.00    -0.000 C 
BRANCH  23  24
ATOM     24  C   UNL     1      12.495 -20.155  36.638  1.00  0.00    -0.000 C 
BRANCH  24  25
ATOM     25  C   UNL     1      12.045 -21.575  37.010  1.00  0.00    -0.003 C 
ATOM     26  C   UNL     1      13.231 -22.433  37.439  1.00  0.00     0.004 C 
ENDBRANCH  24  25
ENDBRANCH  23  24
ENDBRANCH  22  23
ENDBRANCH  21  22
ENDBRANCH  20  21
ENDBRANCH  19  20
ENDBRANCH  18  19
ENDBRANCH  17  18
ENDBRANCH  16  17
ENDBRANCH  15  16
ENDBRANCH   1  15
TORSDOF 22
ENDMDL
MODEL 3
REMARK VINA RESULT:    -4.339      2.691      4.735
REMARK INTER + INTRA:         -14.229
REMARK INTER:                 -10.207
REMARK INTRA:                  -4.022
REMARK UNBOUND:                -4.309
REMARK SMILES CCCCCCCCCCCCCCCCCCCCCCCC(=O)[O-]
REMARK SMILES IDX 13 1 14 2 15 3 16 4 17 5 18 6 19 7 20 8 21 9 22 10 23 11
REMARK SMILES IDX 24 12 25 13 26 14 12 15 11 16 10 17 9 18 8 19 7 20 6 21 5 22
REMARK SMILES IDX 4 23 3 24 2 25 1 26
REMARK H PARENT
REMARK Flexibility Score: inf
ROOT
ATOM      1  C   UNL     1      16.144 -17.093  37.261  1.00  0.00     0.000 C 
ENDROOT
BRANCH   1   2
ATOM      2  C   UNL     1      16.465 -18.305  38.154  1.00  0.00     0.000 C 
BRANCH   2   3
ATOM      3  C   UNL     1      15.535 -18.410  39.375  1.00  0.00     0.000 C 
BRANCH   3   4
ATOM      4  C   UNL     1      14.950 -19.822  39.561  1.00  0.00     0.000 C 
BRANCH   4   5
ATOM      5  C   UNL     1      13.623 -19.884  40.340  1.00  0.00     0.000 C 
BRANCH   5   6
ATOM      6  C   UNL     1      12.435 -20.313  39.467  1.00  0.00     0.000 C 
BRANCH   6   7
ATOM      7  C   UNL     1      12.861 -20.499  38.005  1.00  0.00     0.000 C 
BRANCH   7   8
ATOM      8  C   UNL     1      12.511 -21.891  37.451  1.00  0.00     0.000 C 
BRANCH   8   9
ATOM      9  C   UNL     1      13.730 -22.828  37.319  1.00  0.00     0.000 C 
BRANCH   9  10
ATOM     10  C   UNL     1      13.894 -23.740  38.543  1.00  0.00     0.006 C 
BRANCH  10  11
ATOM     11  C   UNL     1      15.283 -23.584  39.166  1.00  0.00     0.053 C 
BRANCH  11  12
ATOM     12  C   UNL     1      16.134 -24.776  38.860  1.00  0.00     0.041 C 
ATOM     13  O   UNL     1      16.656 -24.905  37.721  1.00  0.00    -0.550 OA
ATOM     14  O   UNL     1      16.310 -25.769  39.815  1.00  0.00    -0.550 OA
ENDBRANCH  11  12
ENDBRANCH  10  11
ENDBRANCH   9  10
ENDBRANCH   8   9
ENDBRANCH   7   8
ENDBRANCH   6   7
ENDBRANCH   5   6
ENDBRANCH   4   5
ENDBRANCH   3   4
ENDBRANCH   2   3
ENDBRANCH   1   2
BRANCH   1  15
ATOM     15  C   UNL     1      14.875 -17.231  36.396  1.00  0.00     0.000 C 
BRANCH  15  16
ATOM     16  C   UNL     1      13.700 -16.326  36.814  1.00  0.00     0.000 C 
BRANCH  16  17
ATOM     17  C   UNL     1      12.697 -16.971  37.793  1.00  0.00     0.000 C 
BRANCH  17  18
ATOM     18  C   UNL     1      12.549 -16.246  39.143  1.00  0.00    -0.000 C 
BRANCH  18  19
ATOM     19  C   UNL     1      13.351 -14.938  39.212  1.00  0.00    -0.000 C 
BRANCH  19  20
ATOM     20  C   UNL     1      14.580 -15.094  40.120  1.00  0.00    -0.000 C 
BRANCH  20  21
ATOM     21  C   UNL     1      15.786 -14.273  39.636  1.00  0.00    -0.000 C 
BRANCH  21  22
ATOM     22  C   UNL     1      15.474 -13.449  38.375  1.00  0.00    -0.000 C 
BRANCH  22  23
ATOM     23  C   UNL     1      16.594 -13.519  37.321  1.00  0.00    -0.000 C 
BRANCH  23  24
ATOM     24  C   UNL     1      16.115 -13.712  35.869  1.00  0.00    -0.000 C 
BRANCH  24  25
ATOM     25  C   UNL     1      17.172 -14.370  34.971  1.00  0.00    -0.003 C 
ATOM     26  C   UNL     1      18.441 -13.525  34.905  1.00  0.00     0.004 C 
ENDBRANCH  24  25
ENDBRANCH  23  24
ENDBRANCH  22  23
ENDBRANCH  21  22
ENDBRANCH  20  21
ENDBRANCH  19  20
ENDBRANCH  18  19
ENDBRANCH  17  18
ENDBRANCH  16  17
ENDBRANCH  15  16
ENDBRANCH   1  15
TORSDOF 22
ENDMDL
MODEL 4
REMARK VINA RESULT:    -4.333      3.310      6.749
REMARK INTER + INTRA:         -14.214
REMARK INTER:                 -10.364
REMARK INTRA:                  -3.850
REMARK UNBOUND:                -4.309
REMARK SMILES CCCCCCCCCCCCCCCCCCCCCCCC(=O)[O-]
REMARK SMILES IDX 13 1 14 2 15 3 16 4 17 5 18 6 19 7 20 8 21 9 22 10 23 11
REMARK SMILES IDX 24 12 25 13 26 14 12 15 11 16 10 17 9 18 8 19 7 20 6 21 5 22
REMARK SMILES IDX 4 23 3 24 2 25 1 26
REMARK H PARENT
REMARK Flexibility Score: inf
ROOT
ATOM      1  C   UNL     1      13.696 -17.857  36.215  1.00  0.00     0.000 C 
ENDROOT
BRANCH   1   2
ATOM      2  C   UNL     1      12.280 -17.687  36.796  1.00  0.00     0.000 C 
BRANCH   2   3
ATOM      3  C   UNL     1      12.119 -16.391  37.609  1.00  0.00     0.000 C 
BRANCH   3   4
ATOM      4  C   UNL     1      11.988 -16.645  39.122  1.00  0.00     0.000 C 
BRANCH   4   5
ATOM      5  C   UNL     1      12.721 -15.634  40.021  1.00  0.00     0.000 C 
BRANCH   5   6
ATOM      6  C   UNL     1      13.497 -14.575  39.224  1.00  0.00     0.000 C 
BRANCH   6   7
ATOM      7  C   UNL     1      14.989 -14.595  39.584  1.00  0.00     0.000 C 
BRANCH   7   8
ATOM      8  C   UNL     1      15.853 -13.784  38.604  1.00  0.00     0.000 C 
BRANCH   8   9
ATOM      9  C   UNL     1      15.068 -13.240  37.392  1.00  0.00     0.000 C 
BRANCH   9  10
ATOM     10  C   UNL     1      15.997 -12.683  36.303  1.00  0.00     0.006 C 
BRANCH  10  11
ATOM     11  C   UNL     1      16.573 -13.808  35.440  1.00  0.00     0.053 C 
BRANCH  11  12
ATOM     12  C   UNL     1      18.069 -13.788  35.481  1.00  0.00     0.041 C 
ATOM     13  O   UNL     1      18.725 -13.456  34.458  1.00  0.00    -0.550 OA
ATOM     14  O   UNL     1      18.738 -14.185  36.632  1.00  0.00    -0.550 OA
ENDBRANCH  11  12
ENDBRANCH  10  11
ENDBRANCH   9  10
ENDBRANCH   8   9
ENDBRANCH   7   8
ENDBRANCH   6   7
ENDBRANCH   5   6
ENDBRANCH   4   5
ENDBRANCH   3   4
ENDBRANCH   2   3
ENDBRANCH   1   2
BRANCH   1  15
ATOM     15  C   UNL     1      14.702 -16.754  36.602  1.00  0.00     0.000 C 
BRANCH  15  16
ATOM     16  C   UNL     1      16.179 -17.196  36.614  1.00  0.00     0.000 C 
BRANCH  16  17
ATOM     17  C   UNL     1      16.621 -17.958  37.879  1.00  0.00     0.000 C 
BRANCH  17  18
ATOM     18  C   UNL     1      15.599 -17.956  39.030  1.00  0.00    -0.000 C 
BRANCH  18  19
ATOM     19  C   UNL     1      15.254 -19.369  39.526  1.00  0.00    -0.000 C 
BRANCH  19  20
ATOM     20  C   UNL     1      13.923 -19.373  40.292  1.00  0.00    -0.000 C 
BRANCH  20  21
ATOM     21  C   UNL     1      13.641 -20.714  40.989  1.00  0.00    -0.000 C 
BRANCH  21  22
ATOM     22  C   UNL     1      12.605 -21.566  40.235  1.00  0.00    -0.000 C 
BRANCH  22  23
ATOM     23  C   UNL     1      13.243 -22.718  39.437  1.00  0.00    -0.000 C 
BRANCH  23  24
ATOM     24  C   UNL     1      13.542 -22.402  37.959  1.00  0.00    -0.000 C 
BRANCH  24  25
ATOM     25  C   UNL     1      12.683 -21.256  37.405  1.00  0.00    -0.003 C 
ATOM     26  C   UNL     1      11.320 -21.764  36.944  1.00  0.00     0.004 C 
ENDBRANCH  24  25
ENDBRANCH  23  24
ENDBRANCH  22  23
ENDBRANCH  21  22
ENDBRANCH  20  21
ENDBRANCH  19  20
ENDBRANCH  18  19
ENDBRANCH  17  18
ENDBRANCH  16  17
ENDBRANCH  15  16
ENDBRANCH   1  15
TORSDOF 22
ENDMDL
MODEL 5
REMARK VINA RESULT:    -4.297      2.288      5.338
REMARK INTER + INTRA:         -14.133
REMARK INTER:                 -10.156
REMARK INTRA:                  -3.976
REMARK UNBOUND:                -4.309
REMARK SMILES CCCCCCCCCCCCCCCCCCCCCCCC(=O)[O-]
REMARK SMILES IDX 13 1 14 2 15 3 16 4 17 5 18 6 19 7 20 8 21 9 22 10 23 11
REMARK SMILES IDX 24 12 25 13 26 14 12 15 11 16 10 17 9 18 8 19 7 20 6 21 5 22
REMARK SMILES IDX 4 23 3 24 2 25 1 26
REMARK H PARENT
REMARK Flexibility Score: inf
ROOT
ATOM      1  C   UNL     1      16.262 -14.372  35.596  1.00  0.00     0.000 C 
ENDROOT
BRANCH   1   2
ATOM      2  C   UNL     1      15.610 -15.723  35.945  1.00  0.00     0.000 C 
BRANCH   2   3
ATOM      3  C   UNL     1      16.624 -16.878  36.006  1.00  0.00     0.000 C 
BRANCH   3   4
ATOM      4  C   UNL     1      16.728 -17.510  37.406  1.00  0.00     0.000 C 
BRANCH   4   5
ATOM      5  C   UNL     1      15.382 -17.867  38.064  1.00  0.00     0.000 C 
BRANCH   5   6
ATOM      6  C   UNL     1      15.531 -18.842  39.242  1.00  0.00     0.000 C 
BRANCH   6   7
ATOM      7  C   UNL     1      14.183 -19.081  39.935  1.00  0.00     0.000 C 
BRANCH   7   8
ATOM      8  C   UNL     1      14.113 -20.435  40.660  1.00  0.00     0.000 C 
BRANCH   8   9
ATOM      9  C   UNL     1      13.592 -21.585  39.772  1.00  0.00     0.000 C 
BRANCH   9  10
ATOM     10  C   UNL     1      14.735 -22.414  39.168  1.00  0.00     0.006 C 
BRANCH  10  11
ATOM     11  C   UNL     1      14.392 -22.879  37.751  1.00  0.00     0.053 C 
BRANCH  11  12
ATOM     12  C   UNL     1      14.802 -24.303  37.551  1.00  0.00     0.041 C 
ATOM     13  O   UNL     1      14.266 -24.995  36.644  1.00  0.00    -0.550 OA
ATOM     14  O   UNL     1      15.739 -24.883  38.396  1.00  0.00    -0.550 OA
ENDBRANCH  11  12
ENDBRANCH  10  11
ENDBRANCH   9  10
ENDBRANCH   8   9
ENDBRANCH   7   8
ENDBRANCH   6   7
ENDBRANCH   5   6
ENDBRANCH   4   5
ENDBRANCH   3   4
ENDBRANCH   2   3
ENDBRANCH   1   2
BRANCH   1  15
ATOM     15  C   UNL     1      16.345 -13.362  36.758  1.00  0.00     0.000 C 
BRANCH  15  16
ATOM     16  C   UNL     1      16.681 -13.976  38.131  1.00  0.00     0.000 C 
BRANCH  16  17
ATOM     17  C   UNL     1      15.637 -13.714  39.236  1.00  0.00     0.000 C 
BRANCH  17  18
ATOM     18  C   UNL     1      15.193 -14.962  40.021  1.00  0.00    -0.000 C 
BRANCH  18  19
ATOM     19  C   UNL     1      13.702 -15.284  39.839  1.00  0.00    -0.000 C 
BRANCH  19  20
ATOM     20  C   UNL     1      13.199 -14.800  38.470  1.00  0.00    -0.000 C 
BRANCH  20  21
ATOM     21  C   UNL     1      12.209 -15.781  37.820  1.00  0.00    -0.000 C 
BRANCH  21  22
ATOM     22  C   UNL     1      11.688 -16.838  38.808  1.00  0.00    -0.000 C 
BRANCH  22  23
ATOM     23  C   UNL     1      11.092 -18.073  38.107  1.00  0.00    -0.000 C 
BRANCH  23  24
ATOM     24  C   UNL     1      11.627 -18.339  36.686  1.00  0.00    -0.000 C 
BRANCH  24  25
ATOM     25  C   UNL     1      12.447 -19.634  36.588  1.00  0.00    -0.003 C 
ATOM     26  C   UNL     1      11.545 -20.863  36.660  1.00  0.00     0.004 C 
ENDBRANCH  24  25
ENDBRANCH  23  24
ENDBRANCH  22  23
ENDBRANCH  21  22
ENDBRANCH  20  21
ENDBRANCH  19  20
ENDBRANCH  18  19
ENDBRANCH  17  18
ENDBRANCH  16  17
ENDBRANCH  15  16
ENDBRANCH   1  15
TORSDOF 22
ENDMDL
MODEL 6
REMARK VINA RESULT:    -4.290      1.750      3.929
REMARK INTER + INTRA:         -14.116
REMARK INTER:                 -10.272
REMARK INTRA:                  -3.844
REMARK UNBOUND:                -4.309
REMARK SMILES CCCCCCCCCCCCCCCCCCCCCCCC(=O)[O-]
REMARK SMILES IDX 13 1 14 2 15 3 16 4 17 5 18 6 19 7 20 8 21 9 22 10 23 11
REMARK SMILES IDX 24 12 25 13 26 14 12 15 11 16 10 17 9 18 8 19 7 20 6 21 5 22
REMARK SMILES IDX 4 23 3 24 2 25 1 26
REMARK H PARENT
REMARK Flexibility Score: inf
ROOT
ATOM      1  C   UNL     1      14.937 -17.915  39.777  1.00  0.00     0.000 C 
ENDROOT
BRANCH   1   2
ATOM      2  C   UNL     1      14.244 -19.255  39.470  1.00  0.00     0.000 C 
BRANCH   2   3
ATOM      3  C   UNL     1      13.349 -19.744  40.622  1.00  0.00     0.000 C 
BRANCH   3   4
ATOM      4  C   UNL     1      12.019 -18.974  40.715  1.00  0.00     0.000 C 
BRANCH   4   5
ATOM      5  C   UNL     1      10.986 -19.320  39.627  1.00  0.00     0.000 C 
BRANCH   5   6
ATOM      6  C   UNL     1      10.844 -18.220  38.564  1.00  0.00     0.000 C 
BRANCH   6   7
ATOM      7  C   UNL     1      11.431 -18.672  37.220  1.00  0.00     0.000 C 
BRANCH   7   8
ATOM      8  C   UNL     1      10.525 -19.666  36.474  1.00  0.00     0.000 C 
BRANCH   8   9
ATOM      9  C   UNL     1      11.071 -21.109  36.461  1.00  0.00     0.000 C 
BRANCH   9  10
ATOM     10  C   UNL     1      12.520 -21.184  36.963  1.00  0.00     0.006 C 
BRANCH  10  11
ATOM     11  C   UNL     1      12.708 -22.350  37.937  1.00  0.00     0.053 C 
BRANCH  11  12
ATOM     12  C   UNL     1      13.996 -23.061  37.665  1.00  0.00     0.041 C 
ATOM     13  O   UNL     1      15.026 -22.781  38.334  1.00  0.00    -0.550 OA
ATOM     14  O   UNL     1      14.073 -23.995  36.640  1.00  0.00    -0.550 OA
ENDBRANCH  11  12
ENDBRANCH  10  11
ENDBRANCH   9  10
ENDBRANCH   8   9
ENDBRANCH   7   8
ENDBRANCH   6   7
ENDBRANCH   5   6
ENDBRANCH   4   5
ENDBRANCH   3   4
ENDBRANCH   2   3
ENDBRANCH   1   2
BRANCH   1  15
ATOM     15  C   UNL     1      14.320 -16.682  39.085  1.00  0.00     0.000 C 
BRANCH  15  16
ATOM     16  C   UNL     1      13.579 -15.711  40.025  1.00  0.00     0.000 C 
BRANCH  16  17
ATOM     17  C   UNL     1      12.370 -14.990  39.395  1.00  0.00     0.000 C 
BRANCH  17  18
ATOM     18  C   UNL     1      12.633 -14.365  38.013  1.00  0.00    -0.000 C 
BRANCH  18  19
ATOM     19  C   UNL     1      13.010 -12.878  38.090  1.00  0.00    -0.000 C 
BRANCH  19  20
ATOM     20  C   UNL     1      14.492 -12.706  38.454  1.00  0.00    -0.000 C 
BRANCH  20  21
ATOM     21  C   UNL     1      15.432 -13.453  37.494  1.00  0.00    -0.000 C 
BRANCH  21  22
ATOM     22  C   UNL     1      16.725 -13.927  38.180  1.00  0.00    -0.000 C 
BRANCH  22  23
ATOM     23  C   UNL     1      17.569 -14.858  37.292  1.00  0.00    -0.000 C 
BRANCH  23  24
ATOM     24  C   UNL     1      16.838 -15.428  36.061  1.00  0.00    -0.000 C 
BRANCH  24  25
ATOM     25  C   UNL     1      16.544 -16.930  36.180  1.00  0.00    -0.003 C 
ATOM     26  C   UNL     1      17.383 -17.569  37.283  1.00  0.00     0.004 C 
ENDBRANCH  24  25
ENDBRANCH  23  24
ENDBRANCH  22  23
ENDBRANCH  21  22
ENDBRANCH  20  21
ENDBRANCH  19  20
ENDBRANCH  18  19
ENDBRANCH  17  18
ENDBRANCH  16  17
ENDBRANCH  15  16
ENDBRANCH   1  15
TORSDOF 22
ENDMDL
MODEL 7
REMARK VINA RESULT:    -4.240      3.184      6.820
REMARK INTER + INTRA:         -14.002
REMARK INTER:                 -10.287
REMARK INTRA:                  -3.715
REMARK UNBOUND:                -4.309
REMARK SMILES CCCCCCCCCCCCCCCCCCCCCCCC(=O)[O-]
REMARK SMILES IDX 13 1 14 2 15 3 16 4 17 5 18 6 19 7 20 8 21 9 22 10 23 11
REMARK SMILES IDX 24 12 25 13 26 14 12 15 11 16 10 17 9 18 8 19 7 20 6 21 5 22
REMARK SMILES IDX 4 23 3 24 2 25 1 26
REMARK H PARENT
REMARK Flexibility Score: inf
ROOT
ATOM      1  C   UNL     1      15.235 -17.086  37.520  1.00  0.00     0.000 C 
ENDROOT
BRANCH   1   2
ATOM      2  C   UNL     1      14.681 -17.398  38.923  1.00  0.00     0.000 C 
BRANCH   2   3
ATOM      3  C   UNL     1      14.338 -16.131  39.726  1.00  0.00     0.000 C 
BRANCH   3   4
ATOM      4  C   UNL     1      12.826 -15.963  39.959  1.00  0.00     0.000 C 
BRANCH   4   5
ATOM      5  C   UNL     1      12.217 -14.665  39.396  1.00  0.00     0.000 C 
BRANCH   5   6
ATOM      6  C   UNL     1      12.828 -14.253  38.048  1.00  0.00     0.000 C 
BRANCH   6   7
ATOM      7  C   UNL     1      13.357 -12.813  38.099  1.00  0.00     0.000 C 
BRANCH   7   8
ATOM      8  C   UNL     1      14.852 -12.736  38.454  1.00  0.00     0.000 C 
BRANCH   8   9
ATOM      9  C   UNL     1      15.762 -13.489  37.460  1.00  0.00     0.000 C 
BRANCH   9  10
ATOM     10  C   UNL     1      17.023 -14.046  38.137  1.00  0.00     0.006 C 
BRANCH  10  11
ATOM     11  C   UNL     1      17.979 -14.654  37.109  1.00  0.00     0.053 C 
BRANCH  11  12
ATOM     12  C   UNL     1      17.580 -14.259  35.722  1.00  0.00     0.041 C 
ATOM     13  O   UNL     1      16.719 -14.932  35.095  1.00  0.00    -0.550 OA
ATOM     14  O   UNL     1      18.195 -13.178  35.103  1.00  0.00    -0.550 OA
ENDBRANCH  11  12
ENDBRANCH  10  11
ENDBRANCH   9  10
ENDBRANCH   8   9
ENDBRANCH   7   8
ENDBRANCH   6   7
ENDBRANCH   5   6
ENDBRANCH   4   5
ENDBRANCH   3   4
ENDBRANCH   2   3
ENDBRANCH   1   2
BRANCH   1  15
ATOM     15  C   UNL     1      14.249 -17.319  36.357  1.00  0.00     0.000 C 
BRANCH  15  16
ATOM     16  C   UNL     1      12.831 -17.748  36.782  1.00  0.00     0.000 C 
BRANCH  16  17
ATOM     17  C   UNL     1      12.460 -19.205  36.435  1.00  0.00     0.000 C 
BRANCH  17  18
ATOM     18  C   UNL     1      11.438 -19.859  37.383  1.00  0.00    -0.000 C 
BRANCH  18  19
ATOM     19  C   UNL     1      11.485 -19.280  38.805  1.00  0.00    -0.000 C 
BRANCH  19  20
ATOM     20  C   UNL     1      11.832 -20.369  39.831  1.00  0.00    -0.000 C 
BRANCH  20  21
ATOM     21  C   UNL     1      12.833 -19.889  40.894  1.00  0.00    -0.000 C 
BRANCH  21  22
ATOM     22  C   UNL     1      14.241 -20.476  40.689  1.00  0.00    -0.000 C 
BRANCH  22  23
ATOM     23  C   UNL     1      14.460 -21.027  39.268  1.00  0.00    -0.000 C 
BRANCH  23  24
ATOM     24  C   UNL     1      14.781 -22.532  39.192  1.00  0.00    -0.000 C 
BRANCH  24  25
ATOM     25  C   UNL     1      14.405 -23.158  37.841  1.00  0.00    -0.003 C 
ATOM     26  C   UNL     1      12.891 -23.218  37.665  1.00  0.00     0.004 C 
ENDBRANCH  24  25
ENDBRANCH  23  24
ENDBRANCH  22  23
ENDBRANCH  21  22
ENDBRANCH  20  21
ENDBRANCH  19  20
ENDBRANCH  18  19
ENDBRANCH  17  18
ENDBRANCH  16  17
ENDBRANCH  15  16
ENDBRANCH   1  15
TORSDOF 22
ENDMDL
MODEL 8
REMARK VINA RESULT:    -4.236      1.776      4.810
REMARK INTER + INTRA:         -13.994
REMARK INTER:                  -9.941
REMARK INTRA:                  -4.053
REMARK UNBOUND:                -4.309
REMARK SMILES CCCCCCCCCCCCCCCCCCCCCCCC(=O)[O-]
REMARK SMILES IDX 13 1 14 2 15 3 16 4 17 5 18 6 19 7 20 8 21 9 22 10 23 11
REMARK SMILES IDX 24 12 25 13 26 14 12 15 11 16 10 17 9 18 8 19 7 20 6 21 5 22
REMARK SMILES IDX 4 23 3 24 2 25 1 26
REMARK H PARENT
REMARK Flexibility Score: inf
ROOT
ATOM      1  C   UNL     1      16.979 -16.808  36.340  1.00  0.00     0.000 C 
ENDROOT
BRANCH   1   2
ATOM      2  C   UNL     1      15.693 -17.244  37.064  1.00  0.00     0.000 C 
BRANCH   2   3
ATOM      3  C   UNL     1      14.415 -16.769  36.352  1.00  0.00     0.000 C 
BRANCH   3   4
ATOM      4  C   UNL     1      13.240 -17.752  36.511  1.00  0.00     0.000 C 
BRANCH   4   5
ATOM      5  C   UNL     1      11.871 -17.099  36.770  1.00  0.00     0.000 C 
BRANCH   5   6
ATOM      6  C   UNL     1      10.969 -17.940  37.686  1.00  0.00     0.000 C 
BRANCH   6   7
ATOM      7  C   UNL     1      11.754 -19.092  38.328  1.00  0.00     0.000 C 
BRANCH   7   8
ATOM      8  C   UNL     1      11.812 -18.996  39.862  1.00  0.00     0.000 C 
BRANCH   8   9
ATOM      9  C   UNL     1      13.248 -19.005  40.428  1.00  0.00     0.000 C 
BRANCH   9  10
ATOM     10  C   UNL     1      14.232 -19.728  39.497  1.00  0.00     0.006 C 
BRANCH  10  11
ATOM     11  C   UNL     1      14.696 -21.054  40.106  1.00  0.00     0.053 C 
BRANCH  11  12
ATOM     12  C   UNL     1      14.476 -22.179  39.145  1.00  0.00     0.041 C 
ATOM     13  O   UNL     1      15.134 -23.248  39.261  1.00  0.00    -0.550 OA
ATOM     14  O   UNL     1      13.583 -22.031  38.091  1.00  0.00    -0.550 OA
ENDBRANCH  11  12
ENDBRANCH  10  11
ENDBRANCH   9  10
ENDBRANCH   8   9
ENDBRANCH   7   8
ENDBRANCH   6   7
ENDBRANCH   5   6
ENDBRANCH   4   5
ENDBRANCH   3   4
ENDBRANCH   2   3
ENDBRANCH   1   2
BRANCH   1  15
ATOM     15  C   UNL     1      16.803 -15.670  35.314  1.00  0.00     0.000 C 
BRANCH  15  16
ATOM     16  C   UNL     1      17.439 -14.325  35.719  1.00  0.00     0.000 C 
BRANCH  16  17
ATOM     17  C   UNL     1      16.446 -13.154  35.868  1.00  0.00     0.000 C 
BRANCH  17  18
ATOM     18  C   UNL     1      15.649 -13.141  37.185  1.00  0.00    -0.000 C 
BRANCH  18  19
ATOM     19  C   UNL     1      16.389 -13.834  38.339  1.00  0.00    -0.000 C 
BRANCH  19  20
ATOM     20  C   UNL     1      15.749 -13.484  39.691  1.00  0.00    -0.000 C 
BRANCH  20  21
ATOM     21  C   UNL     1      15.611 -14.704  40.617  1.00  0.00    -0.000 C 
BRANCH  21  22
ATOM     22  C   UNL     1      14.671 -15.779  40.044  1.00  0.00    -0.000 C 
BRANCH  22  23
ATOM     23  C   UNL     1      13.406 -15.187  39.398  1.00  0.00    -0.000 C 
BRANCH  23  24
ATOM     24  C   UNL     1      12.097 -15.437  40.172  1.00  0.00    -0.000 C 
BRANCH  24  25
ATOM     25  C   UNL     1      10.966 -14.482  39.763  1.00  0.00    -0.003 C 
ATOM     26  C   UNL     1      11.492 -13.353  38.882  1.00  0.00     0.004 C 
ENDBRANCH  24  25
ENDBRANCH  23  24
ENDBRANCH  22  23
ENDBRANCH  21  22
ENDBRANCH  20  21
ENDBRANCH  19  20
ENDBRANCH  18  19
ENDBRANCH  17  18
ENDBRANCH  16  17
ENDBRANCH  15  16
ENDBRANCH   1  15
TORSDOF 22
ENDMDL
MODEL 9
REMARK VINA RESULT:    -4.209      2.098      5.084
REMARK INTER + INTRA:         -13.931
REMARK INTER:                  -9.924
REMARK INTRA:                  -4.007
REMARK UNBOUND:                -4.309
REMARK SMILES CCCCCCCCCCCCCCCCCCCCCCCC(=O)[O-]
REMARK SMILES IDX 13 1 14 2 15 3 16 4 17 5 18 6 19 7 20 8 21 9 22 10 23 11
REMARK SMILES IDX 24 12 25 13 26 14 12 15 11 16 10 17 9 18 8 19 7 20 6 21 5 22
REMARK SMILES IDX 4 23 3 24 2 25 1 26
REMARK H PARENT
REMARK Flexibility Score: inf
ROOT
ATOM      1  C   UNL     1      16.444 -17.586  37.607  1.00  0.00     0.000 C 
ENDROOT
BRANCH   1   2
ATOM      2  C   UNL     1      15.967 -18.296  38.887  1.00  0.00     0.000 C 
BRANCH   2   3
ATOM      3  C   UNL     1      14.461 -18.612  38.870  1.00  0.00     0.000 C 
BRANCH   3   4
ATOM      4  C   UNL     1      13.988 -19.339  40.143  1.00  0.00     0.000 C 
BRANCH   4   5
ATOM      5  C   UNL     1      12.478 -19.243  40.428  1.00  0.00     0.000 C 
BRANCH   5   6
ATOM      6  C   UNL     1      11.670 -20.368  39.763  1.00  0.00     0.000 C 
BRANCH   6   7
ATOM      7  C   UNL     1      11.050 -19.896  38.441  1.00  0.00     0.000 C 
BRANCH   7   8
ATOM      8  C   UNL     1      11.494 -20.740  37.235  1.00  0.00     0.000 C 
BRANCH   8   9
ATOM      9  C   UNL     1      11.955 -22.164  37.614  1.00  0.00     0.000 C 
BRANCH   9  10
ATOM     10  C   UNL     1      13.461 -22.363  37.389  1.00  0.00     0.006 C 
BRANCH  10  11
ATOM     11  C   UNL     1      13.908 -23.755  37.843  1.00  0.00     0.053 C 
BRANCH  11  12
ATOM     12  C   UNL     1      14.776 -23.659  39.058  1.00  0.00     0.041 C 
ATOM     13  O   UNL     1      14.804 -22.595  39.732  1.00  0.00    -0.550 OA
ATOM     14  O   UNL     1      15.592 -24.724  39.416  1.00  0.00    -0.550 OA
ENDBRANCH  11  12
ENDBRANCH  10  11
ENDBRANCH   9  10
ENDBRANCH   8   9
ENDBRANCH   7   8
ENDBRANCH   6   7
ENDBRANCH   5   6
ENDBRANCH   4   5
ENDBRANCH   3   4
ENDBRANCH   2   3
ENDBRANCH   1   2
BRANCH   1  15
ATOM     15  C   UNL     1      15.338 -16.880  36.796  1.00  0.00     0.000 C 
BRANCH  15  16
ATOM     16  C   UNL     1      15.828 -15.738  35.885  1.00  0.00     0.000 C 
BRANCH  16  17
ATOM     17  C   UNL     1      17.218 -15.171  36.241  1.00  0.00     0.000 C 
BRANCH  17  18
ATOM     18  C   UNL     1      17.201 -13.943  37.169  1.00  0.00    -0.000 C 
BRANCH  18  19
ATOM     19  C   UNL     1      15.887 -13.150  37.089  1.00  0.00    -0.000 C 
BRANCH  19  20
ATOM     20  C   UNL     1      15.243 -13.011  38.476  1.00  0.00    -0.000 C 
BRANCH  20  21
ATOM     21  C   UNL     1      15.908 -13.908  39.533  1.00  0.00    -0.000 C 
BRANCH  21  22
ATOM     22  C   UNL     1      14.966 -15.008  40.053  1.00  0.00    -0.000 C 
BRANCH  22  23
ATOM     23  C   UNL     1      13.638 -15.076  39.277  1.00  0.00    -0.000 C 
BRANCH  23  24
ATOM     24  C   UNL     1      12.432 -15.588  40.089  1.00  0.00    -0.000 C 
BRANCH  24  25
ATOM     25  C   UNL     1      11.281 -16.086  39.202  1.00  0.00    -0.003 C 
ATOM     26  C   UNL     1      11.735 -16.257  37.756  1.00  0.00     0.004 C 
ENDBRANCH  24  25
ENDBRANCH  23  24
ENDBRANCH  22  23
ENDBRANCH  21  22
ENDBRANCH  20  21
ENDBRANCH  19  20
ENDBRANCH  18  19
ENDBRANCH  17  18
ENDBRANCH  16  17
ENDBRANCH  15  16
ENDBRANCH   1  15
TORSDOF 22
ENDMDL
