MODEL 1
REMARK VINA RESULT:    -2.733      0.000      0.000
REMARK INTER + INTRA:          -3.248
REMARK INTER:                  -3.213
REMARK INTRA:                  -0.035
REMARK UNBOUND:                -0.035
REMARK SMILES O=C([O-])CCC(=O)[O-]
REMARK SMILES IDX 4 1 2 2 1 3 3 4 5 5 6 6 7 7 8 8
REMARK H PARENT
REMARK Flexibility Score: inf
ROOT
ATOM      1  C   UNL     1      25.001  39.721  -0.033  1.00  0.00     0.059 C 
ENDROOT
BRANCH   1   2
ATOM      2  C   UNL     1      25.909  39.670  -1.220  1.00  0.00     0.042 C 
ATOM      3  O   UNL     1      25.836  40.557  -2.111  1.00  0.00    -0.550 OA
ATOM      4  O   UNL     1      26.802  38.617  -1.368  1.00  0.00    -0.550 OA
ENDBRANCH   1   2
BRANCH   1   5
ATOM      5  C   UNL     1      25.814  39.825   1.260  1.00  0.00     0.059 C 
BRANCH   5   6
ATOM      6  C   UNL     1      25.189  40.812   2.193  1.00  0.00     0.042 C 
ATOM      7  O   UNL     1      23.937  40.938   2.236  1.00  0.00    -0.550 OA
ATOM      8  O   UNL     1      25.987  41.558   3.052  1.00  0.00    -0.550 OA
ENDBRANCH   5   6
ENDBRANCH   1   5
TORSDOF 3
ENDMDL
MODEL 2
REMARK VINA RESULT:    -2.714      0.941      1.479
REMARK INTER + INTRA:          -3.224
REMARK INTER:                  -3.140
REMARK INTRA:                  -0.085
REMARK UNBOUND:                -0.035
REMARK SMILES O=C([O-])CCC(=O)[O-]
REMARK SMILES IDX 4 1 2 2 1 3 3 4 5 5 6 6 7 7 8 8
REMARK H PARENT
REMARK Flexibility Score: inf
ROOT
ATOM      1  C   UNL     1      26.198  39.066  -0.156  1.00  0.00     0.059 C 
ENDROOT
BRANCH   1   2
ATOM      2  C   UNL     1      26.646  39.686  -1.442  1.00  0.00     0.042 C 
ATOM      3  O   UNL     1      25.884  40.470  -2.066  1.00  0.00    -0.550 OA
ATOM      4  O   UNL     1      27.886  39.360  -1.975  1.00  0.00    -0.550 OA
ENDBRANCH   1   2
BRANCH   1   5
ATOM      5  C   UNL     1      24.866  39.670   0.295  1.00  0.00     0.059 C 
BRANCH   5   6
ATOM      6  C   UNL     1      25.022  40.354   1.616  1.00  0.00     0.042 C 
ATOM      7  O   UNL     1      26.155  40.428   2.160  1.00  0.00    -0.550 OA
ATOM      8  O   UNL     1      23.926  40.954   2.222  1.00  0.00    -0.550 OA
ENDBRANCH   5   6
ENDBRANCH   1   5
TORSDOF 3
ENDMDL
MODEL 3
REMARK VINA RESULT:    -2.680     17.628     18.970
REMARK INTER + INTRA:          -3.185
REMARK INTER:                  -3.151
REMARK INTRA:                  -0.034
REMARK UNBOUND:                -0.035
REMARK SMILES O=C([O-])CCC(=O)[O-]
REMARK SMILES IDX 4 1 2 2 1 3 3 4 5 5 6 6 7 7 8 8
REMARK H PARENT
REMARK Flexibility Score: inf
ROOT
ATOM      1  C   UNL     1      42.053  32.569   1.183  1.00  0.00     0.059 C 
ENDROOT
BRANCH   1   2
ATOM      2  C   UNL     1      42.863  31.866   2.225  1.00  0.00     0.042 C 
ATOM      3  O   UNL     1      44.120  31.849   2.145  1.00  0.00    -0.550 OA
ATOM      4  O   UNL     1      42.229  31.189   3.259  1.00  0.00    -0.550 OA
ENDBRANCH   1   2
BRANCH   1   5
ATOM      5  C   UNL     1      42.834  32.665  -0.130  1.00  0.00     0.059 C 
BRANCH   5   6
ATOM      6  C   UNL     1      41.897  32.692  -1.296  1.00  0.00     0.042 C 
ATOM      7  O   UNL     1      41.801  31.691  -2.054  1.00  0.00    -0.550 OA
ATOM      8  O   UNL     1      41.095  33.804  -1.517  1.00  0.00    -0.550 OA
ENDBRANCH   5   6
ENDBRANCH   1   5
TORSDOF 3
ENDMDL
MODEL 4
REMARK VINA RESULT:    -2.663     17.270     18.355
REMARK INTER + INTRA:          -3.165
REMARK INTER:                  -3.077
REMARK INTRA:                  -0.088
REMARK UNBOUND:                -0.035
REMARK SMILES O=C([O-])CCC(=O)[O-]
REMARK SMILES IDX 4 1 2 2 1 3 3 4 5 5 6 6 7 7 8 8
REMARK H PARENT
REMARK Flexibility Score: inf
ROOT
ATOM      1  C   UNL     1      41.825  33.498  -0.358  1.00  0.00     0.059 C 
ENDROOT
BRANCH   1   2
ATOM      2  C   UNL     1      41.153  32.675  -1.411  1.00  0.00     0.042 C 
ATOM      3  O   UNL     1      39.932  32.847  -1.666  1.00  0.00    -0.550 OA
ATOM      4  O   UNL     1      41.864  31.684  -2.076  1.00  0.00    -0.550 OA
ENDBRANCH   1   2
BRANCH   1   5
ATOM      5  C   UNL     1      43.121  32.827   0.102  1.00  0.00     0.059 C 
BRANCH   5   6
ATOM      6  C   UNL     1      42.971  32.298   1.493  1.00  0.00     0.042 C 
ATOM      7  O   UNL     1      41.846  32.311   2.058  1.00  0.00    -0.550 OA
ATOM      8  O   UNL     1      44.065  31.746   2.148  1.00  0.00    -0.550 OA
ENDBRANCH   5   6
ENDBRANCH   1   5
TORSDOF 3
ENDMDL
MODEL 5
REMARK VINA RESULT:    -2.660      1.029      3.911
REMARK INTER + INTRA:          -3.162
REMARK INTER:                  -3.009
REMARK INTRA:                  -0.153
REMARK UNBOUND:                -0.035
REMARK SMILES O=C([O-])CCC(=O)[O-]
REMARK SMILES IDX 4 1 2 2 1 3 3 4 5 5 6 6 7 7 8 8
REMARK H PARENT
REMARK Flexibility Score: inf
ROOT
ATOM      1  C   UNL     1      25.415  38.890   1.031  1.00  0.00     0.059 C 
ENDROOT
BRANCH   1   2
ATOM      2  C   UNL     1      26.081  40.012   1.761  1.00  0.00     0.042 C 
ATOM      3  O   UNL     1      27.331  40.013   1.916  1.00  0.00    -0.550 OA
ATOM      4  O   UNL     1      25.318  41.032   2.314  1.00  0.00    -0.550 OA
ENDBRANCH   1   2
BRANCH   1   5
ATOM      5  C   UNL     1      24.814  39.389  -0.285  1.00  0.00     0.059 C 
BRANCH   5   6
ATOM      6  C   UNL     1      25.875  39.512  -1.332  1.00  0.00     0.042 C 
ATOM      7  O   UNL     1      25.910  40.523  -2.082  1.00  0.00    -0.550 OA
ATOM      8  O   UNL     1      26.855  38.534  -1.447  1.00  0.00    -0.550 OA
ENDBRANCH   5   6
ENDBRANCH   1   5
TORSDOF 3
ENDMDL
MODEL 6
REMARK VINA RESULT:    -2.610     16.284     17.585
REMARK INTER + INTRA:          -3.102
REMARK INTER:                  -3.009
REMARK INTRA:                  -0.093
REMARK UNBOUND:                -0.035
REMARK SMILES O=C([O-])CCC(=O)[O-]
REMARK SMILES IDX 4 1 2 2 1 3 3 4 5 5 6 6 7 7 8 8
REMARK H PARENT
REMARK Flexibility Score: inf
ROOT
ATOM      1  C   UNL     1      41.070  33.654  -1.580  1.00  0.00     0.059 C 
ENDROOT
BRANCH   1   2
ATOM      2  C   UNL     1      39.659  33.246  -1.299  1.00  0.00     0.042 C 
ATOM      3  O   UNL     1      39.031  32.528  -2.121  1.00  0.00    -0.550 OA
ATOM      4  O   UNL     1      39.020  33.700  -0.152  1.00  0.00    -0.550 OA
ENDBRANCH   1   2
BRANCH   1   5
ATOM      5  C   UNL     1      42.023  32.478  -1.355  1.00  0.00     0.059 C 
BRANCH   5   6
ATOM      6  C   UNL     1      42.875  32.717  -0.150  1.00  0.00     0.042 C 
ATOM      7  O   UNL     1      44.028  33.206  -0.276  1.00  0.00    -0.550 OA
ATOM      8  O   UNL     1      42.377  32.446   1.119  1.00  0.00    -0.550 OA
ENDBRANCH   5   6
ENDBRANCH   1   5
TORSDOF 3
ENDMDL
MODEL 7
REMARK VINA RESULT:    -2.464     17.510     18.853
REMARK INTER + INTRA:          -2.932
REMARK INTER:                  -2.901
REMARK INTRA:                  -0.030
REMARK UNBOUND:                -0.035
REMARK SMILES O=C([O-])CCC(=O)[O-]
REMARK SMILES IDX 4 1 2 2 1 3 3 4 5 5 6 6 7 7 8 8
REMARK H PARENT
REMARK Flexibility Score: inf
ROOT
ATOM      1  C   UNL     1      43.520  33.181   0.188  1.00  0.00     0.059 C 
ENDROOT
BRANCH   1   2
ATOM      2  C   UNL     1      43.718  33.943   1.460  1.00  0.00     0.042 C 
ATOM      3  O   UNL     1      43.920  33.329   2.540  1.00  0.00    -0.550 OA
ATOM      4  O   UNL     1      43.631  35.329   1.460  1.00  0.00    -0.550 OA
ENDBRANCH   1   2
BRANCH   1   5
ATOM      5  C   UNL     1      42.074  32.694   0.075  1.00  0.00     0.059 C 
BRANCH   5   6
ATOM      6  C   UNL     1      41.628  32.703  -1.353  1.00  0.00     0.042 C 
ATOM      7  O   UNL     1      41.840  31.704  -2.090  1.00  0.00    -0.550 OA
ATOM      8  O   UNL     1      40.934  33.796  -1.857  1.00  0.00    -0.550 OA
ENDBRANCH   5   6
ENDBRANCH   1   5
TORSDOF 3
ENDMDL
MODEL 8
REMARK VINA RESULT:    -2.407     11.033     11.729
REMARK INTER + INTRA:          -2.865
REMARK INTER:                  -2.745
REMARK INTRA:                  -0.120
REMARK UNBOUND:                -0.035
REMARK SMILES O=C([O-])CCC(=O)[O-]
REMARK SMILES IDX 4 1 2 2 1 3 3 4 5 5 6 6 7 7 8 8
REMARK H PARENT
REMARK Flexibility Score: inf
ROOT
ATOM      1  C   UNL     1      25.188  28.007  -0.651  1.00  0.00     0.059 C 
ENDROOT
BRANCH   1   2
ATOM      2  C   UNL     1      25.082  29.223  -1.515  1.00  0.00     0.042 C 
ATOM      3  O   UNL     1      26.073  29.987  -1.657  1.00  0.00    -0.550 OA
ATOM      4  O   UNL     1      23.875  29.539  -2.125  1.00  0.00    -0.550 OA
ENDBRANCH   1   2
BRANCH   1   5
ATOM      5  C   UNL     1      24.933  28.367   0.815  1.00  0.00     0.059 C 
BRANCH   5   6
ATOM      6  C   UNL     1      26.177  28.180   1.624  1.00  0.00     0.042 C 
ATOM      7  O   UNL     1      26.126  27.592   2.737  1.00  0.00    -0.550 OA
ATOM      8  O   UNL     1      27.400  28.612   1.128  1.00  0.00    -0.550 OA
ENDBRANCH   5   6
ENDBRANCH   1   5
TORSDOF 3
ENDMDL
MODEL 9
REMARK VINA RESULT:    -2.396      2.509      4.868
REMARK INTER + INTRA:          -2.852
REMARK INTER:                  -2.803
REMARK INTRA:                  -0.048
REMARK UNBOUND:                -0.035
REMARK SMILES O=C([O-])CCC(=O)[O-]
REMARK SMILES IDX 4 1 2 2 1 3 3 4 5 5 6 6 7 7 8 8
REMARK H PARENT
REMARK Flexibility Score: inf
ROOT
ATOM      1  C   UNL     1      27.175  39.051  -0.762  1.00  0.00     0.059 C 
ENDROOT
BRANCH   1   2
ATOM      2  C   UNL     1      25.866  39.692  -1.098  1.00  0.00     0.042 C 
ATOM      3  O   UNL     1      25.760  40.417  -2.123  1.00  0.00    -0.550 OA
ATOM      4  O   UNL     1      24.775  39.529  -0.254  1.00  0.00    -0.550 OA
ENDBRANCH   1   2
BRANCH   1   5
ATOM      5  C   UNL     1      28.190  39.285  -1.883  1.00  0.00     0.059 C 
BRANCH   5   6
ATOM      6  C   UNL     1      29.131  38.127  -1.988  1.00  0.00     0.042 C 
ATOM      7  O   UNL     1      30.374  38.312  -1.908  1.00  0.00    -0.550 OA
ATOM      8  O   UNL     1      28.633  36.837  -2.125  1.00  0.00    -0.550 OA
ENDBRANCH   5   6
ENDBRANCH   1   5
TORSDOF 3
ENDMDL
