MODEL 1
REMARK VINA RESULT:    -5.664      0.000      0.000
REMARK INTER + INTRA:          -6.160
REMARK INTER:                  -6.160
REMARK INTRA:                   0.000
REMARK UNBOUND:                 0.000
REMARK SMILES Cc1cc(O)c2c(c1)C(=O)c1cc(O)cc(O)c1C2=O
REMARK SMILES IDX 1 1 2 2 8 3 7 4 6 5 4 6 3 7 19 8 20 9 18 10 11 11 9 12 10 13
REMARK SMILES IDX 12 14 13 15 15 16 16 17 5 18 17 20 14 22
REMARK H PARENT 5 19 17 21 14 23
REMARK Flexibility Score: inf
ROOT
ATOM      1  C   UNL     1      19.605   6.145 -19.881  1.00  0.00     0.044 C 
ATOM      2  C   UNL     1      18.883   6.489 -21.150  1.00  0.00    -0.047 A 
ATOM      3  C   UNL     1      17.514   6.780 -21.126  1.00  0.00     0.016 A 
ATOM      4  C   UNL     1      16.837   7.140 -22.303  1.00  0.00     0.038 A 
ATOM      5  C   UNL     1      17.541   7.218 -23.523  1.00  0.00     0.076 A 
ATOM      6  C   UNL     1      18.930   6.950 -23.538  1.00  0.00     0.127 A 
ATOM      7  C   UNL     1      19.588   6.594 -22.355  1.00  0.00     0.050 A 
ATOM      8  C   UNL     1      16.802   7.561 -24.766  1.00  0.00     0.201 C 
ATOM      9  O   UNL     1      17.310   7.284 -25.885  1.00  0.00    -0.288 OA
ATOM     10  C   UNL     1      15.423   8.118 -24.688  1.00  0.00     0.076 A 
ATOM     11  C   UNL     1      14.710   7.979 -23.473  1.00  0.00     0.041 A 
ATOM     12  C   UNL     1      15.387   7.440 -22.270  1.00  0.00     0.194 C 
ATOM     13  O   UNL     1      14.730   7.252 -21.208  1.00  0.00    -0.289 OA
ATOM     14  C   UNL     1      13.359   8.361 -23.406  1.00  0.00     0.059 A 
ATOM     15  C   UNL     1      12.715   8.893 -24.522  1.00  0.00     0.120 A 
ATOM     16  C   UNL     1      13.426   9.077 -25.709  1.00  0.00     0.093 A 
ATOM     17  C   UNL     1      14.778   8.731 -25.797  1.00  0.00     0.131 A 
ENDROOT
BRANCH   6  18
ATOM     18  O   UNL     1      19.659   7.049 -24.723  1.00  0.00    -0.507 OA
ATOM     19  H   UNL     1      19.534   7.823 -25.364  1.00  0.00     0.293 HD
ENDBRANCH   6  18
BRANCH  17  20
ATOM     20  O   UNL     1      15.442   9.048 -26.985  1.00  0.00    -0.507 OA
ATOM     21  H   UNL     1      14.977   9.156 -27.875  1.00  0.00     0.293 HD
ENDBRANCH  17  20
BRANCH  15  22
ATOM     22  O   UNL     1      11.371   9.248 -24.437  1.00  0.00    -0.508 OA
ATOM     23  H   UNL     1      10.862   9.595 -25.241  1.00  0.00     0.293 HD
ENDBRANCH  15  22
TORSDOF 3
ENDMDL
MODEL 2
REMARK VINA RESULT:    -5.546      2.368      4.175
REMARK INTER + INTRA:          -6.032
REMARK INTER:                  -6.032
REMARK INTRA:                   0.000
REMARK UNBOUND:                 0.000
REMARK SMILES Cc1cc(O)c2c(c1)C(=O)c1cc(O)cc(O)c1C2=O
REMARK SMILES IDX 1 1 2 2 8 3 7 4 6 5 4 6 3 7 19 8 20 9 18 10 11 11 9 12 10 13
REMARK SMILES IDX 12 14 13 15 15 16 16 17 5 18 17 20 14 22
REMARK H PARENT 5 19 17 21 14 23
REMARK Flexibility Score: inf
ROOT
ATOM      1  C   UNL     1      21.887   6.226 -17.243  1.00  0.00     0.044 C 
ATOM      2  C   UNL     1      21.520   6.101 -18.692  1.00  0.00    -0.047 A 
ATOM      3  C   UNL     1      20.227   6.422 -19.123  1.00  0.00     0.016 A 
ATOM      4  C   UNL     1      19.884   6.344 -20.483  1.00  0.00     0.038 A 
ATOM      5  C   UNL     1      20.852   5.945 -21.430  1.00  0.00     0.076 A 
ATOM      6  C   UNL     1      22.164   5.648 -20.994  1.00  0.00     0.127 A 
ATOM      7  C   UNL     1      22.487   5.732 -19.634  1.00  0.00     0.050 A 
ATOM      8  C   UNL     1      20.462   5.829 -22.859  1.00  0.00     0.201 C 
ATOM      9  O   UNL     1      21.173   5.144 -23.642  1.00  0.00    -0.288 OA
ATOM     10  C   UNL     1      19.179   6.418 -23.336  1.00  0.00     0.076 A 
ATOM     11  C   UNL     1      18.198   6.758 -22.375  1.00  0.00     0.041 A 
ATOM     12  C   UNL     1      18.512   6.679 -20.929  1.00  0.00     0.194 C 
ATOM     13  O   UNL     1      17.614   6.916 -20.074  1.00  0.00    -0.289 OA
ATOM     14  C   UNL     1      16.924   7.179 -22.795  1.00  0.00     0.059 A 
ATOM     15  C   UNL     1      16.620   7.282 -24.151  1.00  0.00     0.120 A 
ATOM     16  C   UNL     1      17.599   6.995 -25.103  1.00  0.00     0.093 A 
ATOM     17  C   UNL     1      18.883   6.598 -24.715  1.00  0.00     0.131 A 
ENDROOT
BRANCH   6  18
ATOM     18  O   UNL     1      23.150   5.280 -21.910  1.00  0.00    -0.507 OA
ATOM     19  H   UNL     1      23.153   5.631 -22.860  1.00  0.00     0.293 HD
ENDBRANCH   6  18
BRANCH  17  20
ATOM     20  O   UNL     1      19.833   6.435 -25.726  1.00  0.00    -0.507 OA
ATOM     21  H   UNL     1      19.599   6.244 -26.690  1.00  0.00     0.293 HD
ENDBRANCH  17  20
BRANCH  15  22
ATOM     22  O   UNL     1      15.345   7.685 -24.542  1.00  0.00    -0.508 OA
ATOM     23  H   UNL     1      14.516   7.363 -24.058  1.00  0.00     0.293 HD
ENDBRANCH  15  22
TORSDOF 3
ENDMDL
MODEL 3
REMARK VINA RESULT:    -5.531      1.617      6.095
REMARK INTER + INTRA:          -6.016
REMARK INTER:                  -6.016
REMARK INTRA:                   0.000
REMARK UNBOUND:                 0.000
REMARK SMILES Cc1cc(O)c2c(c1)C(=O)c1cc(O)cc(O)c1C2=O
REMARK SMILES IDX 1 1 2 2 8 3 7 4 6 5 4 6 3 7 19 8 20 9 18 10 11 11 9 12 10 13
REMARK SMILES IDX 12 14 13 15 15 16 16 17 5 18 17 20 14 22
REMARK H PARENT 5 19 17 21 14 23
REMARK Flexibility Score: inf
ROOT
ATOM      1  C   UNL     1      10.877  10.483 -24.299  1.00  0.00     0.044 C 
ATOM      2  C   UNL     1      12.011   9.662 -23.761  1.00  0.00    -0.047 A 
ATOM      3  C   UNL     1      13.064   9.278 -24.601  1.00  0.00     0.016 A 
ATOM      4  C   UNL     1      14.149   8.541 -24.098  1.00  0.00     0.038 A 
ATOM      5  C   UNL     1      14.187   8.189 -22.733  1.00  0.00     0.076 A 
ATOM      6  C   UNL     1      13.136   8.602 -21.882  1.00  0.00     0.127 A 
ATOM      7  C   UNL     1      12.062   9.337 -22.401  1.00  0.00     0.050 A 
ATOM      8  C   UNL     1      15.323   7.374 -22.226  1.00  0.00     0.201 C 
ATOM      9  O   UNL     1      15.202   6.753 -21.137  1.00  0.00    -0.288 OA
ATOM     10  C   UNL     1      16.548   7.200 -23.055  1.00  0.00     0.076 A 
ATOM     11  C   UNL     1      16.474   7.503 -24.435  1.00  0.00     0.041 A 
ATOM     12  C   UNL     1      15.254   8.133 -24.995  1.00  0.00     0.194 C 
ATOM     13  O   UNL     1      15.165   8.338 -26.238  1.00  0.00    -0.289 OA
ATOM     14  C   UNL     1      17.564   7.214 -25.275  1.00  0.00     0.059 A 
ATOM     15  C   UNL     1      18.727   6.645 -24.759  1.00  0.00     0.120 A 
ATOM     16  C   UNL     1      18.824   6.388 -23.391  1.00  0.00     0.093 A 
ATOM     17  C   UNL     1      17.766   6.690 -22.527  1.00  0.00     0.131 A 
ENDROOT
BRANCH   6  18
ATOM     18  O   UNL     1      13.161   8.296 -20.522  1.00  0.00    -0.507 OA
ATOM     19  H   UNL     1      12.377   7.848 -20.062  1.00  0.00     0.293 HD
ENDBRANCH   6  18
BRANCH  17  20
ATOM     20  O   UNL     1      17.985   6.502 -21.161  1.00  0.00    -0.507 OA
ATOM     21  H   UNL     1      18.794   6.031 -20.782  1.00  0.00     0.293 HD
ENDBRANCH  17  20
BRANCH  15  22
ATOM     22  O   UNL     1      19.787   6.351 -25.614  1.00  0.00    -0.508 OA
ATOM     23  H   UNL     1      20.749   6.401 -25.302  1.00  0.00     0.293 HD
ENDBRANCH  15  22
TORSDOF 3
ENDMDL
MODEL 4
REMARK VINA RESULT:    -5.521      2.137      6.055
REMARK INTER + INTRA:          -6.006
REMARK INTER:                  -6.006
REMARK INTRA:                   0.000
REMARK UNBOUND:                 0.000
REMARK SMILES Cc1cc(O)c2c(c1)C(=O)c1cc(O)cc(O)c1C2=O
REMARK SMILES IDX 1 1 2 2 8 3 7 4 6 5 4 6 3 7 19 8 20 9 18 10 11 11 9 12 10 13
REMARK SMILES IDX 12 14 13 15 15 16 16 17 5 18 17 20 14 22
REMARK H PARENT 5 19 17 21 14 23
REMARK Flexibility Score: inf
ROOT
ATOM      1  C   UNL     1      13.832   7.297 -24.753  1.00  0.00     0.044 C 
ATOM      2  C   UNL     1      15.239   7.250 -24.234  1.00  0.00    -0.047 A 
ATOM      3  C   UNL     1      15.481   7.194 -22.856  1.00  0.00     0.016 A 
ATOM      4  C   UNL     1      16.794   7.113 -22.361  1.00  0.00     0.038 A 
ATOM      5  C   UNL     1      17.881   7.079 -23.259  1.00  0.00     0.076 A 
ATOM      6  C   UNL     1      17.632   7.108 -24.650  1.00  0.00     0.127 A 
ATOM      7  C   UNL     1      16.316   7.188 -25.125  1.00  0.00     0.050 A 
ATOM      8  C   UNL     1      19.266   7.033 -22.718  1.00  0.00     0.201 C 
ATOM      9  O   UNL     1      20.230   7.366 -23.457  1.00  0.00    -0.288 OA
ATOM     10  C   UNL     1      19.498   6.712 -21.282  1.00  0.00     0.076 A 
ATOM     11  C   UNL     1      18.407   6.807 -20.386  1.00  0.00     0.041 A 
ATOM     12  C   UNL     1      17.040   7.061 -20.902  1.00  0.00     0.194 C 
ATOM     13  O   UNL     1      16.081   7.215 -20.096  1.00  0.00    -0.289 OA
ATOM     14  C   UNL     1      18.619   6.654 -19.006  1.00  0.00     0.059 A 
ATOM     15  C   UNL     1      19.894   6.391 -18.508  1.00  0.00     0.120 A 
ATOM     16  C   UNL     1      20.966   6.247 -19.389  1.00  0.00     0.093 A 
ATOM     17  C   UNL     1      20.780   6.369 -20.770  1.00  0.00     0.131 A 
ENDROOT
BRANCH   6  18
ATOM     18  O   UNL     1      18.685   7.045 -25.563  1.00  0.00    -0.507 OA
ATOM     19  H   UNL     1      19.121   7.882 -25.932  1.00  0.00     0.293 HD
ENDBRANCH   6  18
BRANCH  17  20
ATOM     20  O   UNL     1      21.881   6.104 -21.588  1.00  0.00    -0.507 OA
ATOM     21  H   UNL     1      22.037   6.551 -22.481  1.00  0.00     0.293 HD
ENDBRANCH  17  20
BRANCH  15  22
ATOM     22  O   UNL     1      20.082   6.260 -17.133  1.00  0.00    -0.508 OA
ATOM     23  H   UNL     1      19.856   5.400 -16.646  1.00  0.00     0.293 HD
ENDBRANCH  15  22
TORSDOF 3
ENDMDL
MODEL 5
REMARK VINA RESULT:    -5.433      2.553      4.678
REMARK INTER + INTRA:          -5.909
REMARK INTER:                  -5.909
REMARK INTRA:                   0.000
REMARK UNBOUND:                 0.000
REMARK SMILES Cc1cc(O)c2c(c1)C(=O)c1cc(O)cc(O)c1C2=O
REMARK SMILES IDX 1 1 2 2 8 3 7 4 6 5 4 6 3 7 19 8 20 9 18 10 11 11 9 12 10 13
REMARK SMILES IDX 12 14 13 15 15 16 16 17 5 18 17 20 14 22
REMARK H PARENT 5 19 17 21 14 23
REMARK Flexibility Score: inf
ROOT
ATOM      1  C   UNL     1      24.121   4.204 -23.199  1.00  0.00     0.044 C 
ATOM      2  C   UNL     1      22.832   4.872 -22.821  1.00  0.00    -0.047 A 
ATOM      3  C   UNL     1      21.906   5.226 -23.809  1.00  0.00     0.016 A 
ATOM      4  C   UNL     1      20.679   5.818 -23.463  1.00  0.00     0.038 A 
ATOM      5  C   UNL     1      20.371   6.052 -22.106  1.00  0.00     0.076 A 
ATOM      6  C   UNL     1      21.298   5.669 -21.110  1.00  0.00     0.127 A 
ATOM      7  C   UNL     1      22.515   5.079 -21.474  1.00  0.00     0.050 A 
ATOM      8  C   UNL     1      19.087   6.717 -21.759  1.00  0.00     0.201 C 
ATOM      9  O   UNL     1      18.954   7.256 -20.629  1.00  0.00    -0.288 OA
ATOM     10  C   UNL     1      18.011   6.846 -22.782  1.00  0.00     0.076 A 
ATOM     11  C   UNL     1      18.352   6.663 -24.143  1.00  0.00     0.041 A 
ATOM     12  C   UNL     1      19.708   6.195 -24.515  1.00  0.00     0.194 C 
ATOM     13  O   UNL     1      20.030   6.101 -25.732  1.00  0.00    -0.289 OA
ATOM     14  C   UNL     1      17.398   6.919 -25.144  1.00  0.00     0.059 A 
ATOM     15  C   UNL     1      16.112   7.336 -24.809  1.00  0.00     0.120 A 
ATOM     16  C   UNL     1      15.754   7.472 -23.466  1.00  0.00     0.093 A 
ATOM     17  C   UNL     1      16.674   7.198 -22.449  1.00  0.00     0.131 A 
ENDROOT
BRANCH   6  18
ATOM     18  O   UNL     1      21.008   5.860 -19.759  1.00  0.00    -0.507 OA
ATOM     19  H   UNL     1      21.172   6.748 -19.299  1.00  0.00     0.293 HD
ENDBRANCH   6  18
BRANCH  17  20
ATOM     20  O   UNL     1      16.205   7.253 -21.134  1.00  0.00    -0.507 OA
ATOM     21  H   UNL     1      16.805   7.367 -20.329  1.00  0.00     0.293 HD
ENDBRANCH  17  20
BRANCH  15  22
ATOM     22  O   UNL     1      15.189   7.601 -25.819  1.00  0.00    -0.508 OA
ATOM     23  H   UNL     1      14.880   6.878 -26.458  1.00  0.00     0.293 HD
ENDBRANCH  15  22
TORSDOF 3
ENDMDL
MODEL 6
REMARK VINA RESULT:    -5.428      2.789      6.833
REMARK INTER + INTRA:          -5.904
REMARK INTER:                  -5.904
REMARK INTRA:                   0.000
REMARK UNBOUND:                 0.000
REMARK SMILES Cc1cc(O)c2c(c1)C(=O)c1cc(O)cc(O)c1C2=O
REMARK SMILES IDX 1 1 2 2 8 3 7 4 6 5 4 6 3 7 19 8 20 9 18 10 11 11 9 12 10 13
REMARK SMILES IDX 12 14 13 15 15 16 16 17 5 18 17 20 14 22
REMARK H PARENT 5 19 17 21 14 23
REMARK Flexibility Score: inf
ROOT
ATOM      1  C   UNL     1      15.116   7.486 -24.343  1.00  0.00     0.044 C 
ATOM      2  C   UNL     1      16.555   7.133 -24.110  1.00  0.00    -0.047 A 
ATOM      3  C   UNL     1      17.091   7.177 -22.817  1.00  0.00     0.016 A 
ATOM      4  C   UNL     1      18.428   6.812 -22.583  1.00  0.00     0.038 A 
ATOM      5  C   UNL     1      19.239   6.389 -23.656  1.00  0.00     0.076 A 
ATOM      6  C   UNL     1      18.686   6.320 -24.956  1.00  0.00     0.127 A 
ATOM      7  C   UNL     1      17.352   6.687 -25.171  1.00  0.00     0.050 A 
ATOM      8  C   UNL     1      20.662   6.045 -23.398  1.00  0.00     0.201 C 
ATOM      9  O   UNL     1      21.479   6.024 -24.357  1.00  0.00    -0.288 OA
ATOM     10  C   UNL     1      21.142   5.845 -22.002  1.00  0.00     0.076 A 
ATOM     11  C   UNL     1      20.341   6.327 -20.940  1.00  0.00     0.041 A 
ATOM     12  C   UNL     1      18.988   6.868 -21.213  1.00  0.00     0.194 C 
ATOM     13  O   UNL     1      18.305   7.362 -20.273  1.00  0.00    -0.289 OA
ATOM     14  C   UNL     1      20.827   6.286 -19.621  1.00  0.00     0.059 A 
ATOM     15  C   UNL     1      22.087   5.757 -19.345  1.00  0.00     0.120 A 
ATOM     16  C   UNL     1      22.862   5.235 -20.382  1.00  0.00     0.093 A 
ATOM     17  C   UNL     1      22.393   5.239 -21.700  1.00  0.00     0.131 A 
ENDROOT
BRANCH   6  18
ATOM     18  O   UNL     1      19.455   5.876 -26.032  1.00  0.00    -0.507 OA
ATOM     19  H   UNL     1      19.519   6.404 -26.895  1.00  0.00     0.293 HD
ENDBRANCH   6  18
BRANCH  17  20
ATOM     20  O   UNL     1      23.182   4.601 -22.659  1.00  0.00    -0.507 OA
ATOM     21  H   UNL     1      24.185   4.503 -22.585  1.00  0.00     0.293 HD
ENDBRANCH  17  20
BRANCH  15  22
ATOM     22  O   UNL     1      22.554   5.743 -18.033  1.00  0.00    -0.508 OA
ATOM     23  H   UNL     1      22.911   6.581 -17.588  1.00  0.00     0.293 HD
ENDBRANCH  15  22
TORSDOF 3
ENDMDL
MODEL 7
REMARK VINA RESULT:    -5.409      4.377      8.935
REMARK INTER + INTRA:          -5.883
REMARK INTER:                  -5.883
REMARK INTRA:                   0.000
REMARK UNBOUND:                 0.000
REMARK SMILES Cc1cc(O)c2c(c1)C(=O)c1cc(O)cc(O)c1C2=O
REMARK SMILES IDX 1 1 2 2 8 3 7 4 6 5 4 6 3 7 19 8 20 9 18 10 11 11 9 12 10 13
REMARK SMILES IDX 12 14 13 15 15 16 16 17 5 18 17 20 14 22
REMARK H PARENT 5 19 17 21 14 23
REMARK Flexibility Score: inf
ROOT
ATOM      1  C   UNL     1      18.776   6.498 -24.873  1.00  0.00     0.044 C 
ATOM      2  C   UNL     1      19.268   6.451 -23.456  1.00  0.00    -0.047 A 
ATOM      3  C   UNL     1      20.462   5.788 -23.146  1.00  0.00     0.016 A 
ATOM      4  C   UNL     1      20.950   5.770 -21.829  1.00  0.00     0.038 A 
ATOM      5  C   UNL     1      20.238   6.431 -20.806  1.00  0.00     0.076 A 
ATOM      6  C   UNL     1      19.047   7.122 -21.129  1.00  0.00     0.127 A 
ATOM      7  C   UNL     1      18.575   7.130 -22.448  1.00  0.00     0.050 A 
ATOM      8  C   UNL     1      20.746   6.368 -19.411  1.00  0.00     0.201 C 
ATOM      9  O   UNL     1      19.967   6.622 -18.455  1.00  0.00    -0.288 OA
ATOM     10  C   UNL     1      22.132   5.893 -19.140  1.00  0.00     0.076 A 
ATOM     11  C   UNL     1      22.810   5.181 -20.158  1.00  0.00     0.041 A 
ATOM     12  C   UNL     1      22.210   5.061 -21.508  1.00  0.00     0.194 C 
ATOM     13  O   UNL     1      22.784   4.366 -22.393  1.00  0.00    -0.289 OA
ATOM     14  C   UNL     1      24.058   4.594 -19.890  1.00  0.00     0.059 A 
ATOM     15  C   UNL     1      24.647   4.720 -18.633  1.00  0.00     0.120 A 
ATOM     16  C   UNL     1      24.006   5.462 -17.639  1.00  0.00     0.093 A 
ATOM     17  C   UNL     1      22.776   6.079 -17.886  1.00  0.00     0.131 A 
ENDROOT
BRANCH   6  18
ATOM     18  O   UNL     1      18.336   7.811 -20.145  1.00  0.00    -0.507 OA
ATOM     19  H   UNL     1      18.264   8.821 -20.148  1.00  0.00     0.293 HD
ENDBRANCH   6  18
BRANCH  17  20
ATOM     20  O   UNL     1      22.256   6.891 -16.875  1.00  0.00    -0.507 OA
ATOM     21  H   UNL     1      21.613   7.652 -17.043  1.00  0.00     0.293 HD
ENDBRANCH  17  20
BRANCH  15  22
ATOM     22  O   UNL     1      25.877   4.114 -18.385  1.00  0.00    -0.508 OA
ATOM     23  H   UNL     1      25.980   3.106 -18.377  1.00  0.00     0.293 HD
ENDBRANCH  15  22
TORSDOF 3
ENDMDL
MODEL 8
REMARK VINA RESULT:    -5.386      1.661      6.484
REMARK INTER + INTRA:          -5.858
REMARK INTER:                  -5.858
REMARK INTRA:                   0.000
REMARK UNBOUND:                 0.000
REMARK SMILES Cc1cc(O)c2c(c1)C(=O)c1cc(O)cc(O)c1C2=O
REMARK SMILES IDX 1 1 2 2 8 3 7 4 6 5 4 6 3 7 19 8 20 9 18 10 11 11 9 12 10 13
REMARK SMILES IDX 12 14 13 15 15 16 16 17 5 18 17 20 14 22
REMARK H PARENT 5 19 17 21 14 23
REMARK Flexibility Score: inf
ROOT
ATOM      1  C   UNL     1      14.075   8.558 -26.737  1.00  0.00     0.044 C 
ATOM      2  C   UNL     1      14.779   8.159 -25.473  1.00  0.00    -0.047 A 
ATOM      3  C   UNL     1      16.082   7.650 -25.522  1.00  0.00     0.016 A 
ATOM      4  C   UNL     1      16.764   7.309 -24.342  1.00  0.00     0.038 A 
ATOM      5  C   UNL     1      16.135   7.487 -23.091  1.00  0.00     0.076 A 
ATOM      6  C   UNL     1      14.829   8.027 -23.044  1.00  0.00     0.127 A 
ATOM      7  C   UNL     1      14.166   8.362 -24.232  1.00  0.00     0.050 A 
ATOM      8  C   UNL     1      16.855   7.083 -21.855  1.00  0.00     0.201 C 
ATOM      9  O   UNL     1      16.203   6.890 -20.794  1.00  0.00    -0.288 OA
ATOM     10  C   UNL     1      18.315   6.796 -21.898  1.00  0.00     0.076 A 
ATOM     11  C   UNL     1      18.917   6.563 -23.158  1.00  0.00     0.041 A 
ATOM     12  C   UNL     1      18.140   6.765 -24.404  1.00  0.00     0.194 C 
ATOM     13  O   UNL     1      18.658   6.489 -25.522  1.00  0.00    -0.289 OA
ATOM     14  C   UNL     1      20.258   6.147 -23.227  1.00  0.00     0.059 A 
ATOM     15  C   UNL     1      21.010   5.976 -22.066  1.00  0.00     0.120 A 
ATOM     16  C   UNL     1      20.437   6.251 -20.823  1.00  0.00     0.093 A 
ATOM     17  C   UNL     1      19.113   6.692 -20.726  1.00  0.00     0.131 A 
ENDROOT
BRANCH   6  18
ATOM     18  O   UNL     1      14.193   8.243 -21.822  1.00  0.00    -0.507 OA
ATOM     19  H   UNL     1      13.231   8.556 -21.769  1.00  0.00     0.293 HD
ENDBRANCH   6  18
BRANCH  17  20
ATOM     20  O   UNL     1      18.651   7.047 -19.456  1.00  0.00    -0.507 OA
ATOM     21  H   UNL     1      19.079   6.734 -18.596  1.00  0.00     0.293 HD
ENDBRANCH  17  20
BRANCH  15  22
ATOM     22  O   UNL     1      22.332   5.546 -22.159  1.00  0.00    -0.508 OA
ATOM     23  H   UNL     1      23.043   5.876 -21.517  1.00  0.00     0.293 HD
ENDBRANCH  15  22
TORSDOF 3
ENDMDL
MODEL 9
REMARK VINA RESULT:    -5.303      4.398      7.419
REMARK INTER + INTRA:          -5.768
REMARK INTER:                  -5.768
REMARK INTRA:                   0.000
REMARK UNBOUND:                 0.000
REMARK SMILES Cc1cc(O)c2c(c1)C(=O)c1cc(O)cc(O)c1C2=O
REMARK SMILES IDX 1 1 2 2 8 3 7 4 6 5 4 6 3 7 19 8 20 9 18 10 11 11 9 12 10 13
REMARK SMILES IDX 12 14 13 15 15 16 16 17 5 18 17 20 14 22
REMARK H PARENT 5 19 17 21 14 23
REMARK Flexibility Score: inf
ROOT
ATOM      1  C   UNL     1      26.146   1.975 -20.708  1.00  0.00     0.044 C 
ATOM      2  C   UNL     1      25.036   2.977 -20.590  1.00  0.00    -0.047 A 
ATOM      3  C   UNL     1      24.385   3.447 -21.737  1.00  0.00     0.016 A 
ATOM      4  C   UNL     1      23.319   4.357 -21.634  1.00  0.00     0.038 A 
ATOM      5  C   UNL     1      22.892   4.798 -20.364  1.00  0.00     0.076 A 
ATOM      6  C   UNL     1      23.534   4.300 -19.207  1.00  0.00     0.127 A 
ATOM      7  C   UNL     1      24.595   3.393 -19.328  1.00  0.00     0.050 A 
ATOM      8  C   UNL     1      21.790   5.792 -20.275  1.00  0.00     0.201 C 
ATOM      9  O   UNL     1      21.642   6.460 -19.217  1.00  0.00    -0.288 OA
ATOM     10  C   UNL     1      20.943   6.079 -21.465  1.00  0.00     0.076 A 
ATOM     11  C   UNL     1      21.414   5.680 -22.738  1.00  0.00     0.041 A 
ATOM     12  C   UNL     1      22.640   4.854 -22.853  1.00  0.00     0.194 C 
ATOM     13  O   UNL     1      23.097   4.558 -23.992  1.00  0.00    -0.289 OA
ATOM     14  C   UNL     1      20.714   6.060 -23.896  1.00  0.00     0.059 A 
ATOM     15  C   UNL     1      19.547   6.816 -23.804  1.00  0.00     0.120 A 
ATOM     16  C   UNL     1      19.049   7.172 -22.549  1.00  0.00     0.093 A 
ATOM     17  C   UNL     1      19.711   6.785 -21.379  1.00  0.00     0.131 A 
ENDROOT
BRANCH   6  18
ATOM     18  O   UNL     1      23.115   4.695 -17.936  1.00  0.00    -0.507 OA
ATOM     19  H   UNL     1      23.488   4.269 -17.095  1.00  0.00     0.293 HD
ENDBRANCH   6  18
BRANCH  17  20
ATOM     20  O   UNL     1      19.090   7.088 -20.165  1.00  0.00    -0.507 OA
ATOM     21  H   UNL     1      19.536   7.608 -19.422  1.00  0.00     0.293 HD
ENDBRANCH  17  20
BRANCH  15  22
ATOM     22  O   UNL     1      18.880   7.196 -24.966  1.00  0.00    -0.508 OA
ATOM     23  H   UNL     1      18.061   6.698 -25.295  1.00  0.00     0.293 HD
ENDBRANCH  15  22
TORSDOF 3
ENDMDL
