MODEL 1
REMARK VINA RESULT:    -6.070      0.000      0.000
REMARK INTER + INTRA:          -8.193
REMARK INTER:                  -7.667
REMARK INTRA:                  -0.526
REMARK UNBOUND:                -0.526
REMARK SMILES O=C(C=Cc1ccc(O)cc1)c1ccc(O)cc1O
REMARK SMILES IDX 4 1 3 2 5 3 6 4 7 5 8 6 11 7 10 8 9 9 2 11 1 12 12 13 18 14
REMARK SMILES IDX 13 15 17 16 14 17 15 18 19 19 16 21
REMARK H PARENT 9 10 19 20 16 22
REMARK Flexibility Score: inf
ROOT
ATOM      1  C   UNL     1      13.301   2.380   9.656  1.00  0.00     0.012 C 
ATOM      2  C   UNL     1      12.029   2.789   9.540  1.00  0.00     0.053 C 
ENDROOT
BRANCH   1   3
ATOM      3  C   UNL     1      13.966   2.116  10.955  1.00  0.00    -0.025 A 
ATOM      4  C   UNL     1      14.252   0.811  11.408  1.00  0.00     0.012 A 
ATOM      5  C   UNL     1      14.869   0.612  12.647  1.00  0.00     0.047 A 
ATOM      6  C   UNL     1      15.200   1.708  13.454  1.00  0.00     0.115 A 
ATOM      7  C   UNL     1      14.289   3.206  11.781  1.00  0.00     0.012 A 
ATOM      8  C   UNL     1      14.906   3.002  13.018  1.00  0.00     0.047 A 
BRANCH   6   9
ATOM      9  O   UNL     1      15.816   1.521  14.689  1.00  0.00    -0.508 OA
ATOM     10  H   UNL     1      15.367   1.802  15.553  1.00  0.00     0.293 HD
ENDBRANCH   6   9
ENDBRANCH   1   3
BRANCH   2  11
ATOM     11  C   UNL     1      11.395   3.028   8.226  1.00  0.00     0.189 C 
ATOM     12  O   UNL     1      12.089   2.975   7.173  1.00  0.00    -0.289 OA
BRANCH  11  13
ATOM     13  C   UNL     1       9.939   3.280   8.115  1.00  0.00     0.064 A 
ATOM     14  C   UNL     1       9.383   3.969   7.014  1.00  0.00     0.130 A 
ATOM     15  C   UNL     1       9.082   2.796   9.119  1.00  0.00     0.020 A 
ATOM     16  C   UNL     1       8.000   4.198   6.958  1.00  0.00     0.093 A 
ATOM     17  C   UNL     1       7.706   3.023   9.052  1.00  0.00     0.047 A 
ATOM     18  C   UNL     1       7.161   3.727   7.975  1.00  0.00     0.119 A 
BRANCH  14  19
ATOM     19  O   UNL     1      10.195   4.404   5.965  1.00  0.00    -0.507 OA
ATOM     20  H   UNL     1      10.781   3.762   5.443  1.00  0.00     0.293 HD
ENDBRANCH  14  19
BRANCH  18  21
ATOM     21  O   UNL     1       5.787   3.949   7.925  1.00  0.00    -0.508 OA
ATOM     22  H   UNL     1       5.262   3.822   7.067  1.00  0.00     0.293 HD
ENDBRANCH  18  21
ENDBRANCH  11  13
ENDBRANCH   2  11
TORSDOF 6
ENDMDL
MODEL 2
REMARK VINA RESULT:    -6.062      1.627      7.642
REMARK INTER + INTRA:          -8.183
REMARK INTER:                  -7.714
REMARK INTRA:                  -0.469
REMARK UNBOUND:                -0.526
REMARK SMILES O=C(C=Cc1ccc(O)cc1)c1ccc(O)cc1O
REMARK SMILES IDX 4 1 3 2 5 3 6 4 7 5 8 6 11 7 10 8 9 9 2 11 1 12 12 13 18 14
REMARK SMILES IDX 13 15 17 16 14 17 15 18 19 19 16 21
REMARK H PARENT 9 10 19 20 16 22
REMARK Flexibility Score: inf
ROOT
ATOM      1  C   UNL     1      12.378   2.626   8.340  1.00  0.00     0.012 C 
ATOM      2  C   UNL     1      12.644   1.771   9.338  1.00  0.00     0.053 C 
ENDROOT
BRANCH   1   3
ATOM      3  C   UNL     1      11.021   3.145   8.041  1.00  0.00    -0.025 A 
ATOM      4  C   UNL     1       9.937   2.986   8.928  1.00  0.00     0.012 A 
ATOM      5  C   UNL     1       8.673   3.483   8.596  1.00  0.00     0.047 A 
ATOM      6  C   UNL     1       8.470   4.135   7.373  1.00  0.00     0.115 A 
ATOM      7  C   UNL     1      10.801   3.786   6.810  1.00  0.00     0.012 A 
ATOM      8  C   UNL     1       9.536   4.281   6.482  1.00  0.00     0.047 A 
BRANCH   6   9
ATOM      9  O   UNL     1       7.215   4.634   7.033  1.00  0.00    -0.508 OA
ATOM     10  H   UNL     1       6.416   4.022   6.916  1.00  0.00     0.293 HD
ENDBRANCH   6   9
ENDBRANCH   1   3
BRANCH   2  11
ATOM     11  C   UNL     1      14.014   1.287   9.616  1.00  0.00     0.189 C 
ATOM     12  O   UNL     1      14.743   0.881   8.669  1.00  0.00    -0.289 OA
BRANCH  11  13
ATOM     13  C   UNL     1      14.570   1.315  10.989  1.00  0.00     0.064 A 
ATOM     14  C   UNL     1      15.214   2.459  11.510  1.00  0.00     0.130 A 
ATOM     15  C   UNL     1      14.429   0.180  11.807  1.00  0.00     0.020 A 
ATOM     16  C   UNL     1      15.739   2.434  12.811  1.00  0.00     0.093 A 
ATOM     17  C   UNL     1      14.949   0.167  13.104  1.00  0.00     0.047 A 
ATOM     18  C   UNL     1      15.608   1.290  13.608  1.00  0.00     0.119 A 
BRANCH  14  19
ATOM     19  O   UNL     1      15.312   3.625  10.751  1.00  0.00    -0.507 OA
ATOM     20  H   UNL     1      15.100   3.637   9.760  1.00  0.00     0.293 HD
ENDBRANCH  14  19
BRANCH  18  21
ATOM     21  O   UNL     1      16.124   1.261  14.901  1.00  0.00    -0.508 OA
ATOM     22  H   UNL     1      15.616   0.828  15.664  1.00  0.00     0.293 HD
ENDBRANCH  18  21
ENDBRANCH  11  13
ENDBRANCH   2  11
TORSDOF 6
ENDMDL
MODEL 3
REMARK VINA RESULT:    -6.058      1.649      7.830
REMARK INTER + INTRA:          -8.177
REMARK INTER:                  -7.573
REMARK INTRA:                  -0.604
REMARK UNBOUND:                -0.526
REMARK SMILES O=C(C=Cc1ccc(O)cc1)c1ccc(O)cc1O
REMARK SMILES IDX 4 1 3 2 5 3 6 4 7 5 8 6 11 7 10 8 9 9 2 11 1 12 12 13 18 14
REMARK SMILES IDX 13 15 17 16 14 17 15 18 19 19 16 21
REMARK H PARENT 9 10 19 20 16 22
REMARK Flexibility Score: inf
ROOT
ATOM      1  C   UNL     1      12.398   2.380   8.392  1.00  0.00     0.012 C 
ATOM      2  C   UNL     1      12.809   2.109   9.639  1.00  0.00     0.053 C 
ENDROOT
BRANCH   1   3
ATOM      3  C   UNL     1      11.097   3.015   8.074  1.00  0.00    -0.025 A 
ATOM      4  C   UNL     1       9.956   2.855   8.888  1.00  0.00     0.012 A 
ATOM      5  C   UNL     1       8.747   3.465   8.540  1.00  0.00     0.047 A 
ATOM      6  C   UNL     1       8.656   4.233   7.372  1.00  0.00     0.115 A 
ATOM      7  C   UNL     1      10.988   3.775   6.897  1.00  0.00     0.012 A 
ATOM      8  C   UNL     1       9.777   4.383   6.553  1.00  0.00     0.047 A 
BRANCH   6   9
ATOM      9  O   UNL     1       7.456   4.845   7.016  1.00  0.00    -0.508 OA
ATOM     10  H   UNL     1       6.561   4.418   7.224  1.00  0.00     0.293 HD
ENDBRANCH   6   9
ENDBRANCH   1   3
BRANCH   2  11
ATOM     11  C   UNL     1      14.122   1.488   9.919  1.00  0.00     0.189 C 
ATOM     12  O   UNL     1      14.831   1.059   8.967  1.00  0.00    -0.289 OA
BRANCH  11  13
ATOM     13  C   UNL     1      14.648   1.404  11.302  1.00  0.00     0.064 A 
ATOM     14  C   UNL     1      14.929   0.165  11.919  1.00  0.00     0.130 A 
ATOM     15  C   UNL     1      14.902   2.592  12.010  1.00  0.00     0.020 A 
ATOM     16  C   UNL     1      15.413   0.134  13.236  1.00  0.00     0.093 A 
ATOM     17  C   UNL     1      15.390   2.551  13.318  1.00  0.00     0.047 A 
ATOM     18  C   UNL     1      15.643   1.324  13.936  1.00  0.00     0.119 A 
BRANCH  14  19
ATOM     19  O   UNL     1      14.754  -1.031  11.222  1.00  0.00    -0.507 OA
ATOM     20  H   UNL     1      14.335  -1.054  10.299  1.00  0.00     0.293 HD
ENDBRANCH  14  19
BRANCH  18  21
ATOM     21  O   UNL     1      16.125   1.299  15.242  1.00  0.00    -0.508 OA
ATOM     22  H   UNL     1      16.317   2.154  15.751  1.00  0.00     0.293 HD
ENDBRANCH  18  21
ENDBRANCH  11  13
ENDBRANCH   2  11
TORSDOF 6
ENDMDL
MODEL 4
REMARK VINA RESULT:    -6.058      4.732      7.878
REMARK INTER + INTRA:          -8.177
REMARK INTER:                  -7.674
REMARK INTRA:                  -0.503
REMARK UNBOUND:                -0.526
REMARK SMILES O=C(C=Cc1ccc(O)cc1)c1ccc(O)cc1O
REMARK SMILES IDX 4 1 3 2 5 3 6 4 7 5 8 6 11 7 10 8 9 9 2 11 1 12 12 13 18 14
REMARK SMILES IDX 13 15 17 16 14 17 15 18 19 19 16 21
REMARK H PARENT 9 10 19 20 16 22
REMARK Flexibility Score: inf
ROOT
ATOM      1  C   UNL     1       6.274   0.658   8.158  1.00  0.00     0.012 C 
ATOM      2  C   UNL     1       5.625   1.581   7.434  1.00  0.00     0.053 C 
ENDROOT
BRANCH   1   3
ATOM      3  C   UNL     1       5.995  -0.796   8.077  1.00  0.00    -0.025 A 
ATOM      4  C   UNL     1       4.689  -1.312   7.945  1.00  0.00     0.012 A 
ATOM      5  C   UNL     1       4.476  -2.692   7.884  1.00  0.00     0.047 A 
ATOM      6  C   UNL     1       5.559  -3.577   7.965  1.00  0.00     0.115 A 
ATOM      7  C   UNL     1       7.071  -1.695   8.172  1.00  0.00     0.012 A 
ATOM      8  C   UNL     1       6.854  -3.075   8.111  1.00  0.00     0.047 A 
BRANCH   6   9
ATOM      9  O   UNL     1       5.357  -4.954   7.905  1.00  0.00    -0.508 OA
ATOM     10  H   UNL     1       5.002  -5.472   8.700  1.00  0.00     0.293 HD
ENDBRANCH   6   9
ENDBRANCH   1   3
BRANCH   2  11
ATOM     11  C   UNL     1       5.942   3.023   7.530  1.00  0.00     0.189 C 
ATOM     12  O   UNL     1       5.028   3.852   7.794  1.00  0.00    -0.289 OA
BRANCH  11  13
ATOM     13  C   UNL     1       7.332   3.512   7.372  1.00  0.00     0.064 A 
ATOM     14  C   UNL     1       8.214   3.621   8.470  1.00  0.00     0.130 A 
ATOM     15  C   UNL     1       7.795   3.851   6.089  1.00  0.00     0.020 A 
ATOM     16  C   UNL     1       9.517   4.103   8.274  1.00  0.00     0.093 A 
ATOM     17  C   UNL     1       9.096   4.325   5.902  1.00  0.00     0.047 A 
ATOM     18  C   UNL     1       9.959   4.456   6.993  1.00  0.00     0.119 A 
BRANCH  14  19
ATOM     19  O   UNL     1       7.810   3.229   9.747  1.00  0.00    -0.507 OA
ATOM     20  H   UNL     1       7.036   3.678  10.223  1.00  0.00     0.293 HD
ENDBRANCH  14  19
BRANCH  18  21
ATOM     21  O   UNL     1      11.252   4.933   6.793  1.00  0.00    -0.508 OA
ATOM     22  H   UNL     1      11.422   5.834   6.359  1.00  0.00     0.293 HD
ENDBRANCH  18  21
ENDBRANCH  11  13
ENDBRANCH   2  11
TORSDOF 6
ENDMDL
MODEL 5
REMARK VINA RESULT:    -5.641      1.729      7.788
REMARK INTER + INTRA:          -7.651
REMARK INTER:                  -6.961
REMARK INTRA:                  -0.689
REMARK UNBOUND:                -0.526
REMARK SMILES O=C(C=Cc1ccc(O)cc1)c1ccc(O)cc1O
REMARK SMILES IDX 4 1 3 2 5 3 6 4 7 5 8 6 11 7 10 8 9 9 2 11 1 12 12 13 18 14
REMARK SMILES IDX 13 15 17 16 14 17 15 18 19 19 16 21
REMARK H PARENT 9 10 19 20 16 22
REMARK Flexibility Score: inf
ROOT
ATOM      1  C   UNL     1      12.341   2.747   9.266  1.00  0.00     0.012 C 
ATOM      2  C   UNL     1      12.682   2.737  10.562  1.00  0.00     0.053 C 
ENDROOT
BRANCH   1   3
ATOM      3  C   UNL     1      10.974   3.054   8.777  1.00  0.00    -0.025 A 
ATOM      4  C   UNL     1      10.737   3.711   7.552  1.00  0.00     0.012 A 
ATOM      5  C   UNL     1       9.431   3.989   7.139  1.00  0.00     0.047 A 
ATOM      6  C   UNL     1       8.344   3.626   7.946  1.00  0.00     0.115 A 
ATOM      7  C   UNL     1       9.877   2.709   9.584  1.00  0.00     0.012 A 
ATOM      8  C   UNL     1       8.572   2.988   9.168  1.00  0.00     0.047 A 
BRANCH   6   9
ATOM      9  O   UNL     1       7.039   3.897   7.544  1.00  0.00    -0.508 OA
ATOM     10  H   UNL     1       6.734   4.841   7.337  1.00  0.00     0.293 HD
ENDBRANCH   6   9
ENDBRANCH   1   3
BRANCH   2  11
ATOM     11  C   UNL     1      14.059   2.442  11.012  1.00  0.00     0.189 C 
ATOM     12  O   UNL     1      14.978   3.287  10.825  1.00  0.00    -0.289 OA
BRANCH  11  13
ATOM     13  C   UNL     1      14.376   1.184  11.729  1.00  0.00     0.064 A 
ATOM     14  C   UNL     1      15.023   1.184  12.984  1.00  0.00     0.130 A 
ATOM     15  C   UNL     1      13.998  -0.043  11.157  1.00  0.00     0.020 A 
ATOM     16  C   UNL     1      15.316  -0.033  13.619  1.00  0.00     0.093 A 
ATOM     17  C   UNL     1      14.288  -1.249  11.799  1.00  0.00     0.047 A 
ATOM     18  C   UNL     1      14.951  -1.248  13.029  1.00  0.00     0.119 A 
BRANCH  14  19
ATOM     19  O   UNL     1      15.353   2.385  13.614  1.00  0.00    -0.507 OA
ATOM     20  H   UNL     1      15.644   2.416  14.584  1.00  0.00     0.293 HD
ENDBRANCH  14  19
BRANCH  18  21
ATOM     21  O   UNL     1      15.237  -2.458  13.655  1.00  0.00    -0.508 OA
ATOM     22  H   UNL     1      14.655  -3.277  13.516  1.00  0.00     0.293 HD
ENDBRANCH  18  21
ENDBRANCH  11  13
ENDBRANCH   2  11
TORSDOF 6
ENDMDL
MODEL 6
REMARK VINA RESULT:    -5.378      1.031      1.239
REMARK INTER + INTRA:          -7.318
REMARK INTER:                  -6.846
REMARK INTRA:                  -0.473
REMARK UNBOUND:                -0.526
REMARK SMILES O=C(C=Cc1ccc(O)cc1)c1ccc(O)cc1O
REMARK SMILES IDX 4 1 3 2 5 3 6 4 7 5 8 6 11 7 10 8 9 9 2 11 1 12 12 13 18 14
REMARK SMILES IDX 13 15 17 16 14 17 15 18 19 19 16 21
REMARK H PARENT 9 10 19 20 16 22
REMARK Flexibility Score: inf
ROOT
ATOM      1  C   UNL     1      12.791   2.562   9.814  1.00  0.00     0.012 C 
ATOM      2  C   UNL     1      12.211   2.248   8.647  1.00  0.00     0.053 C 
ENDROOT
BRANCH   1   3
ATOM      3  C   UNL     1      13.570   1.599  10.630  1.00  0.00    -0.025 A 
ATOM      4  C   UNL     1      13.687   0.236  10.288  1.00  0.00     0.012 A 
ATOM      5  C   UNL     1      14.424  -0.636  11.096  1.00  0.00     0.047 A 
ATOM      6  C   UNL     1      15.045  -0.164  12.259  1.00  0.00     0.115 A 
ATOM      7  C   UNL     1      14.185   2.057  11.808  1.00  0.00     0.012 A 
ATOM      8  C   UNL     1      14.921   1.182  12.612  1.00  0.00     0.047 A 
BRANCH   6   9
ATOM      9  O   UNL     1      15.781  -1.024  13.070  1.00  0.00    -0.508 OA
ATOM     10  H   UNL     1      15.747  -0.958  14.081  1.00  0.00     0.293 HD
ENDBRANCH   6   9
ENDBRANCH   1   3
BRANCH   2  11
ATOM     11  C   UNL     1      11.454   3.240   7.853  1.00  0.00     0.189 C 
ATOM     12  O   UNL     1      12.057   3.972   7.020  1.00  0.00    -0.289 OA
BRANCH  11  13
ATOM     13  C   UNL     1       9.982   3.358   7.980  1.00  0.00     0.064 A 
ATOM     14  C   UNL     1       9.201   4.030   7.013  1.00  0.00     0.130 A 
ATOM     15  C   UNL     1       9.340   2.760   9.079  1.00  0.00     0.020 A 
ATOM     16  C   UNL     1       7.812   4.129   7.183  1.00  0.00     0.093 A 
ATOM     17  C   UNL     1       7.956   2.859   9.236  1.00  0.00     0.047 A 
ATOM     18  C   UNL     1       7.189   3.546   8.292  1.00  0.00     0.119 A 
BRANCH  14  19
ATOM     19  O   UNL     1       9.796   4.576   5.875  1.00  0.00    -0.507 OA
ATOM     20  H   UNL     1      10.736   4.956   5.894  1.00  0.00     0.293 HD
ENDBRANCH  14  19
BRANCH  18  21
ATOM     21  O   UNL     1       5.810   3.639   8.464  1.00  0.00    -0.508 OA
ATOM     22  H   UNL     1       5.173   3.013   7.985  1.00  0.00     0.293 HD
ENDBRANCH  18  21
ENDBRANCH  11  13
ENDBRANCH   2  11
TORSDOF 6
ENDMDL
MODEL 7
REMARK VINA RESULT:    -5.365      3.830      8.382
REMARK INTER + INTRA:          -7.303
REMARK INTER:                  -6.893
REMARK INTRA:                  -0.410
REMARK UNBOUND:                -0.526
REMARK SMILES O=C(C=Cc1ccc(O)cc1)c1ccc(O)cc1O
REMARK SMILES IDX 4 1 3 2 5 3 6 4 7 5 8 6 11 7 10 8 9 9 2 11 1 12 12 13 18 14
REMARK SMILES IDX 13 15 17 16 14 17 15 18 19 19 16 21
REMARK H PARENT 9 10 19 20 16 22
REMARK Flexibility Score: inf
ROOT
ATOM      1  C   UNL     1       6.411   1.616   7.247  1.00  0.00     0.012 C 
ATOM      2  C   UNL     1       6.094   2.888   6.964  1.00  0.00     0.053 C 
ENDROOT
BRANCH   1   3
ATOM      3  C   UNL     1       5.418   0.516   7.312  1.00  0.00    -0.025 A 
ATOM      4  C   UNL     1       5.301  -0.334   8.431  1.00  0.00     0.012 A 
ATOM      5  C   UNL     1       4.357  -1.366   8.440  1.00  0.00     0.047 A 
ATOM      6  C   UNL     1       3.525  -1.569   7.332  1.00  0.00     0.115 A 
ATOM      7  C   UNL     1       4.588   0.292   6.201  1.00  0.00     0.012 A 
ATOM      8  C   UNL     1       3.645  -0.740   6.215  1.00  0.00     0.047 A 
BRANCH   6   9
ATOM      9  O   UNL     1       2.581  -2.593   7.332  1.00  0.00    -0.508 OA
ATOM     10  H   UNL     1       1.843  -2.633   6.639  1.00  0.00     0.293 HD
ENDBRANCH   6   9
ENDBRANCH   1   3
BRANCH   2  11
ATOM     11  C   UNL     1       7.114   3.956   6.892  1.00  0.00     0.189 C 
ATOM     12  O   UNL     1       6.795   5.105   6.476  1.00  0.00    -0.289 OA
BRANCH  11  13
ATOM     13  C   UNL     1       8.503   3.719   7.350  1.00  0.00     0.064 A 
ATOM     14  C   UNL     1       8.823   3.568   8.717  1.00  0.00     0.130 A 
ATOM     15  C   UNL     1       9.530   3.612   6.394  1.00  0.00     0.020 A 
ATOM     16  C   UNL     1      10.155   3.358   9.105  1.00  0.00     0.093 A 
ATOM     17  C   UNL     1      10.852   3.398   6.789  1.00  0.00     0.047 A 
ATOM     18  C   UNL     1      11.169   3.274   8.144  1.00  0.00     0.119 A 
BRANCH  14  19
ATOM     19  O   UNL     1       7.821   3.599   9.688  1.00  0.00    -0.507 OA
ATOM     20  H   UNL     1       6.864   3.846   9.460  1.00  0.00     0.293 HD
ENDBRANCH  14  19
BRANCH  18  21
ATOM     21  O   UNL     1      12.493   3.064   8.523  1.00  0.00    -0.508 OA
ATOM     22  H   UNL     1      12.855   2.132   8.685  1.00  0.00     0.293 HD
ENDBRANCH  18  21
ENDBRANCH  11  13
ENDBRANCH   2  11
TORSDOF 6
ENDMDL
MODEL 8
REMARK VINA RESULT:    -5.073      3.983      5.233
REMARK INTER + INTRA:          -6.933
REMARK INTER:                  -6.178
REMARK INTRA:                  -0.755
REMARK UNBOUND:                -0.526
REMARK SMILES O=C(C=Cc1ccc(O)cc1)c1ccc(O)cc1O
REMARK SMILES IDX 4 1 3 2 5 3 6 4 7 5 8 6 11 7 10 8 9 9 2 11 1 12 12 13 18 14
REMARK SMILES IDX 13 15 17 16 14 17 15 18 19 19 16 21
REMARK H PARENT 9 10 19 20 16 22
REMARK Flexibility Score: inf
ROOT
ATOM      1  C   UNL     1      12.674  -0.046   8.323  1.00  0.00     0.012 C 
ATOM      2  C   UNL     1      13.414   1.050   8.549  1.00  0.00     0.053 C 
ENDROOT
BRANCH   1   3
ATOM      3  C   UNL     1      13.202  -1.279   7.690  1.00  0.00    -0.025 A 
ATOM      4  C   UNL     1      12.552  -2.525   7.799  1.00  0.00     0.012 A 
ATOM      5  C   UNL     1      13.096  -3.662   7.194  1.00  0.00     0.047 A 
ATOM      6  C   UNL     1      14.299  -3.575   6.482  1.00  0.00     0.115 A 
ATOM      7  C   UNL     1      14.417  -1.207   6.987  1.00  0.00     0.012 A 
ATOM      8  C   UNL     1      14.957  -2.347   6.383  1.00  0.00     0.047 A 
BRANCH   6   9
ATOM      9  O   UNL     1      14.849  -4.701   5.875  1.00  0.00    -0.508 OA
ATOM     10  H   UNL     1      15.144  -4.690   4.906  1.00  0.00     0.293 HD
ENDBRANCH   6   9
ENDBRANCH   1   3
BRANCH   2  11
ATOM     11  C   UNL     1      12.856   2.256   9.198  1.00  0.00     0.189 C 
ATOM     12  O   UNL     1      13.434   2.754  10.204  1.00  0.00    -0.289 OA
BRANCH  11  13
ATOM     13  C   UNL     1      11.651   2.927   8.656  1.00  0.00     0.064 A 
ATOM     14  C   UNL     1      10.492   3.123   9.438  1.00  0.00     0.130 A 
ATOM     15  C   UNL     1      11.672   3.409   7.335  1.00  0.00     0.020 A 
ATOM     16  C   UNL     1       9.369   3.751   8.878  1.00  0.00     0.093 A 
ATOM     17  C   UNL     1      10.552   4.038   6.788  1.00  0.00     0.047 A 
ATOM     18  C   UNL     1       9.397   4.208   7.555  1.00  0.00     0.119 A 
BRANCH  14  19
ATOM     19  O   UNL     1      10.459   2.720  10.774  1.00  0.00    -0.507 OA
ATOM     20  H   UNL     1      11.287   2.377  11.248  1.00  0.00     0.293 HD
ENDBRANCH  14  19
BRANCH  18  21
ATOM     21  O   UNL     1       8.286   4.834   6.995  1.00  0.00    -0.508 OA
ATOM     22  H   UNL     1       7.462   5.044   7.547  1.00  0.00     0.293 HD
ENDBRANCH  18  21
ENDBRANCH  11  13
ENDBRANCH   2  11
TORSDOF 6
ENDMDL
MODEL 9
REMARK VINA RESULT:    -5.011      2.645      7.489
REMARK INTER + INTRA:          -6.855
REMARK INTER:                  -6.349
REMARK INTRA:                  -0.506
REMARK UNBOUND:                -0.526
REMARK SMILES O=C(C=Cc1ccc(O)cc1)c1ccc(O)cc1O
REMARK SMILES IDX 4 1 3 2 5 3 6 4 7 5 8 6 11 7 10 8 9 9 2 11 1 12 12 13 18 14
REMARK SMILES IDX 13 15 17 16 14 17 15 18 19 19 16 21
REMARK H PARENT 9 10 19 20 16 22
REMARK Flexibility Score: inf
ROOT
ATOM      1  C   UNL     1      11.971   2.838   8.284  1.00  0.00     0.012 C 
ATOM      2  C   UNL     1      12.244   2.359   9.507  1.00  0.00     0.053 C 
ENDROOT
BRANCH   1   3
ATOM      3  C   UNL     1      10.630   3.316   7.869  1.00  0.00    -0.025 A 
ATOM      4  C   UNL     1      10.411   3.997   6.653  1.00  0.00     0.012 A 
ATOM      5  C   UNL     1       9.130   4.439   6.311  1.00  0.00     0.047 A 
ATOM      6  C   UNL     1       8.052   4.218   7.179  1.00  0.00     0.115 A 
ATOM      7  C   UNL     1       9.545   3.115   8.738  1.00  0.00     0.012 A 
ATOM      8  C   UNL     1       8.265   3.559   8.392  1.00  0.00     0.047 A 
BRANCH   6   9
ATOM      9  O   UNL     1       6.772   4.654   6.847  1.00  0.00    -0.508 OA
ATOM     10  H   UNL     1       5.945   4.165   7.170  1.00  0.00     0.293 HD
ENDBRANCH   6   9
ENDBRANCH   1   3
BRANCH   2  11
ATOM     11  C   UNL     1      13.599   1.906   9.890  1.00  0.00     0.189 C 
ATOM     12  O   UNL     1      14.430   2.732  10.358  1.00  0.00    -0.289 OA
BRANCH  11  13
ATOM     13  C   UNL     1      13.986   0.479   9.783  1.00  0.00     0.064 A 
ATOM     14  C   UNL     1      14.420  -0.086   8.564  1.00  0.00     0.130 A 
ATOM     15  C   UNL     1      13.947  -0.328  10.934  1.00  0.00     0.020 A 
ATOM     16  C   UNL     1      14.763  -1.446   8.507  1.00  0.00     0.093 A 
ATOM     17  C   UNL     1      14.296  -1.679  10.868  1.00  0.00     0.047 A 
ATOM     18  C   UNL     1      14.701  -2.242   9.656  1.00  0.00     0.119 A 
BRANCH  14  19
ATOM     19  O   UNL     1      14.536   0.701   7.418  1.00  0.00    -0.507 OA
ATOM     20  H   UNL     1      15.021   0.372   6.591  1.00  0.00     0.293 HD
ENDBRANCH  14  19
BRANCH  18  21
ATOM     21  O   UNL     1      15.042  -3.592   9.606  1.00  0.00    -0.508 OA
ATOM     22  H   UNL     1      14.500  -4.255   9.063  1.00  0.00     0.293 HD
ENDBRANCH  18  21
ENDBRANCH  11  13
ENDBRANCH   2  11
TORSDOF 6
ENDMDL
