MODEL 1
REMARK VINA RESULT:    -3.964      0.000      0.000
REMARK INTER + INTRA:          -8.589
REMARK INTER:                  -6.976
REMARK INTRA:                  -1.613
REMARK UNBOUND:                -1.613
REMARK SMILES CCCCCCC=CCCCCCCCC(=O)[O-]
REMARK SMILES IDX 10 1 11 2 12 3 13 4 14 5 15 6 16 7 17 8 18 9 9 10 8 11 7 12
REMARK SMILES IDX 6 13 5 14 4 15 3 16 2 17 1 18
REMARK H PARENT
REMARK Flexibility Score: inf
ROOT
ATOM      1  C   UNL     1      16.946  12.002  31.946  1.00  0.00     0.004 C 
ENDROOT
BRANCH   1   2
ATOM      2  C   UNL     1      15.917  11.420  32.936  1.00  0.00     0.000 C 
BRANCH   2   3
ATOM      3  C   UNL     1      14.440  11.645  32.554  1.00  0.00     0.000 C 
BRANCH   3   4
ATOM      4  C   UNL     1      14.215  12.424  31.245  1.00  0.00     0.000 C 
BRANCH   4   5
ATOM      5  C   UNL     1      13.142  13.518  31.380  1.00  0.00     0.006 C 
BRANCH   5   6
ATOM      6  C   UNL     1      12.763  14.127  30.023  1.00  0.00     0.053 C 
BRANCH   6   7
ATOM      7  C   UNL     1      11.446  14.837  30.076  1.00  0.00     0.041 C 
ATOM      8  O   UNL     1      10.867  15.180  29.012  1.00  0.00    -0.550 OA
ATOM      9  O   UNL     1      10.870  15.145  31.303  1.00  0.00    -0.550 OA
ENDBRANCH   6   7
ENDBRANCH   5   6
ENDBRANCH   4   5
ENDBRANCH   3   4
ENDBRANCH   2   3
ENDBRANCH   1   2
BRANCH   1  10
ATOM     10  C   UNL     1      17.821  13.124  32.529  1.00  0.00     0.027 C 
BRANCH  10  11
ATOM     11  C   UNL     1      17.832  14.356  31.665  1.00  0.00    -0.031 C 
ATOM     12  C   UNL     1      16.748  14.741  30.977  1.00  0.00    -0.031 C 
BRANCH  12  13
ATOM     13  C   UNL     1      16.759  15.969  30.107  1.00  0.00     0.027 C 
BRANCH  13  14
ATOM     14  C   UNL     1      15.969  15.778  28.800  1.00  0.00     0.004 C 
BRANCH  14  15
ATOM     15  C   UNL     1      16.023  14.346  28.235  1.00  0.00     0.000 C 
BRANCH  15  16
ATOM     16  C   UNL     1      16.104  14.317  26.700  1.00  0.00    -0.000 C 
BRANCH  16  17
ATOM     17  C   UNL     1      17.085  15.360  26.142  1.00  0.00    -0.003 C 
ATOM     18  C   UNL     1      16.424  16.323  25.157  1.00  0.00     0.004 C 
ENDBRANCH  16  17
ENDBRANCH  15  16
ENDBRANCH  14  15
ENDBRANCH  13  14
ENDBRANCH  12  13
ENDBRANCH  10  11
ENDBRANCH   1  10
TORSDOF 13
ENDMDL
MODEL 2
REMARK VINA RESULT:    -3.955      1.023      1.522
REMARK INTER + INTRA:          -8.574
REMARK INTER:                  -6.278
REMARK INTRA:                  -2.296
REMARK UNBOUND:                -1.613
REMARK SMILES CCCCCCC=CCCCCCCCC(=O)[O-]
REMARK SMILES IDX 10 1 11 2 12 3 13 4 14 5 15 6 16 7 17 8 18 9 9 10 8 11 7 12
REMARK SMILES IDX 6 13 5 14 4 15 3 16 2 17 1 18
REMARK H PARENT
REMARK Flexibility Score: inf
ROOT
ATOM      1  C   UNL     1      17.073  11.797  32.172  1.00  0.00     0.004 C 
ENDROOT
BRANCH   1   2
ATOM      2  C   UNL     1      15.805  11.513  33.002  1.00  0.00     0.000 C 
BRANCH   2   3
ATOM      3  C   UNL     1      14.473  11.777  32.273  1.00  0.00     0.000 C 
BRANCH   3   4
ATOM      4  C   UNL     1      14.515  11.591  30.745  1.00  0.00     0.000 C 
BRANCH   4   5
ATOM      5  C   UNL     1      13.798  12.721  29.987  1.00  0.00     0.006 C 
BRANCH   5   6
ATOM      6  C   UNL     1      13.164  13.745  30.939  1.00  0.00     0.053 C 
BRANCH   6   7
ATOM      7  C   UNL     1      12.055  14.507  30.282  1.00  0.00     0.041 C 
ATOM      8  O   UNL     1      11.999  14.590  29.027  1.00  0.00    -0.550 OA
ATOM      9  O   UNL     1      11.098  15.151  31.058  1.00  0.00    -0.550 OA
ENDBRANCH   6   7
ENDBRANCH   5   6
ENDBRANCH   4   5
ENDBRANCH   3   4
ENDBRANCH   2   3
ENDBRANCH   1   2
BRANCH   1  10
ATOM     10  C   UNL     1      17.995  12.871  32.773  1.00  0.00     0.027 C 
BRANCH  10  11
ATOM     11  C   UNL     1      17.976  14.154  31.986  1.00  0.00    -0.031 C 
ATOM     12  C   UNL     1      16.972  14.449  31.149  1.00  0.00    -0.031 C 
BRANCH  12  13
ATOM     13  C   UNL     1      16.954  15.729  30.356  1.00  0.00     0.027 C 
BRANCH  13  14
ATOM     14  C   UNL     1      15.799  15.781  29.340  1.00  0.00     0.004 C 
BRANCH  14  15
ATOM     15  C   UNL     1      16.233  15.550  27.881  1.00  0.00     0.000 C 
BRANCH  15  16
ATOM     16  C   UNL     1      15.691  14.233  27.301  1.00  0.00    -0.000 C 
BRANCH  16  17
ATOM     17  C   UNL     1      16.807  13.225  26.988  1.00  0.00    -0.003 C 
ATOM     18  C   UNL     1      17.162  12.348  28.188  1.00  0.00     0.004 C 
ENDBRANCH  16  17
ENDBRANCH  15  16
ENDBRANCH  14  15
ENDBRANCH  13  14
ENDBRANCH  12  13
ENDBRANCH  10  11
ENDBRANCH   1  10
TORSDOF 13
ENDMDL
MODEL 3
REMARK VINA RESULT:    -3.905      3.016      5.891
REMARK INTER + INTRA:          -8.485
REMARK INTER:                  -6.778
REMARK INTRA:                  -1.708
REMARK UNBOUND:                -1.613
REMARK SMILES CCCCCCC=CCCCCCCCC(=O)[O-]
REMARK SMILES IDX 10 1 11 2 12 3 13 4 14 5 15 6 16 7 17 8 18 9 9 10 8 11 7 12
REMARK SMILES IDX 6 13 5 14 4 15 3 16 2 17 1 18
REMARK H PARENT
REMARK Flexibility Score: inf
ROOT
ATOM      1  C   UNL     1      16.308  15.655  29.264  1.00  0.00     0.004 C 
ENDROOT
BRANCH   1   2
ATOM      2  C   UNL     1      15.911  15.665  27.774  1.00  0.00     0.000 C 
BRANCH   2   3
ATOM      3  C   UNL     1      17.028  15.250  26.796  1.00  0.00     0.000 C 
BRANCH   3   4
ATOM      4  C   UNL     1      17.189  16.158  25.563  1.00  0.00     0.000 C 
BRANCH   4   5
ATOM      5  C   UNL     1      15.950  16.151  24.651  1.00  0.00     0.006 C 
BRANCH   5   6
ATOM      6  C   UNL     1      16.033  15.064  23.571  1.00  0.00     0.053 C 
BRANCH   6   7
ATOM      7  C   UNL     1      15.169  13.885  23.897  1.00  0.00     0.041 C 
ATOM      8  O   UNL     1      14.155  14.026  24.630  1.00  0.00    -0.550 OA
ATOM      9  O   UNL     1      15.500  12.625  23.415  1.00  0.00    -0.550 OA
ENDBRANCH   6   7
ENDBRANCH   5   6
ENDBRANCH   4   5
ENDBRANCH   3   4
ENDBRANCH   2   3
ENDBRANCH   1   2
BRANCH   1  10
ATOM     10  C   UNL     1      15.587  14.587  30.103  1.00  0.00     0.027 C 
BRANCH  10  11
ATOM     11  C   UNL     1      16.492  13.946  31.120  1.00  0.00    -0.031 C 
ATOM     12  C   UNL     1      17.650  14.512  31.486  1.00  0.00    -0.031 C 
BRANCH  12  13
ATOM     13  C   UNL     1      18.559  13.868  32.499  1.00  0.00     0.027 C 
BRANCH  13  14
ATOM     14  C   UNL     1      20.041  13.929  32.089  1.00  0.00     0.004 C 
BRANCH  14  15
ATOM     15  C   UNL     1      20.275  14.374  30.633  1.00  0.00     0.000 C 
BRANCH  15  16
ATOM     16  C   UNL     1      20.601  13.199  29.697  1.00  0.00    -0.000 C 
BRANCH  16  17
ATOM     17  C   UNL     1      19.744  13.207  28.422  1.00  0.00    -0.003 C 
ATOM     18  C   UNL     1      18.510  12.312  28.535  1.00  0.00     0.004 C 
ENDBRANCH  16  17
ENDBRANCH  15  16
ENDBRANCH  14  15
ENDBRANCH  13  14
ENDBRANCH  12  13
ENDBRANCH  10  11
ENDBRANCH   1  10
TORSDOF 13
ENDMDL
MODEL 4
REMARK VINA RESULT:    -3.894      1.586      4.481
REMARK INTER + INTRA:          -8.467
REMARK INTER:                  -6.590
REMARK INTRA:                  -1.876
REMARK UNBOUND:                -1.613
REMARK SMILES CCCCCCC=CCCCCCCCC(=O)[O-]
REMARK SMILES IDX 10 1 11 2 12 3 13 4 14 5 15 6 16 7 17 8 18 9 9 10 8 11 7 12
REMARK SMILES IDX 6 13 5 14 4 15 3 16 2 17 1 18
REMARK H PARENT
REMARK Flexibility Score: inf
ROOT
ATOM      1  C   UNL     1      15.566  14.555  25.861  1.00  0.00     0.004 C 
ENDROOT
BRANCH   1   2
ATOM      2  C   UNL     1      15.171  13.281  26.635  1.00  0.00     0.000 C 
BRANCH   2   3
ATOM      3  C   UNL     1      13.691  13.208  27.064  1.00  0.00     0.000 C 
BRANCH   3   4
ATOM      4  C   UNL     1      13.454  13.115  28.582  1.00  0.00     0.000 C 
BRANCH   4   5
ATOM      5  C   UNL     1      12.775  14.370  29.157  1.00  0.00     0.006 C 
BRANCH   5   6
ATOM      6  C   UNL     1      12.549  14.263  30.671  1.00  0.00     0.053 C 
BRANCH   6   7
ATOM      7  C   UNL     1      11.093  14.263  31.021  1.00  0.00     0.041 C 
ATOM      8  O   UNL     1      10.599  15.219  31.675  1.00  0.00    -0.550 OA
ATOM      9  O   UNL     1      10.287  13.194  30.649  1.00  0.00    -0.550 OA
ENDBRANCH   6   7
ENDBRANCH   5   6
ENDBRANCH   4   5
ENDBRANCH   3   4
ENDBRANCH   2   3
ENDBRANCH   1   2
BRANCH   1  10
ATOM     10  C   UNL     1      15.973  15.738  26.756  1.00  0.00     0.027 C 
BRANCH  10  11
ATOM     11  C   UNL     1      16.583  15.293  28.058  1.00  0.00    -0.031 C 
ATOM     12  C   UNL     1      16.160  15.779  29.233  1.00  0.00    -0.031 C 
BRANCH  12  13
ATOM     13  C   UNL     1      16.773  15.340  30.536  1.00  0.00     0.027 C 
BRANCH  13  14
ATOM     14  C   UNL     1      16.312  13.936  30.966  1.00  0.00     0.004 C 
BRANCH  14  15
ATOM     15  C   UNL     1      17.211  13.275  32.026  1.00  0.00     0.000 C 
BRANCH  15  16
ATOM     16  C   UNL     1      18.576  13.970  32.167  1.00  0.00    -0.000 C 
BRANCH  16  17
ATOM     17  C   UNL     1      19.692  13.235  31.409  1.00  0.00    -0.003 C 
ATOM     18  C   UNL     1      20.358  14.109  30.347  1.00  0.00     0.004 C 
ENDBRANCH  16  17
ENDBRANCH  15  16
ENDBRANCH  14  15
ENDBRANCH  13  14
ENDBRANCH  12  13
ENDBRANCH  10  11
ENDBRANCH   1  10
TORSDOF 13
ENDMDL
MODEL 5
REMARK VINA RESULT:    -3.891      2.781      6.020
REMARK INTER + INTRA:          -8.462
REMARK INTER:                  -6.646
REMARK INTRA:                  -1.815
REMARK UNBOUND:                -1.613
REMARK SMILES CCCCCCC=CCCCCCCCC(=O)[O-]
REMARK SMILES IDX 10 1 11 2 12 3 13 4 14 5 15 6 16 7 17 8 18 9 9 10 8 11 7 12
REMARK SMILES IDX 6 13 5 14 4 15 3 16 2 17 1 18
REMARK H PARENT
REMARK Flexibility Score: inf
ROOT
ATOM      1  C   UNL     1      16.679  12.891  30.976  1.00  0.00     0.004 C 
ENDROOT
BRANCH   1   2
ATOM      2  C   UNL     1      17.225  14.262  31.422  1.00  0.00     0.000 C 
BRANCH   2   3
ATOM      3  C   UNL     1      17.547  15.243  30.277  1.00  0.00     0.000 C 
BRANCH   3   4
ATOM      4  C   UNL     1      16.356  16.085  29.784  1.00  0.00     0.000 C 
BRANCH   4   5
ATOM      5  C   UNL     1      15.885  15.685  28.375  1.00  0.00     0.006 C 
BRANCH   5   6
ATOM      6  C   UNL     1      17.031  15.125  27.520  1.00  0.00     0.053 C 
BRANCH   6   7
ATOM      7  C   UNL     1      17.037  15.710  26.141  1.00  0.00     0.041 C 
ATOM      8  O   UNL     1      16.094  16.454  25.765  1.00  0.00    -0.550 OA
ATOM      9  O   UNL     1      18.070  15.409  25.262  1.00  0.00    -0.550 OA
ENDBRANCH   6   7
ENDBRANCH   5   6
ENDBRANCH   4   5
ENDBRANCH   3   4
ENDBRANCH   2   3
ENDBRANCH   1   2
BRANCH   1  10
ATOM     10  C   UNL     1      15.299  12.541  31.558  1.00  0.00     0.027 C 
BRANCH  10  11
ATOM     11  C   UNL     1      14.194  13.371  30.963  1.00  0.00    -0.031 C 
ATOM     12  C   UNL     1      13.758  13.167  29.712  1.00  0.00    -0.031 C 
BRANCH  12  13
ATOM     13  C   UNL     1      12.658  14.000  29.112  1.00  0.00     0.027 C 
BRANCH  13  14
ATOM     14  C   UNL     1      11.265  13.611  29.639  1.00  0.00     0.004 C 
BRANCH  14  15
ATOM     15  C   UNL     1      10.524  14.751  30.362  1.00  0.00     0.000 C 
BRANCH  15  16
ATOM     16  C   UNL     1      10.861  14.822  31.861  1.00  0.00    -0.000 C 
BRANCH  16  17
ATOM     17  C   UNL     1      10.900  13.435  32.522  1.00  0.00    -0.003 C 
ATOM     18  C   UNL     1      11.333  13.492  33.986  1.00  0.00     0.004 C 
ENDBRANCH  16  17
ENDBRANCH  15  16
ENDBRANCH  14  15
ENDBRANCH  13  14
ENDBRANCH  12  13
ENDBRANCH  10  11
ENDBRANCH   1  10
TORSDOF 13
ENDMDL
MODEL 6
REMARK VINA RESULT:    -3.852      2.446      4.881
REMARK INTER + INTRA:          -8.392
REMARK INTER:                  -6.422
REMARK INTRA:                  -1.970
REMARK UNBOUND:                -1.613
REMARK SMILES CCCCCCC=CCCCCCCCC(=O)[O-]
REMARK SMILES IDX 10 1 11 2 12 3 13 4 14 5 15 6 16 7 17 8 18 9 9 10 8 11 7 12
REMARK SMILES IDX 6 13 5 14 4 15 3 16 2 17 1 18
REMARK H PARENT
REMARK Flexibility Score: inf
ROOT
ATOM      1  C   UNL     1      16.095  12.416  30.993  1.00  0.00     0.004 C 
ENDROOT
BRANCH   1   2
ATOM      2  C   UNL     1      17.109  13.075  31.949  1.00  0.00     0.000 C 
BRANCH   2   3
ATOM      3  C   UNL     1      17.466  14.538  31.618  1.00  0.00     0.000 C 
BRANCH   3   4
ATOM      4  C   UNL     1      17.506  14.878  30.117  1.00  0.00     0.000 C 
BRANCH   4   5
ATOM      5  C   UNL     1      16.391  15.851  29.697  1.00  0.00     0.006 C 
BRANCH   5   6
ATOM      6  C   UNL     1      15.504  15.269  28.587  1.00  0.00     0.053 C 
BRANCH   6   7
ATOM      7  C   UNL     1      16.161  15.355  27.244  1.00  0.00     0.041 C 
ATOM      8  O   UNL     1      15.963  16.356  26.505  1.00  0.00    -0.550 OA
ATOM      9  O   UNL     1      16.968  14.317  26.795  1.00  0.00    -0.550 OA
ENDBRANCH   6   7
ENDBRANCH   5   6
ENDBRANCH   4   5
ENDBRANCH   3   4
ENDBRANCH   2   3
ENDBRANCH   1   2
BRANCH   1  10
ATOM     10  C   UNL     1      14.705  12.183  31.609  1.00  0.00     0.027 C 
BRANCH  10  11
ATOM     11  C   UNL     1      13.730  13.277  31.265  1.00  0.00    -0.031 C 
ATOM     12  C   UNL     1      12.484  13.287  31.757  1.00  0.00    -0.031 C 
BRANCH  12  13
ATOM     13  C   UNL     1      11.505  14.377  31.408  1.00  0.00     0.027 C 
BRANCH  13  14
ATOM     14  C   UNL     1      11.842  15.072  30.077  1.00  0.00     0.004 C 
BRANCH  14  15
ATOM     15  C   UNL     1      10.702  15.040  29.043  1.00  0.00     0.000 C 
BRANCH  15  16
ATOM     16  C   UNL     1      10.835  13.876  28.047  1.00  0.00    -0.000 C 
BRANCH  16  17
ATOM     17  C   UNL     1      12.295  13.442  27.841  1.00  0.00    -0.003 C 
ATOM     18  C   UNL     1      12.503  11.946  28.071  1.00  0.00     0.004 C 
ENDBRANCH  16  17
ENDBRANCH  15  16
ENDBRANCH  14  15
ENDBRANCH  13  14
ENDBRANCH  12  13
ENDBRANCH  10  11
ENDBRANCH   1  10
TORSDOF 13
ENDMDL
MODEL 7
REMARK VINA RESULT:    -3.812      3.537      6.096
REMARK INTER + INTRA:          -8.321
REMARK INTER:                  -7.451
REMARK INTRA:                  -0.870
REMARK UNBOUND:                -1.613
REMARK SMILES CCCCCCC=CCCCCCCCC(=O)[O-]
REMARK SMILES IDX 10 1 11 2 12 3 13 4 14 5 15 6 16 7 17 8 18 9 9 10 8 11 7 12
REMARK SMILES IDX 6 13 5 14 4 15 3 16 2 17 1 18
REMARK H PARENT
REMARK Flexibility Score: inf
ROOT
ATOM      1  C   UNL     1      15.076  13.083  30.327  1.00  0.00     0.004 C 
ENDROOT
BRANCH   1   2
ATOM      2  C   UNL     1      16.182  13.601  31.268  1.00  0.00     0.000 C 
BRANCH   2   3
ATOM      3  C   UNL     1      16.932  14.853  30.772  1.00  0.00     0.000 C 
BRANCH   3   4
ATOM      4  C   UNL     1      16.199  15.669  29.691  1.00  0.00     0.000 C 
BRANCH   4   5
ATOM      5  C   UNL     1      16.858  15.550  28.306  1.00  0.00     0.006 C 
BRANCH   5   6
ATOM      6  C   UNL     1      15.833  15.644  27.168  1.00  0.00     0.053 C 
BRANCH   6   7
ATOM      7  C   UNL     1      16.480  15.967  25.857  1.00  0.00     0.041 C 
ATOM      8  O   UNL     1      15.775  16.277  24.861  1.00  0.00    -0.550 OA
ATOM      9  O   UNL     1      17.862  15.897  25.727  1.00  0.00    -0.550 OA
ENDBRANCH   6   7
ENDBRANCH   5   6
ENDBRANCH   4   5
ENDBRANCH   3   4
ENDBRANCH   2   3
ENDBRANCH   1   2
BRANCH   1  10
ATOM     10  C   UNL     1      13.667  13.091  30.942  1.00  0.00     0.027 C 
BRANCH  10  11
ATOM     11  C   UNL     1      12.830  14.242  30.453  1.00  0.00    -0.031 C 
ATOM     12  C   UNL     1      11.699  14.044  29.762  1.00  0.00    -0.031 C 
BRANCH  12  13
ATOM     13  C   UNL     1      10.864  15.194  29.266  1.00  0.00     0.027 C 
BRANCH  13  14
ATOM     14  C   UNL     1      10.082  14.851  27.986  1.00  0.00     0.004 C 
BRANCH  14  15
ATOM     15  C   UNL     1       9.005  15.884  27.609  1.00  0.00     0.000 C 
BRANCH  15  16
ATOM     16  C   UNL     1       8.825  16.029  26.089  1.00  0.00    -0.000 C 
BRANCH  16  17
ATOM     17  C   UNL     1       8.716  17.496  25.646  1.00  0.00    -0.003 C 
ATOM     18  C   UNL     1       8.271  18.421  26.777  1.00  0.00     0.004 C 
ENDBRANCH  16  17
ENDBRANCH  15  16
ENDBRANCH  14  15
ENDBRANCH  13  14
ENDBRANCH  12  13
ENDBRANCH  10  11
ENDBRANCH   1  10
TORSDOF 13
ENDMDL
MODEL 8
REMARK VINA RESULT:    -3.741      2.440      5.566
REMARK INTER + INTRA:          -8.196
REMARK INTER:                  -6.884
REMARK INTRA:                  -1.312
REMARK UNBOUND:                -1.613
REMARK SMILES CCCCCCC=CCCCCCCCC(=O)[O-]
REMARK SMILES IDX 10 1 11 2 12 3 13 4 14 5 15 6 16 7 17 8 18 9 9 10 8 11 7 12
REMARK SMILES IDX 6 13 5 14 4 15 3 16 2 17 1 18
REMARK H PARENT
REMARK Flexibility Score: inf
ROOT
ATOM      1  C   UNL     1      17.321  14.174  31.626  1.00  0.00     0.004 C 
ENDROOT
BRANCH   1   2
ATOM      2  C   UNL     1      17.687  15.117  30.463  1.00  0.00     0.000 C 
BRANCH   2   3
ATOM      3  C   UNL     1      16.576  16.100  30.042  1.00  0.00     0.000 C 
BRANCH   3   4
ATOM      4  C   UNL     1      15.968  15.843  28.651  1.00  0.00     0.000 C 
BRANCH   4   5
ATOM      5  C   UNL     1      16.766  14.815  27.832  1.00  0.00     0.006 C 
BRANCH   5   6
ATOM      6  C   UNL     1      17.173  15.361  26.456  1.00  0.00     0.053 C 
BRANCH   6   7
ATOM      7  C   UNL     1      16.039  15.316  25.480  1.00  0.00     0.041 C 
ATOM      8  O   UNL     1      15.268  14.321  25.449  1.00  0.00    -0.550 OA
ATOM      9  O   UNL     1      15.851  16.361  24.583  1.00  0.00    -0.550 OA
ENDBRANCH   6   7
ENDBRANCH   5   6
ENDBRANCH   4   5
ENDBRANCH   3   4
ENDBRANCH   2   3
ENDBRANCH   1   2
BRANCH   1  10
ATOM     10  C   UNL     1      16.718  12.830  31.184  1.00  0.00     0.027 C 
BRANCH  10  11
ATOM     11  C   UNL     1      15.264  12.701  31.552  1.00  0.00    -0.031 C 
ATOM     12  C   UNL     1      14.305  13.316  30.847  1.00  0.00    -0.031 C 
BRANCH  12  13
ATOM     13  C   UNL     1      12.851  13.194  31.217  1.00  0.00     0.027 C 
BRANCH  13  14
ATOM     14  C   UNL     1      12.026  14.423  30.795  1.00  0.00     0.004 C 
BRANCH  14  15
ATOM     15  C   UNL     1      10.539  14.350  31.189  1.00  0.00     0.000 C 
BRANCH  15  16
ATOM     16  C   UNL     1       9.597  14.478  29.981  1.00  0.00    -0.000 C 
BRANCH  16  17
ATOM     17  C   UNL     1      10.276  15.140  28.772  1.00  0.00    -0.003 C 
ATOM     18  C   UNL     1       9.273  15.745  27.791  1.00  0.00     0.004 C 
ENDBRANCH  16  17
ENDBRANCH  15  16
ENDBRANCH  14  15
ENDBRANCH  13  14
ENDBRANCH  12  13
ENDBRANCH  10  11
ENDBRANCH   1  10
TORSDOF 13
ENDMDL
MODEL 9
REMARK VINA RESULT:    -3.704      2.786      5.346
REMARK INTER + INTRA:          -8.132
REMARK INTER:                  -7.005
REMARK INTRA:                  -1.127
REMARK UNBOUND:                -1.613
REMARK SMILES CCCCCCC=CCCCCCCCC(=O)[O-]
REMARK SMILES IDX 10 1 11 2 12 3 13 4 14 5 15 6 16 7 17 8 18 9 9 10 8 11 7 12
REMARK SMILES IDX 6 13 5 14 4 15 3 16 2 17 1 18
REMARK H PARENT
REMARK Flexibility Score: inf
ROOT
ATOM      1  C   UNL     1      11.338  14.248  30.963  1.00  0.00     0.004 C 
ENDROOT
BRANCH   1   2
ATOM      2  C   UNL     1      10.573  13.494  29.857  1.00  0.00     0.000 C 
BRANCH   2   3
ATOM      3  C   UNL     1      10.052  14.376  28.704  1.00  0.00     0.000 C 
BRANCH   3   4
ATOM      4  C   UNL     1       8.617  14.903  28.881  1.00  0.00     0.000 C 
BRANCH   4   5
ATOM      5  C   UNL     1       8.015  15.444  27.573  1.00  0.00     0.006 C 
BRANCH   5   6
ATOM      6  C   UNL     1       9.065  16.145  26.699  1.00  0.00     0.053 C 
BRANCH   6   7
ATOM      7  C   UNL     1       8.598  17.489  26.234  1.00  0.00     0.041 C 
ATOM      8  O   UNL     1       8.757  17.835  25.034  1.00  0.00    -0.550 OA
ATOM      9  O   UNL     1       8.013  18.373  27.133  1.00  0.00    -0.550 OA
ENDBRANCH   6   7
ENDBRANCH   5   6
ENDBRANCH   4   5
ENDBRANCH   3   4
ENDBRANCH   2   3
ENDBRANCH   1   2
BRANCH   1  10
ATOM     10  C   UNL     1      12.542  13.480  31.535  1.00  0.00     0.027 C 
BRANCH  10  11
ATOM     11  C   UNL     1      13.718  13.470  30.597  1.00  0.00    -0.031 C 
ATOM     12  C   UNL     1      13.990  14.513  29.800  1.00  0.00    -0.031 C 
BRANCH  12  13
ATOM     13  C   UNL     1      15.163  14.502  28.856  1.00  0.00     0.027 C 
BRANCH  13  14
ATOM     14  C   UNL     1      15.993  15.796  28.926  1.00  0.00     0.004 C 
BRANCH  14  15
ATOM     15  C   UNL     1      16.819  15.946  30.217  1.00  0.00     0.000 C 
BRANCH  15  16
ATOM     16  C   UNL     1      17.750  14.748  30.469  1.00  0.00    -0.000 C 
BRANCH  16  17
ATOM     17  C   UNL     1      17.751  14.304  31.940  1.00  0.00    -0.003 C 
ATOM     18  C   UNL     1      17.191  12.895  32.131  1.00  0.00     0.004 C 
ENDBRANCH  16  17
ENDBRANCH  15  16
ENDBRANCH  14  15
ENDBRANCH  13  14
ENDBRANCH  12  13
ENDBRANCH  10  11
ENDBRANCH   1  10
TORSDOF 13
ENDMDL
