MODEL 1
REMARK VINA RESULT:    -3.459      0.000      0.000
REMARK INTER + INTRA:          -5.127
REMARK INTER:                  -4.673
REMARK INTRA:                  -0.454
REMARK UNBOUND:                -0.454
REMARK SMILES C[C@H](O)[C@H](O)[C@@H](O)[C@@H](O)C=O
REMARK SMILES IDX 4 1 2 2 1 3 3 4 6 6 8 7 10 8 11 9 9 10 7 12 5 14
REMARK H PARENT 3 5 9 11 7 13 5 15
REMARK Flexibility Score: inf
ROOT
ATOM      1  C   UNL     1      70.716  34.870  59.715  1.00  0.00     0.174 C 
ENDROOT
BRANCH   1   2
ATOM      2  C   UNL     1      71.180  33.432  59.348  1.00  0.00     0.142 C 
ATOM      3  C   UNL     1      71.913  32.683  60.474  1.00  0.00     0.041 C 
BRANCH   2   4
ATOM      4  O   UNL     1      71.974  33.458  58.189  1.00  0.00    -0.391 OA
ATOM      5  H   UNL     1      71.472  32.994  57.469  1.00  0.00     0.211 HD
ENDBRANCH   2   4
ENDBRANCH   1   2
BRANCH   1   6
ATOM      6  C   UNL     1      69.793  35.521  58.644  1.00  0.00     0.181 C 
BRANCH   6   7
ATOM      7  C   UNL     1      70.493  36.683  57.898  1.00  0.00     0.209 C 
BRANCH   7   8
ATOM      8  C   UNL     1      70.949  36.287  56.517  1.00  0.00     0.258 C 
ATOM      9  O   UNL     1      72.084  35.879  56.326  1.00  0.00    -0.300 OA
ENDBRANCH   7   8
BRANCH   7  10
ATOM     10  O   UNL     1      71.593  37.125  58.649  1.00  0.00    -0.383 OA
ATOM     11  H   UNL     1      71.376  38.038  58.971  1.00  0.00     0.211 HD
ENDBRANCH   7  10
ENDBRANCH   6   7
BRANCH   6  12
ATOM     12  O   UNL     1      68.593  35.967  59.226  1.00  0.00    -0.387 OA
ATOM     13  H   UNL     1      67.902  35.279  59.034  1.00  0.00     0.211 HD
ENDBRANCH   6  12
ENDBRANCH   1   6
BRANCH   1  14
ATOM     14  O   UNL     1      70.155  34.924  61.006  1.00  0.00    -0.388 OA
ATOM     15  H   UNL     1      69.606  34.109  61.141  1.00  0.00     0.211 HD
ENDBRANCH   1  14
TORSDOF 8
ENDMDL
MODEL 2
REMARK VINA RESULT:    -3.398      1.371      2.385
REMARK INTER + INTRA:          -5.044
REMARK INTER:                  -4.305
REMARK INTRA:                  -0.739
REMARK UNBOUND:                -0.454
REMARK SMILES C[C@H](O)[C@H](O)[C@@H](O)[C@@H](O)C=O
REMARK SMILES IDX 4 1 2 2 1 3 3 4 6 6 8 7 10 8 11 9 9 10 7 12 5 14
REMARK H PARENT 3 5 9 11 7 13 5 15
REMARK Flexibility Score: inf
ROOT
ATOM      1  C   UNL     1      71.039  34.004  58.327  1.00  0.00     0.174 C 
ENDROOT
BRANCH   1   2
ATOM      2  C   UNL     1      71.664  32.956  59.292  1.00  0.00     0.142 C 
ATOM      3  C   UNL     1      70.936  31.602  59.333  1.00  0.00     0.041 C 
BRANCH   2   4
ATOM      4  O   UNL     1      71.767  33.489  60.588  1.00  0.00    -0.391 OA
ATOM      5  H   UNL     1      71.711  32.734  61.230  1.00  0.00     0.211 HD
ENDBRANCH   2   4
ENDBRANCH   1   2
BRANCH   1   6
ATOM      6  C   UNL     1      70.325  35.178  59.058  1.00  0.00     0.181 C 
BRANCH   6   7
ATOM      7  C   UNL     1      69.108  35.710  58.261  1.00  0.00     0.209 C 
BRANCH   7   8
ATOM      8  C   UNL     1      69.419  36.987  57.523  1.00  0.00     0.258 C 
ATOM      9  O   UNL     1      70.324  37.034  56.706  1.00  0.00    -0.300 OA
ENDBRANCH   7   8
BRANCH   7  10
ATOM     10  O   UNL     1      68.032  35.922  59.138  1.00  0.00    -0.383 OA
ATOM     11  H   UNL     1      67.460  36.621  58.729  1.00  0.00     0.211 HD
ENDBRANCH   7  10
ENDBRANCH   6   7
BRANCH   6  12
ATOM     12  O   UNL     1      71.229  36.222  59.323  1.00  0.00    -0.387 OA
ATOM     13  H   UNL     1      71.258  36.796  58.513  1.00  0.00     0.211 HD
ENDBRANCH   6  12
ENDBRANCH   1   6
BRANCH   1  14
ATOM     14  O   UNL     1      71.971  34.457  57.374  1.00  0.00    -0.388 OA
ATOM     15  H   UNL     1      72.183  35.405  57.572  1.00  0.00     0.211 HD
ENDBRANCH   1  14
TORSDOF 8
ENDMDL
MODEL 3
REMARK VINA RESULT:    -3.369     18.923     20.220
REMARK INTER + INTRA:          -5.006
REMARK INTER:                  -4.267
REMARK INTRA:                  -0.738
REMARK UNBOUND:                -0.454
REMARK SMILES C[C@H](O)[C@H](O)[C@@H](O)[C@@H](O)C=O
REMARK SMILES IDX 4 1 2 2 1 3 3 4 6 6 8 7 10 8 11 9 9 10 7 12 5 14
REMARK H PARENT 3 5 9 11 7 13 5 15
REMARK Flexibility Score: inf
ROOT
ATOM      1  C   UNL     1      54.953  25.401  63.678  1.00  0.00     0.174 C 
ENDROOT
BRANCH   1   2
ATOM      2  C   UNL     1      55.724  25.760  62.376  1.00  0.00     0.142 C 
ATOM      3  C   UNL     1      55.445  24.830  61.183  1.00  0.00     0.041 C 
BRANCH   2   4
ATOM      4  O   UNL     1      57.106  25.820  62.630  1.00  0.00    -0.391 OA
ATOM      5  H   UNL     1      57.234  26.303  63.487  1.00  0.00     0.211 HD
ENDBRANCH   2   4
ENDBRANCH   1   2
BRANCH   1   6
ATOM      6  C   UNL     1      55.182  23.937  64.156  1.00  0.00     0.181 C 
BRANCH   6   7
ATOM      7  C   UNL     1      54.362  23.602  65.426  1.00  0.00     0.209 C 
BRANCH   7   8
ATOM      8  C   UNL     1      54.038  22.134  65.529  1.00  0.00     0.258 C 
ATOM      9  O   UNL     1      54.855  21.288  65.203  1.00  0.00    -0.300 OA
ENDBRANCH   7   8
BRANCH   7  10
ATOM     10  O   UNL     1      53.172  24.348  65.424  1.00  0.00    -0.383 OA
ATOM     11  H   UNL     1      53.333  25.147  64.857  1.00  0.00     0.211 HD
ENDBRANCH   7  10
ENDBRANCH   6   7
BRANCH   6  12
ATOM     12  O   UNL     1      56.549  23.695  64.379  1.00  0.00    -0.387 OA
ATOM     13  H   UNL     1      56.884  23.180  63.599  1.00  0.00     0.211 HD
ENDBRANCH   6  12
ENDBRANCH   1   6
BRANCH   1  14
ATOM     14  O   UNL     1      55.191  26.339  64.700  1.00  0.00    -0.388 OA
ATOM     15  H   UNL     1      55.294  27.233  64.285  1.00  0.00     0.211 HD
ENDBRANCH   1  14
TORSDOF 8
ENDMDL
MODEL 4
REMARK VINA RESULT:    -3.339     18.313     19.398
REMARK INTER + INTRA:          -4.965
REMARK INTER:                  -4.266
REMARK INTRA:                  -0.699
REMARK UNBOUND:                -0.454
REMARK SMILES C[C@H](O)[C@H](O)[C@@H](O)[C@@H](O)C=O
REMARK SMILES IDX 4 1 2 2 1 3 3 4 6 6 8 7 10 8 11 9 9 10 7 12 5 14
REMARK H PARENT 3 5 9 11 7 13 5 15
REMARK Flexibility Score: inf
ROOT
ATOM      1  C   UNL     1      55.257  24.022  64.087  1.00  0.00     0.174 C 
ENDROOT
BRANCH   1   2
ATOM      2  C   UNL     1      54.410  23.672  65.344  1.00  0.00     0.142 C 
ATOM      3  C   UNL     1      54.090  22.177  65.511  1.00  0.00     0.041 C 
BRANCH   2   4
ATOM      4  O   UNL     1      53.223  24.425  65.356  1.00  0.00    -0.391 OA
ATOM      5  H   UNL     1      53.367  25.205  65.954  1.00  0.00     0.211 HD
ENDBRANCH   2   4
ENDBRANCH   1   2
BRANCH   1   6
ATOM      6  C   UNL     1      55.054  25.481  63.584  1.00  0.00     0.181 C 
BRANCH   6   7
ATOM      7  C   UNL     1      56.078  25.870  62.489  1.00  0.00     0.209 C 
BRANCH   7   8
ATOM      8  C   UNL     1      55.786  27.218  61.882  1.00  0.00     0.258 C 
ATOM      9  O   UNL     1      55.801  28.229  62.567  1.00  0.00    -0.300 OA
ENDBRANCH   7   8
BRANCH   7  10
ATOM     10  O   UNL     1      56.080  24.891  61.483  1.00  0.00    -0.383 OA
ATOM     11  H   UNL     1      56.837  25.101  60.877  1.00  0.00     0.211 HD
ENDBRANCH   7  10
ENDBRANCH   6   7
BRANCH   6  12
ATOM     12  O   UNL     1      55.114  26.390  64.655  1.00  0.00    -0.387 OA
ATOM     13  H   UNL     1      55.710  27.133  64.374  1.00  0.00     0.211 HD
ENDBRANCH   6  12
ENDBRANCH   1   6
BRANCH   1  14
ATOM     14  O   UNL     1      56.616  23.705  64.269  1.00  0.00    -0.388 OA
ATOM     15  H   UNL     1      57.077  23.797  63.396  1.00  0.00     0.211 HD
ENDBRANCH   1  14
TORSDOF 8
ENDMDL
MODEL 5
REMARK VINA RESULT:    -3.319      2.927      5.533
REMARK INTER + INTRA:          -4.938
REMARK INTER:                  -4.264
REMARK INTRA:                  -0.673
REMARK UNBOUND:                -0.454
REMARK SMILES C[C@H](O)[C@H](O)[C@@H](O)[C@@H](O)C=O
REMARK SMILES IDX 4 1 2 2 1 3 3 4 6 6 8 7 10 8 11 9 9 10 7 12 5 14
REMARK H PARENT 3 5 9 11 7 13 5 15
REMARK Flexibility Score: inf
ROOT
ATOM      1  C   UNL     1      71.364  32.664  60.133  1.00  0.00     0.174 C 
ENDROOT
BRANCH   1   2
ATOM      2  C   UNL     1      70.933  33.502  58.896  1.00  0.00     0.142 C 
ATOM      3  C   UNL     1      70.571  34.965  59.201  1.00  0.00     0.041 C 
BRANCH   2   4
ATOM      4  O   UNL     1      69.869  32.871  58.228  1.00  0.00    -0.391 OA
ATOM      5  H   UNL     1      69.041  33.045  58.746  1.00  0.00     0.211 HD
ENDBRANCH   2   4
ENDBRANCH   1   2
BRANCH   1   6
ATOM      6  C   UNL     1      71.727  31.189  59.793  1.00  0.00     0.181 C 
BRANCH   6   7
ATOM      7  C   UNL     1      72.671  30.561  60.848  1.00  0.00     0.209 C 
BRANCH   7   8
ATOM      8  C   UNL     1      73.125  29.177  60.462  1.00  0.00     0.258 C 
ATOM      9  O   UNL     1      72.327  28.347  60.056  1.00  0.00    -0.300 OA
ENDBRANCH   7   8
BRANCH   7  10
ATOM     10  O   UNL     1      72.017  30.513  62.090  1.00  0.00    -0.383 OA
ATOM     11  H   UNL     1      72.283  31.328  62.589  1.00  0.00     0.211 HD
ENDBRANCH   7  10
ENDBRANCH   6   7
BRANCH   6  12
ATOM     12  O   UNL     1      72.299  31.101  58.512  1.00  0.00    -0.387 OA
ATOM     13  H   UNL     1      73.285  31.090  58.632  1.00  0.00     0.211 HD
ENDBRANCH   6  12
ENDBRANCH   1   6
BRANCH   1  14
ATOM     14  O   UNL     1      72.376  33.306  60.871  1.00  0.00    -0.388 OA
ATOM     15  H   UNL     1      72.095  33.341  61.821  1.00  0.00     0.211 HD
ENDBRANCH   1  14
TORSDOF 8
ENDMDL
MODEL 6
REMARK VINA RESULT:    -3.210      7.272      9.060
REMARK INTER + INTRA:          -4.791
REMARK INTER:                  -4.148
REMARK INTRA:                  -0.643
REMARK UNBOUND:                -0.454
REMARK SMILES C[C@H](O)[C@H](O)[C@@H](O)[C@@H](O)C=O
REMARK SMILES IDX 4 1 2 2 1 3 3 4 6 6 8 7 10 8 11 9 9 10 7 12 5 14
REMARK H PARENT 3 5 9 11 7 13 5 15
REMARK Flexibility Score: inf
ROOT
ATOM      1  C   UNL     1      64.332  33.233  60.671  1.00  0.00     0.174 C 
ENDROOT
BRANCH   1   2
ATOM      2  C   UNL     1      64.115  34.771  60.751  1.00  0.00     0.142 C 
ATOM      3  C   UNL     1      65.046  35.504  61.732  1.00  0.00     0.041 C 
BRANCH   2   4
ATOM      4  O   UNL     1      62.772  35.057  61.053  1.00  0.00    -0.391 OA
ATOM      5  H   UNL     1      62.267  35.071  60.199  1.00  0.00     0.211 HD
ENDBRANCH   2   4
ENDBRANCH   1   2
BRANCH   1   6
ATOM      6  C   UNL     1      63.007  32.416  60.642  1.00  0.00     0.181 C 
BRANCH   6   7
ATOM      7  C   UNL     1      63.250  30.900  60.843  1.00  0.00     0.209 C 
BRANCH   7   8
ATOM      8  C   UNL     1      62.123  30.231  61.588  1.00  0.00     0.258 C 
ATOM      9  O   UNL     1      61.128  30.858  61.912  1.00  0.00    -0.300 OA
ENDBRANCH   7   8
BRANCH   7  10
ATOM     10  O   UNL     1      64.454  30.708  61.539  1.00  0.00    -0.383 OA
ATOM     11  H   UNL     1      64.897  29.915  61.139  1.00  0.00     0.211 HD
ENDBRANCH   7  10
ENDBRANCH   6   7
BRANCH   6  12
ATOM     12  O   UNL     1      62.308  32.644  59.444  1.00  0.00    -0.387 OA
ATOM     13  H   UNL     1      62.123  33.618  59.395  1.00  0.00     0.211 HD
ENDBRANCH   6  12
ENDBRANCH   1   6
BRANCH   1  14
ATOM     14  O   UNL     1      65.197  32.882  59.617  1.00  0.00    -0.388 OA
ATOM     15  H   UNL     1      65.917  32.307  59.983  1.00  0.00     0.211 HD
ENDBRANCH   1  14
TORSDOF 8
ENDMDL
MODEL 7
REMARK VINA RESULT:    -3.151      2.721      3.997
REMARK INTER + INTRA:          -4.711
REMARK INTER:                  -4.348
REMARK INTRA:                  -0.363
REMARK UNBOUND:                -0.454
REMARK SMILES C[C@H](O)[C@H](O)[C@@H](O)[C@@H](O)C=O
REMARK SMILES IDX 4 1 2 2 1 3 3 4 6 6 8 7 10 8 11 9 9 10 7 12 5 14
REMARK H PARENT 3 5 9 11 7 13 5 15
REMARK Flexibility Score: inf
ROOT
ATOM      1  C   UNL     1      72.435  31.496  60.468  1.00  0.00     0.174 C 
ENDROOT
BRANCH   1   2
ATOM      2  C   UNL     1      71.973  30.012  60.481  1.00  0.00     0.142 C 
ATOM      3  C   UNL     1      70.503  29.797  60.881  1.00  0.00     0.041 C 
BRANCH   2   4
ATOM      4  O   UNL     1      72.815  29.247  61.307  1.00  0.00    -0.391 OA
ATOM      5  H   UNL     1      72.241  28.642  61.846  1.00  0.00     0.211 HD
ENDBRANCH   2   4
ENDBRANCH   1   2
BRANCH   1   6
ATOM      6  C   UNL     1      71.293  32.504  60.140  1.00  0.00     0.181 C 
BRANCH   6   7
ATOM      7  C   UNL     1      71.051  32.637  58.617  1.00  0.00     0.209 C 
BRANCH   7   8
ATOM      8  C   UNL     1      71.252  34.047  58.124  1.00  0.00     0.258 C 
ATOM      9  O   UNL     1      70.429  34.916  58.363  1.00  0.00    -0.300 OA
ENDBRANCH   7   8
BRANCH   7  10
ATOM     10  O   UNL     1      69.747  32.213  58.313  1.00  0.00    -0.383 OA
ATOM     11  H   UNL     1      69.216  32.291  59.148  1.00  0.00     0.211 HD
ENDBRANCH   7  10
ENDBRANCH   6   7
BRANCH   6  12
ATOM     12  O   UNL     1      71.565  33.763  60.704  1.00  0.00    -0.387 OA
ATOM     13  H   UNL     1      70.783  34.005  61.267  1.00  0.00     0.211 HD
ENDBRANCH   6  12
ENDBRANCH   1   6
BRANCH   1  14
ATOM     14  O   UNL     1      73.125  31.838  61.647  1.00  0.00    -0.388 OA
ATOM     15  H   UNL     1      74.005  32.218  61.394  1.00  0.00     0.211 HD
ENDBRANCH   1  14
TORSDOF 8
ENDMDL
MODEL 8
REMARK VINA RESULT:    -3.121      1.454      2.609
REMARK INTER + INTRA:          -4.669
REMARK INTER:                  -4.119
REMARK INTRA:                  -0.550
REMARK UNBOUND:                -0.454
REMARK SMILES C[C@H](O)[C@H](O)[C@@H](O)[C@@H](O)C=O
REMARK SMILES IDX 4 1 2 2 1 3 3 4 6 6 8 7 10 8 11 9 9 10 7 12 5 14
REMARK H PARENT 3 5 9 11 7 13 5 15
REMARK Flexibility Score: inf
ROOT
ATOM      1  C   UNL     1      70.916  32.633  59.132  1.00  0.00     0.174 C 
ENDROOT
BRANCH   1   2
ATOM      2  C   UNL     1      72.018  32.268  60.167  1.00  0.00     0.142 C 
ATOM      3  C   UNL     1      71.714  31.026  61.022  1.00  0.00     0.041 C 
BRANCH   2   4
ATOM      4  O   UNL     1      72.291  33.370  60.995  1.00  0.00    -0.391 OA
ATOM      5  H   UNL     1      71.604  34.063  60.812  1.00  0.00     0.211 HD
ENDBRANCH   2   4
ENDBRANCH   1   2
BRANCH   1   6
ATOM      6  C   UNL     1      71.241  33.907  58.297  1.00  0.00     0.181 C 
BRANCH   6   7
ATOM      7  C   UNL     1      70.274  35.075  58.612  1.00  0.00     0.209 C 
BRANCH   7   8
ATOM      8  C   UNL     1      70.730  36.377  58.005  1.00  0.00     0.258 C 
ATOM      9  O   UNL     1      71.677  36.412  57.236  1.00  0.00    -0.300 OA
ENDBRANCH   7   8
BRANCH   7  10
ATOM     10  O   UNL     1      70.155  35.219  60.003  1.00  0.00    -0.383 OA
ATOM     11  H   UNL     1      70.855  35.864  60.288  1.00  0.00     0.211 HD
ENDBRANCH   7  10
ENDBRANCH   6   7
BRANCH   6  12
ATOM     12  O   UNL     1      71.225  33.617  56.921  1.00  0.00    -0.387 OA
ATOM     13  H   UNL     1      72.159  33.701  56.595  1.00  0.00     0.211 HD
ENDBRANCH   6  12
ENDBRANCH   1   6
BRANCH   1  14
ATOM     14  O   UNL     1      70.579  31.534  58.318  1.00  0.00    -0.388 OA
ATOM     15  H   UNL     1      70.204  31.880  57.468  1.00  0.00     0.211 HD
ENDBRANCH   1  14
TORSDOF 8
ENDMDL
MODEL 9
REMARK VINA RESULT:    -2.956      2.671      5.048
REMARK INTER + INTRA:          -4.448
REMARK INTER:                  -3.873
REMARK INTRA:                  -0.575
REMARK UNBOUND:                -0.454
REMARK SMILES C[C@H](O)[C@H](O)[C@@H](O)[C@@H](O)C=O
REMARK SMILES IDX 4 1 2 2 1 3 3 4 6 6 8 7 10 8 11 9 9 10 7 12 5 14
REMARK H PARENT 3 5 9 11 7 13 5 15
REMARK Flexibility Score: inf
ROOT
ATOM      1  C   UNL     1      71.321  32.152  58.782  1.00  0.00     0.174 C 
ENDROOT
BRANCH   1   2
ATOM      2  C   UNL     1      71.284  33.275  57.706  1.00  0.00     0.142 C 
ATOM      3  C   UNL     1      72.169  33.019  56.475  1.00  0.00     0.041 C 
BRANCH   2   4
ATOM      4  O   UNL     1      71.610  34.514  58.286  1.00  0.00    -0.391 OA
ATOM      5  H   UNL     1      71.325  35.226  57.656  1.00  0.00     0.211 HD
ENDBRANCH   2   4
ENDBRANCH   1   2
BRANCH   1   6
ATOM      6  C   UNL     1      72.010  32.582  60.110  1.00  0.00     0.181 C 
BRANCH   6   7
ATOM      7  C   UNL     1      72.470  31.365  60.950  1.00  0.00     0.209 C 
BRANCH   7   8
ATOM      8  C   UNL     1      73.125  30.300  60.108  1.00  0.00     0.258 C 
ATOM      9  O   UNL     1      72.796  29.129  60.212  1.00  0.00    -0.300 OA
ENDBRANCH   7   8
BRANCH   7  10
ATOM     10  O   UNL     1      71.366  30.819  61.624  1.00  0.00    -0.383 OA
ATOM     11  H   UNL     1      70.763  30.441  60.933  1.00  0.00     0.211 HD
ENDBRANCH   7  10
ENDBRANCH   6   7
BRANCH   6  12
ATOM     12  O   UNL     1      71.159  33.405  60.868  1.00  0.00    -0.387 OA
ATOM     13  H   UNL     1      71.671  33.696  61.668  1.00  0.00     0.211 HD
ENDBRANCH   6  12
ENDBRANCH   1   6
BRANCH   1  14
ATOM     14  O   UNL     1      70.046  31.596  58.999  1.00  0.00    -0.388 OA
ATOM     15  H   UNL     1      69.716  31.908  59.880  1.00  0.00     0.211 HD
ENDBRANCH   1  14
TORSDOF 8
ENDMDL
