MODEL 1
REMARK VINA RESULT:    -5.938      0.000      0.000
REMARK INTER + INTRA:         -12.535
REMARK INTER:                 -10.450
REMARK INTRA:                  -2.085
REMARK UNBOUND:                -2.085
REMARK SMILES CCCCCCC=CCCCCCCCC(=O)[O-]
REMARK SMILES IDX 10 1 11 2 12 3 13 4 14 5 15 6 16 7 17 8 18 9 9 10 8 11 7 12
REMARK SMILES IDX 6 13 5 14 4 15 3 16 2 17 1 18
REMARK H PARENT
REMARK Flexibility Score: inf
ROOT
ATOM      1  C   UNL     1      52.147  49.087   3.856  1.00  0.00     0.004 C 
ENDROOT
BRANCH   1   2
ATOM      2  C   UNL     1      52.970  50.130   4.628  1.00  0.00     0.000 C 
BRANCH   2   3
ATOM      3  C   UNL     1      54.442  50.093   4.206  1.00  0.00     0.000 C 
BRANCH   3   4
ATOM      4  C   UNL     1      55.130  51.435   4.496  1.00  0.00     0.000 C 
BRANCH   4   5
ATOM      5  C   UNL     1      54.175  52.471   5.107  1.00  0.00     0.006 C 
BRANCH   5   6
ATOM      6  C   UNL     1      54.744  53.122   6.376  1.00  0.00     0.053 C 
BRANCH   6   7
ATOM      7  C   UNL     1      54.201  52.446   7.596  1.00  0.00     0.041 C 
ATOM      8  O   UNL     1      53.661  53.125   8.508  1.00  0.00    -0.550 OA
ATOM      9  O   UNL     1      54.336  51.072   7.747  1.00  0.00    -0.550 OA
ENDBRANCH   6   7
ENDBRANCH   5   6
ENDBRANCH   4   5
ENDBRANCH   3   4
ENDBRANCH   2   3
ENDBRANCH   1   2
BRANCH   1  10
ATOM     10  C   UNL     1      50.695  49.020   4.343  1.00  0.00     0.027 C 
BRANCH  10  11
ATOM     11  C   UNL     1      49.761  48.601   3.233  1.00  0.00    -0.031 C 
ATOM     12  C   UNL     1      48.952  49.429   2.547  1.00  0.00    -0.031 C 
BRANCH  12  13
ATOM     13  C   UNL     1      48.889  50.925   2.732  1.00  0.00     0.027 C 
BRANCH  13  14
ATOM     14  C   UNL     1      47.859  51.334   3.796  1.00  0.00     0.004 C 
BRANCH  14  15
ATOM     15  C   UNL     1      48.512  52.066   4.977  1.00  0.00     0.000 C 
BRANCH  15  16
ATOM     16  C   UNL     1      49.918  52.556   4.612  1.00  0.00    -0.000 C 
BRANCH  16  17
ATOM     17  C   UNL     1      50.752  52.821   5.871  1.00  0.00    -0.003 C 
ATOM     18  C   UNL     1      50.641  51.665   6.861  1.00  0.00     0.004 C 
ENDBRANCH  16  17
ENDBRANCH  15  16
ENDBRANCH  14  15
ENDBRANCH  13  14
ENDBRANCH  12  13
ENDBRANCH  10  11
ENDBRANCH   1  10
TORSDOF 13
ENDMDL
MODEL 2
REMARK VINA RESULT:    -5.926      1.066      2.905
REMARK INTER + INTRA:         -12.515
REMARK INTER:                 -10.403
REMARK INTRA:                  -2.112
REMARK UNBOUND:                -2.085
REMARK SMILES CCCCCCC=CCCCCCCCC(=O)[O-]
REMARK SMILES IDX 10 1 11 2 12 3 13 4 14 5 15 6 16 7 17 8 18 9 9 10 8 11 7 12
REMARK SMILES IDX 6 13 5 14 4 15 3 16 2 17 1 18
REMARK H PARENT
REMARK Flexibility Score: inf
ROOT
ATOM      1  C   UNL     1      51.552  50.157   6.273  1.00  0.00     0.004 C 
ENDROOT
BRANCH   1   2
ATOM      2  C   UNL     1      52.004  50.770   4.939  1.00  0.00     0.000 C 
BRANCH   2   3
ATOM      3  C   UNL     1      53.294  50.112   4.439  1.00  0.00     0.000 C 
BRANCH   3   4
ATOM      4  C   UNL     1      54.478  51.084   4.531  1.00  0.00     0.000 C 
BRANCH   4   5
ATOM      5  C   UNL     1      54.054  52.496   4.966  1.00  0.00     0.006 C 
BRANCH   5   6
ATOM      6  C   UNL     1      54.780  52.965   6.235  1.00  0.00     0.053 C 
BRANCH   6   7
ATOM      7  C   UNL     1      54.085  52.449   7.454  1.00  0.00     0.041 C 
ATOM      8  O   UNL     1      54.467  51.379   7.996  1.00  0.00    -0.550 OA
ATOM      9  O   UNL     1      52.984  53.125   7.964  1.00  0.00    -0.550 OA
ENDBRANCH   6   7
ENDBRANCH   5   6
ENDBRANCH   4   5
ENDBRANCH   3   4
ENDBRANCH   2   3
ENDBRANCH   1   2
BRANCH   1  10
ATOM     10  C   UNL     1      50.314  50.859   6.843  1.00  0.00     0.027 C 
BRANCH  10  11
ATOM     11  C   UNL     1      49.047  50.116   6.488  1.00  0.00    -0.031 C 
ATOM     12  C   UNL     1      48.160  50.499   5.552  1.00  0.00    -0.031 C 
BRANCH  12  13
ATOM     13  C   UNL     1      48.315  51.702   4.657  1.00  0.00     0.027 C 
BRANCH  13  14
ATOM     14  C   UNL     1      48.733  51.312   3.230  1.00  0.00     0.004 C 
BRANCH  14  15
ATOM     15  C   UNL     1      47.900  50.144   2.684  1.00  0.00     0.000 C 
BRANCH  15  16
ATOM     16  C   UNL     1      48.793  49.102   2.002  1.00  0.00    -0.000 C 
BRANCH  16  17
ATOM     17  C   UNL     1      48.916  47.837   2.860  1.00  0.00    -0.003 C 
ATOM     18  C   UNL     1      50.190  47.861   3.699  1.00  0.00     0.004 C 
ENDBRANCH  16  17
ENDBRANCH  15  16
ENDBRANCH  14  15
ENDBRANCH  13  14
ENDBRANCH  12  13
ENDBRANCH  10  11
ENDBRANCH   1  10
TORSDOF 13
ENDMDL
MODEL 3
REMARK VINA RESULT:    -5.737      1.946      3.637
REMARK INTER + INTRA:         -12.182
REMARK INTER:                 -10.265
REMARK INTRA:                  -1.918
REMARK UNBOUND:                -2.085
REMARK SMILES CCCCCCC=CCCCCCCCC(=O)[O-]
REMARK SMILES IDX 10 1 11 2 12 3 13 4 14 5 15 6 16 7 17 8 18 9 9 10 8 11 7 12
REMARK SMILES IDX 6 13 5 14 4 15 3 16 2 17 1 18
REMARK H PARENT
REMARK Flexibility Score: inf
ROOT
ATOM      1  C   UNL     1      51.191  51.188   5.943  1.00  0.00     0.004 C 
ENDROOT
BRANCH   1   2
ATOM      2  C   UNL     1      51.327  52.543   5.232  1.00  0.00     0.000 C 
BRANCH   2   3
ATOM      3  C   UNL     1      52.748  53.097   5.371  1.00  0.00     0.000 C 
BRANCH   3   4
ATOM      4  C   UNL     1      53.524  52.354   6.468  1.00  0.00     0.000 C 
BRANCH   4   5
ATOM      5  C   UNL     1      54.928  51.926   6.015  1.00  0.00     0.006 C 
BRANCH   5   6
ATOM      6  C   UNL     1      55.077  51.912   4.488  1.00  0.00     0.053 C 
BRANCH   6   7
ATOM      7  C   UNL     1      55.008  50.510   3.970  1.00  0.00     0.041 C 
ATOM      8  O   UNL     1      56.009  49.991   3.411  1.00  0.00    -0.550 OA
ATOM      9  O   UNL     1      53.822  49.793   4.062  1.00  0.00    -0.550 OA
ENDBRANCH   6   7
ENDBRANCH   5   6
ENDBRANCH   4   5
ENDBRANCH   3   4
ENDBRANCH   2   3
ENDBRANCH   1   2
BRANCH   1  10
ATOM     10  C   UNL     1      49.972  51.143   6.873  1.00  0.00     0.027 C 
BRANCH  10  11
ATOM     11  C   UNL     1      49.047  50.003   6.513  1.00  0.00    -0.031 C 
ATOM     12  C   UNL     1      48.031  50.078   5.635  1.00  0.00    -0.031 C 
BRANCH  12  13
ATOM     13  C   UNL     1      47.684  51.296   4.816  1.00  0.00     0.027 C 
BRANCH  13  14
ATOM     14  C   UNL     1      48.211  51.194   3.376  1.00  0.00     0.004 C 
BRANCH  14  15
ATOM     15  C   UNL     1      47.534  50.058   2.594  1.00  0.00     0.000 C 
BRANCH  15  16
ATOM     16  C   UNL     1      48.481  48.864   2.430  1.00  0.00    -0.000 C 
BRANCH  16  17
ATOM     17  C   UNL     1      49.945  49.301   2.557  1.00  0.00    -0.003 C 
ATOM     18  C   UNL     1      50.683  48.466   3.599  1.00  0.00     0.004 C 
ENDBRANCH  16  17
ENDBRANCH  15  16
ENDBRANCH  14  15
ENDBRANCH  13  14
ENDBRANCH  12  13
ENDBRANCH  10  11
ENDBRANCH   1  10
TORSDOF 13
ENDMDL
MODEL 4
REMARK VINA RESULT:    -5.720      1.833      3.638
REMARK INTER + INTRA:         -12.152
REMARK INTER:                 -10.277
REMARK INTRA:                  -1.875
REMARK UNBOUND:                -2.085
REMARK SMILES CCCCCCC=CCCCCCCCC(=O)[O-]
REMARK SMILES IDX 10 1 11 2 12 3 13 4 14 5 15 6 16 7 17 8 18 9 9 10 8 11 7 12
REMARK SMILES IDX 6 13 5 14 4 15 3 16 2 17 1 18
REMARK H PARENT
REMARK Flexibility Score: inf
ROOT
ATOM      1  C   UNL     1      51.504  50.805   6.734  1.00  0.00     0.004 C 
ENDROOT
BRANCH   1   2
ATOM      2  C   UNL     1      52.300  52.030   7.207  1.00  0.00     0.000 C 
BRANCH   2   3
ATOM      3  C   UNL     1      53.786  51.694   7.367  1.00  0.00     0.000 C 
BRANCH   3   4
ATOM      4  C   UNL     1      54.659  52.664   6.557  1.00  0.00     0.000 C 
BRANCH   4   5
ATOM      5  C   UNL     1      54.347  52.627   5.053  1.00  0.00     0.006 C 
BRANCH   5   6
ATOM      6  C   UNL     1      55.481  51.998   4.230  1.00  0.00     0.053 C 
BRANCH   6   7
ATOM      7  C   UNL     1      55.165  50.571   3.914  1.00  0.00     0.041 C 
ATOM      8  O   UNL     1      56.026  49.840   3.358  1.00  0.00    -0.550 OA
ATOM      9  O   UNL     1      53.903  50.061   4.189  1.00  0.00    -0.550 OA
ENDBRANCH   6   7
ENDBRANCH   5   6
ENDBRANCH   4   5
ENDBRANCH   3   4
ENDBRANCH   2   3
ENDBRANCH   1   2
BRANCH   1  10
ATOM     10  C   UNL     1      50.295  51.197   5.876  1.00  0.00     0.027 C 
BRANCH  10  11
ATOM     11  C   UNL     1      50.583  52.428   5.049  1.00  0.00    -0.031 C 
ATOM     12  C   UNL     1      49.707  53.028   4.223  1.00  0.00    -0.031 C 
BRANCH  12  13
ATOM     13  C   UNL     1      48.271  52.607   4.032  1.00  0.00     0.027 C 
BRANCH  13  14
ATOM     14  C   UNL     1      48.121  51.545   2.931  1.00  0.00     0.004 C 
BRANCH  14  15
ATOM     15  C   UNL     1      47.551  50.228   3.476  1.00  0.00     0.000 C 
BRANCH  15  16
ATOM     16  C   UNL     1      48.348  49.026   2.955  1.00  0.00    -0.000 C 
BRANCH  16  17
ATOM     17  C   UNL     1      49.812  49.406   2.700  1.00  0.00    -0.003 C 
ATOM     18  C   UNL     1      50.758  48.545   3.530  1.00  0.00     0.004 C 
ENDBRANCH  16  17
ENDBRANCH  15  16
ENDBRANCH  14  15
ENDBRANCH  13  14
ENDBRANCH  12  13
ENDBRANCH  10  11
ENDBRANCH   1  10
TORSDOF 13
ENDMDL
MODEL 5
REMARK VINA RESULT:    -5.687      3.864      7.040
REMARK INTER + INTRA:         -12.094
REMARK INTER:                 -10.671
REMARK INTRA:                  -1.423
REMARK UNBOUND:                -2.085
REMARK SMILES CCCCCCC=CCCCCCCCC(=O)[O-]
REMARK SMILES IDX 10 1 11 2 12 3 13 4 14 5 15 6 16 7 17 8 18 9 9 10 8 11 7 12
REMARK SMILES IDX 6 13 5 14 4 15 3 16 2 17 1 18
REMARK H PARENT
REMARK Flexibility Score: inf
ROOT
ATOM      1  C   UNL     1      51.343  49.241   3.896  1.00  0.00     0.004 C 
ENDROOT
BRANCH   1   2
ATOM      2  C   UNL     1      50.191  48.513   3.187  1.00  0.00     0.000 C 
BRANCH   2   3
ATOM      3  C   UNL     1      49.355  49.487   2.350  1.00  0.00     0.000 C 
BRANCH   3   4
ATOM      4  C   UNL     1      48.058  48.823   1.866  1.00  0.00     0.000 C 
BRANCH   4   5
ATOM      5  C   UNL     1      47.780  47.485   2.568  1.00  0.00     0.006 C 
BRANCH   5   6
ATOM      6  C   UNL     1      47.342  46.385   1.590  1.00  0.00     0.053 C 
BRANCH   6   7
ATOM      7  C   UNL     1      48.331  45.263   1.592  1.00  0.00     0.041 C 
ATOM      8  O   UNL     1      48.413  44.489   0.602  1.00  0.00    -0.550 OA
ATOM      9  O   UNL     1      49.129  45.041   2.707  1.00  0.00    -0.550 OA
ENDBRANCH   6   7
ENDBRANCH   5   6
ENDBRANCH   4   5
ENDBRANCH   3   4
ENDBRANCH   2   3
ENDBRANCH   1   2
BRANCH   1  10
ATOM     10  C   UNL     1      50.915  50.608   4.440  1.00  0.00     0.027 C 
BRANCH  10  11
ATOM     11  C   UNL     1      50.427  50.505   5.867  1.00  0.00    -0.031 C 
ATOM     12  C   UNL     1      51.203  50.611   6.960  1.00  0.00    -0.031 C 
BRANCH  12  13
ATOM     13  C   UNL     1      52.680  50.914   6.946  1.00  0.00     0.027 C 
BRANCH  13  14
ATOM     14  C   UNL     1      52.970  52.396   7.231  1.00  0.00     0.004 C 
BRANCH  14  15
ATOM     15  C   UNL     1      54.072  52.954   6.318  1.00  0.00     0.000 C 
BRANCH  15  16
ATOM     16  C   UNL     1      53.993  52.333   4.919  1.00  0.00    -0.000 C 
BRANCH  16  17
ATOM     17  C   UNL     1      55.284  51.579   4.578  1.00  0.00    -0.003 C 
ATOM     18  C   UNL     1      54.984  50.274   3.846  1.00  0.00     0.004 C 
ENDBRANCH  16  17
ENDBRANCH  15  16
ENDBRANCH  14  15
ENDBRANCH  13  14
ENDBRANCH  12  13
ENDBRANCH  10  11
ENDBRANCH   1  10
TORSDOF 13
ENDMDL
MODEL 6
REMARK VINA RESULT:    -5.631      2.824      5.960
REMARK INTER + INTRA:         -11.996
REMARK INTER:                 -10.124
REMARK INTRA:                  -1.872
REMARK UNBOUND:                -2.085
REMARK SMILES CCCCCCC=CCCCCCCCC(=O)[O-]
REMARK SMILES IDX 10 1 11 2 12 3 13 4 14 5 15 6 16 7 17 8 18 9 9 10 8 11 7 12
REMARK SMILES IDX 6 13 5 14 4 15 3 16 2 17 1 18
REMARK H PARENT
REMARK Flexibility Score: inf
ROOT
ATOM      1  C   UNL     1      51.646  49.831   4.998  1.00  0.00     0.004 C 
ENDROOT
BRANCH   1   2
ATOM      2  C   UNL     1      51.306  49.134   3.673  1.00  0.00     0.000 C 
BRANCH   2   3
ATOM      3  C   UNL     1      50.202  48.088   3.867  1.00  0.00     0.000 C 
BRANCH   3   4
ATOM      4  C   UNL     1      49.105  48.243   2.804  1.00  0.00     0.000 C 
BRANCH   4   5
ATOM      5  C   UNL     1      48.903  49.703   2.369  1.00  0.00     0.006 C 
BRANCH   5   6
ATOM      6  C   UNL     1      47.462  50.187   2.579  1.00  0.00     0.053 C 
BRANCH   6   7
ATOM      7  C   UNL     1      47.393  51.134   3.734  1.00  0.00     0.041 C 
ATOM      8  O   UNL     1      47.072  50.716   4.877  1.00  0.00    -0.550 OA
ATOM      9  O   UNL     1      47.637  52.487   3.539  1.00  0.00    -0.550 OA
ENDBRANCH   6   7
ENDBRANCH   5   6
ENDBRANCH   4   5
ENDBRANCH   3   4
ENDBRANCH   2   3
ENDBRANCH   1   2
BRANCH   1  10
ATOM     10  C   UNL     1      50.536  50.787   5.451  1.00  0.00     0.027 C 
BRANCH  10  11
ATOM     11  C   UNL     1      50.868  52.219   5.104  1.00  0.00    -0.031 C 
ATOM     12  C   UNL     1      51.378  53.125   5.958  1.00  0.00    -0.031 C 
BRANCH  12  13
ATOM     13  C   UNL     1      51.762  52.843   7.389  1.00  0.00     0.027 C 
BRANCH  13  14
ATOM     14  C   UNL     1      53.280  52.935   7.610  1.00  0.00     0.004 C 
BRANCH  14  15
ATOM     15  C   UNL     1      54.008  51.666   7.143  1.00  0.00     0.000 C 
BRANCH  15  16
ATOM     16  C   UNL     1      55.127  52.007   6.152  1.00  0.00    -0.000 C 
BRANCH  16  17
ATOM     17  C   UNL     1      54.690  51.722   4.710  1.00  0.00    -0.003 C 
ATOM     18  C   UNL     1      55.816  51.075   3.910  1.00  0.00     0.004 C 
ENDBRANCH  16  17
ENDBRANCH  15  16
ENDBRANCH  14  15
ENDBRANCH  13  14
ENDBRANCH  12  13
ENDBRANCH  10  11
ENDBRANCH   1  10
TORSDOF 13
ENDMDL
MODEL 7
REMARK VINA RESULT:    -5.513      2.647      6.309
REMARK INTER + INTRA:         -11.787
REMARK INTER:                 -10.360
REMARK INTRA:                  -1.428
REMARK UNBOUND:                -2.085
REMARK SMILES CCCCCCC=CCCCCCCCC(=O)[O-]
REMARK SMILES IDX 10 1 11 2 12 3 13 4 14 5 15 6 16 7 17 8 18 9 9 10 8 11 7 12
REMARK SMILES IDX 6 13 5 14 4 15 3 16 2 17 1 18
REMARK H PARENT
REMARK Flexibility Score: inf
ROOT
ATOM      1  C   UNL     1      49.543  50.373   6.918  1.00  0.00     0.004 C 
ENDROOT
BRANCH   1   2
ATOM      2  C   UNL     1      48.618  49.769   5.850  1.00  0.00     0.000 C 
BRANCH   2   3
ATOM      3  C   UNL     1      47.752  50.850   5.195  1.00  0.00     0.000 C 
BRANCH   3   4
ATOM      4  C   UNL     1      48.319  51.254   3.827  1.00  0.00     0.000 C 
BRANCH   4   5
ATOM      5  C   UNL     1      47.958  50.256   2.716  1.00  0.00     0.006 C 
BRANCH   5   6
ATOM      6  C   UNL     1      49.196  49.621   2.068  1.00  0.00     0.053 C 
BRANCH   6   7
ATOM      7  C   UNL     1      49.607  48.394   2.819  1.00  0.00     0.041 C 
ATOM      8  O   UNL     1      48.899  47.354   2.768  1.00  0.00    -0.550 OA
ATOM      9  O   UNL     1      50.745  48.415   3.615  1.00  0.00    -0.550 OA
ENDBRANCH   6   7
ENDBRANCH   5   6
ENDBRANCH   4   5
ENDBRANCH   3   4
ENDBRANCH   2   3
ENDBRANCH   1   2
BRANCH   1  10
ATOM     10  C   UNL     1      50.950  50.649   6.375  1.00  0.00     0.027 C 
BRANCH  10  11
ATOM     11  C   UNL     1      51.136  52.112   6.048  1.00  0.00    -0.031 C 
ATOM     12  C   UNL     1      52.231  52.838   6.340  1.00  0.00    -0.031 C 
BRANCH  12  13
ATOM     13  C   UNL     1      53.480  52.295   6.989  1.00  0.00     0.027 C 
BRANCH  13  14
ATOM     14  C   UNL     1      54.751  52.702   6.228  1.00  0.00     0.004 C 
BRANCH  14  15
ATOM     15  C   UNL     1      54.632  52.431   4.721  1.00  0.00     0.000 C 
BRANCH  15  16
ATOM     16  C   UNL     1      55.795  51.565   4.225  1.00  0.00    -0.000 C 
BRANCH  16  17
ATOM     17  C   UNL     1      55.307  50.171   3.815  1.00  0.00    -0.003 C 
ATOM     18  C   UNL     1      53.841  49.968   4.186  1.00  0.00     0.004 C 
ENDBRANCH  16  17
ENDBRANCH  15  16
ENDBRANCH  14  15
ENDBRANCH  13  14
ENDBRANCH  12  13
ENDBRANCH  10  11
ENDBRANCH   1  10
TORSDOF 13
ENDMDL
MODEL 8
REMARK VINA RESULT:    -5.494      2.150      3.500
REMARK INTER + INTRA:         -11.754
REMARK INTER:                  -9.860
REMARK INTRA:                  -1.894
REMARK UNBOUND:                -2.085
REMARK SMILES CCCCCCC=CCCCCCCCC(=O)[O-]
REMARK SMILES IDX 10 1 11 2 12 3 13 4 14 5 15 6 16 7 17 8 18 9 9 10 8 11 7 12
REMARK SMILES IDX 6 13 5 14 4 15 3 16 2 17 1 18
REMARK H PARENT
REMARK Flexibility Score: inf
ROOT
ATOM      1  C   UNL     1      50.731  50.787   6.733  1.00  0.00     0.004 C 
ENDROOT
BRANCH   1   2
ATOM      2  C   UNL     1      52.123  51.169   7.256  1.00  0.00     0.000 C 
BRANCH   2   3
ATOM      3  C   UNL     1      52.577  52.516   6.685  1.00  0.00     0.000 C 
BRANCH   3   4
ATOM      4  C   UNL     1      54.081  52.502   6.373  1.00  0.00     0.000 C 
BRANCH   4   5
ATOM      5  C   UNL     1      54.373  52.479   4.864  1.00  0.00     0.006 C 
BRANCH   5   6
ATOM      6  C   UNL     1      54.484  51.053   4.306  1.00  0.00     0.053 C 
BRANCH   6   7
ATOM      7  C   UNL     1      55.857  50.810   3.766  1.00  0.00     0.041 C 
ATOM      8  O   UNL     1      56.208  49.649   3.427  1.00  0.00    -0.550 OA
ATOM      9  O   UNL     1      56.767  51.856   3.683  1.00  0.00    -0.550 OA
ENDBRANCH   6   7
ENDBRANCH   5   6
ENDBRANCH   4   5
ENDBRANCH   3   4
ENDBRANCH   2   3
ENDBRANCH   1   2
BRANCH   1  10
ATOM     10  C   UNL     1      50.666  50.798   5.201  1.00  0.00     0.027 C 
BRANCH  10  11
ATOM     11  C   UNL     1      51.043  49.454   4.625  1.00  0.00    -0.031 C 
ATOM     12  C   UNL     1      50.628  48.976   3.437  1.00  0.00    -0.031 C 
BRANCH  12  13
ATOM     13  C   UNL     1      49.768  49.731   2.455  1.00  0.00     0.027 C 
BRANCH  13  14
ATOM     14  C   UNL     1      48.481  48.967   2.106  1.00  0.00     0.004 C 
BRANCH  14  15
ATOM     15  C   UNL     1      47.228  49.667   2.651  1.00  0.00     0.000 C 
BRANCH  15  16
ATOM     16  C   UNL     1      47.562  51.074   3.160  1.00  0.00    -0.000 C 
BRANCH  16  17
ATOM     17  C   UNL     1      46.965  51.311   4.552  1.00  0.00    -0.003 C 
ATOM     18  C   UNL     1      47.112  50.075   5.434  1.00  0.00     0.004 C 
ENDBRANCH  16  17
ENDBRANCH  15  16
ENDBRANCH  14  15
ENDBRANCH  13  14
ENDBRANCH  12  13
ENDBRANCH  10  11
ENDBRANCH   1  10
TORSDOF 13
ENDMDL
MODEL 9
REMARK VINA RESULT:    -5.401      1.400      2.156
REMARK INTER + INTRA:         -11.591
REMARK INTER:                 -10.252
REMARK INTRA:                  -1.339
REMARK UNBOUND:                -2.085
REMARK SMILES CCCCCCC=CCCCCCCCC(=O)[O-]
REMARK SMILES IDX 10 1 11 2 12 3 13 4 14 5 15 6 16 7 17 8 18 9 9 10 8 11 7 12
REMARK SMILES IDX 6 13 5 14 4 15 3 16 2 17 1 18
REMARK H PARENT
REMARK Flexibility Score: inf
ROOT
ATOM      1  C   UNL     1      53.405  49.790   4.791  1.00  0.00     0.004 C 
ENDROOT
BRANCH   1   2
ATOM      2  C   UNL     1      54.466  50.515   3.950  1.00  0.00     0.000 C 
BRANCH   2   3
ATOM      3  C   UNL     1      54.873  51.842   4.601  1.00  0.00     0.000 C 
BRANCH   3   4
ATOM      4  C   UNL     1      54.862  51.730   6.132  1.00  0.00     0.000 C 
BRANCH   4   5
ATOM      5  C   UNL     1      54.702  53.091   6.826  1.00  0.00     0.006 C 
BRANCH   5   6
ATOM      6  C   UNL     1      53.509  53.125   7.791  1.00  0.00     0.053 C 
BRANCH   6   7
ATOM      7  C   UNL     1      52.357  52.358   7.224  1.00  0.00     0.041 C 
ATOM      8  O   UNL     1      51.551  52.917   6.436  1.00  0.00    -0.550 OA
ATOM      9  O   UNL     1      52.147  51.038   7.603  1.00  0.00    -0.550 OA
ENDBRANCH   6   7
ENDBRANCH   5   6
ENDBRANCH   4   5
ENDBRANCH   3   4
ENDBRANCH   2   3
ENDBRANCH   1   2
BRANCH   1  10
ATOM     10  C   UNL     1      51.985  50.038   4.269  1.00  0.00     0.027 C 
BRANCH  10  11
ATOM     11  C   UNL     1      51.276  48.740   3.964  1.00  0.00    -0.031 C 
ATOM     12  C   UNL     1      50.195  48.615   3.174  1.00  0.00    -0.031 C 
BRANCH  12  13
ATOM     13  C   UNL     1      49.546  49.744   2.412  1.00  0.00     0.027 C 
BRANCH  13  14
ATOM     14  C   UNL     1      48.018  49.594   2.346  1.00  0.00     0.004 C 
BRANCH  14  15
ATOM     15  C   UNL     1      47.298  50.647   3.199  1.00  0.00     0.000 C 
BRANCH  15  16
ATOM     16  C   UNL     1      48.154  51.060   4.401  1.00  0.00    -0.000 C 
BRANCH  16  17
ATOM     17  C   UNL     1      47.915  50.127   5.594  1.00  0.00    -0.003 C 
ATOM     18  C   UNL     1      49.041  50.238   6.617  1.00  0.00     0.004 C 
ENDBRANCH  16  17
ENDBRANCH  15  16
ENDBRANCH  14  15
ENDBRANCH  13  14
ENDBRANCH  12  13
ENDBRANCH  10  11
ENDBRANCH   1  10
TORSDOF 13
ENDMDL
