MODEL 1
REMARK VINA RESULT:     5.100      0.000      0.000
REMARK INTER + INTRA:           5.249
REMARK INTER:                   5.249
REMARK INTRA:                   0.000
REMARK UNBOUND:                 0.000
REMARK SMILES Nc1ncnc2nc[nH]c12
REMARK SMILES IDX 8 1 7 2 6 3 5 4 4 5 3 6 2 7 10 8 9 9 1 11
REMARK H PARENT 9 10 1 12 1 13
REMARK Flexibility Score: inf
ROOT
ATOM      1  C   UNL     1      15.340  -2.652  20.574  1.00  0.00     0.199 A 
ATOM      2  N   UNL     1      15.352  -1.655  21.500  1.00  0.00    -0.217 NA
ATOM      3  C   UNL     1      16.473  -0.985  21.183  1.00  0.00     0.182 A 
ATOM      4  N   UNL     1      16.959   0.116  21.805  1.00  0.00    -0.215 NA
ATOM      5  C   UNL     1      18.123   0.660  21.336  1.00  0.00     0.226 A 
ATOM      6  N   UNL     1      18.771   0.100  20.265  1.00  0.00    -0.217 NA
ATOM      7  C   UNL     1      18.282  -1.010  19.637  1.00  0.00     0.152 A 
ATOM      8  C   UNL     1      17.096  -1.552  20.125  1.00  0.00     0.127 A 
ATOM      9  N   UNL     1      16.394  -2.616  19.719  1.00  0.00    -0.340 N 
ATOM     10  H   UNL     1      16.597  -3.273  18.934  1.00  0.00     0.168 HD
ENDROOT
BRANCH   7  11
ATOM     11  N   UNL     1      18.974  -1.575  18.523  1.00  0.00    -0.382 N 
ATOM     12  H   UNL     1      19.359  -2.544  18.583  1.00  0.00     0.158 HD
ATOM     13  H   UNL     1      19.108  -1.040  17.637  1.00  0.00     0.158 HD
ENDBRANCH   7  11
TORSDOF 1
ENDMDL
MODEL 2
REMARK VINA RESULT:     5.434      0.743      2.425
REMARK INTER + INTRA:           5.593
REMARK INTER:                   5.593
REMARK INTRA:                   0.000
REMARK UNBOUND:                 0.000
REMARK SMILES Nc1ncnc2nc[nH]c12
REMARK SMILES IDX 8 1 7 2 6 3 5 4 4 5 3 6 2 7 10 8 9 9 1 11
REMARK H PARENT 9 10 1 12 1 13
REMARK Flexibility Score: inf
ROOT
ATOM      1  C   UNL     1      15.255  -2.258  20.802  1.00  0.00     0.199 A 
ATOM      2  N   UNL     1      16.202  -2.791  19.984  1.00  0.00    -0.217 NA
ATOM      3  C   UNL     1      17.191  -1.884  20.063  1.00  0.00     0.182 A 
ATOM      4  N   UNL     1      18.386  -1.934  19.428  1.00  0.00    -0.215 NA
ATOM      5  C   UNL     1      19.269  -0.910  19.634  1.00  0.00     0.226 A 
ATOM      6  N   UNL     1      18.944   0.133  20.463  1.00  0.00    -0.217 NA
ATOM      7  C   UNL     1      17.739   0.185  21.104  1.00  0.00     0.152 A 
ATOM      8  C   UNL     1      16.851  -0.864  20.885  1.00  0.00     0.127 A 
ATOM      9  N   UNL     1      15.622  -1.080  21.368  1.00  0.00    -0.340 N 
ATOM     10  H   UNL     1      15.065  -0.490  22.024  1.00  0.00     0.168 HD
ENDROOT
BRANCH   7  11
ATOM     11  N   UNL     1      17.423   1.281  21.964  1.00  0.00    -0.382 N 
ATOM     12  H   UNL     1      17.249   2.228  21.560  1.00  0.00     0.158 HD
ATOM     13  H   UNL     1      17.359   1.160  22.999  1.00  0.00     0.158 HD
ENDBRANCH   7  11
TORSDOF 1
ENDMDL
MODEL 3
REMARK VINA RESULT:     5.724      1.194      3.746
REMARK INTER + INTRA:           5.891
REMARK INTER:                   5.891
REMARK INTRA:                   0.000
REMARK UNBOUND:                 0.000
REMARK SMILES Nc1ncnc2nc[nH]c12
REMARK SMILES IDX 8 1 7 2 6 3 5 4 4 5 3 6 2 7 10 8 9 9 1 11
REMARK H PARENT 9 10 1 12 1 13
REMARK Flexibility Score: inf
ROOT
ATOM      1  C   UNL     1      18.970   0.497  20.178  1.00  0.00     0.199 A 
ATOM      2  N   UNL     1      18.210  -0.078  19.206  1.00  0.00    -0.217 NA
ATOM      3  C   UNL     1      17.269  -0.717  19.920  1.00  0.00     0.182 A 
ATOM      4  N   UNL     1      16.247  -1.459  19.429  1.00  0.00    -0.215 NA
ATOM      5  C   UNL     1      15.384  -2.036  20.319  1.00  0.00     0.226 A 
ATOM      6  N   UNL     1      15.556  -1.863  21.669  1.00  0.00    -0.217 NA
ATOM      7  C   UNL     1      16.586  -1.116  22.165  1.00  0.00     0.152 A 
ATOM      8  C   UNL     1      17.456  -0.534  21.247  1.00  0.00     0.127 A 
ATOM      9  N   UNL     1      18.534   0.236  21.437  1.00  0.00    -0.340 N 
ATOM     10  H   UNL     1      18.953   0.565  22.334  1.00  0.00     0.168 HD
ENDROOT
BRANCH   7  11
ATOM     11  N   UNL     1      16.746  -0.949  23.575  1.00  0.00    -0.382 N 
ATOM     12  H   UNL     1      16.445  -1.706  24.228  1.00  0.00     0.158 HD
ATOM     13  H   UNL     1      17.161  -0.080  23.976  1.00  0.00     0.158 HD
ENDBRANCH   7  11
TORSDOF 1
ENDMDL
MODEL 4
REMARK VINA RESULT:     5.805      1.088      3.804
REMARK INTER + INTRA:           5.974
REMARK INTER:                   5.974
REMARK INTRA:                   0.000
REMARK UNBOUND:                 0.000
REMARK SMILES Nc1ncnc2nc[nH]c12
REMARK SMILES IDX 8 1 7 2 6 3 5 4 4 5 3 6 2 7 10 8 9 9 1 11
REMARK H PARENT 9 10 1 12 1 13
REMARK Flexibility Score: inf
ROOT
ATOM      1  C   UNL     1      18.674   1.396  21.174  1.00  0.00     0.199 A 
ATOM      2  N   UNL     1      19.074   0.659  20.101  1.00  0.00    -0.217 NA
ATOM      3  C   UNL     1      18.266  -0.413  20.175  1.00  0.00     0.182 A 
ATOM      4  N   UNL     1      18.250  -1.471  19.329  1.00  0.00    -0.215 NA
ATOM      5  C   UNL     1      17.350  -2.473  19.569  1.00  0.00     0.226 A 
ATOM      6  N   UNL     1      16.494  -2.400  20.637  1.00  0.00    -0.217 NA
ATOM      7  C   UNL     1      16.510  -1.333  21.491  1.00  0.00     0.152 A 
ATOM      8  C   UNL     1      17.430  -0.320  21.234  1.00  0.00     0.127 A 
ATOM      9  N   UNL     1      17.671   0.823  21.886  1.00  0.00    -0.340 N 
ATOM     10  H   UNL     1      17.205   1.198  22.742  1.00  0.00     0.168 HD
ENDROOT
BRANCH   7  11
ATOM     11  N   UNL     1      15.608  -1.278  22.597  1.00  0.00    -0.382 N 
ATOM     12  H   UNL     1      14.823  -0.589  22.598  1.00  0.00     0.158 HD
ATOM     13  H   UNL     1      15.711  -1.918  23.415  1.00  0.00     0.158 HD
ENDBRANCH   7  11
TORSDOF 1
ENDMDL
MODEL 5
REMARK VINA RESULT:     6.383      1.121      3.053
REMARK INTER + INTRA:           6.569
REMARK INTER:                   6.569
REMARK INTRA:                   0.000
REMARK UNBOUND:                 0.000
REMARK SMILES Nc1ncnc2nc[nH]c12
REMARK SMILES IDX 8 1 7 2 6 3 5 4 4 5 3 6 2 7 10 8 9 9 1 11
REMARK H PARENT 9 10 1 12 1 13
REMARK Flexibility Score: inf
ROOT
ATOM      1  C   UNL     1      18.600  -0.112  19.207  1.00  0.00     0.199 A 
ATOM      2  N   UNL     1      18.792   0.220  20.513  1.00  0.00    -0.217 NA
ATOM      3  C   UNL     1      17.766  -0.402  21.119  1.00  0.00     0.182 A 
ATOM      4  N   UNL     1      17.487  -0.395  22.445  1.00  0.00    -0.215 NA
ATOM      5  C   UNL     1      16.391  -1.092  22.876  1.00  0.00     0.226 A 
ATOM      6  N   UNL     1      15.604  -1.774  21.984  1.00  0.00    -0.217 NA
ATOM      7  C   UNL     1      15.885  -1.781  20.647  1.00  0.00     0.152 A 
ATOM      8  C   UNL     1      17.003  -1.069  20.222  1.00  0.00     0.127 A 
ATOM      9  N   UNL     1      17.514  -0.899  18.998  1.00  0.00    -0.340 N 
ATOM     10  H   UNL     1      17.169  -1.276  18.088  1.00  0.00     0.168 HD
ENDROOT
BRANCH   7  11
ATOM     11  N   UNL     1      15.051  -2.500  19.736  1.00  0.00    -0.382 N 
ATOM     12  H   UNL     1      14.545  -3.355  20.055  1.00  0.00     0.158 HD
ATOM     13  H   UNL     1      14.930  -2.188  18.747  1.00  0.00     0.158 HD
ENDBRANCH   7  11
TORSDOF 1
ENDMDL
MODEL 6
REMARK VINA RESULT:     6.735      0.929      3.007
REMARK INTER + INTRA:           6.932
REMARK INTER:                   6.932
REMARK INTRA:                   0.000
REMARK UNBOUND:                 0.000
REMARK SMILES Nc1ncnc2nc[nH]c12
REMARK SMILES IDX 8 1 7 2 6 3 5 4 4 5 3 6 2 7 10 8 9 9 1 11
REMARK H PARENT 9 10 1 12 1 13
REMARK Flexibility Score: inf
ROOT
ATOM      1  C   UNL     1      19.058   1.478  21.055  1.00  0.00     0.199 A 
ATOM      2  N   UNL     1      17.939   1.276  21.803  1.00  0.00    -0.217 NA
ATOM      3  C   UNL     1      17.458   0.128  21.295  1.00  0.00     0.182 A 
ATOM      4  N   UNL     1      16.340  -0.525  21.691  1.00  0.00    -0.215 NA
ATOM      5  C   UNL     1      16.010  -1.686  21.048  1.00  0.00     0.226 A 
ATOM      6  N   UNL     1      16.797  -2.168  20.032  1.00  0.00    -0.217 NA
ATOM      7  C   UNL     1      17.925  -1.510  19.633  1.00  0.00     0.152 A 
ATOM      8  C   UNL     1      18.248  -0.330  20.296  1.00  0.00     0.127 A 
ATOM      9  N   UNL     1      19.273   0.513  20.124  1.00  0.00    -0.340 N 
ATOM     10  H   UNL     1      20.059   0.455  19.440  1.00  0.00     0.168 HD
ENDROOT
BRANCH   7  11
ATOM     11  N   UNL     1      18.729  -2.031  18.573  1.00  0.00    -0.382 N 
ATOM     12  H   UNL     1      19.062  -3.020  18.607  1.00  0.00     0.158 HD
ATOM     13  H   UNL     1      18.997  -1.442  17.753  1.00  0.00     0.158 HD
ENDBRANCH   7  11
TORSDOF 1
ENDMDL
MODEL 7
REMARK VINA RESULT:     6.777      3.566      5.553
REMARK INTER + INTRA:           6.976
REMARK INTER:                   6.976
REMARK INTRA:                   0.000
REMARK UNBOUND:                 0.000
REMARK SMILES Nc1ncnc2nc[nH]c12
REMARK SMILES IDX 8 1 7 2 6 3 5 4 4 5 3 6 2 7 10 8 9 9 1 11
REMARK H PARENT 9 10 1 12 1 13
REMARK Flexibility Score: inf
ROOT
ATOM      1  C   UNL     1      18.548   0.963  21.109  1.00  0.00     0.199 A 
ATOM      2  N   UNL     1      19.854   1.170  20.785  1.00  0.00    -0.217 NA
ATOM      3  C   UNL     1      20.073   2.407  21.263  1.00  0.00     0.182 A 
ATOM      4  N   UNL     1      21.234   3.103  21.201  1.00  0.00    -0.215 NA
ATOM      5  C   UNL     1      21.263   4.357  21.747  1.00  0.00     0.226 A 
ATOM      6  N   UNL     1      20.143   4.886  22.336  1.00  0.00    -0.217 NA
ATOM      7  C   UNL     1      18.972   4.185  22.399  1.00  0.00     0.152 A 
ATOM      8  C   UNL     1      18.958   2.910  21.840  1.00  0.00     0.127 A 
ATOM      9  N   UNL     1      17.973   2.009  21.755  1.00  0.00    -0.340 N 
ATOM     10  H   UNL     1      16.990   2.080  22.098  1.00  0.00     0.168 HD
ENDROOT
BRANCH   7  11
ATOM     11  N   UNL     1      17.819   4.757  23.019  1.00  0.00    -0.382 N 
ATOM     12  H   UNL     1      17.234   4.182  23.665  1.00  0.00     0.158 HD
ATOM     13  H   UNL     1      17.542   5.748  22.842  1.00  0.00     0.158 HD
ENDBRANCH   7  11
TORSDOF 1
ENDMDL
MODEL 8
REMARK VINA RESULT:     7.048      8.646      9.937
REMARK INTER + INTRA:           7.254
REMARK INTER:                   7.254
REMARK INTRA:                   0.000
REMARK UNBOUND:                 0.000
REMARK SMILES Nc1ncnc2nc[nH]c12
REMARK SMILES IDX 8 1 7 2 6 3 5 4 4 5 3 6 2 7 10 8 9 9 1 11
REMARK H PARENT 9 10 1 12 1 13
REMARK Flexibility Score: inf
ROOT
ATOM      1  C   UNL     1      14.289  -3.181  13.570  1.00  0.00     0.199 A 
ATOM      2  N   UNL     1      13.734  -1.939  13.606  1.00  0.00    -0.217 NA
ATOM      3  C   UNL     1      12.536  -2.145  13.033  1.00  0.00     0.182 A 
ATOM      4  N   UNL     1      11.572  -1.217  12.819  1.00  0.00    -0.215 NA
ATOM      5  C   UNL     1      10.412  -1.620  12.217  1.00  0.00     0.226 A 
ATOM      6  N   UNL     1      10.238  -2.929  11.845  1.00  0.00    -0.217 NA
ATOM      7  C   UNL     1      11.209  -3.865  12.061  1.00  0.00     0.152 A 
ATOM      8  C   UNL     1      12.385  -3.441  12.674  1.00  0.00     0.127 A 
ATOM      9  N   UNL     1      13.488  -4.120  13.006  1.00  0.00    -0.340 N 
ATOM     10  H   UNL     1      13.698  -5.133  12.868  1.00  0.00     0.168 HD
ENDROOT
BRANCH   7  11
ATOM     11  N   UNL     1      11.006  -5.223  11.665  1.00  0.00    -0.382 N 
ATOM     12  H   UNL     1      10.229  -5.779  12.086  1.00  0.00     0.158 HD
ATOM     13  H   UNL     1      11.620  -5.680  10.956  1.00  0.00     0.158 HD
ENDBRANCH   7  11
TORSDOF 1
ENDMDL
MODEL 9
REMARK VINA RESULT:     7.348      5.596      6.062
REMARK INTER + INTRA:           7.563
REMARK INTER:                   7.563
REMARK INTRA:                   0.000
REMARK UNBOUND:                 0.000
REMARK SMILES Nc1ncnc2nc[nH]c12
REMARK SMILES IDX 8 1 7 2 6 3 5 4 4 5 3 6 2 7 10 8 9 9 1 11
REMARK H PARENT 9 10 1 12 1 13
REMARK Flexibility Score: inf
ROOT
ATOM      1  C   UNL     1      11.496  -0.910  17.538  1.00  0.00     0.199 A 
ATOM      2  N   UNL     1      12.760  -1.393  17.396  1.00  0.00    -0.217 NA
ATOM      3  C   UNL     1      13.449  -0.292  17.048  1.00  0.00     0.182 A 
ATOM      4  N   UNL     1      14.776  -0.220  16.785  1.00  0.00    -0.215 NA
ATOM      5  C   UNL     1      15.299   0.997  16.444  1.00  0.00     0.226 A 
ATOM      6  N   UNL     1      14.495   2.107  16.374  1.00  0.00    -0.217 NA
ATOM      7  C   UNL     1      13.157   2.034  16.640  1.00  0.00     0.152 A 
ATOM      8  C   UNL     1      12.638   0.789  16.986  1.00  0.00     0.127 A 
ATOM      9  N   UNL     1      11.389   0.421  17.294  1.00  0.00    -0.340 N 
ATOM     10  H   UNL     1      10.527   1.008  17.338  1.00  0.00     0.168 HD
ENDROOT
BRANCH   7  11
ATOM     11  N   UNL     1      12.339   3.203  16.562  1.00  0.00    -0.382 N 
ATOM     12  H   UNL     1      12.730   4.089  16.171  1.00  0.00     0.158 HD
ATOM     13  H   UNL     1      11.347   3.195  16.888  1.00  0.00     0.158 HD
ENDBRANCH   7  11
TORSDOF 1
ENDMDL
