MODEL 1
REMARK VINA RESULT:    -3.526      0.000      0.000
REMARK INTER + INTRA:          -6.153
REMARK INTER:                  -5.382
REMARK INTRA:                  -0.771
REMARK UNBOUND:                -0.771
REMARK SMILES O=C([O-])CCCCCCCCC(=O)[O-]
REMARK SMILES IDX 7 1 6 2 5 3 4 4 2 5 1 6 3 7 8 8 9 9 10 10 11 11 12 12 13 13
REMARK SMILES IDX 14 14
REMARK H PARENT
REMARK Flexibility Score: inf
ROOT
ATOM      1  C   UNL     1      -3.400   9.906   4.103  1.00  0.00     0.000 C 
ENDROOT
BRANCH   1   2
ATOM      2  C   UNL     1      -4.845   9.832   3.591  1.00  0.00     0.000 C 
BRANCH   2   3
ATOM      3  C   UNL     1      -5.235   8.389   3.249  1.00  0.00     0.006 C 
BRANCH   3   4
ATOM      4  C   UNL     1      -4.460   7.391   4.112  1.00  0.00     0.053 C 
BRANCH   4   5
ATOM      5  C   UNL     1      -3.992   6.235   3.284  1.00  0.00     0.041 C 
ATOM      6  O   UNL     1      -3.116   6.406   2.395  1.00  0.00    -0.550 OA
ATOM      7  O   UNL     1      -4.486   4.960   3.528  1.00  0.00    -0.550 OA
ENDBRANCH   4   5
ENDBRANCH   3   4
ENDBRANCH   2   3
ENDBRANCH   1   2
BRANCH   1   8
ATOM      8  C   UNL     1      -2.417  10.125   2.946  1.00  0.00     0.000 C 
BRANCH   8   9
ATOM      9  C   UNL     1      -1.115   9.349   3.175  1.00  0.00     0.000 C 
BRANCH   9  10
ATOM     10  C   UNL     1      -0.994   8.892   4.634  1.00  0.00     0.006 C 
BRANCH  10  11
ATOM     11  C   UNL     1      -0.043   9.800   5.417  1.00  0.00     0.053 C 
BRANCH  11  12
ATOM     12  C   UNL     1       1.252   9.099   5.681  1.00  0.00     0.041 C 
ATOM     13  O   UNL     1       2.118   9.002   4.772  1.00  0.00    -0.550 OA
ATOM     14  O   UNL     1       1.525   8.596   6.947  1.00  0.00    -0.550 OA
ENDBRANCH  11  12
ENDBRANCH  10  11
ENDBRANCH   9  10
ENDBRANCH   8   9
ENDBRANCH   1   8
TORSDOF 9
ENDMDL
MODEL 2
REMARK VINA RESULT:    -3.467     14.080     14.762
REMARK INTER + INTRA:          -6.062
REMARK INTER:                  -5.600
REMARK INTRA:                  -0.462
REMARK UNBOUND:                -0.771
REMARK SMILES O=C([O-])CCCCCCCCC(=O)[O-]
REMARK SMILES IDX 7 1 6 2 5 3 4 4 2 5 1 6 3 7 8 8 9 9 10 10 11 11 12 12 13 13
REMARK SMILES IDX 14 14
REMARK H PARENT
REMARK Flexibility Score: inf
ROOT
ATOM      1  C   UNL     1       1.152  -1.648  -6.491  1.00  0.00     0.000 C 
ENDROOT
BRANCH   1   2
ATOM      2  C   UNL     1       1.171  -2.232  -5.073  1.00  0.00     0.000 C 
BRANCH   2   3
ATOM      3  C   UNL     1      -0.212  -2.760  -4.676  1.00  0.00     0.006 C 
BRANCH   3   4
ATOM      4  C   UNL     1      -1.317  -2.062  -5.473  1.00  0.00     0.053 C 
BRANCH   4   5
ATOM      5  C   UNL     1      -2.631  -2.744  -5.256  1.00  0.00     0.041 C 
ATOM      6  O   UNL     1      -2.675  -3.989  -5.072  1.00  0.00    -0.550 OA
ATOM      7  O   UNL     1      -3.802  -1.998  -5.207  1.00  0.00    -0.550 OA
ENDBRANCH   4   5
ENDBRANCH   3   4
ENDBRANCH   2   3
ENDBRANCH   1   2
BRANCH   1   8
ATOM      8  C   UNL     1       2.576  -1.398  -7.003  1.00  0.00     0.000 C 
BRANCH   8   9
ATOM      9  C   UNL     1       3.605  -1.591  -5.884  1.00  0.00     0.000 C 
BRANCH   9  10
ATOM     10  C   UNL     1       5.008  -1.181  -6.348  1.00  0.00     0.006 C 
BRANCH  10  11
ATOM     11  C   UNL     1       4.951   0.067  -7.233  1.00  0.00     0.053 C 
BRANCH  11  12
ATOM     12  C   UNL     1       5.520   1.248  -6.511  1.00  0.00     0.041 C 
ATOM     13  O   UNL     1       5.021   1.622  -5.417  1.00  0.00    -0.550 OA
ATOM     14  O   UNL     1       6.633   1.905  -7.021  1.00  0.00    -0.550 OA
ENDBRANCH  11  12
ENDBRANCH  10  11
ENDBRANCH   9  10
ENDBRANCH   8   9
ENDBRANCH   1   8
TORSDOF 9
ENDMDL
MODEL 3
REMARK VINA RESULT:    -3.464      1.434      6.265
REMARK INTER + INTRA:          -6.057
REMARK INTER:                  -5.596
REMARK INTRA:                  -0.461
REMARK UNBOUND:                -0.771
REMARK SMILES O=C([O-])CCCCCCCCC(=O)[O-]
REMARK SMILES IDX 7 1 6 2 5 3 4 4 2 5 1 6 3 7 8 8 9 9 10 10 11 11 12 12 13 13
REMARK SMILES IDX 14 14
REMARK H PARENT
REMARK Flexibility Score: inf
ROOT
ATOM      1  C   UNL     1      -1.226   9.774   5.152  1.00  0.00     0.000 C 
ENDROOT
BRANCH   1   2
ATOM      2  C   UNL     1      -0.272   9.223   4.084  1.00  0.00     0.000 C 
BRANCH   2   3
ATOM      3  C   UNL     1       1.175   9.212   4.590  1.00  0.00     0.006 C 
BRANCH   3   4
ATOM      4  C   UNL     1       1.338  10.125   5.809  1.00  0.00     0.053 C 
BRANCH   4   5
ATOM      5  C   UNL     1       2.132   9.439   6.875  1.00  0.00     0.041 C 
ATOM      6  O   UNL     1       1.815   8.282   7.256  1.00  0.00    -0.550 OA
ATOM      7  O   UNL     1       3.254  10.058   7.412  1.00  0.00    -0.550 OA
ENDBRANCH   4   5
ENDBRANCH   3   4
ENDBRANCH   2   3
ENDBRANCH   1   2
BRANCH   1   8
ATOM      8  C   UNL     1      -2.685   9.674   4.690  1.00  0.00     0.000 C 
BRANCH   8   9
ATOM      9  C   UNL     1      -2.866   8.537   3.678  1.00  0.00     0.000 C 
BRANCH   9  10
ATOM     10  C   UNL     1      -3.964   7.567   4.129  1.00  0.00     0.006 C 
BRANCH  10  11
ATOM     11  C   UNL     1      -4.520   6.777   2.942  1.00  0.00     0.053 C 
BRANCH  11  12
ATOM     12  C   UNL     1      -4.078   5.349   3.009  1.00  0.00     0.041 C 
ATOM     13  O   UNL     1      -2.856   5.059   2.923  1.00  0.00    -0.550 OA
ATOM     14  O   UNL     1      -5.011   4.341   3.218  1.00  0.00    -0.550 OA
ENDBRANCH  11  12
ENDBRANCH  10  11
ENDBRANCH   9  10
ENDBRANCH   8   9
ENDBRANCH   1   8
TORSDOF 9
ENDMDL
MODEL 4
REMARK VINA RESULT:    -3.384     10.295     12.090
REMARK INTER + INTRA:          -5.935
REMARK INTER:                  -4.894
REMARK INTRA:                  -1.040
REMARK UNBOUND:                -0.771
REMARK SMILES O=C([O-])CCCCCCCCC(=O)[O-]
REMARK SMILES IDX 7 1 6 2 5 3 4 4 2 5 1 6 3 7 8 8 9 9 10 10 11 11 12 12 13 13
REMARK SMILES IDX 14 14
REMARK H PARENT
REMARK Flexibility Score: inf
ROOT
ATOM      1  C   UNL     1      -8.713  -1.986  10.965  1.00  0.00     0.000 C 
ENDROOT
BRANCH   1   2
ATOM      2  C   UNL     1      -8.949  -2.364   9.498  1.00  0.00     0.000 C 
BRANCH   2   3
ATOM      3  C   UNL     1      -8.105  -1.491   8.561  1.00  0.00     0.006 C 
BRANCH   3   4
ATOM      4  C   UNL     1      -8.957  -0.394   7.918  1.00  0.00     0.053 C 
BRANCH   4   5
ATOM      5  C   UNL     1      -8.097   0.540   7.126  1.00  0.00     0.041 C 
ATOM      6  O   UNL     1      -8.615   1.319   6.284  1.00  0.00    -0.550 OA
ATOM      7  O   UNL     1      -6.727   0.586   7.356  1.00  0.00    -0.550 OA
ENDBRANCH   4   5
ENDBRANCH   3   4
ENDBRANCH   2   3
ENDBRANCH   1   2
BRANCH   1   8
ATOM      8  C   UNL     1      -9.859  -1.121  11.502  1.00  0.00     0.000 C 
BRANCH   8   9
ATOM      9  C   UNL     1      -9.454   0.357  11.560  1.00  0.00     0.000 C 
BRANCH   9  10
ATOM     10  C   UNL     1      -7.983   0.510  11.962  1.00  0.00     0.006 C 
BRANCH  10  11
ATOM     11  C   UNL     1      -7.242   1.434  10.992  1.00  0.00     0.053 C 
BRANCH  11  12
ATOM     12  C   UNL     1      -5.871   0.905  10.708  1.00  0.00     0.041 C 
ATOM     13  O   UNL     1      -5.048   1.596  10.051  1.00  0.00    -0.550 OA
ATOM     14  O   UNL     1      -5.484  -0.330  11.212  1.00  0.00    -0.550 OA
ENDBRANCH  11  12
ENDBRANCH  10  11
ENDBRANCH   9  10
ENDBRANCH   8   9
ENDBRANCH   1   8
TORSDOF 9
ENDMDL
MODEL 5
REMARK VINA RESULT:    -3.368      2.091      6.708
REMARK INTER + INTRA:          -5.911
REMARK INTER:                  -5.459
REMARK INTRA:                  -0.452
REMARK UNBOUND:                -0.771
REMARK SMILES O=C([O-])CCCCCCCCC(=O)[O-]
REMARK SMILES IDX 7 1 6 2 5 3 4 4 2 5 1 6 3 7 8 8 9 9 10 10 11 11 12 12 13 13
REMARK SMILES IDX 14 14
REMARK H PARENT
REMARK Flexibility Score: inf
ROOT
ATOM      1  C   UNL     1      -0.263   8.303   4.539  1.00  0.00     0.000 C 
ENDROOT
BRANCH   1   2
ATOM      2  C   UNL     1      -0.354   9.767   4.988  1.00  0.00     0.000 C 
BRANCH   2   3
ATOM      3  C   UNL     1       0.541  10.026   6.206  1.00  0.00     0.006 C 
BRANCH   3   4
ATOM      4  C   UNL     1       1.614   8.942   6.339  1.00  0.00     0.053 C 
BRANCH   4   5
ATOM      5  C   UNL     1       2.981   9.546   6.267  1.00  0.00     0.041 C 
ATOM      6  O   UNL     1       3.406  10.025   5.183  1.00  0.00    -0.550 OA
ATOM      7  O   UNL     1       3.767   9.626   7.411  1.00  0.00    -0.550 OA
ENDBRANCH   4   5
ENDBRANCH   3   4
ENDBRANCH   2   3
ENDBRANCH   1   2
BRANCH   1   8
ATOM      8  C   UNL     1      -1.382   7.962   3.547  1.00  0.00     0.000 C 
BRANCH   8   9
ATOM      9  C   UNL     1      -2.744   8.437   4.067  1.00  0.00     0.000 C 
BRANCH   9  10
ATOM     10  C   UNL     1      -3.490   9.246   3.000  1.00  0.00     0.006 C 
BRANCH  10  11
ATOM     11  C   UNL     1      -4.796   9.817   3.558  1.00  0.00     0.053 C 
BRANCH  11  12
ATOM     12  C   UNL     1      -5.974   9.120   2.953  1.00  0.00     0.041 C 
ATOM     13  O   UNL     1      -5.887   7.913   2.607  1.00  0.00    -0.550 OA
ATOM     14  O   UNL     1      -7.184   9.789   2.818  1.00  0.00    -0.550 OA
ENDBRANCH  11  12
ENDBRANCH  10  11
ENDBRANCH   9  10
ENDBRANCH   8   9
ENDBRANCH   1   8
TORSDOF 9
ENDMDL
MODEL 6
REMARK VINA RESULT:    -3.353     15.184     16.395
REMARK INTER + INTRA:          -5.889
REMARK INTER:                  -4.934
REMARK INTRA:                  -0.955
REMARK UNBOUND:                -0.771
REMARK SMILES O=C([O-])CCCCCCCCC(=O)[O-]
REMARK SMILES IDX 7 1 6 2 5 3 4 4 2 5 1 6 3 7 8 8 9 9 10 10 11 11 12 12 13 13
REMARK SMILES IDX 14 14
REMARK H PARENT
REMARK Flexibility Score: inf
ROOT
ATOM      1  C   UNL     1       6.851  -2.618  -6.786  1.00  0.00     0.000 C 
ENDROOT
BRANCH   1   2
ATOM      2  C   UNL     1       5.933  -2.865  -7.990  1.00  0.00     0.000 C 
BRANCH   2   3
ATOM      3  C   UNL     1       4.507  -2.381  -7.705  1.00  0.00     0.006 C 
BRANCH   3   4
ATOM      4  C   UNL     1       4.120  -2.639  -6.246  1.00  0.00     0.053 C 
BRANCH   4   5
ATOM      5  C   UNL     1       3.014  -1.721  -5.827  1.00  0.00     0.041 C 
ATOM      6  O   UNL     1       2.913  -1.359  -4.626  1.00  0.00    -0.550 OA
ATOM      7  O   UNL     1       2.126  -1.226  -6.774  1.00  0.00    -0.550 OA
ENDBRANCH   4   5
ENDBRANCH   3   4
ENDBRANCH   2   3
ENDBRANCH   1   2
BRANCH   1   8
ATOM      8  C   UNL     1       8.223  -2.103  -7.237  1.00  0.00     0.000 C 
BRANCH   8   9
ATOM      9  C   UNL     1       8.218  -0.576  -7.382  1.00  0.00     0.000 C 
BRANCH   9  10
ATOM     10  C   UNL     1       7.411   0.083  -6.259  1.00  0.00     0.006 C 
BRANCH  10  11
ATOM     11  C   UNL     1       6.665   1.318  -6.770  1.00  0.00     0.053 C 
BRANCH  11  12
ATOM     12  C   UNL     1       5.243   1.301  -6.305  1.00  0.00     0.041 C 
ATOM     13  O   UNL     1       4.304   1.204  -7.138  1.00  0.00    -0.550 OA
ATOM     14  O   UNL     1       4.955   1.342  -4.946  1.00  0.00    -0.550 OA
ENDBRANCH  11  12
ENDBRANCH  10  11
ENDBRANCH   9  10
ENDBRANCH   8   9
ENDBRANCH   1   8
TORSDOF 9
ENDMDL
MODEL 7
REMARK VINA RESULT:    -3.336      2.113      2.857
REMARK INTER + INTRA:          -5.862
REMARK INTER:                  -5.373
REMARK INTRA:                  -0.489
REMARK UNBOUND:                -0.771
REMARK SMILES O=C([O-])CCCCCCCCC(=O)[O-]
REMARK SMILES IDX 7 1 6 2 5 3 4 4 2 5 1 6 3 7 8 8 9 9 10 10 11 11 12 12 13 13
REMARK SMILES IDX 14 14
REMARK H PARENT
REMARK Flexibility Score: inf
ROOT
ATOM      1  C   UNL     1      -1.723   8.906   3.789  1.00  0.00     0.000 C 
ENDROOT
BRANCH   1   2
ATOM      2  C   UNL     1      -2.905   9.276   4.695  1.00  0.00     0.000 C 
BRANCH   2   3
ATOM      3  C   UNL     1      -3.951  10.093   3.928  1.00  0.00     0.006 C 
BRANCH   3   4
ATOM      4  C   UNL     1      -3.937   9.744   2.438  1.00  0.00     0.053 C 
BRANCH   4   5
ATOM      5  C   UNL     1      -5.169   8.980   2.067  1.00  0.00     0.041 C 
ATOM      6  O   UNL     1      -5.948   8.560   2.962  1.00  0.00    -0.550 OA
ATOM      7  O   UNL     1      -5.483   8.774   0.729  1.00  0.00    -0.550 OA
ENDBRANCH   4   5
ENDBRANCH   3   4
ENDBRANCH   2   3
ENDBRANCH   1   2
BRANCH   1   8
ATOM      8  C   UNL     1      -0.392   9.044   4.537  1.00  0.00     0.000 C 
BRANCH   8   9
ATOM      9  C   UNL     1      -0.479  10.123   5.623  1.00  0.00     0.000 C 
BRANCH   9  10
ATOM     10  C   UNL     1       0.775  10.123   6.504  1.00  0.00     0.006 C 
BRANCH  10  11
ATOM     11  C   UNL     1       2.039   9.947   5.659  1.00  0.00     0.053 C 
BRANCH  11  12
ATOM     12  C   UNL     1       3.068   9.162   6.412  1.00  0.00     0.041 C 
ATOM     13  O   UNL     1       3.804   9.731   7.259  1.00  0.00    -0.550 OA
ATOM     14  O   UNL     1       3.178   7.791   6.215  1.00  0.00    -0.550 OA
ENDBRANCH  11  12
ENDBRANCH  10  11
ENDBRANCH   9  10
ENDBRANCH   8   9
ENDBRANCH   1   8
TORSDOF 9
ENDMDL
MODEL 8
REMARK VINA RESULT:    -3.320     15.002     16.105
REMARK INTER + INTRA:          -5.838
REMARK INTER:                  -4.830
REMARK INTRA:                  -1.008
REMARK UNBOUND:                -0.771
REMARK SMILES O=C([O-])CCCCCCCCC(=O)[O-]
REMARK SMILES IDX 7 1 6 2 5 3 4 4 2 5 1 6 3 7 8 8 9 9 10 10 11 11 12 12 13 13
REMARK SMILES IDX 14 14
REMARK H PARENT
REMARK Flexibility Score: inf
ROOT
ATOM      1  C   UNL     1       8.179  -1.607  -6.858  1.00  0.00     0.000 C 
ENDROOT
BRANCH   1   2
ATOM      2  C   UNL     1       7.559  -0.977  -8.112  1.00  0.00     0.000 C 
BRANCH   2   3
ATOM      3  C   UNL     1       6.312  -0.159  -7.758  1.00  0.00     0.006 C 
BRANCH   3   4
ATOM      4  C   UNL     1       5.208  -1.056  -7.192  1.00  0.00     0.053 C 
BRANCH   4   5
ATOM      5  C   UNL     1       3.931  -0.290  -7.051  1.00  0.00     0.041 C 
ATOM      6  O   UNL     1       2.923  -0.829  -6.522  1.00  0.00    -0.550 OA
ATOM      7  O   UNL     1       3.868   1.037  -7.457  1.00  0.00    -0.550 OA
ENDBRANCH   4   5
ENDBRANCH   3   4
ENDBRANCH   2   3
ENDBRANCH   1   2
BRANCH   1   8
ATOM      8  C   UNL     1       9.506  -0.925  -6.499  1.00  0.00     0.000 C 
BRANCH   8   9
ATOM      9  C   UNL     1       9.283   0.229  -5.515  1.00  0.00     0.000 C 
BRANCH   9  10
ATOM     10  C   UNL     1       8.119  -0.073  -4.564  1.00  0.00     0.006 C 
BRANCH  10  11
ATOM     11  C   UNL     1       7.316   1.195  -4.259  1.00  0.00     0.053 C 
BRANCH  11  12
ATOM     12  C   UNL     1       5.860   0.873  -4.129  1.00  0.00     0.041 C 
ATOM     13  O   UNL     1       5.494  -0.275  -3.765  1.00  0.00    -0.550 OA
ATOM     14  O   UNL     1       4.908   1.858  -4.361  1.00  0.00    -0.550 OA
ENDBRANCH  11  12
ENDBRANCH  10  11
ENDBRANCH   9  10
ENDBRANCH   8   9
ENDBRANCH   1   8
TORSDOF 9
ENDMDL
MODEL 9
REMARK VINA RESULT:    -3.288     10.159     12.231
REMARK INTER + INTRA:          -5.789
REMARK INTER:                  -4.679
REMARK INTRA:                  -1.110
REMARK UNBOUND:                -0.771
REMARK SMILES O=C([O-])CCCCCCCCC(=O)[O-]
REMARK SMILES IDX 7 1 6 2 5 3 4 4 2 5 1 6 3 7 8 8 9 9 10 10 11 11 12 12 13 13
REMARK SMILES IDX 14 14
REMARK H PARENT
REMARK Flexibility Score: inf
ROOT
ATOM      1  C   UNL     1      -8.567  -0.547  11.793  1.00  0.00     0.000 C 
ENDROOT
BRANCH   1   2
ATOM      2  C   UNL     1      -8.542   0.972  11.583  1.00  0.00     0.000 C 
BRANCH   2   3
ATOM      3  C   UNL     1      -7.164   1.440  11.099  1.00  0.00     0.006 C 
BRANCH   3   4
ATOM      4  C   UNL     1      -6.085   0.407  11.436  1.00  0.00     0.053 C 
BRANCH   4   5
ATOM      5  C   UNL     1      -4.874   0.618  10.582  1.00  0.00     0.041 C 
ATOM      6  O   UNL     1      -4.753   1.672   9.905  1.00  0.00    -0.550 OA
ATOM      7  O   UNL     1      -3.856  -0.327  10.574  1.00  0.00    -0.550 OA
ENDBRANCH   4   5
ENDBRANCH   3   4
ENDBRANCH   2   3
ENDBRANCH   1   2
BRANCH   1   8
ATOM      8  C   UNL     1      -9.664  -1.203  10.946  1.00  0.00     0.000 C 
BRANCH   8   9
ATOM      9  C   UNL     1      -9.060  -2.030   9.806  1.00  0.00     0.000 C 
BRANCH   9  10
ATOM     10  C   UNL     1      -8.844  -1.170   8.555  1.00  0.00     0.006 C 
BRANCH  10  11
ATOM     11  C   UNL     1      -7.363  -1.125   8.168  1.00  0.00     0.053 C 
BRANCH  11  12
ATOM     12  C   UNL     1      -7.020   0.201   7.565  1.00  0.00     0.041 C 
ATOM     13  O   UNL     1      -5.922   0.361   6.970  1.00  0.00    -0.550 OA
ATOM     14  O   UNL     1      -7.934   1.246   7.616  1.00  0.00    -0.550 OA
ENDBRANCH  11  12
ENDBRANCH  10  11
ENDBRANCH   9  10
ENDBRANCH   8   9
ENDBRANCH   1   8
TORSDOF 9
ENDMDL
