MODEL 1
REMARK VINA RESULT:    -5.381      0.000      0.000
REMARK INTER + INTRA:          -8.207
REMARK INTER:                  -7.268
REMARK INTRA:                  -0.939
REMARK UNBOUND:                -0.939
REMARK SMILES C=CC(C)=CCC=C(C)CCC=C(C)C
REMARK SMILES IDX 8 1 7 2 9 3 10 4 11 5 12 6 14 7 13 8 15 9 6 10 5 11 3 12
REMARK SMILES IDX 4 13 2 14 1 15
REMARK H PARENT
REMARK Flexibility Score: inf
ROOT
ATOM      1  C   UNL     1     168.842 164.242 200.329  1.00  0.00    -0.077 C 
ATOM      2  C   UNL     1     169.359 165.288 199.648  1.00  0.00    -0.024 C 
ATOM      3  C   UNL     1     168.566 164.327 201.812  1.00  0.00     0.039 C 
ENDROOT
BRANCH   1   4
ATOM      4  C   UNL     1     168.522 162.962 199.587  1.00  0.00     0.034 C 
BRANCH   4   5
ATOM      5  C   UNL     1     167.482 162.134 200.349  1.00  0.00     0.032 C 
BRANCH   5   6
ATOM      6  C   UNL     1     166.220 161.959 199.539  1.00  0.00    -0.028 C 
ATOM      7  C   UNL     1     163.815 162.170 199.066  1.00  0.00     0.039 C 
ATOM      8  C   UNL     1     165.013 162.399 199.953  1.00  0.00    -0.080 C 
ATOM      9  C   UNL     1     164.841 163.110 201.274  1.00  0.00     0.039 C 
ENDBRANCH   5   6
ENDBRANCH   4   5
ENDBRANCH   1   4
BRANCH   2  10
ATOM     10  C   UNL     1     169.708 166.604 200.301  1.00  0.00     0.055 C 
BRANCH  10  11
ATOM     11  C   UNL     1     168.965 167.743 199.656  1.00  0.00    -0.020 C 
ATOM     12  C   UNL     1     168.138 168.585 200.307  1.00  0.00    -0.055 C 
ATOM     13  C   UNL     1     167.893 168.469 201.796  1.00  0.00     0.044 C 
BRANCH  12  14
ATOM     14  C   UNL     1     167.524 169.695 199.531  1.00  0.00    -0.005 C 
ATOM     15  C   UNL     1     167.930 170.057 198.314  1.00  0.00     0.009 C 
ENDBRANCH  12  14
ENDBRANCH  10  11
ENDBRANCH   2  10
TORSDOF 6
ENDMDL
MODEL 2
REMARK VINA RESULT:    -5.374      2.799      7.400
REMARK INTER + INTRA:          -8.197
REMARK INTER:                  -7.220
REMARK INTRA:                  -0.977
REMARK UNBOUND:                -0.939
REMARK SMILES C=CC(C)=CCC=C(C)CCC=C(C)C
REMARK SMILES IDX 8 1 7 2 9 3 10 4 11 5 12 6 14 7 13 8 15 9 6 10 5 11 3 12
REMARK SMILES IDX 4 13 2 14 1 15
REMARK H PARENT
REMARK Flexibility Score: inf
ROOT
ATOM      1  C   UNL     1     163.144 167.631 200.472  1.00  0.00    -0.077 C 
ATOM      2  C   UNL     1     162.576 166.613 199.789  1.00  0.00    -0.024 C 
ATOM      3  C   UNL     1     163.540 167.481 201.923  1.00  0.00     0.039 C 
ENDROOT
BRANCH   1   4
ATOM      4  C   UNL     1     163.401 168.944 199.765  1.00  0.00     0.034 C 
BRANCH   4   5
ATOM      5  C   UNL     1     164.468 169.762 200.501  1.00  0.00     0.032 C 
BRANCH   5   6
ATOM      6  C   UNL     1     165.666 170.021 199.618  1.00  0.00    -0.028 C 
ATOM      7  C   UNL     1     168.026 169.866 198.944  1.00  0.00     0.039 C 
ATOM      8  C   UNL     1     166.899 169.546 199.893  1.00  0.00    -0.080 C 
ATOM      9  C   UNL     1     167.168 168.707 201.119  1.00  0.00     0.039 C 
ENDBRANCH   5   6
ENDBRANCH   4   5
ENDBRANCH   1   4
BRANCH   2  10
ATOM     10  C   UNL     1     162.284 165.267 200.407  1.00  0.00     0.055 C 
BRANCH  10  11
ATOM     11  C   UNL     1     163.082 164.179 199.740  1.00  0.00    -0.020 C 
ATOM     12  C   UNL     1     163.955 163.371 200.375  1.00  0.00    -0.055 C 
ATOM     13  C   UNL     1     164.201 163.476 201.864  1.00  0.00     0.044 C 
BRANCH  12  14
ATOM     14  C   UNL     1     164.622 162.308 199.578  1.00  0.00    -0.005 C 
ATOM     15  C   UNL     1     164.178 161.885 198.394  1.00  0.00     0.009 C 
ENDBRANCH  12  14
ENDBRANCH  10  11
ENDBRANCH   2  10
TORSDOF 6
ENDMDL
MODEL 3
REMARK VINA RESULT:    -5.296      2.361      5.572
REMARK INTER + INTRA:          -8.093
REMARK INTER:                  -7.090
REMARK INTRA:                  -1.003
REMARK UNBOUND:                -0.939
REMARK SMILES C=CC(C)=CCC=C(C)CCC=C(C)C
REMARK SMILES IDX 8 1 7 2 9 3 10 4 11 5 12 6 14 7 13 8 15 9 6 10 5 11 3 12
REMARK SMILES IDX 4 13 2 14 1 15
REMARK H PARENT
REMARK Flexibility Score: inf
ROOT
ATOM      1  C   UNL     1     167.781 168.692 199.980  1.00  0.00    -0.077 C 
ATOM      2  C   UNL     1     168.737 167.903 199.441  1.00  0.00    -0.024 C 
ATOM      3  C   UNL     1     167.611 168.812 201.477  1.00  0.00     0.039 C 
ENDROOT
BRANCH   1   4
ATOM      4  C   UNL     1     166.870 169.481 199.065  1.00  0.00     0.034 C 
BRANCH   4   5
ATOM      5  C   UNL     1     165.678 170.053 199.840  1.00  0.00     0.032 C 
BRANCH   5   6
ATOM      6  C   UNL     1     164.382 169.409 199.405  1.00  0.00    -0.028 C 
ATOM      7  C   UNL     1     162.271 168.189 199.724  1.00  0.00     0.039 C 
ATOM      8  C   UNL     1     163.537 168.802 200.265  1.00  0.00    -0.080 C 
ATOM      9  C   UNL     1     163.833 168.727 201.744  1.00  0.00     0.039 C 
ENDBRANCH   5   6
ENDBRANCH   4   5
ENDBRANCH   1   4
BRANCH   2  10
ATOM     10  C   UNL     1     169.693 167.082 200.273  1.00  0.00     0.055 C 
BRANCH  10  11
ATOM     11  C   UNL     1     169.655 165.633 199.870  1.00  0.00    -0.020 C 
ATOM     12  C   UNL     1     169.101 164.647 200.604  1.00  0.00    -0.055 C 
ATOM     13  C   UNL     1     168.427 164.925 201.930  1.00  0.00     0.044 C 
BRANCH  12  14
ATOM     14  C   UNL     1     169.099 163.274 200.035  1.00  0.00    -0.005 C 
ATOM     15  C   UNL     1     169.346 163.006 198.752  1.00  0.00     0.009 C 
ENDBRANCH  12  14
ENDBRANCH  10  11
ENDBRANCH   2  10
TORSDOF 6
ENDMDL
MODEL 4
REMARK VINA RESULT:    -5.241      2.925      4.876
REMARK INTER + INTRA:          -8.018
REMARK INTER:                  -7.156
REMARK INTRA:                  -0.862
REMARK UNBOUND:                -0.939
REMARK SMILES C=CC(C)=CCC=C(C)CCC=C(C)C
REMARK SMILES IDX 8 1 7 2 9 3 10 4 11 5 12 6 14 7 13 8 15 9 6 10 5 11 3 12
REMARK SMILES IDX 4 13 2 14 1 15
REMARK H PARENT
REMARK Flexibility Score: inf
ROOT
ATOM      1  C   UNL     1     164.481 163.175 200.400  1.00  0.00    -0.077 C 
ATOM      2  C   UNL     1     163.516 163.961 199.874  1.00  0.00    -0.024 C 
ATOM      3  C   UNL     1     164.777 163.178 201.882  1.00  0.00     0.039 C 
ENDROOT
BRANCH   1   4
ATOM      4  C   UNL     1     165.274 162.264 199.487  1.00  0.00     0.034 C 
BRANCH   4   5
ATOM      5  C   UNL     1     166.612 161.880 200.127  1.00  0.00     0.032 C 
BRANCH   5   6
ATOM      6  C   UNL     1     167.753 162.666 199.526  1.00  0.00    -0.028 C 
ATOM      7  C   UNL     1     169.718 164.144 199.564  1.00  0.00     0.039 C 
ATOM      8  C   UNL     1     168.615 163.394 200.266  1.00  0.00    -0.080 C 
ATOM      9  C   UNL     1     168.499 163.469 201.770  1.00  0.00     0.039 C 
ENDBRANCH   5   6
ENDBRANCH   4   5
ENDBRANCH   1   4
BRANCH   2  10
ATOM     10  C   UNL     1     162.673 164.898 200.704  1.00  0.00     0.055 C 
BRANCH  10  11
ATOM     11  C   UNL     1     162.333 166.147 199.935  1.00  0.00    -0.020 C 
ATOM     12  C   UNL     1     162.669 167.396 200.317  1.00  0.00    -0.055 C 
ATOM     13  C   UNL     1     163.459 167.658 201.580  1.00  0.00     0.044 C 
BRANCH  12  14
ATOM     14  C   UNL     1     162.305 168.519 199.413  1.00  0.00    -0.005 C 
ATOM     15  C   UNL     1     163.159 169.089 198.563  1.00  0.00     0.009 C 
ENDBRANCH  12  14
ENDBRANCH  10  11
ENDBRANCH   2  10
TORSDOF 6
ENDMDL
MODEL 5
REMARK VINA RESULT:    -5.204      2.931      5.855
REMARK INTER + INTRA:          -7.968
REMARK INTER:                  -6.930
REMARK INTRA:                  -1.038
REMARK UNBOUND:                -0.939
REMARK SMILES C=CC(C)=CCC=C(C)CCC=C(C)C
REMARK SMILES IDX 8 1 7 2 9 3 10 4 11 5 12 6 14 7 13 8 15 9 6 10 5 11 3 12
REMARK SMILES IDX 4 13 2 14 1 15
REMARK H PARENT
REMARK Flexibility Score: inf
ROOT
ATOM      1  C   UNL     1     163.825 163.433 199.678  1.00  0.00    -0.077 C 
ATOM      2  C   UNL     1     164.669 162.776 198.852  1.00  0.00    -0.024 C 
ATOM      3  C   UNL     1     163.925 163.292 201.179  1.00  0.00     0.039 C 
ENDROOT
BRANCH   1   4
ATOM      4  C   UNL     1     162.767 164.339 199.086  1.00  0.00     0.034 C 
BRANCH   4   5
ATOM      5  C   UNL     1     162.169 165.254 200.160  1.00  0.00     0.032 C 
BRANCH   5   6
ATOM      6  C   UNL     1     162.534 166.699 199.914  1.00  0.00    -0.028 C 
ATOM      7  C   UNL     1     163.453 168.906 200.492  1.00  0.00     0.039 C 
ATOM      8  C   UNL     1     163.134 167.474 200.841  1.00  0.00    -0.080 C 
ATOM      9  C   UNL     1     163.491 166.940 202.208  1.00  0.00     0.039 C 
ENDBRANCH   5   6
ENDBRANCH   4   5
ENDBRANCH   1   4
BRANCH   2  10
ATOM     10  C   UNL     1     165.757 161.854 199.349  1.00  0.00     0.055 C 
BRANCH  10  11
ATOM     11  C   UNL     1     167.088 162.555 199.386  1.00  0.00    -0.020 C 
ATOM     12  C   UNL     1     167.821 162.749 200.501  1.00  0.00    -0.055 C 
ATOM     13  C   UNL     1     167.365 162.243 201.852  1.00  0.00     0.044 C 
BRANCH  12  14
ATOM     14  C   UNL     1     169.143 163.413 200.356  1.00  0.00    -0.005 C 
ATOM     15  C   UNL     1     169.755 163.592 199.185  1.00  0.00     0.009 C 
ENDBRANCH  12  14
ENDBRANCH  10  11
ENDBRANCH   2  10
TORSDOF 6
ENDMDL
MODEL 6
REMARK VINA RESULT:    -5.184      1.797      5.373
REMARK INTER + INTRA:          -7.941
REMARK INTER:                  -6.861
REMARK INTRA:                  -1.080
REMARK UNBOUND:                -0.939
REMARK SMILES C=CC(C)=CCC=C(C)CCC=C(C)C
REMARK SMILES IDX 8 1 7 2 9 3 10 4 11 5 12 6 14 7 13 8 15 9 6 10 5 11 3 12
REMARK SMILES IDX 4 13 2 14 1 15
REMARK H PARENT
REMARK Flexibility Score: inf
ROOT
ATOM      1  C   UNL     1     167.089 162.399 199.715  1.00  0.00    -0.077 C 
ATOM      2  C   UNL     1     165.942 162.347 199.002  1.00  0.00    -0.024 C 
ATOM      3  C   UNL     1     167.092 162.218 201.215  1.00  0.00     0.039 C 
ENDROOT
BRANCH   1   4
ATOM      4  C   UNL     1     168.399 162.632 198.993  1.00  0.00     0.034 C 
BRANCH   4   5
ATOM      5  C   UNL     1     169.436 163.259 199.931  1.00  0.00     0.032 C 
BRANCH   5   6
ATOM      6  C   UNL     1     169.704 164.700 199.567  1.00  0.00    -0.028 C 
ATOM      7  C   UNL     1     169.669 167.137 199.899  1.00  0.00     0.039 C 
ATOM      8  C   UNL     1     169.357 165.736 200.360  1.00  0.00    -0.080 C 
ATOM      9  C   UNL     1     168.671 165.520 201.688  1.00  0.00     0.039 C 
ENDBRANCH   5   6
ENDBRANCH   4   5
ENDBRANCH   1   4
BRANCH   2  10
ATOM     10  C   UNL     1     164.590 162.117 199.633  1.00  0.00     0.055 C 
BRANCH  10  11
ATOM     11  C   UNL     1     163.664 163.273 199.369  1.00  0.00    -0.020 C 
ATOM     12  C   UNL     1     163.305 164.193 200.287  1.00  0.00    -0.055 C 
ATOM     13  C   UNL     1     163.835 164.153 201.704  1.00  0.00     0.044 C 
BRANCH  12  14
ATOM     14  C   UNL     1     162.424 165.306 199.847  1.00  0.00    -0.005 C 
ATOM     15  C   UNL     1     162.577 166.570 200.245  1.00  0.00     0.009 C 
ENDBRANCH  12  14
ENDBRANCH  10  11
ENDBRANCH   2  10
TORSDOF 6
ENDMDL
MODEL 7
REMARK VINA RESULT:    -5.133      0.582      6.013
REMARK INTER + INTRA:          -7.872
REMARK INTER:                  -6.959
REMARK INTRA:                  -0.913
REMARK UNBOUND:                -0.939
REMARK SMILES C=CC(C)=CCC=C(C)CCC=C(C)C
REMARK SMILES IDX 8 1 7 2 9 3 10 4 11 5 12 6 14 7 13 8 15 9 6 10 5 11 3 12
REMARK SMILES IDX 4 13 2 14 1 15
REMARK H PARENT
REMARK Flexibility Score: inf
ROOT
ATOM      1  C   UNL     1     168.466 164.117 200.492  1.00  0.00    -0.077 C 
ATOM      2  C   UNL     1     168.137 163.025 199.767  1.00  0.00    -0.024 C 
ATOM      3  C   UNL     1     167.871 164.361 201.860  1.00  0.00     0.039 C 
ENDROOT
BRANCH   1   4
ATOM      4  C   UNL     1     169.458 165.110 199.926  1.00  0.00     0.034 C 
BRANCH   4   5
ATOM      5  C   UNL     1     169.465 166.404 200.747  1.00  0.00     0.032 C 
BRANCH   5   6
ATOM      6  C   UNL     1     168.985 167.577 199.925  1.00  0.00    -0.028 C 
ATOM      7  C   UNL     1     167.797 169.693 199.523  1.00  0.00     0.039 C 
ATOM      8  C   UNL     1     168.223 168.569 200.433  1.00  0.00    -0.080 C 
ATOM      9  C   UNL     1     167.796 168.576 201.881  1.00  0.00     0.039 C 
ENDBRANCH   5   6
ENDBRANCH   4   5
ENDBRANCH   1   4
BRANCH   2  10
ATOM     10  C   UNL     1     167.161 161.980 200.248  1.00  0.00     0.055 C 
BRANCH  10  11
ATOM     11  C   UNL     1     165.961 161.900 199.342  1.00  0.00    -0.020 C 
ATOM     12  C   UNL     1     164.727 162.339 199.665  1.00  0.00    -0.055 C 
ATOM     13  C   UNL     1     164.437 162.991 200.999  1.00  0.00     0.044 C 
BRANCH  12  14
ATOM     14  C   UNL     1     163.662 162.237 198.633  1.00  0.00    -0.005 C 
ATOM     15  C   UNL     1     162.904 163.265 198.250  1.00  0.00     0.009 C 
ENDBRANCH  12  14
ENDBRANCH  10  11
ENDBRANCH   2  10
TORSDOF 6
ENDMDL
MODEL 8
REMARK VINA RESULT:    -5.124      1.635      2.963
REMARK INTER + INTRA:          -7.860
REMARK INTER:                  -6.469
REMARK INTRA:                  -1.392
REMARK UNBOUND:                -0.939
REMARK SMILES C=CC(C)=CCC=C(C)CCC=C(C)C
REMARK SMILES IDX 8 1 7 2 9 3 10 4 11 5 12 6 14 7 13 8 15 9 6 10 5 11 3 12
REMARK SMILES IDX 4 13 2 14 1 15
REMARK H PARENT
REMARK Flexibility Score: inf
ROOT
ATOM      1  C   UNL     1     167.103 162.306 200.024  1.00  0.00    -0.077 C 
ATOM      2  C   UNL     1     168.130 162.787 199.289  1.00  0.00    -0.024 C 
ATOM      3  C   UNL     1     167.185 162.222 201.530  1.00  0.00     0.039 C 
ENDROOT
BRANCH   1   4
ATOM      4  C   UNL     1     165.840 161.853 199.323  1.00  0.00     0.034 C 
BRANCH   4   5
ATOM      5  C   UNL     1     164.934 163.048 199.004  1.00  0.00     0.032 C 
BRANCH   5   6
ATOM      6  C   UNL     1     163.941 163.294 200.115  1.00  0.00    -0.028 C 
ATOM      7  C   UNL     1     162.976 164.502 202.027  1.00  0.00     0.039 C 
ATOM      8  C   UNL     1     164.019 164.352 200.950  1.00  0.00    -0.080 C 
ATOM      9  C   UNL     1     165.120 165.379 200.825  1.00  0.00     0.039 C 
ENDBRANCH   5   6
ENDBRANCH   4   5
ENDBRANCH   1   4
BRANCH   2  10
ATOM     10  C   UNL     1     169.426 163.264 199.897  1.00  0.00     0.055 C 
BRANCH  10  11
ATOM     11  C   UNL     1     169.685 164.707 199.560  1.00  0.00    -0.020 C 
ATOM     12  C   UNL     1     169.371 165.749 200.356  1.00  0.00    -0.055 C 
ATOM     13  C   UNL     1     168.728 165.550 201.711  1.00  0.00     0.044 C 
BRANCH  12  14
ATOM     14  C   UNL     1     169.746 167.112 199.896  1.00  0.00    -0.005 C 
ATOM     15  C   UNL     1     169.291 167.664 198.771  1.00  0.00     0.009 C 
ENDBRANCH  12  14
ENDBRANCH  10  11
ENDBRANCH   2  10
TORSDOF 6
ENDMDL
MODEL 9
REMARK VINA RESULT:    -5.122      2.958      7.660
REMARK INTER + INTRA:          -7.858
REMARK INTER:                  -6.915
REMARK INTRA:                  -0.942
REMARK UNBOUND:                -0.939
REMARK SMILES C=CC(C)=CCC=C(C)CCC=C(C)C
REMARK SMILES IDX 8 1 7 2 9 3 10 4 11 5 12 6 14 7 13 8 15 9 6 10 5 11 3 12
REMARK SMILES IDX 4 13 2 14 1 15
REMARK H PARENT
REMARK Flexibility Score: inf
ROOT
ATOM      1  C   UNL     1     163.276 167.990 200.324  1.00  0.00    -0.077 C 
ATOM      2  C   UNL     1     163.286 166.684 200.673  1.00  0.00    -0.024 C 
ATOM      3  C   UNL     1     162.296 168.524 199.305  1.00  0.00     0.039 C 
ENDROOT
BRANCH   1   4
ATOM      4  C   UNL     1     164.260 168.937 200.976  1.00  0.00     0.034 C 
BRANCH   4   5
ATOM      5  C   UNL     1     164.602 170.100 200.037  1.00  0.00     0.032 C 
BRANCH   5   6
ATOM      6  C   UNL     1     166.060 170.075 199.644  1.00  0.00    -0.028 C 
ATOM      7  C   UNL     1     167.971 169.639 198.159  1.00  0.00     0.039 C 
ATOM      8  C   UNL     1     166.492 169.621 198.449  1.00  0.00    -0.080 C 
ATOM      9  C   UNL     1     165.531 169.103 197.405  1.00  0.00     0.039 C 
ENDBRANCH   5   6
ENDBRANCH   4   5
ENDBRANCH   1   4
BRANCH   2  10
ATOM     10  C   UNL     1     162.342 165.666 200.081  1.00  0.00     0.055 C 
BRANCH  10  11
ATOM     11  C   UNL     1     162.993 164.311 199.990  1.00  0.00    -0.020 C 
ATOM     12  C   UNL     1     163.183 163.628 198.843  1.00  0.00    -0.055 C 
ATOM     13  C   UNL     1     162.764 164.190 197.502  1.00  0.00     0.044 C 
BRANCH  12  14
ATOM     14  C   UNL     1     163.894 162.325 198.921  1.00  0.00    -0.005 C 
ATOM     15  C   UNL     1     165.088 162.168 199.494  1.00  0.00     0.009 C 
ENDBRANCH  12  14
ENDBRANCH  10  11
ENDBRANCH   2  10
TORSDOF 6
ENDMDL
