MODEL 1
REMARK VINA RESULT:    -3.191      0.000      0.000
REMARK INTER + INTRA:          -3.970
REMARK INTER:                  -4.684
REMARK INTRA:                   0.714
REMARK UNBOUND:                 0.714
REMARK SMILES C=C1CC=CC(C)(C)CC=C(C)CCC1
REMARK SMILES IDX 2 1 1 2 15 3 14 4 13 5 11 6 12 7 10 8 3 10 4 11 5 12 6 13
REMARK SMILES IDX 7 14 8 15 9 16
REMARK H PARENT
REMARK Flexibility Score: 60.00
ROOT
ATOM      1  C   UNL     1      13.513   5.349  20.474  1.00  0.00    -0.074 C 
ATOM      2  C   UNL     1      14.108   5.276  21.675  1.00  0.00     0.008 C 
ENDROOT
BRANCH   1   3
ATOM      3  C   UNL     1      13.072   4.084  19.767  1.00  0.00     0.031 C 
BRANCH   3   4
ATOM      4  C   UNL     1      14.228   3.474  18.938  1.00  0.00     0.009 C 
BRANCH   4   5
ATOM      5  C   UNL     1      14.097   3.585  17.398  1.00  0.00     0.030 C 
BRANCH   5   6
ATOM      6  C   UNL     1      14.688   4.835  16.761  1.00  0.00    -0.077 C 
ATOM      7  C   UNL     1      16.188   4.931  16.616  1.00  0.00     0.039 C 
ATOM      8  C   UNL     1      13.948   5.878  16.311  1.00  0.00    -0.027 CG0
ATOM      9  G   UNL     1      12.434   5.963  16.322  1.00  0.00     0.000 G0
ENDBRANCH   5   6
ENDBRANCH   4   5
ENDBRANCH   3   4
ENDBRANCH   1   3
BRANCH   1  10
ATOM     10  C   UNL     1      13.206   6.698  19.851  1.00  0.00     0.057 C 
BRANCH  10  11
ATOM     11  C   UNL     1      11.742   6.810  19.514  1.00  0.00    -0.026 C 
ATOM     12  C   UNL     1      11.182   7.041  18.303  1.00  0.00    -0.024 C 
BRANCH  12  13
ATOM     13  C   UNL     1      11.860   7.295  16.946  1.00  0.00    -0.014 C 
ATOM     14  C   UNL     1      10.890   8.002  15.970  1.00  0.00     0.016 C 
ATOM     15  C   UNL     1      13.034   8.281  17.180  1.00  0.00     0.016 C 
BRANCH  13  16
ATOM     16  C   UNL     1      12.424   5.986  16.305  1.00  0.00     0.038 CG0
ATOM     17  G   UNL     1      13.939   5.919  16.321  1.00  0.00     0.000 G0
ENDBRANCH  13  16
ENDBRANCH  12  13
ENDBRANCH  10  11
ENDBRANCH   1  10
TORSDOF 0
ENDMDL
MODEL 2
REMARK VINA RESULT:    -3.011      1.464      3.076
REMARK INTER + INTRA:          -3.705
REMARK INTER:                  -4.217
REMARK INTRA:                   0.512
REMARK UNBOUND:                 0.714
REMARK SMILES C=C1CC=CC(C)(C)CC=C(C)CCC1
REMARK SMILES IDX 2 1 1 2 15 3 14 4 13 5 11 6 12 7 10 8 3 10 4 11 5 12 6 13
REMARK SMILES IDX 7 14 8 15 9 16
REMARK H PARENT
REMARK Flexibility Score: 60.00
ROOT
ATOM      1  C   UNL     1      16.650   6.273  17.178  1.00  0.00    -0.074 C 
ATOM      2  C   UNL     1      17.642   6.839  17.882  1.00  0.00     0.008 C 
ENDROOT
BRANCH   1   3
ATOM      3  C   UNL     1      16.699   4.794  16.850  1.00  0.00     0.031 C 
BRANCH   3   4
ATOM      4  C   UNL     1      15.980   3.957  17.934  1.00  0.00     0.009 C 
BRANCH   4   5
ATOM      5  C   UNL     1      14.524   3.533  17.618  1.00  0.00     0.030 C 
BRANCH   5   6
ATOM      6  C   UNL     1      13.470   3.930  18.642  1.00  0.00    -0.077 C 
ATOM      7  C   UNL     1      13.494   3.264  19.998  1.00  0.00     0.039 C 
ATOM      8  C   UNL     1      12.501   4.850  18.415  1.00  0.00    -0.027 CG0
ATOM      9  G   UNL     1      12.326   5.661  17.145  1.00  0.00     0.000 G0
ENDBRANCH   5   6
ENDBRANCH   4   5
ENDBRANCH   3   4
ENDBRANCH   1   3
BRANCH   1  10
ATOM     10  C   UNL     1      15.436   7.087  16.771  1.00  0.00     0.057 C 
BRANCH  10  11
ATOM     11  C   UNL     1      14.761   7.679  17.982  1.00  0.00    -0.026 C 
ATOM     12  C   UNL     1      13.437   7.721  18.259  1.00  0.00    -0.024 C 
BRANCH  12  13
ATOM     13  C   UNL     1      12.248   7.224  17.421  1.00  0.00    -0.014 C 
ATOM     14  C   UNL     1      10.906   7.607  18.088  1.00  0.00     0.016 C 
ATOM     15  C   UNL     1      12.283   7.969  16.060  1.00  0.00     0.016 C 
BRANCH  13  16
ATOM     16  C   UNL     1      12.306   5.686  17.152  1.00  0.00     0.038 CG0
ATOM     17  G   UNL     1      12.522   4.869  18.412  1.00  0.00     0.000 G0
ENDBRANCH  13  16
ENDBRANCH  12  13
ENDBRANCH  10  11
ENDBRANCH   1  10
TORSDOF 0
ENDMDL
MODEL 3
REMARK VINA RESULT:    -2.968      1.679      2.969
REMARK INTER + INTRA:          -3.642
REMARK INTER:                  -4.178
REMARK INTRA:                   0.536
REMARK UNBOUND:                 0.714
REMARK SMILES C=C1CC=CC(C)(C)CC=C(C)CCC1
REMARK SMILES IDX 2 1 1 2 15 3 14 4 13 5 11 6 12 7 10 8 3 10 4 11 5 12 6 13
REMARK SMILES IDX 7 14 8 15 9 16
REMARK H PARENT
REMARK Flexibility Score: 60.00
ROOT
ATOM      1  C   UNL     1      15.026   3.547  17.835  1.00  0.00    -0.074 C 
ATOM      2  C   UNL     1      15.577   2.940  18.897  1.00  0.00     0.008 C 
ENDROOT
BRANCH   1   3
ATOM      3  C   UNL     1      15.904   4.042  16.703  1.00  0.00     0.031 C 
BRANCH   3   4
ATOM      4  C   UNL     1      16.732   5.276  17.136  1.00  0.00     0.009 C 
BRANCH   4   5
ATOM      5  C   UNL     1      16.209   6.653  16.658  1.00  0.00     0.030 C 
BRANCH   5   6
ATOM      6  C   UNL     1      15.553   7.529  17.717  1.00  0.00    -0.077 C 
ATOM      7  C   UNL     1      16.440   8.314  18.654  1.00  0.00     0.039 C 
ATOM      8  C   UNL     1      14.213   7.649  17.877  1.00  0.00    -0.027 CG0
ATOM      9  G   UNL     1      13.153   6.984  17.020  1.00  0.00     0.000 G0
ENDBRANCH   5   6
ENDBRANCH   4   5
ENDBRANCH   3   4
ENDBRANCH   1   3
BRANCH   1  10
ATOM     10  C   UNL     1      13.519   3.675  17.720  1.00  0.00     0.057 C 
BRANCH  10  11
ATOM     11  C   UNL     1      12.950   4.381  18.924  1.00  0.00    -0.026 C 
ATOM     12  C   UNL     1      12.260   5.544  18.958  1.00  0.00    -0.024 C 
BRANCH  12  13
ATOM     13  C   UNL     1      11.893   6.495  17.806  1.00  0.00    -0.014 C 
ATOM     14  C   UNL     1      10.878   5.830  16.846  1.00  0.00     0.016 C 
ATOM     15  C   UNL     1      11.168   7.723  18.418  1.00  0.00     0.016 C 
BRANCH  13  16
ATOM     16  C   UNL     1      13.147   6.993  17.019  1.00  0.00     0.038 CG0
ATOM     17  G   UNL     1      14.186   7.650  17.907  1.00  0.00     0.000 G0
ENDBRANCH  13  16
ENDBRANCH  12  13
ENDBRANCH  10  11
ENDBRANCH   1  10
TORSDOF 0
ENDMDL
MODEL 4
REMARK VINA RESULT:    -2.923      1.889      4.332
REMARK INTER + INTRA:          -3.576
REMARK INTER:                  -4.049
REMARK INTRA:                   0.473
REMARK UNBOUND:                 0.714
REMARK SMILES C=C1CC=CC(C)(C)CC=C(C)CCC1
REMARK SMILES IDX 2 1 1 2 15 3 14 4 13 5 11 6 12 7 10 8 3 10 4 11 5 12 6 13
REMARK SMILES IDX 7 14 8 15 9 16
REMARK H PARENT
REMARK Flexibility Score: 60.00
ROOT
ATOM      1  C   UNL     1      11.994   6.352  16.925  1.00  0.00    -0.074 C 
ATOM      2  C   UNL     1      11.057   7.100  16.321  1.00  0.00     0.008 C 
ENDROOT
BRANCH   1   3
ATOM      3  C   UNL     1      13.340   6.142  16.263  1.00  0.00     0.031 C 
BRANCH   3   4
ATOM      4  C   UNL     1      14.189   7.435  16.297  1.00  0.00     0.009 C 
BRANCH   4   5
ATOM      5  C   UNL     1      15.045   7.658  17.569  1.00  0.00     0.030 C 
BRANCH   5   6
ATOM      6  C   UNL     1      15.915   6.489  18.009  1.00  0.00    -0.077 C 
ATOM      7  C   UNL     1      17.108   6.119  17.160  1.00  0.00     0.039 C 
ATOM      8  C   UNL     1      15.686   5.751  19.121  1.00  0.00    -0.027 CG0
ATOM      9  G   UNL     1      14.575   5.981  20.128  1.00  0.00     0.000 G0
ENDBRANCH   5   6
ENDBRANCH   4   5
ENDBRANCH   3   4
ENDBRANCH   1   3
BRANCH   1  10
ATOM     10  C   UNL     1      11.743   5.777  18.306  1.00  0.00     0.057 C 
BRANCH  10  11
ATOM     11  C   UNL     1      12.339   4.398  18.426  1.00  0.00    -0.026 C 
ATOM     12  C   UNL     1      13.189   3.938  19.374  1.00  0.00    -0.024 C 
BRANCH  12  13
ATOM     13  C   UNL     1      13.820   4.682  20.563  1.00  0.00    -0.014 C 
ATOM     14  C   UNL     1      12.757   4.997  21.641  1.00  0.00     0.016 C 
ATOM     15  C   UNL     1      14.843   3.725  21.232  1.00  0.00     0.016 C 
BRANCH  13  16
ATOM     16  C   UNL     1      14.563   5.986  20.127  1.00  0.00     0.038 CG0
ATOM     17  G   UNL     1      15.694   5.730  19.151  1.00  0.00     0.000 G0
ENDBRANCH  13  16
ENDBRANCH  12  13
ENDBRANCH  10  11
ENDBRANCH   1  10
TORSDOF 0
ENDMDL
MODEL 5
REMARK VINA RESULT:    -2.822      1.697      4.239
REMARK INTER + INTRA:          -3.428
REMARK INTER:                  -3.926
REMARK INTRA:                   0.498
REMARK UNBOUND:                 0.714
REMARK SMILES C=C1CC=CC(C)(C)CC=C(C)CCC1
REMARK SMILES IDX 2 1 1 2 15 3 14 4 13 5 11 6 12 7 10 8 3 10 4 11 5 12 6 13
REMARK SMILES IDX 7 14 8 15 9 16
REMARK H PARENT
REMARK Flexibility Score: 60.00
ROOT
ATOM      1  C   UNL     1      13.634   3.614  20.009  1.00  0.00    -0.074 C 
ATOM      2  C   UNL     1      13.082   3.198  21.159  1.00  0.00     0.008 C 
ENDROOT
BRANCH   1   3
ATOM      3  C   UNL     1      12.754   4.114  18.881  1.00  0.00     0.031 C 
BRANCH   3   4
ATOM      4  C   UNL     1      12.304   5.574  19.128  1.00  0.00     0.009 C 
BRANCH   4   5
ATOM      5  C   UNL     1      13.200   6.679  18.515  1.00  0.00     0.030 C 
BRANCH   5   6
ATOM      6  C   UNL     1      13.725   6.418  17.110  1.00  0.00    -0.077 C 
ATOM      7  C   UNL     1      12.745   6.426  15.960  1.00  0.00     0.039 C 
ATOM      8  C   UNL     1      15.026   6.174  16.820  1.00  0.00    -0.027 CG0
ATOM      9  G   UNL     1      16.171   6.164  17.815  1.00  0.00     0.000 G0
ENDBRANCH   5   6
ENDBRANCH   4   5
ENDBRANCH   3   4
ENDBRANCH   1   3
BRANCH   1  10
ATOM     10  C   UNL     1      15.143   3.661  19.856  1.00  0.00     0.057 C 
BRANCH  10  11
ATOM     11  C   UNL     1      15.564   3.068  18.536  1.00  0.00    -0.026 C 
ATOM     12  C   UNL     1      16.413   3.591  17.622  1.00  0.00    -0.024 C 
BRANCH  12  13
ATOM     13  C   UNL     1      17.155   4.938  17.636  1.00  0.00    -0.014 C 
ATOM     14  C   UNL     1      18.266   4.943  18.713  1.00  0.00     0.016 C 
ATOM     15  C   UNL     1      17.876   5.097  16.271  1.00  0.00     0.016 C 
BRANCH  13  16
ATOM     16  C   UNL     1      16.190   6.150  17.839  1.00  0.00     0.038 CG0
ATOM     17  G   UNL     1      15.050   6.178  16.840  1.00  0.00     0.000 G0
ENDBRANCH  13  16
ENDBRANCH  12  13
ENDBRANCH  10  11
ENDBRANCH   1  10
TORSDOF 0
ENDMDL
MODEL 6
REMARK VINA RESULT:    -2.788      1.924      3.431
REMARK INTER + INTRA:          -3.378
REMARK INTER:                  -3.885
REMARK INTRA:                   0.507
REMARK UNBOUND:                 0.714
REMARK SMILES C=C1CC=CC(C)(C)CC=C(C)CCC1
REMARK SMILES IDX 2 1 1 2 15 3 14 4 13 5 11 6 12 7 10 8 3 10 4 11 5 12 6 13
REMARK SMILES IDX 7 14 8 15 9 16
REMARK H PARENT
REMARK Flexibility Score: 60.00
ROOT
ATOM      1  C   UNL     1      14.244   3.880  17.403  1.00  0.00    -0.074 C 
ATOM      2  C   UNL     1      13.915   4.148  16.130  1.00  0.00     0.008 C 
ENDROOT
BRANCH   1   3
ATOM      3  C   UNL     1      15.674   3.528  17.760  1.00  0.00     0.031 C 
BRANCH   3   4
ATOM      4  C   UNL     1      16.627   4.718  17.491  1.00  0.00     0.009 C 
BRANCH   4   5
ATOM      5  C   UNL     1      16.476   5.941  18.430  1.00  0.00     0.030 C 
BRANCH   5   6
ATOM      6  C   UNL     1      15.590   7.071  17.925  1.00  0.00    -0.077 C 
ATOM      7  C   UNL     1      15.994   7.797  16.664  1.00  0.00     0.039 C 
ATOM      8  C   UNL     1      14.451   7.474  18.540  1.00  0.00    -0.027 CG0
ATOM      9  G   UNL     1      13.848   6.855  19.786  1.00  0.00     0.000 G0
ENDBRANCH   5   6
ENDBRANCH   4   5
ENDBRANCH   3   4
ENDBRANCH   1   3
BRANCH   1  10
ATOM     10  C   UNL     1      13.208   4.002  18.505  1.00  0.00     0.057 C 
BRANCH  10  11
ATOM     11  C   UNL     1      12.075   4.897  18.075  1.00  0.00    -0.026 C 
ATOM     12  C   UNL     1      11.702   6.083  18.609  1.00  0.00    -0.024 C 
BRANCH  12  13
ATOM     13  C   UNL     1      12.285   6.836  19.817  1.00  0.00    -0.014 C 
ATOM     14  C   UNL     1      11.714   8.272  19.898  1.00  0.00     0.016 C 
ATOM     15  C   UNL     1      11.811   6.109  21.103  1.00  0.00     0.016 C 
BRANCH  13  16
ATOM     16  C   UNL     1      13.847   6.868  19.804  1.00  0.00     0.038 CG0
ATOM     17  G   UNL     1      14.421   7.463  18.533  1.00  0.00     0.000 G0
ENDBRANCH  13  16
ENDBRANCH  12  13
ENDBRANCH  10  11
ENDBRANCH   1  10
TORSDOF 0
ENDMDL
MODEL 7
REMARK VINA RESULT:    -2.642      1.722      3.839
REMARK INTER + INTRA:          -3.164
REMARK INTER:                  -3.775
REMARK INTRA:                   0.611
REMARK UNBOUND:                 0.714
REMARK SMILES C=C1CC=CC(C)(C)CC=C(C)CCC1
REMARK SMILES IDX 2 1 1 2 15 3 14 4 13 5 11 6 12 7 10 8 3 10 4 11 5 12 6 13
REMARK SMILES IDX 7 14 8 15 9 16
REMARK H PARENT
REMARK Flexibility Score: 60.00
ROOT
ATOM      1  C   UNL     1      16.198   3.422  18.805  1.00  0.00    -0.074 C 
ATOM      2  C   UNL     1      16.127   2.192  18.273  1.00  0.00     0.008 C 
ENDROOT
BRANCH   1   3
ATOM      3  C   UNL     1      16.049   3.611  20.302  1.00  0.00     0.031 C 
BRANCH   3   4
ATOM      4  C   UNL     1      14.999   2.638  20.887  1.00  0.00     0.009 C 
BRANCH   4   5
ATOM      5  C   UNL     1      13.514   3.032  20.688  1.00  0.00     0.030 C 
BRANCH   5   6
ATOM      6  C   UNL     1      13.215   4.524  20.640  1.00  0.00    -0.077 C 
ATOM      7  C   UNL     1      13.231   5.304  21.933  1.00  0.00     0.039 C 
ATOM      8  C   UNL     1      12.930   5.203  19.503  1.00  0.00    -0.027 CG0
ATOM      9  G   UNL     1      12.904   4.622  18.103  1.00  0.00     0.000 G0
ENDBRANCH   5   6
ENDBRANCH   4   5
ENDBRANCH   3   4
ENDBRANCH   1   3
BRANCH   1  10
ATOM     10  C   UNL     1      16.504   4.621  17.928  1.00  0.00     0.057 C 
BRANCH  10  11
ATOM     11  C   UNL     1      15.853   4.473  16.577  1.00  0.00    -0.026 C 
ATOM     12  C   UNL     1      14.622   4.887  16.196  1.00  0.00    -0.024 C 
BRANCH  12  13
ATOM     13  C   UNL     1      13.526   5.581  17.023  1.00  0.00    -0.014 C 
ATOM     14  C   UNL     1      14.072   6.865  17.692  1.00  0.00     0.016 C 
ATOM     15  C   UNL     1      12.414   6.043  16.044  1.00  0.00     0.016 C 
BRANCH  13  16
ATOM     16  C   UNL     1      12.893   4.634  18.092  1.00  0.00     0.038 CG0
ATOM     17  G   UNL     1      12.928   5.209  19.495  1.00  0.00     0.000 G0
ENDBRANCH  13  16
ENDBRANCH  12  13
ENDBRANCH  10  11
ENDBRANCH   1  10
TORSDOF 0
ENDMDL
MODEL 8
REMARK VINA RESULT:    -2.568      1.681      4.560
REMARK INTER + INTRA:          -3.056
REMARK INTER:                  -3.629
REMARK INTRA:                   0.573
REMARK UNBOUND:                 0.714
REMARK SMILES C=C1CC=CC(C)(C)CC=C(C)CCC1
REMARK SMILES IDX 2 1 1 2 15 3 14 4 13 5 11 6 12 7 10 8 3 10 4 11 5 12 6 13
REMARK SMILES IDX 7 14 8 15 9 16
REMARK H PARENT
REMARK Flexibility Score: 60.00
ROOT
ATOM      1  C   UNL     1      15.969   3.945  17.333  1.00  0.00    -0.074 C 
ATOM      2  C   UNL     1      17.269   4.280  17.327  1.00  0.00     0.008 C 
ENDROOT
BRANCH   1   3
ATOM      3  C   UNL     1      15.116   4.191  16.106  1.00  0.00     0.031 C 
BRANCH   3   4
ATOM      4  C   UNL     1      14.864   5.703  15.893  1.00  0.00     0.009 C 
BRANCH   4   5
ATOM      5  C   UNL     1      14.404   6.501  17.139  1.00  0.00     0.030 C 
BRANCH   5   6
ATOM      6  C   UNL     1      13.052   6.116  17.724  1.00  0.00    -0.077 C 
ATOM      7  C   UNL     1      11.908   5.844  16.777  1.00  0.00     0.039 C 
ATOM      8  C   UNL     1      12.806   6.002  19.051  1.00  0.00    -0.027 CG0
ATOM      9  G   UNL     1      13.821   6.189  20.163  1.00  0.00     0.000 G0
ENDBRANCH   5   6
ENDBRANCH   4   5
ENDBRANCH   3   4
ENDBRANCH   1   3
BRANCH   1  10
ATOM     10  C   UNL     1      15.363   3.247  18.536  1.00  0.00     0.057 C 
BRANCH  10  11
ATOM     11  C   UNL     1      16.046   3.685  19.807  1.00  0.00    -0.026 C 
ATOM     12  C   UNL     1      15.511   4.363  20.848  1.00  0.00    -0.024 C 
BRANCH  12  13
ATOM     13  C   UNL     1      14.086   4.915  21.025  1.00  0.00    -0.014 C 
ATOM     14  C   UNL     1      13.032   3.832  20.696  1.00  0.00     0.016 C 
ATOM     15  C   UNL     1      13.895   5.262  22.525  1.00  0.00     0.016 C 
BRANCH  13  16
ATOM     16  C   UNL     1      13.833   6.202  20.175  1.00  0.00     0.038 CG0
ATOM     17  G   UNL     1      12.807   5.999  19.077  1.00  0.00     0.000 G0
ENDBRANCH  13  16
ENDBRANCH  12  13
ENDBRANCH  10  11
ENDBRANCH   1  10
TORSDOF 0
ENDMDL
MODEL 9
REMARK VINA RESULT:    -2.453     12.961     15.269
REMARK INTER + INTRA:          -2.886
REMARK INTER:                  -3.554
REMARK INTRA:                   0.668
REMARK UNBOUND:                 0.714
REMARK SMILES C=C1CC=CC(C)(C)CC=C(C)CCC1
REMARK SMILES IDX 2 1 1 2 15 3 14 4 13 5 11 6 12 7 10 8 3 10 4 11 5 12 6 13
REMARK SMILES IDX 7 14 8 15 9 16
REMARK H PARENT
REMARK Flexibility Score: 60.00
ROOT
ATOM      1  C   UNL     1      12.315   9.283  34.019  1.00  0.00    -0.074 C 
ATOM      2  C   UNL     1      11.570  10.004  34.872  1.00  0.00     0.008 C 
ENDROOT
BRANCH   1   3
ATOM      3  C   UNL     1      13.805   9.132  34.253  1.00  0.00     0.031 C 
BRANCH   3   4
ATOM      4  C   UNL     1      14.168   7.674  34.625  1.00  0.00     0.009 C 
BRANCH   4   5
ATOM      5  C   UNL     1      15.132   6.942  33.658  1.00  0.00     0.030 C 
BRANCH   5   6
ATOM      6  C   UNL     1      14.832   5.473  33.393  1.00  0.00    -0.077 C 
ATOM      7  C   UNL     1      15.489   4.433  34.270  1.00  0.00     0.039 C 
ATOM      8  C   UNL     1      14.006   5.033  32.413  1.00  0.00    -0.027 CG0
ATOM      9  G   UNL     1      13.218   5.907  31.456  1.00  0.00     0.000 G0
ENDBRANCH   5   6
ENDBRANCH   4   5
ENDBRANCH   3   4
ENDBRANCH   1   3
BRANCH   1  10
ATOM     10  C   UNL     1      11.663   8.551  32.862  1.00  0.00     0.057 C 
BRANCH  10  11
ATOM     11  C   UNL     1      10.996   7.286  33.338  1.00  0.00    -0.026 C 
ATOM     12  C   UNL     1      11.020   6.063  32.758  1.00  0.00    -0.024 C 
BRANCH  12  13
ATOM     13  C   UNL     1      11.687   5.618  31.446  1.00  0.00    -0.014 C 
ATOM     14  C   UNL     1      11.405   4.123  31.164  1.00  0.00     0.016 C 
ATOM     15  C   UNL     1      11.026   6.408  30.286  1.00  0.00     0.016 C 
BRANCH  13  16
ATOM     16  C   UNL     1      13.224   5.897  31.431  1.00  0.00     0.038 CG0
ATOM     17  G   UNL     1      13.997   5.032  32.409  1.00  0.00     0.000 G0
ENDBRANCH  13  16
ENDBRANCH  12  13
ENDBRANCH  10  11
ENDBRANCH   1  10
TORSDOF 0
ENDMDL
