MODEL 1
REMARK VINA RESULT:    -2.915      0.000      0.000
REMARK INTER + INTRA:          -3.281
REMARK INTER:                  -3.256
REMARK INTRA:                  -0.026
REMARK UNBOUND:                -0.026
REMARK SMILES CCCC(=O)[O-]
REMARK SMILES IDX 3 1 4 2 5 3 6 4 2 5 1 6
REMARK H PARENT
REMARK Flexibility Score: inf
ROOT
ATOM      1  C   UNL     1      42.563   5.900 127.217  1.00  0.00     0.052 C 
ENDROOT
BRANCH   1   2
ATOM      2  C   UNL     1      43.944   5.458 126.846  1.00  0.00     0.041 C 
ATOM      3  O   UNL     1      44.520   5.958 125.844  1.00  0.00    -0.550 OA
ATOM      4  O   UNL     1      44.575   4.460 127.576  1.00  0.00    -0.550 OA
ENDBRANCH   1   2
BRANCH   1   5
ATOM      5  C   UNL     1      42.540   6.430 128.653  1.00  0.00     0.003 C 
ATOM      6  C   UNL     1      43.639   7.466 128.876  1.00  0.00     0.004 C 
ENDBRANCH   1   5
TORSDOF 2
ENDMDL
MODEL 2
REMARK VINA RESULT:    -2.896      1.857      2.934
REMARK INTER + INTRA:          -3.260
REMARK INTER:                  -3.229
REMARK INTRA:                  -0.031
REMARK UNBOUND:                -0.026
REMARK SMILES CCCC(=O)[O-]
REMARK SMILES IDX 3 1 4 2 5 3 6 4 2 5 1 6
REMARK H PARENT
REMARK Flexibility Score: inf
ROOT
ATOM      1  C   UNL     1      42.423   6.211 127.807  1.00  0.00     0.052 C 
ENDROOT
BRANCH   1   2
ATOM      2  C   UNL     1      43.520   6.659 128.722  1.00  0.00     0.041 C 
ATOM      3  O   UNL     1      43.638   6.147 129.866  1.00  0.00    -0.550 OA
ATOM      4  O   UNL     1      44.380   7.675 128.329  1.00  0.00    -0.550 OA
ENDBRANCH   1   2
BRANCH   1   5
ATOM      5  C   UNL     1      43.002   5.714 126.480  1.00  0.00     0.003 C 
ATOM      6  C   UNL     1      44.099   4.679 126.711  1.00  0.00     0.004 C 
ENDBRANCH   1   5
TORSDOF 2
ENDMDL
MODEL 3
REMARK VINA RESULT:    -2.796      1.686      2.664
REMARK INTER + INTRA:          -3.149
REMARK INTER:                  -3.080
REMARK INTRA:                  -0.069
REMARK UNBOUND:                -0.026
REMARK SMILES CCCC(=O)[O-]
REMARK SMILES IDX 3 1 4 2 5 3 6 4 2 5 1 6
REMARK H PARENT
REMARK Flexibility Score: inf
ROOT
ATOM      1  C   UNL     1      43.641   7.179 128.658  1.00  0.00     0.052 C 
ENDROOT
BRANCH   1   2
ATOM      2  C   UNL     1      44.771   6.260 129.005  1.00  0.00     0.041 C 
ATOM      3  O   UNL     1      44.617   5.373 129.886  1.00  0.00    -0.550 OA
ATOM      4  O   UNL     1      46.006   6.415 128.391  1.00  0.00    -0.550 OA
ENDBRANCH   1   2
BRANCH   1   5
ATOM      5  C   UNL     1      42.461   6.386 128.093  1.00  0.00     0.003 C 
ATOM      6  C   UNL     1      42.858   5.636 126.825  1.00  0.00     0.004 C 
ENDBRANCH   1   5
TORSDOF 2
ENDMDL
MODEL 4
REMARK VINA RESULT:    -2.796      1.947      2.553
REMARK INTER + INTRA:          -3.149
REMARK INTER:                  -3.080
REMARK INTRA:                  -0.069
REMARK UNBOUND:                -0.026
REMARK SMILES CCCC(=O)[O-]
REMARK SMILES IDX 3 1 4 2 5 3 6 4 2 5 1 6
REMARK H PARENT
REMARK Flexibility Score: inf
ROOT
ATOM      1  C   UNL     1      44.941   5.323 127.509  1.00  0.00     0.052 C 
ENDROOT
BRANCH   1   2
ATOM      2  C   UNL     1      45.370   6.757 127.471  1.00  0.00     0.041 C 
ATOM      3  O   UNL     1      45.857   7.244 126.417  1.00  0.00    -0.550 OA
ATOM      4  O   UNL     1      45.276   7.540 128.614  1.00  0.00    -0.550 OA
ENDBRANCH   1   2
BRANCH   1   5
ATOM      5  C   UNL     1      43.714   5.108 126.620  1.00  0.00     0.003 C 
ATOM      6  C   UNL     1      42.495   5.839 127.177  1.00  0.00     0.004 C 
ENDBRANCH   1   5
TORSDOF 2
ENDMDL
MODEL 5
REMARK VINA RESULT:    -2.714      6.402      6.979
REMARK INTER + INTRA:          -3.057
REMARK INTER:                  -3.028
REMARK INTRA:                  -0.029
REMARK UNBOUND:                -0.026
REMARK SMILES CCCC(=O)[O-]
REMARK SMILES IDX 3 1 4 2 5 3 6 4 2 5 1 6
REMARK H PARENT
REMARK Flexibility Score: inf
ROOT
ATOM      1  C   UNL     1      45.891   4.080 133.568  1.00  0.00     0.052 C 
ENDROOT
BRANCH   1   2
ATOM      2  C   UNL     1      46.424   3.859 132.187  1.00  0.00     0.041 C 
ATOM      3  O   UNL     1      47.487   3.207 132.016  1.00  0.00    -0.550 OA
ATOM      4  O   UNL     1      45.772   4.415 131.094  1.00  0.00    -0.550 OA
ENDBRANCH   1   2
BRANCH   1   5
ATOM      5  C   UNL     1      45.816   2.756 134.331  1.00  0.00     0.003 C 
ATOM      6  C   UNL     1      46.396   2.895 135.736  1.00  0.00     0.004 C 
ENDBRANCH   1   5
TORSDOF 2
ENDMDL
MODEL 6
REMARK VINA RESULT:    -2.710      6.291      6.903
REMARK INTER + INTRA:          -3.052
REMARK INTER:                  -2.982
REMARK INTRA:                  -0.069
REMARK UNBOUND:                -0.026
REMARK SMILES CCCC(=O)[O-]
REMARK SMILES IDX 3 1 4 2 5 3 6 4 2 5 1 6
REMARK H PARENT
REMARK Flexibility Score: inf
ROOT
ATOM      1  C   UNL     1      46.438  11.608 124.074  1.00  0.00     0.052 C 
ENDROOT
BRANCH   1   2
ATOM      2  C   UNL     1      46.836  10.189 123.808  1.00  0.00     0.041 C 
ATOM      3  O   UNL     1      46.443   9.268 124.572  1.00  0.00    -0.550 OA
ATOM      4  O   UNL     1      47.680   9.892 122.746  1.00  0.00    -0.550 OA
ENDBRANCH   1   2
BRANCH   1   5
ATOM      5  C   UNL     1      44.914  11.740 124.100  1.00  0.00     0.003 C 
ATOM      6  C   UNL     1      44.321  11.542 122.708  1.00  0.00     0.004 C 
ENDBRANCH   1   5
TORSDOF 2
ENDMDL
MODEL 7
REMARK VINA RESULT:    -2.662      6.857      7.440
REMARK INTER + INTRA:          -2.999
REMARK INTER:                  -2.958
REMARK INTRA:                  -0.041
REMARK UNBOUND:                -0.026
REMARK SMILES CCCC(=O)[O-]
REMARK SMILES IDX 3 1 4 2 5 3 6 4 2 5 1 6
REMARK H PARENT
REMARK Flexibility Score: inf
ROOT
ATOM      1  C   UNL     1      46.081   2.612 133.089  1.00  0.00     0.052 C 
ENDROOT
BRANCH   1   2
ATOM      2  C   UNL     1      44.812   1.886 132.766  1.00  0.00     0.041 C 
ATOM      3  O   UNL     1      44.843   0.666 132.455  1.00  0.00    -0.550 OA
ATOM      4  O   UNL     1      43.603   2.569 132.761  1.00  0.00    -0.550 OA
ENDBRANCH   1   2
BRANCH   1   5
ATOM      5  C   UNL     1      45.860   3.584 134.250  1.00  0.00     0.003 C 
ATOM      6  C   UNL     1      46.230   2.941 135.584  1.00  0.00     0.004 C 
ENDBRANCH   1   5
TORSDOF 2
ENDMDL
MODEL 8
REMARK VINA RESULT:    -2.615      2.194      2.723
REMARK INTER + INTRA:          -2.946
REMARK INTER:                  -2.917
REMARK INTRA:                  -0.029
REMARK UNBOUND:                -0.026
REMARK SMILES CCCC(=O)[O-]
REMARK SMILES IDX 3 1 4 2 5 3 6 4 2 5 1 6
REMARK H PARENT
REMARK Flexibility Score: inf
ROOT
ATOM      1  C   UNL     1      44.740   4.827 128.119  1.00  0.00     0.052 C 
ENDROOT
BRANCH   1   2
ATOM      2  C   UNL     1      43.972   5.495 127.021  1.00  0.00     0.041 C 
ATOM      3  O   UNL     1      44.580   5.999 126.040  1.00  0.00    -0.550 OA
ATOM      4  O   UNL     1      42.591   5.602 127.105  1.00  0.00    -0.550 OA
ENDBRANCH   1   2
BRANCH   1   5
ATOM      5  C   UNL     1      46.241   4.877 127.830  1.00  0.00     0.003 C 
ATOM      6  C   UNL     1      47.012   5.452 129.015  1.00  0.00     0.004 C 
ENDBRANCH   1   5
TORSDOF 2
ENDMDL
MODEL 9
REMARK VINA RESULT:    -2.595      5.945      6.621
REMARK INTER + INTRA:          -2.924
REMARK INTER:                  -2.918
REMARK INTRA:                  -0.006
REMARK UNBOUND:                -0.026
REMARK SMILES CCCC(=O)[O-]
REMARK SMILES IDX 3 1 4 2 5 3 6 4 2 5 1 6
REMARK H PARENT
REMARK Flexibility Score: inf
ROOT
ATOM      1  C   UNL     1      43.746   2.160 132.815  1.00  0.00     0.052 C 
ENDROOT
BRANCH   1   2
ATOM      2  C   UNL     1      44.978   2.899 132.394  1.00  0.00     0.041 C 
ATOM      3  O   UNL     1      44.885   3.912 131.651  1.00  0.00    -0.550 OA
ATOM      4  O   UNL     1      46.230   2.440 132.780  1.00  0.00    -0.550 OA
ENDBRANCH   1   2
BRANCH   1   5
ATOM      5  C   UNL     1      43.614   0.851 132.033  1.00  0.00     0.003 C 
ATOM      6  C   UNL     1      42.164   0.374 132.000  1.00  0.00     0.004 C 
ENDBRANCH   1   5
TORSDOF 2
ENDMDL
