MODEL 1
REMARK VINA RESULT:    -4.902      0.000      0.000
REMARK INTER + INTRA:         -15.439
REMARK INTER:                 -12.353
REMARK INTRA:                  -3.086
REMARK UNBOUND:                -3.086
REMARK SMILES CCCCCCCCCCCCCCCCCCCCCCCCCCCC(=O)[O-]
REMARK SMILES IDX 15 1 16 2 17 3 18 4 19 5 20 6 21 7 22 8 23 9 24 10 25 11
REMARK SMILES IDX 26 12 27 13 28 14 29 15 30 16 14 17 13 18 12 19 11 20 10 21
REMARK SMILES IDX 9 22 8 23 7 24 6 25 5 26 4 27 3 28 2 29 1 30
REMARK H PARENT
REMARK Flexibility Score: inf
ROOT
ATOM      1  C   UNL     1     100.564  97.904  91.657  1.00  0.00     0.000 C 
ENDROOT
BRANCH   1   2
ATOM      2  C   UNL     1     100.491  96.375  91.491  1.00  0.00     0.000 C 
BRANCH   2   3
ATOM      3  C   UNL     1     100.086  95.940  90.071  1.00  0.00     0.000 C 
BRANCH   3   4
ATOM      4  C   UNL     1      99.079  94.779  90.062  1.00  0.00     0.000 C 
BRANCH   4   5
ATOM      5  C   UNL     1      99.522  93.530  89.273  1.00  0.00     0.000 C 
BRANCH   5   6
ATOM      6  C   UNL     1     100.926  93.605  88.638  1.00  0.00     0.000 C 
BRANCH   6   7
ATOM      7  C   UNL     1     102.016  92.812  89.390  1.00  0.00     0.000 C 
BRANCH   7   8
ATOM      8  C   UNL     1     102.958  93.695  90.232  1.00  0.00     0.000 C 
BRANCH   8   9
ATOM      9  C   UNL     1     103.686  94.796  89.442  1.00  0.00     0.000 C 
BRANCH   9  10
ATOM     10  C   UNL     1     105.175  94.972  89.804  1.00  0.00     0.000 C 
BRANCH  10  11
ATOM     11  C   UNL     1     105.447  95.899  91.007  1.00  0.00     0.000 C 
BRANCH  11  12
ATOM     12  C   UNL     1     104.642  97.214  91.018  1.00  0.00     0.006 C 
BRANCH  12  13
ATOM     13  C   UNL     1     104.246  97.713  92.417  1.00  0.00     0.053 C 
BRANCH  13  14
ATOM     14  C   UNL     1     105.315  98.556  93.041  1.00  0.00     0.041 C 
ATOM     15  O   UNL     1     105.284  98.816  94.273  1.00  0.00    -0.550 OA
ATOM     16  O   UNL     1     106.358  99.045  92.262  1.00  0.00    -0.550 OA
ENDBRANCH  13  14
ENDBRANCH  12  13
ENDBRANCH  11  12
ENDBRANCH  10  11
ENDBRANCH   9  10
ENDBRANCH   8   9
ENDBRANCH   7   8
ENDBRANCH   6   7
ENDBRANCH   5   6
ENDBRANCH   4   5
ENDBRANCH   3   4
ENDBRANCH   2   3
ENDBRANCH   1   2
BRANCH   1  17
ATOM     17  C   UNL     1      99.394  98.691  91.041  1.00  0.00     0.000 C 
BRANCH  17  18
ATOM     18  C   UNL     1      98.595  99.505  92.074  1.00  0.00     0.000 C 
BRANCH  18  19
ATOM     19  C   UNL     1      98.164 100.880  91.536  1.00  0.00     0.000 C 
BRANCH  19  20
ATOM     20  C   UNL     1      96.642 101.087  91.574  1.00  0.00     0.000 C 
BRANCH  20  21
ATOM     21  C   UNL     1      95.993 100.637  90.255  1.00  0.00     0.000 C 
BRANCH  21  22
ATOM     22  C   UNL     1      94.627  99.964  90.471  1.00  0.00    -0.000 C 
BRANCH  22  23
ATOM     23  C   UNL     1      94.147 100.068  91.928  1.00  0.00    -0.000 C 
BRANCH  23  24
ATOM     24  C   UNL     1      92.800 100.799  92.066  1.00  0.00    -0.000 C 
BRANCH  24  25
ATOM     25  C   UNL     1      92.859 102.326  91.881  1.00  0.00    -0.000 C 
BRANCH  25  26
ATOM     26  C   UNL     1      92.325 102.785  90.513  1.00  0.00    -0.000 C 
BRANCH  26  27
ATOM     27  C   UNL     1      93.353 103.608  89.712  1.00  0.00    -0.000 C 
BRANCH  27  28
ATOM     28  C   UNL     1      94.620 104.019  90.491  1.00  0.00    -0.000 C 
BRANCH  28  29
ATOM     29  C   UNL     1      95.826 104.403  89.616  1.00  0.00    -0.003 C 
ATOM     30  C   UNL     1      95.825 105.878  89.217  1.00  0.00     0.004 C 
ENDBRANCH  28  29
ENDBRANCH  27  28
ENDBRANCH  26  27
ENDBRANCH  25  26
ENDBRANCH  24  25
ENDBRANCH  23  24
ENDBRANCH  22  23
ENDBRANCH  21  22
ENDBRANCH  20  21
ENDBRANCH  19  20
ENDBRANCH  18  19
ENDBRANCH  17  18
ENDBRANCH   1  17
TORSDOF 26
ENDMDL
MODEL 2
REMARK VINA RESULT:    -4.870      3.639     10.006
REMARK INTER + INTRA:         -15.359
REMARK INTER:                 -11.233
REMARK INTRA:                  -4.126
REMARK UNBOUND:                -3.086
REMARK SMILES CCCCCCCCCCCCCCCCCCCCCCCCCCCC(=O)[O-]
REMARK SMILES IDX 15 1 16 2 17 3 18 4 19 5 20 6 21 7 22 8 23 9 24 10 25 11
REMARK SMILES IDX 26 12 27 13 28 14 29 15 30 16 14 17 13 18 12 19 11 20 10 21
REMARK SMILES IDX 9 22 8 23 7 24 6 25 5 26 4 27 3 28 2 29 1 30
REMARK H PARENT
REMARK Flexibility Score: inf
ROOT
ATOM      1  C   UNL     1     103.205  94.564  91.242  1.00  0.00     0.000 C 
ENDROOT
BRANCH   1   2
ATOM      2  C   UNL     1     103.132  93.696  89.971  1.00  0.00     0.000 C 
BRANCH   2   3
ATOM      3  C   UNL     1     101.797  93.835  89.220  1.00  0.00     0.000 C 
BRANCH   3   4
ATOM      4  C   UNL     1     100.931  94.994  89.739  1.00  0.00     0.000 C 
BRANCH   4   5
ATOM      5  C   UNL     1     100.986  96.284  88.897  1.00  0.00     0.000 C 
BRANCH   5   6
ATOM      6  C   UNL     1     100.719  97.595  89.665  1.00  0.00     0.000 C 
BRANCH   6   7
ATOM      7  C   UNL     1     100.750  97.458  91.203  1.00  0.00     0.000 C 
BRANCH   7   8
ATOM      8  C   UNL     1      99.417  97.821  91.886  1.00  0.00     0.000 C 
BRANCH   8   9
ATOM      9  C   UNL     1      99.188  99.328  92.094  1.00  0.00     0.000 C 
BRANCH   9  10
ATOM     10  C   UNL     1      97.709  99.765  92.068  1.00  0.00     0.000 C 
BRANCH  10  11
ATOM     11  C   UNL     1      97.481 101.281  91.893  1.00  0.00     0.000 C 
BRANCH  11  12
ATOM     12  C   UNL     1      97.000 101.715  90.494  1.00  0.00     0.006 C 
BRANCH  12  13
ATOM     13  C   UNL     1      95.770 102.636  90.495  1.00  0.00     0.053 C 
BRANCH  13  14
ATOM     14  C   UNL     1      94.793 102.274  91.572  1.00  0.00     0.041 C 
ATOM     15  O   UNL     1      94.557 103.076  92.514  1.00  0.00    -0.550 OA
ATOM     16  O   UNL     1      94.130 101.052  91.527  1.00  0.00    -0.550 OA
ENDBRANCH  13  14
ENDBRANCH  12  13
ENDBRANCH  11  12
ENDBRANCH  10  11
ENDBRANCH   9  10
ENDBRANCH   8   9
ENDBRANCH   7   8
ENDBRANCH   6   7
ENDBRANCH   5   6
ENDBRANCH   4   5
ENDBRANCH   3   4
ENDBRANCH   2   3
ENDBRANCH   1   2
BRANCH   1  17
ATOM     17  C   UNL     1     104.564  95.235  91.505  1.00  0.00     0.000 C 
BRANCH  17  18
ATOM     18  C   UNL     1     105.552  95.091  90.333  1.00  0.00     0.000 C 
BRANCH  18  19
ATOM     19  C   UNL     1     105.767  96.413  89.577  1.00  0.00     0.000 C 
BRANCH  19  20
ATOM     20  C   UNL     1     104.705  96.662  88.495  1.00  0.00     0.000 C 
BRANCH  20  21
ATOM     21  C   UNL     1     104.242  98.127  88.507  1.00  0.00     0.000 C 
BRANCH  21  22
ATOM     22  C   UNL     1     104.234  98.732  89.921  1.00  0.00    -0.000 C 
BRANCH  22  23
ATOM     23  C   UNL     1     105.083 100.010  90.017  1.00  0.00    -0.000 C 
BRANCH  23  24
ATOM     24  C   UNL     1     106.227 100.050  88.988  1.00  0.00    -0.000 C 
BRANCH  24  25
ATOM     25  C   UNL     1     107.619 100.359  89.565  1.00  0.00    -0.000 C 
BRANCH  25  26
ATOM     26  C   UNL     1     108.204  99.190  90.378  1.00  0.00    -0.000 C 
BRANCH  26  27
ATOM     27  C   UNL     1     108.346  99.513  91.878  1.00  0.00    -0.000 C 
BRANCH  27  28
ATOM     28  C   UNL     1     107.978  98.364  92.838  1.00  0.00    -0.000 C 
BRANCH  28  29
ATOM     29  C   UNL     1     106.493  97.959  92.831  1.00  0.00    -0.003 C 
ATOM     30  C   UNL     1     105.588  99.012  93.468  1.00  0.00     0.004 C 
ENDBRANCH  28  29
ENDBRANCH  27  28
ENDBRANCH  26  27
ENDBRANCH  25  26
ENDBRANCH  24  25
ENDBRANCH  23  24
ENDBRANCH  22  23
ENDBRANCH  21  22
ENDBRANCH  20  21
ENDBRANCH  19  20
ENDBRANCH  18  19
ENDBRANCH  17  18
ENDBRANCH   1  17
TORSDOF 26
ENDMDL
MODEL 3
REMARK VINA RESULT:    -4.859      4.549     11.127
REMARK INTER + INTRA:         -15.331
REMARK INTER:                 -11.801
REMARK INTRA:                  -3.530
REMARK UNBOUND:                -3.086
REMARK SMILES CCCCCCCCCCCCCCCCCCCCCCCCCCCC(=O)[O-]
REMARK SMILES IDX 15 1 16 2 17 3 18 4 19 5 20 6 21 7 22 8 23 9 24 10 25 11
REMARK SMILES IDX 26 12 27 13 28 14 29 15 30 16 14 17 13 18 12 19 11 20 10 21
REMARK SMILES IDX 9 22 8 23 7 24 6 25 5 26 4 27 3 28 2 29 1 30
REMARK H PARENT
REMARK Flexibility Score: inf
ROOT
ATOM      1  C   UNL     1     103.505  94.461  91.468  1.00  0.00     0.000 C 
ENDROOT
BRANCH   1   2
ATOM      2  C   UNL     1     103.146  95.878  91.951  1.00  0.00     0.000 C 
BRANCH   2   3
ATOM      3  C   UNL     1     101.725  96.312  91.550  1.00  0.00     0.000 C 
BRANCH   3   4
ATOM      4  C   UNL     1     101.527  97.835  91.591  1.00  0.00     0.000 C 
BRANCH   4   5
ATOM      5  C   UNL     1     100.107  98.324  91.240  1.00  0.00     0.000 C 
BRANCH   5   6
ATOM      6  C   UNL     1      99.414  99.190  92.313  1.00  0.00     0.000 C 
BRANCH   6   7
ATOM      7  C   UNL     1      97.973  99.619  91.962  1.00  0.00     0.000 C 
BRANCH   7   8
ATOM      8  C   UNL     1      97.816 101.134  91.727  1.00  0.00     0.000 C 
BRANCH   8   9
ATOM      9  C   UNL     1      96.361 101.619  91.608  1.00  0.00     0.000 C 
BRANCH   9  10
ATOM     10  C   UNL     1      95.379 100.577  91.032  1.00  0.00     0.000 C 
BRANCH  10  11
ATOM     11  C   UNL     1      93.897 100.813  91.387  1.00  0.00     0.000 C 
BRANCH  11  12
ATOM     12  C   UNL     1      93.391 100.055  92.631  1.00  0.00     0.006 C 
BRANCH  12  13
ATOM     13  C   UNL     1      92.391  98.927  92.333  1.00  0.00     0.053 C 
BRANCH  13  14
ATOM     14  C   UNL     1      90.971  99.401  92.387  1.00  0.00     0.041 C 
ATOM     15  O   UNL     1      90.209  99.247  91.396  1.00  0.00    -0.550 OA
ATOM     16  O   UNL     1      90.482 100.000  93.543  1.00  0.00    -0.550 OA
ENDBRANCH  13  14
ENDBRANCH  12  13
ENDBRANCH  11  12
ENDBRANCH  10  11
ENDBRANCH   9  10
ENDBRANCH   8   9
ENDBRANCH   7   8
ENDBRANCH   6   7
ENDBRANCH   5   6
ENDBRANCH   4   5
ENDBRANCH   3   4
ENDBRANCH   2   3
ENDBRANCH   1   2
BRANCH   1  17
ATOM     17  C   UNL     1     104.230  94.391  90.112  1.00  0.00     0.000 C 
BRANCH  17  18
ATOM     18  C   UNL     1     105.494  95.266  90.049  1.00  0.00     0.000 C 
BRANCH  18  19
ATOM     19  C   UNL     1     105.443  96.295  88.908  1.00  0.00     0.000 C 
BRANCH  19  20
ATOM     20  C   UNL     1     104.010  96.707  88.537  1.00  0.00     0.000 C 
BRANCH  20  21
ATOM     21  C   UNL     1     103.836  98.231  88.620  1.00  0.00     0.000 C 
BRANCH  21  22
ATOM     22  C   UNL     1     104.548  98.839  89.840  1.00  0.00    -0.000 C 
BRANCH  22  23
ATOM     23  C   UNL     1     105.380 100.079  89.475  1.00  0.00    -0.000 C 
BRANCH  23  24
ATOM     24  C   UNL     1     106.654  99.737  88.682  1.00  0.00    -0.000 C 
BRANCH  24  25
ATOM     25  C   UNL     1     107.804  99.139  89.513  1.00  0.00    -0.000 C 
BRANCH  25  26
ATOM     26  C   UNL     1     108.139  99.975  90.761  1.00  0.00    -0.000 C 
BRANCH  26  27
ATOM     27  C   UNL     1     108.274  99.121  92.037  1.00  0.00    -0.000 C 
BRANCH  27  28
ATOM     28  C   UNL     1     107.632  97.720  91.965  1.00  0.00    -0.000 C 
BRANCH  28  29
ATOM     29  C   UNL     1     106.242  97.606  92.615  1.00  0.00    -0.003 C 
ATOM     30  C   UNL     1     105.809  98.891  93.319  1.00  0.00     0.004 C 
ENDBRANCH  28  29
ENDBRANCH  27  28
ENDBRANCH  26  27
ENDBRANCH  25  26
ENDBRANCH  24  25
ENDBRANCH  23  24
ENDBRANCH  22  23
ENDBRANCH  21  22
ENDBRANCH  20  21
ENDBRANCH  19  20
ENDBRANCH  18  19
ENDBRANCH  17  18
ENDBRANCH   1  17
TORSDOF 26
ENDMDL
MODEL 4
REMARK VINA RESULT:    -4.856      3.414      9.583
REMARK INTER + INTRA:         -15.323
REMARK INTER:                 -11.203
REMARK INTRA:                  -4.120
REMARK UNBOUND:                -3.086
REMARK SMILES CCCCCCCCCCCCCCCCCCCCCCCCCCCC(=O)[O-]
REMARK SMILES IDX 15 1 16 2 17 3 18 4 19 5 20 6 21 7 22 8 23 9 24 10 25 11
REMARK SMILES IDX 26 12 27 13 28 14 29 15 30 16 14 17 13 18 12 19 11 20 10 21
REMARK SMILES IDX 9 22 8 23 7 24 6 25 5 26 4 27 3 28 2 29 1 30
REMARK H PARENT
REMARK Flexibility Score: inf
ROOT
ATOM      1  C   UNL     1      90.752  97.868  89.618  1.00  0.00     0.000 C 
ENDROOT
BRANCH   1   2
ATOM      2  C   UNL     1      89.936  98.916  90.397  1.00  0.00     0.000 C 
BRANCH   2   3
ATOM      3  C   UNL     1      89.868  98.631  91.908  1.00  0.00     0.000 C 
BRANCH   3   4
ATOM      4  C   UNL     1      90.636  99.663  92.749  1.00  0.00     0.000 C 
BRANCH   4   5
ATOM      5  C   UNL     1      92.168  99.645  92.574  1.00  0.00     0.000 C 
BRANCH   5   6
ATOM      6  C   UNL     1      92.780 100.907  91.929  1.00  0.00     0.000 C 
BRANCH   6   7
ATOM      7  C   UNL     1      91.752 101.977  91.505  1.00  0.00     0.000 C 
BRANCH   7   8
ATOM      8  C   UNL     1      92.295 102.987  90.475  1.00  0.00     0.000 C 
BRANCH   8   9
ATOM      9  C   UNL     1      93.731 103.471  90.742  1.00  0.00     0.000 C 
BRANCH   9  10
ATOM     10  C   UNL     1      94.542 103.811  89.475  1.00  0.00     0.000 C 
BRANCH  10  11
ATOM     11  C   UNL     1      95.406 105.085  89.578  1.00  0.00     0.000 C 
BRANCH  11  12
ATOM     12  C   UNL     1      96.855 104.939  89.072  1.00  0.00     0.006 C 
BRANCH  12  13
ATOM     13  C   UNL     1      97.473 103.548  89.287  1.00  0.00     0.053 C 
BRANCH  13  14
ATOM     14  C   UNL     1      98.966 103.602  89.395  1.00  0.00     0.041 C 
ATOM     15  O   UNL     1      99.683 102.811  88.726  1.00  0.00    -0.550 OA
ATOM     16  O   UNL     1      99.569 104.541  90.225  1.00  0.00    -0.550 OA
ENDBRANCH  13  14
ENDBRANCH  12  13
ENDBRANCH  11  12
ENDBRANCH  10  11
ENDBRANCH   9  10
ENDBRANCH   8   9
ENDBRANCH   7   8
ENDBRANCH   6   7
ENDBRANCH   5   6
ENDBRANCH   4   5
ENDBRANCH   3   4
ENDBRANCH   2   3
ENDBRANCH   1   2
BRANCH   1  17
ATOM     17  C   UNL     1      91.524  98.405  88.400  1.00  0.00     0.000 C 
BRANCH  17  18
ATOM     18  C   UNL     1      91.697  99.934  88.414  1.00  0.00     0.000 C 
BRANCH  18  19
ATOM     19  C   UNL     1      93.145 100.367  88.127  1.00  0.00     0.000 C 
BRANCH  19  20
ATOM     20  C   UNL     1      94.182  99.517  88.878  1.00  0.00     0.000 C 
BRANCH  20  21
ATOM     21  C   UNL     1      95.379 100.373  89.319  1.00  0.00     0.000 C 
BRANCH  21  22
ATOM     22  C   UNL     1      95.996  99.886  90.641  1.00  0.00    -0.000 C 
BRANCH  22  23
ATOM     23  C   UNL     1      96.383 101.048  91.570  1.00  0.00    -0.000 C 
BRANCH  23  24
ATOM     24  C   UNL     1      97.886 101.080  91.900  1.00  0.00    -0.000 C 
BRANCH  24  25
ATOM     25  C   UNL     1      98.736 100.007  91.195  1.00  0.00    -0.000 C 
BRANCH  25  26
ATOM     26  C   UNL     1      99.017  98.784  92.086  1.00  0.00    -0.000 C 
BRANCH  26  27
ATOM     27  C   UNL     1     100.448  98.237  91.919  1.00  0.00    -0.000 C 
BRANCH  27  28
ATOM     28  C   UNL     1     100.565  96.699  91.871  1.00  0.00    -0.000 C 
BRANCH  28  29
ATOM     29  C   UNL     1      99.657  96.009  90.839  1.00  0.00    -0.003 C 
ATOM     30  C   UNL     1      99.794  96.601  89.437  1.00  0.00     0.004 C 
ENDBRANCH  28  29
ENDBRANCH  27  28
ENDBRANCH  26  27
ENDBRANCH  25  26
ENDBRANCH  24  25
ENDBRANCH  23  24
ENDBRANCH  22  23
ENDBRANCH  21  22
ENDBRANCH  20  21
ENDBRANCH  19  20
ENDBRANCH  18  19
ENDBRANCH  17  18
ENDBRANCH   1  17
TORSDOF 26
ENDMDL
MODEL 5
REMARK VINA RESULT:    -4.850      3.641      7.925
REMARK INTER + INTRA:         -15.307
REMARK INTER:                 -11.070
REMARK INTRA:                  -4.237
REMARK UNBOUND:                -3.086
REMARK SMILES CCCCCCCCCCCCCCCCCCCCCCCCCCCC(=O)[O-]
REMARK SMILES IDX 15 1 16 2 17 3 18 4 19 5 20 6 21 7 22 8 23 9 24 10 25 11
REMARK SMILES IDX 26 12 27 13 28 14 29 15 30 16 14 17 13 18 12 19 11 20 10 21
REMARK SMILES IDX 9 22 8 23 7 24 6 25 5 26 4 27 3 28 2 29 1 30
REMARK H PARENT
REMARK Flexibility Score: inf
ROOT
ATOM      1  C   UNL     1     108.716  99.914  91.594  1.00  0.00     0.000 C 
ENDROOT
BRANCH   1   2
ATOM      2  C   UNL     1     108.750  98.398  91.865  1.00  0.00     0.000 C 
BRANCH   2   3
ATOM      3  C   UNL     1     107.736  97.952  92.933  1.00  0.00     0.000 C 
BRANCH   3   4
ATOM      4  C   UNL     1     106.407  98.720  92.859  1.00  0.00     0.000 C 
BRANCH   4   5
ATOM      5  C   UNL     1     105.177  97.870  92.479  1.00  0.00     0.000 C 
BRANCH   5   6
ATOM      6  C   UNL     1     105.475  96.418  92.051  1.00  0.00     0.000 C 
BRANCH   6   7
ATOM      7  C   UNL     1     105.634  96.214  90.529  1.00  0.00     0.000 C 
BRANCH   7   8
ATOM      8  C   UNL     1     105.417  94.759  90.070  1.00  0.00     0.000 C 
BRANCH   8   9
ATOM      9  C   UNL     1     104.083  94.136  90.514  1.00  0.00     0.000 C 
BRANCH   9  10
ATOM     10  C   UNL     1     103.050  93.951  89.383  1.00  0.00     0.000 C 
BRANCH  10  11
ATOM     11  C   UNL     1     102.178  92.683  89.499  1.00  0.00     0.000 C 
BRANCH  11  12
ATOM     12  C   UNL     1     100.814  92.757  88.784  1.00  0.00     0.006 C 
BRANCH  12  13
ATOM     13  C   UNL     1     100.338  94.180  88.453  1.00  0.00     0.053 C 
BRANCH  13  14
ATOM     14  C   UNL     1      99.139  94.578  89.257  1.00  0.00     0.041 C 
ATOM     15  O   UNL     1      98.654  95.735  89.151  1.00  0.00    -0.550 OA
ATOM     16  O   UNL     1      98.544  93.661  90.117  1.00  0.00    -0.550 OA
ENDBRANCH  13  14
ENDBRANCH  12  13
ENDBRANCH  11  12
ENDBRANCH  10  11
ENDBRANCH   9  10
ENDBRANCH   8   9
ENDBRANCH   7   8
ENDBRANCH   6   7
ENDBRANCH   5   6
ENDBRANCH   4   5
ENDBRANCH   3   4
ENDBRANCH   2   3
ENDBRANCH   1   2
BRANCH   1  17
ATOM     17  C   UNL     1     108.577 100.316  90.115  1.00  0.00     0.000 C 
BRANCH  17  18
ATOM     18  C   UNL     1     108.351  99.118  89.176  1.00  0.00     0.000 C 
BRANCH  18  19
ATOM     19  C   UNL     1     106.875  98.949  88.779  1.00  0.00     0.000 C 
BRANCH  19  20
ATOM     20  C   UNL     1     106.028 100.195  89.083  1.00  0.00     0.000 C 
BRANCH  20  21
ATOM     21  C   UNL     1     104.667  99.803  89.677  1.00  0.00     0.000 C 
BRANCH  21  22
ATOM     22  C   UNL     1     103.910  98.791  88.799  1.00  0.00    -0.000 C 
BRANCH  22  23
ATOM     23  C   UNL     1     102.395  98.807  89.060  1.00  0.00    -0.000 C 
BRANCH  23  24
ATOM     24  C   UNL     1     101.837  97.425  89.443  1.00  0.00    -0.000 C 
BRANCH  24  25
ATOM     25  C   UNL     1     101.855  97.103  90.948  1.00  0.00    -0.000 C 
BRANCH  25  26
ATOM     26  C   UNL     1     101.071  98.126  91.789  1.00  0.00    -0.000 C 
BRANCH  26  27
ATOM     27  C   UNL     1      99.591  98.235  91.376  1.00  0.00    -0.000 C 
BRANCH  27  28
ATOM     28  C   UNL     1      98.681  98.985  92.372  1.00  0.00    -0.000 C 
BRANCH  28  29
ATOM     29  C   UNL     1      97.644  99.922  91.728  1.00  0.00    -0.003 C 
ATOM     30  C   UNL     1      98.072 101.388  91.751  1.00  0.00     0.004 C 
ENDBRANCH  28  29
ENDBRANCH  27  28
ENDBRANCH  26  27
ENDBRANCH  25  26
ENDBRANCH  24  25
ENDBRANCH  23  24
ENDBRANCH  22  23
ENDBRANCH  21  22
ENDBRANCH  20  21
ENDBRANCH  19  20
ENDBRANCH  18  19
ENDBRANCH  17  18
ENDBRANCH   1  17
TORSDOF 26
ENDMDL
MODEL 6
REMARK VINA RESULT:    -4.796      3.968     10.983
REMARK INTER + INTRA:         -15.172
REMARK INTER:                 -11.919
REMARK INTRA:                  -3.253
REMARK UNBOUND:                -3.086
REMARK SMILES CCCCCCCCCCCCCCCCCCCCCCCCCCCC(=O)[O-]
REMARK SMILES IDX 15 1 16 2 17 3 18 4 19 5 20 6 21 7 22 8 23 9 24 10 25 11
REMARK SMILES IDX 26 12 27 13 28 14 29 15 30 16 14 17 13 18 12 19 11 20 10 21
REMARK SMILES IDX 9 22 8 23 7 24 6 25 5 26 4 27 3 28 2 29 1 30
REMARK H PARENT
REMARK Flexibility Score: inf
ROOT
ATOM      1  C   UNL     1      98.431 100.380  91.949  1.00  0.00     0.000 C 
ENDROOT
BRANCH   1   2
ATOM      2  C   UNL     1      98.485 101.885  91.625  1.00  0.00     0.000 C 
BRANCH   2   3
ATOM      3  C   UNL     1      98.526 102.178  90.115  1.00  0.00     0.000 C 
BRANCH   3   4
ATOM      4  C   UNL     1      99.135 103.550  89.786  1.00  0.00     0.000 C 
BRANCH   4   5
ATOM      5  C   UNL     1      98.145 104.589  89.220  1.00  0.00     0.000 C 
BRANCH   5   6
ATOM      6  C   UNL     1      96.753 104.046  88.837  1.00  0.00     0.000 C 
BRANCH   6   7
ATOM      7  C   UNL     1      95.569 104.787  89.494  1.00  0.00     0.000 C 
BRANCH   7   8
ATOM      8  C   UNL     1      94.375 103.875  89.834  1.00  0.00     0.000 C 
BRANCH   8   9
ATOM      9  C   UNL     1      94.215 103.553  91.330  1.00  0.00     0.000 C 
BRANCH   9  10
ATOM     10  C   UNL     1      94.914 102.257  91.789  1.00  0.00     0.000 C 
BRANCH  10  11
ATOM     11  C   UNL     1      94.959 101.133  90.733  1.00  0.00     0.000 C 
BRANCH  11  12
ATOM     12  C   UNL     1      93.960  99.980  90.959  1.00  0.00     0.006 C 
BRANCH  12  13
ATOM     13  C   UNL     1      93.392  99.893  92.384  1.00  0.00     0.053 C 
BRANCH  13  14
ATOM     14  C   UNL     1      91.908 100.100  92.415  1.00  0.00     0.041 C 
ATOM     15  O   UNL     1      91.134  99.131  92.636  1.00  0.00    -0.550 OA
ATOM     16  O   UNL     1      91.380 101.370  92.216  1.00  0.00    -0.550 OA
ENDBRANCH  13  14
ENDBRANCH  12  13
ENDBRANCH  11  12
ENDBRANCH  10  11
ENDBRANCH   9  10
ENDBRANCH   8   9
ENDBRANCH   7   8
ENDBRANCH   6   7
ENDBRANCH   5   6
ENDBRANCH   4   5
ENDBRANCH   3   4
ENDBRANCH   2   3
ENDBRANCH   1   2
BRANCH   1  17
ATOM     17  C   UNL     1      98.300  99.449  90.730  1.00  0.00     0.000 C 
BRANCH  17  18
ATOM     18  C   UNL     1      99.528  98.545  90.519  1.00  0.00     0.000 C 
BRANCH  18  19
ATOM     19  C   UNL     1     100.062  97.956  91.835  1.00  0.00     0.000 C 
BRANCH  19  20
ATOM     20  C   UNL     1     101.213  96.962  91.622  1.00  0.00     0.000 C 
BRANCH  20  21
ATOM     21  C   UNL     1     102.477  97.681  91.125  1.00  0.00     0.000 C 
BRANCH  21  22
ATOM     22  C   UNL     1     103.770  96.993  91.596  1.00  0.00    -0.000 C 
BRANCH  22  23
ATOM     23  C   UNL     1     104.919  97.153  90.588  1.00  0.00    -0.000 C 
BRANCH  23  24
ATOM     24  C   UNL     1     105.319  95.828  89.917  1.00  0.00    -0.000 C 
BRANCH  24  25
ATOM     25  C   UNL     1     104.175  95.077  89.212  1.00  0.00    -0.000 C 
BRANCH  25  26
ATOM     26  C   UNL     1     103.830  93.739  89.889  1.00  0.00    -0.000 C 
BRANCH  26  27
ATOM     27  C   UNL     1     102.401  93.256  89.571  1.00  0.00    -0.000 C 
BRANCH  27  28
ATOM     28  C   UNL     1     101.383  94.370  89.253  1.00  0.00    -0.000 C 
BRANCH  28  29
ATOM     29  C   UNL     1      99.961  93.880  88.927  1.00  0.00    -0.003 C 
ATOM     30  C   UNL     1      98.895  94.520  89.813  1.00  0.00     0.004 C 
ENDBRANCH  28  29
ENDBRANCH  27  28
ENDBRANCH  26  27
ENDBRANCH  25  26
ENDBRANCH  24  25
ENDBRANCH  23  24
ENDBRANCH  22  23
ENDBRANCH  21  22
ENDBRANCH  20  21
ENDBRANCH  19  20
ENDBRANCH  18  19
ENDBRANCH  17  18
ENDBRANCH   1  17
TORSDOF 26
ENDMDL
MODEL 7
REMARK VINA RESULT:    -4.791      1.444      3.765
REMARK INTER + INTRA:         -15.159
REMARK INTER:                 -11.573
REMARK INTRA:                  -3.587
REMARK UNBOUND:                -3.086
REMARK SMILES CCCCCCCCCCCCCCCCCCCCCCCCCCCC(=O)[O-]
REMARK SMILES IDX 15 1 16 2 17 3 18 4 19 5 20 6 21 7 22 8 23 9 24 10 25 11
REMARK SMILES IDX 26 12 27 13 28 14 29 15 30 16 14 17 13 18 12 19 11 20 10 21
REMARK SMILES IDX 9 22 8 23 7 24 6 25 5 26 4 27 3 28 2 29 1 30
REMARK H PARENT
REMARK Flexibility Score: inf
ROOT
ATOM      1  C   UNL     1      97.552 100.019  91.924  1.00  0.00     0.000 C 
ENDROOT
BRANCH   1   2
ATOM      2  C   UNL     1      98.605  99.052  91.351  1.00  0.00     0.000 C 
BRANCH   2   3
ATOM      3  C   UNL     1      99.860  98.933  92.233  1.00  0.00     0.000 C 
BRANCH   3   4
ATOM      4  C   UNL     1     100.735  97.722  91.873  1.00  0.00     0.000 C 
BRANCH   4   5
ATOM      5  C   UNL     1      99.981  96.383  91.740  1.00  0.00     0.000 C 
BRANCH   5   6
ATOM      6  C   UNL     1     100.028  95.726  90.345  1.00  0.00     0.000 C 
BRANCH   6   7
ATOM      7  C   UNL     1     100.927  96.452  89.321  1.00  0.00     0.000 C 
BRANCH   7   8
ATOM      8  C   UNL     1     102.019  95.555  88.706  1.00  0.00     0.000 C 
BRANCH   8   9
ATOM      9  C   UNL     1     102.057  94.119  89.255  1.00  0.00     0.000 C 
BRANCH   9  10
ATOM     10  C   UNL     1     103.352  93.752  90.010  1.00  0.00     0.000 C 
BRANCH  10  11
ATOM     11  C   UNL     1     103.548  94.476  91.358  1.00  0.00     0.000 C 
BRANCH  11  12
ATOM     12  C   UNL     1     104.656  95.549  91.372  1.00  0.00     0.006 C 
BRANCH  12  13
ATOM     13  C   UNL     1     104.309  96.820  92.164  1.00  0.00     0.053 C 
BRANCH  13  14
ATOM     14  C   UNL     1     104.709  98.067  91.437  1.00  0.00     0.041 C 
ATOM     15  O   UNL     1     103.946  98.573  90.572  1.00  0.00    -0.550 OA
ATOM     16  O   UNL     1     105.923  98.680  91.725  1.00  0.00    -0.550 OA
ENDBRANCH  13  14
ENDBRANCH  12  13
ENDBRANCH  11  12
ENDBRANCH  10  11
ENDBRANCH   9  10
ENDBRANCH   8   9
ENDBRANCH   7   8
ENDBRANCH   6   7
ENDBRANCH   5   6
ENDBRANCH   4   5
ENDBRANCH   3   4
ENDBRANCH   2   3
ENDBRANCH   1   2
BRANCH   1  17
ATOM     17  C   UNL     1      97.979 101.496  91.989  1.00  0.00     0.000 C 
BRANCH  17  18
ATOM     18  C   UNL     1      97.895 102.216  90.632  1.00  0.00     0.000 C 
BRANCH  18  19
ATOM     19  C   UNL     1      96.487 102.151  90.016  1.00  0.00     0.000 C 
BRANCH  19  20
ATOM     20  C   UNL     1      96.007 103.508  89.478  1.00  0.00     0.000 C 
BRANCH  20  21
ATOM     21  C   UNL     1      94.786 104.011  90.263  1.00  0.00     0.000 C 
BRANCH  21  22
ATOM     22  C   UNL     1      93.459 103.492  89.683  1.00  0.00    -0.000 C 
BRANCH  22  23
ATOM     23  C   UNL     1      92.666 102.651  90.697  1.00  0.00    -0.000 C 
BRANCH  23  24
ATOM     24  C   UNL     1      93.420 102.437  92.021  1.00  0.00    -0.000 C 
BRANCH  24  25
ATOM     25  C   UNL     1      93.759 100.974  92.355  1.00  0.00    -0.000 C 
BRANCH  25  26
ATOM     26  C   UNL     1      93.717 100.053  91.122  1.00  0.00    -0.000 C 
BRANCH  26  27
ATOM     27  C   UNL     1      92.623  98.973  91.217  1.00  0.00    -0.000 C 
BRANCH  27  28
ATOM     28  C   UNL     1      91.650  99.120  92.405  1.00  0.00    -0.000 C 
BRANCH  28  29
ATOM     29  C   UNL     1      90.193  99.430  92.019  1.00  0.00    -0.003 C 
ATOM     30  C   UNL     1      89.647 100.677  92.713  1.00  0.00     0.004 C 
ENDBRANCH  28  29
ENDBRANCH  27  28
ENDBRANCH  26  27
ENDBRANCH  25  26
ENDBRANCH  24  25
ENDBRANCH  23  24
ENDBRANCH  22  23
ENDBRANCH  21  22
ENDBRANCH  20  21
ENDBRANCH  19  20
ENDBRANCH  18  19
ENDBRANCH  17  18
ENDBRANCH   1  17
TORSDOF 26
ENDMDL
MODEL 8
REMARK VINA RESULT:    -4.783      1.270      2.484
REMARK INTER + INTRA:         -15.139
REMARK INTER:                 -11.868
REMARK INTRA:                  -3.271
REMARK UNBOUND:                -3.086
REMARK SMILES CCCCCCCCCCCCCCCCCCCCCCCCCCCC(=O)[O-]
REMARK SMILES IDX 15 1 16 2 17 3 18 4 19 5 20 6 21 7 22 8 23 9 24 10 25 11
REMARK SMILES IDX 26 12 27 13 28 14 29 15 30 16 14 17 13 18 12 19 11 20 10 21
REMARK SMILES IDX 9 22 8 23 7 24 6 25 5 26 4 27 3 28 2 29 1 30
REMARK H PARENT
REMARK Flexibility Score: inf
ROOT
ATOM      1  C   UNL     1      98.531  99.614  92.182  1.00  0.00     0.000 C 
ENDROOT
BRANCH   1   2
ATOM      2  C   UNL     1      99.327  98.728  91.205  1.00  0.00     0.000 C 
BRANCH   2   3
ATOM      3  C   UNL     1     100.518  98.014  91.869  1.00  0.00     0.000 C 
BRANCH   3   4
ATOM      4  C   UNL     1     100.387  96.483  91.850  1.00  0.00     0.000 C 
BRANCH   4   5
ATOM      5  C   UNL     1      99.823  95.887  90.543  1.00  0.00     0.000 C 
BRANCH   5   6
ATOM      6  C   UNL     1     100.792  95.872  89.343  1.00  0.00     0.000 C 
BRANCH   6   7
ATOM      7  C   UNL     1     101.627  94.580  89.206  1.00  0.00     0.000 C 
BRANCH   7   8
ATOM      8  C   UNL     1     103.144  94.829  89.104  1.00  0.00     0.000 C 
BRANCH   8   9
ATOM      9  C   UNL     1     103.993  94.058  90.131  1.00  0.00     0.000 C 
BRANCH   9  10
ATOM     10  C   UNL     1     103.650  94.357  91.605  1.00  0.00     0.000 C 
BRANCH  10  11
ATOM     11  C   UNL     1     104.553  95.409  92.282  1.00  0.00     0.000 C 
BRANCH  11  12
ATOM     12  C   UNL     1     104.129  96.876  92.065  1.00  0.00     0.006 C 
BRANCH  12  13
ATOM     13  C   UNL     1     105.175  97.917  92.495  1.00  0.00     0.053 C 
BRANCH  13  14
ATOM     14  C   UNL     1     106.538  97.603  91.960  1.00  0.00     0.041 C 
ATOM     15  O   UNL     1     107.465  97.257  92.740  1.00  0.00    -0.550 OA
ATOM     16  O   UNL     1     106.783  97.677  90.593  1.00  0.00    -0.550 OA
ENDBRANCH  13  14
ENDBRANCH  12  13
ENDBRANCH  11  12
ENDBRANCH  10  11
ENDBRANCH   9  10
ENDBRANCH   8   9
ENDBRANCH   7   8
ENDBRANCH   6   7
ENDBRANCH   5   6
ENDBRANCH   4   5
ENDBRANCH   3   4
ENDBRANCH   2   3
ENDBRANCH   1   2
BRANCH   1  17
ATOM     17  C   UNL     1      98.096 100.981  91.626  1.00  0.00     0.000 C 
BRANCH  17  18
ATOM     18  C   UNL     1      96.569 101.130  91.497  1.00  0.00     0.000 C 
BRANCH  18  19
ATOM     19  C   UNL     1      96.007 100.402  90.264  1.00  0.00     0.000 C 
BRANCH  19  20
ATOM     20  C   UNL     1      94.644  99.744  90.528  1.00  0.00     0.000 C 
BRANCH  20  21
ATOM     21  C   UNL     1      94.084 100.168  91.895  1.00  0.00     0.000 C 
BRANCH  21  22
ATOM     22  C   UNL     1      92.644 100.701  91.801  1.00  0.00    -0.000 C 
BRANCH  22  23
ATOM     23  C   UNL     1      92.327 101.291  90.417  1.00  0.00    -0.000 C 
BRANCH  23  24
ATOM     24  C   UNL     1      92.533 102.815  90.352  1.00  0.00    -0.000 C 
BRANCH  24  25
ATOM     25  C   UNL     1      93.776 103.278  89.573  1.00  0.00    -0.000 C 
BRANCH  25  26
ATOM     26  C   UNL     1      94.636 104.284  90.359  1.00  0.00    -0.000 C 
BRANCH  26  27
ATOM     27  C   UNL     1      95.760 104.907  89.507  1.00  0.00    -0.000 C 
BRANCH  27  28
ATOM     28  C   UNL     1      96.828 103.917  88.998  1.00  0.00    -0.000 C 
BRANCH  28  29
ATOM     29  C   UNL     1      98.232 104.517  88.807  1.00  0.00    -0.003 C 
ATOM     30  C   UNL     1      99.264 103.929  89.767  1.00  0.00     0.004 C 
ENDBRANCH  28  29
ENDBRANCH  27  28
ENDBRANCH  26  27
ENDBRANCH  25  26
ENDBRANCH  24  25
ENDBRANCH  23  24
ENDBRANCH  22  23
ENDBRANCH  21  22
ENDBRANCH  20  21
ENDBRANCH  19  20
ENDBRANCH  18  19
ENDBRANCH  17  18
ENDBRANCH   1  17
TORSDOF 26
ENDMDL
MODEL 9
REMARK VINA RESULT:    -4.705      3.797     10.787
REMARK INTER + INTRA:         -14.941
REMARK INTER:                 -11.808
REMARK INTRA:                  -3.133
REMARK UNBOUND:                -3.086
REMARK SMILES CCCCCCCCCCCCCCCCCCCCCCCCCCCC(=O)[O-]
REMARK SMILES IDX 15 1 16 2 17 3 18 4 19 5 20 6 21 7 22 8 23 9 24 10 25 11
REMARK SMILES IDX 26 12 27 13 28 14 29 15 30 16 14 17 13 18 12 19 11 20 10 21
REMARK SMILES IDX 9 22 8 23 7 24 6 25 5 26 4 27 3 28 2 29 1 30
REMARK H PARENT
REMARK Flexibility Score: inf
ROOT
ATOM      1  C   UNL     1      98.753  99.551  92.045  1.00  0.00     0.000 C 
ENDROOT
BRANCH   1   2
ATOM      2  C   UNL     1      97.433 100.079  91.453  1.00  0.00     0.000 C 
BRANCH   2   3
ATOM      3  C   UNL     1      97.275 101.603  91.591  1.00  0.00     0.000 C 
BRANCH   3   4
ATOM      4  C   UNL     1      98.543 102.377  91.199  1.00  0.00     0.000 C 
BRANCH   4   5
ATOM      5  C   UNL     1      98.654 102.744  89.705  1.00  0.00     0.000 C 
BRANCH   5   6
ATOM      6  C   UNL     1      98.464 104.238  89.369  1.00  0.00     0.000 C 
BRANCH   6   7
ATOM      7  C   UNL     1      97.186 104.559  88.563  1.00  0.00     0.000 C 
BRANCH   7   8
ATOM      8  C   UNL     1      96.130 105.347  89.361  1.00  0.00     0.000 C 
BRANCH   8   9
ATOM      9  C   UNL     1      94.883 104.537  89.755  1.00  0.00     0.000 C 
BRANCH   9  10
ATOM     10  C   UNL     1      94.860 103.089  89.221  1.00  0.00     0.000 C 
BRANCH  10  11
ATOM     11  C   UNL     1      93.741 102.200  89.800  1.00  0.00     0.000 C 
BRANCH  11  12
ATOM     12  C   UNL     1      93.566 102.277  91.331  1.00  0.00     0.006 C 
BRANCH  12  13
ATOM     13  C   UNL     1      93.523 100.915  92.042  1.00  0.00     0.053 C 
BRANCH  13  14
ATOM     14  C   UNL     1      92.121 100.458  92.305  1.00  0.00     0.041 C 
ATOM     15  O   UNL     1      91.907  99.417  92.981  1.00  0.00    -0.550 OA
ATOM     16  O   UNL     1      91.047 101.191  91.814  1.00  0.00    -0.550 OA
ENDBRANCH  13  14
ENDBRANCH  12  13
ENDBRANCH  11  12
ENDBRANCH  10  11
ENDBRANCH   9  10
ENDBRANCH   8   9
ENDBRANCH   7   8
ENDBRANCH   6   7
ENDBRANCH   5   6
ENDBRANCH   4   5
ENDBRANCH   3   4
ENDBRANCH   2   3
ENDBRANCH   1   2
BRANCH   1  17
ATOM     17  C   UNL     1      99.432  98.427  91.242  1.00  0.00     0.000 C 
BRANCH  17  18
ATOM     18  C   UNL     1      99.518  97.095  92.009  1.00  0.00     0.000 C 
BRANCH  18  19
ATOM     19  C   UNL     1     100.279  96.012  91.227  1.00  0.00     0.000 C 
BRANCH  19  20
ATOM     20  C   UNL     1      99.697  95.764  89.827  1.00  0.00     0.000 C 
BRANCH  20  21
ATOM     21  C   UNL     1      98.810  94.510  89.814  1.00  0.00     0.000 C 
BRANCH  21  22
ATOM     22  C   UNL     1      99.398  93.382  88.950  1.00  0.00    -0.000 C 
BRANCH  22  23
ATOM     23  C   UNL     1     100.876  93.621  88.600  1.00  0.00    -0.000 C 
BRANCH  23  24
ATOM     24  C   UNL     1     101.832  92.679  89.352  1.00  0.00    -0.000 C 
BRANCH  24  25
ATOM     25  C   UNL     1     103.144  93.323  89.834  1.00  0.00    -0.000 C 
BRANCH  25  26
ATOM     26  C   UNL     1     103.279  94.797  89.413  1.00  0.00    -0.000 C 
BRANCH  26  27
ATOM     27  C   UNL     1     104.732  95.306  89.467  1.00  0.00    -0.000 C 
BRANCH  27  28
ATOM     28  C   UNL     1     104.916  96.718  90.062  1.00  0.00    -0.000 C 
BRANCH  28  29
ATOM     29  C   UNL     1     103.611  97.495  90.309  1.00  0.00    -0.003 C 
ATOM     30  C   UNL     1     103.378  97.810  91.786  1.00  0.00     0.004 C 
ENDBRANCH  28  29
ENDBRANCH  27  28
ENDBRANCH  26  27
ENDBRANCH  25  26
ENDBRANCH  24  25
ENDBRANCH  23  24
ENDBRANCH  22  23
ENDBRANCH  21  22
ENDBRANCH  20  21
ENDBRANCH  19  20
ENDBRANCH  18  19
ENDBRANCH  17  18
ENDBRANCH   1  17
TORSDOF 26
ENDMDL
