MODEL 1
REMARK VINA RESULT:    -4.461      0.000      0.000
REMARK INTER + INTRA:          -4.886
REMARK INTER:                  -4.852
REMARK INTRA:                  -0.034
REMARK UNBOUND:                -0.034
REMARK SMILES O=C([O-])c1ccc(O)cc1
REMARK SMILES IDX 4 1 5 2 10 3 6 4 9 5 7 6 2 7 1 8 3 9 8 10
REMARK H PARENT 8 11
REMARK Flexibility Score: inf
ROOT
ATOM      1  C   UNL     1      30.361   4.422 -24.651  1.00  0.00    -0.003 A 
ATOM      2  C   UNL     1      29.199   4.215 -25.417  1.00  0.00     0.014 A 
ATOM      3  C   UNL     1      31.611   4.442 -25.297  1.00  0.00     0.014 A 
ATOM      4  C   UNL     1      29.288   4.033 -26.800  1.00  0.00     0.047 A 
ATOM      5  C   UNL     1      31.694   4.260 -26.681  1.00  0.00     0.047 A 
ATOM      6  C   UNL     1      30.536   4.055 -27.436  1.00  0.00     0.115 A 
ENDROOT
BRANCH   1   7
ATOM      7  C   UNL     1      30.265   4.614 -23.187  1.00  0.00     0.071 C 
ATOM      8  O   UNL     1      29.195   5.025 -22.664  1.00  0.00    -0.545 OA
ATOM      9  O   UNL     1      31.355   4.346 -22.368  1.00  0.00    -0.545 OA
ENDBRANCH   1   7
BRANCH   6  10
ATOM     10  O   UNL     1      30.635   3.876 -28.814  1.00  0.00    -0.508 OA
ATOM     11  H   UNL     1      30.693   2.951 -29.225  1.00  0.00     0.293 HD
ENDBRANCH   6  10
TORSDOF 2
ENDMDL
MODEL 2
REMARK VINA RESULT:    -4.396      0.858      1.862
REMARK INTER + INTRA:          -4.816
REMARK INTER:                  -4.780
REMARK INTRA:                  -0.036
REMARK UNBOUND:                -0.034
REMARK SMILES O=C([O-])c1ccc(O)cc1
REMARK SMILES IDX 4 1 5 2 10 3 6 4 9 5 7 6 2 7 1 8 3 9 8 10
REMARK H PARENT 8 11
REMARK Flexibility Score: inf
ROOT
ATOM      1  C   UNL     1      30.245   5.065 -24.669  1.00  0.00    -0.003 A 
ATOM      2  C   UNL     1      31.333   5.461 -25.468  1.00  0.00     0.014 A 
ATOM      3  C   UNL     1      29.235   4.268 -25.238  1.00  0.00     0.014 A 
ATOM      4  C   UNL     1      31.408   5.067 -26.807  1.00  0.00     0.047 A 
ATOM      5  C   UNL     1      29.314   3.876 -26.579  1.00  0.00     0.047 A 
ATOM      6  C   UNL     1      30.399   4.274 -27.366  1.00  0.00     0.115 A 
ENDROOT
BRANCH   1   7
ATOM      7  C   UNL     1      30.168   5.483 -23.252  1.00  0.00     0.071 C 
ATOM      8  O   UNL     1      31.021   6.275 -22.770  1.00  0.00    -0.545 OA
ATOM      9  O   UNL     1      29.154   5.005 -22.431  1.00  0.00    -0.545 OA
ENDBRANCH   1   7
BRANCH   6  10
ATOM     10  O   UNL     1      30.464   3.875 -28.699  1.00  0.00    -0.508 OA
ATOM     11  H   UNL     1      29.636   3.586 -29.207  1.00  0.00     0.293 HD
ENDBRANCH   6  10
TORSDOF 2
ENDMDL
MODEL 3
REMARK VINA RESULT:    -4.379      1.516      4.503
REMARK INTER + INTRA:          -4.797
REMARK INTER:                  -4.762
REMARK INTRA:                  -0.036
REMARK UNBOUND:                -0.034
REMARK SMILES O=C([O-])c1ccc(O)cc1
REMARK SMILES IDX 4 1 5 2 10 3 6 4 9 5 7 6 2 7 1 8 3 9 8 10
REMARK H PARENT 8 11
REMARK Flexibility Score: inf
ROOT
ATOM      1  C   UNL     1      30.184   4.255 -24.977  1.00  0.00    -0.003 A 
ATOM      2  C   UNL     1      31.512   3.877 -24.709  1.00  0.00     0.014 A 
ATOM      3  C   UNL     1      29.352   4.631 -23.906  1.00  0.00     0.014 A 
ATOM      4  C   UNL     1      31.996   3.875 -23.397  1.00  0.00     0.047 A 
ATOM      5  C   UNL     1      29.841   4.628 -22.595  1.00  0.00     0.047 A 
ATOM      6  C   UNL     1      31.162   4.250 -22.337  1.00  0.00     0.115 A 
ENDROOT
BRANCH   1   7
ATOM      7  C   UNL     1      29.674   4.257 -26.365  1.00  0.00     0.071 C 
ATOM      8  O   UNL     1      30.466   4.151 -27.339  1.00  0.00    -0.545 OA
ATOM      9  O   UNL     1      28.312   4.376 -26.616  1.00  0.00    -0.545 OA
ENDBRANCH   1   7
BRANCH   6  10
ATOM     10  O   UNL     1      31.634   4.252 -21.027  1.00  0.00    -0.508 OA
ATOM     11  H   UNL     1      31.254   4.880 -20.328  1.00  0.00     0.293 HD
ENDBRANCH   6  10
TORSDOF 2
ENDMDL
MODEL 4
REMARK VINA RESULT:    -4.374      1.947      4.575
REMARK INTER + INTRA:          -4.792
REMARK INTER:                  -4.757
REMARK INTRA:                  -0.035
REMARK UNBOUND:                -0.034
REMARK SMILES O=C([O-])c1ccc(O)cc1
REMARK SMILES IDX 4 1 5 2 10 3 6 4 9 5 7 6 2 7 1 8 3 9 8 10
REMARK H PARENT 8 11
REMARK Flexibility Score: inf
ROOT
ATOM      1  C   UNL     1      31.299   5.448 -25.019  1.00  0.00    -0.003 A 
ATOM      2  C   UNL     1      31.245   6.500 -24.086  1.00  0.00     0.014 A 
ATOM      3  C   UNL     1      31.476   4.131 -24.554  1.00  0.00     0.014 A 
ATOM      4  C   UNL     1      31.364   6.238 -22.718  1.00  0.00     0.047 A 
ATOM      5  C   UNL     1      31.594   3.875 -23.184  1.00  0.00     0.047 A 
ATOM      6  C   UNL     1      31.539   4.926 -22.263  1.00  0.00     0.115 A 
ENDROOT
BRANCH   1   7
ATOM      7  C   UNL     1      31.173   5.726 -26.466  1.00  0.00     0.071 C 
ATOM      8  O   UNL     1      31.387   6.883 -26.917  1.00  0.00    -0.545 OA
ATOM      9  O   UNL     1      30.816   4.715 -27.350  1.00  0.00    -0.545 OA
ENDBRANCH   1   7
BRANCH   6  10
ATOM     10  O   UNL     1      31.658   4.655 -20.902  1.00  0.00    -0.508 OA
ATOM     11  H   UNL     1      31.982   3.755 -20.567  1.00  0.00     0.293 HD
ENDBRANCH   6  10
TORSDOF 2
ENDMDL
MODEL 5
REMARK VINA RESULT:    -4.338      1.560      1.833
REMARK INTER + INTRA:          -4.753
REMARK INTER:                  -4.725
REMARK INTRA:                  -0.028
REMARK UNBOUND:                -0.034
REMARK SMILES O=C([O-])c1ccc(O)cc1
REMARK SMILES IDX 4 1 5 2 10 3 6 4 9 5 7 6 2 7 1 8 3 9 8 10
REMARK H PARENT 8 11
REMARK Flexibility Score: inf
ROOT
ATOM      1  C   UNL     1      31.128   5.615 -24.132  1.00  0.00    -0.003 A 
ATOM      2  C   UNL     1      31.151   4.256 -24.494  1.00  0.00     0.014 A 
ATOM      3  C   UNL     1      31.217   6.592 -25.141  1.00  0.00     0.014 A 
ATOM      4  C   UNL     1      31.261   3.884 -25.837  1.00  0.00     0.047 A 
ATOM      5  C   UNL     1      31.326   6.215 -26.484  1.00  0.00     0.047 A 
ATOM      6  C   UNL     1      31.348   4.862 -26.835  1.00  0.00     0.115 A 
ENDROOT
BRANCH   1   7
ATOM      7  C   UNL     1      31.012   6.007 -22.710  1.00  0.00     0.071 C 
ATOM      8  O   UNL     1      29.933   5.831 -22.083  1.00  0.00    -0.545 OA
ATOM      9  O   UNL     1      32.091   6.577 -22.047  1.00  0.00    -0.545 OA
ENDBRANCH   1   7
BRANCH   6  10
ATOM     10  O   UNL     1      31.457   4.501 -28.176  1.00  0.00    -0.508 OA
ATOM     11  H   UNL     1      31.641   3.544 -28.454  1.00  0.00     0.293 HD
ENDBRANCH   6  10
TORSDOF 2
ENDMDL
MODEL 6
REMARK VINA RESULT:    -4.271     24.499     25.750
REMARK INTER + INTRA:          -4.680
REMARK INTER:                  -4.643
REMARK INTRA:                  -0.036
REMARK UNBOUND:                -0.034
REMARK SMILES O=C([O-])c1ccc(O)cc1
REMARK SMILES IDX 4 1 5 2 10 3 6 4 9 5 7 6 2 7 1 8 3 9 8 10
REMARK H PARENT 8 11
REMARK Flexibility Score: inf
ROOT
ATOM      1  C   UNL     1      12.914  22.247 -21.678  1.00  0.00    -0.003 A 
ATOM      2  C   UNL     1      13.389  21.038 -21.137  1.00  0.00     0.014 A 
ATOM      3  C   UNL     1      12.304  23.184 -20.823  1.00  0.00     0.014 A 
ATOM      4  C   UNL     1      13.256  20.774 -19.771  1.00  0.00     0.047 A 
ATOM      5  C   UNL     1      12.174  22.915 -19.456  1.00  0.00     0.047 A 
ATOM      6  C   UNL     1      12.648  21.711 -18.927  1.00  0.00     0.115 A 
ENDROOT
BRANCH   1   7
ATOM      7  C   UNL     1      13.055  22.525 -23.124  1.00  0.00     0.071 C 
ATOM      8  O   UNL     1      13.614  21.691 -23.885  1.00  0.00    -0.545 OA
ATOM      9  O   UNL     1      12.575  23.713 -23.663  1.00  0.00    -0.545 OA
ENDBRANCH   1   7
BRANCH   6  10
ATOM     10  O   UNL     1      12.512  21.458 -17.564  1.00  0.00    -0.508 OA
ATOM     11  H   UNL     1      11.688  21.001 -17.190  1.00  0.00     0.293 HD
ENDBRANCH   6  10
TORSDOF 2
ENDMDL
