MODEL 1
REMARK VINA RESULT:    -6.768      0.000      0.000
REMARK INTER + INTRA:          -6.966
REMARK INTER:                  -6.966
REMARK INTRA:                   0.000
REMARK UNBOUND:                 0.000
REMARK SMILES C[C@@H]1CC[C@@]2(OC1)O[C@H]1C[C@@H]3[C@@H]4CC=C5C[C@@H](O)CC[C@@]5(C)[C@@H]4CC[C@@]3(C)[C@H]1[C@H]2C
REMARK SMILES IDX 1 1 2 2 3 3 4 4 5 5 29 6 28 7 9 8 8 9 10 10 11 11 26 12
REMARK SMILES IDX 25 13 24 14 23 15 12 16 13 17 14 18 15 19 21 20 20 21 19 22
REMARK SMILES IDX 17 23 16 24 22 25 27 26 30 27 6 28 7 29 18 30
REMARK H PARENT 18 31
REMARK Flexibility Score: inf
ROOT
ATOM      1  C   UNL     1     -22.945 -10.985   0.042  1.00  0.00     0.010 C 
ATOM      2  C   UNL     1     -22.606 -12.484   0.008  1.00  0.00     0.012 C 
ATOM      3  C   UNL     1     -21.894 -12.874  -1.304  1.00  0.00     0.011 C 
ATOM      4  C   UNL     1     -22.913 -13.208  -2.395  1.00  0.00     0.066 C 
ATOM      5  C   UNL     1     -23.918 -14.315  -1.919  1.00  0.00     0.171 C 
ATOM      6  C   UNL     1     -23.723 -15.674  -2.615  1.00  0.00     0.052 C 
ATOM      7  C   UNL     1     -24.733 -15.708  -3.761  1.00  0.00     0.033 C 
ATOM      8  C   UNL     1     -25.751 -14.640  -3.312  1.00  0.00     0.126 C 
ATOM      9  O   UNL     1     -25.238 -13.893  -2.219  1.00  0.00    -0.346 OA
ATOM     10  C   UNL     1     -26.014 -13.704  -4.503  1.00  0.00     0.037 C 
ATOM     11  C   UNL     1     -24.776 -13.871  -5.356  1.00  0.00     0.002 C 
ATOM     12  C   UNL     1     -24.410 -15.364  -5.267  1.00  0.00    -0.024 C 
ATOM     13  C   UNL     1     -22.965 -15.502  -5.793  1.00  0.00     0.008 C 
ATOM     14  C   UNL     1     -22.831 -14.958  -7.237  1.00  0.00     0.005 C 
ATOM     15  C   UNL     1     -23.306 -13.473  -7.395  1.00  0.00     0.003 C 
ATOM     16  C   UNL     1     -24.707 -13.213  -6.755  1.00  0.00     0.000 C 
ATOM     17  C   UNL     1     -25.921 -13.497  -7.669  1.00  0.00     0.031 C 
ATOM     18  C   UNL     1     -25.624 -13.537  -9.141  1.00  0.00    -0.027 C 
ATOM     19  C   UNL     1     -24.433 -13.236  -9.698  1.00  0.00    -0.065 C 
ATOM     20  C   UNL     1     -23.199 -12.904  -8.866  1.00  0.00    -0.008 C 
ATOM     21  C   UNL     1     -23.093 -11.344  -8.847  1.00  0.00     0.014 C 
ATOM     22  C   UNL     1     -23.137 -10.702 -10.257  1.00  0.00     0.033 C 
ATOM     23  C   UNL     1     -24.346 -11.188 -11.098  1.00  0.00     0.118 C 
ATOM     24  C   UNL     1     -24.437 -12.726 -11.124  1.00  0.00     0.063 C 
ATOM     25  C   UNL     1     -21.922 -13.475  -9.551  1.00  0.00     0.016 C 
ATOM     26  C   UNL     1     -25.328 -16.302  -6.112  1.00  0.00     0.012 C 
ATOM     27  C   UNL     1     -22.293 -16.207  -2.813  1.00  0.00     0.014 C 
ATOM     28  O   UNL     1     -23.810 -14.544  -0.514  1.00  0.00    -0.349 OA
ATOM     29  C   UNL     1     -23.878 -13.336   0.219  1.00  0.00     0.167 C 
ENDROOT
BRANCH  23  30
ATOM     30  O   UNL     1     -25.544 -10.665 -10.583  1.00  0.00    -0.393 OA
ATOM     31  H   UNL     1     -25.358 -10.384  -9.651  1.00  0.00     0.210 HD
ENDBRANCH  23  30
TORSDOF 1
ENDMDL
MODEL 2
REMARK VINA RESULT:    -6.418      1.755      7.614
REMARK INTER + INTRA:          -6.605
REMARK INTER:                  -6.605
REMARK INTRA:                   0.000
REMARK UNBOUND:                 0.000
REMARK SMILES C[C@@H]1CC[C@@]2(OC1)O[C@H]1C[C@@H]3[C@@H]4CC=C5C[C@@H](O)CC[C@@]5(C)[C@@H]4CC[C@@]3(C)[C@H]1[C@H]2C
REMARK SMILES IDX 1 1 2 2 3 3 4 4 5 5 29 6 28 7 9 8 8 9 10 10 11 11 26 12
REMARK SMILES IDX 25 13 24 14 23 15 12 16 13 17 14 18 15 19 21 20 20 21 19 22
REMARK SMILES IDX 17 23 16 24 22 25 27 26 30 27 6 28 7 29 18 30
REMARK H PARENT 18 31
REMARK Flexibility Score: inf
ROOT
ATOM      1  C   UNL     1     -21.899 -10.444 -10.258  1.00  0.00     0.010 C 
ATOM      2  C   UNL     1     -23.107 -11.341 -10.571  1.00  0.00     0.012 C 
ATOM      3  C   UNL     1     -24.149 -11.306  -9.434  1.00  0.00     0.011 C 
ATOM      4  C   UNL     1     -23.815 -12.345  -8.362  1.00  0.00     0.066 C 
ATOM      5  C   UNL     1     -23.668 -13.779  -8.981  1.00  0.00     0.171 C 
ATOM      6  C   UNL     1     -24.811 -14.739  -8.608  1.00  0.00     0.052 C 
ATOM      7  C   UNL     1     -24.306 -15.553  -7.419  1.00  0.00     0.033 C 
ATOM      8  C   UNL     1     -22.779 -15.379  -7.547  1.00  0.00     0.126 C 
ATOM      9  O   UNL     1     -22.472 -14.366  -8.493  1.00  0.00    -0.346 OA
ATOM     10  C   UNL     1     -22.228 -14.985  -6.166  1.00  0.00     0.037 C 
ATOM     11  C   UNL     1     -23.431 -14.387  -5.471  1.00  0.00     0.002 C 
ATOM     12  C   UNL     1     -24.631 -15.249  -5.904  1.00  0.00    -0.024 C 
ATOM     13  C   UNL     1     -25.905 -14.458  -5.538  1.00  0.00     0.008 C 
ATOM     14  C   UNL     1     -25.951 -14.122  -4.027  1.00  0.00     0.005 C 
ATOM     15  C   UNL     1     -24.687 -13.345  -3.518  1.00  0.00     0.003 C 
ATOM     16  C   UNL     1     -23.346 -14.004  -3.974  1.00  0.00     0.000 C 
ATOM     17  C   UNL     1     -22.800 -15.114  -3.048  1.00  0.00     0.031 C 
ATOM     18  C   UNL     1     -23.342 -15.109  -1.646  1.00  0.00    -0.027 C 
ATOM     19  C   UNL     1     -24.155 -14.162  -1.135  1.00  0.00    -0.065 C 
ATOM     20  C   UNL     1     -24.702 -13.011  -1.973  1.00  0.00    -0.008 C 
ATOM     21  C   UNL     1     -23.792 -11.777  -1.668  1.00  0.00     0.014 C 
ATOM     22  C   UNL     1     -23.635 -11.482  -0.154  1.00  0.00     0.033 C 
ATOM     23  C   UNL     1     -23.205 -12.732   0.658  1.00  0.00     0.118 C 
ATOM     24  C   UNL     1     -24.114 -13.940   0.363  1.00  0.00     0.063 C 
ATOM     25  C   UNL     1     -26.156 -12.671  -1.529  1.00  0.00     0.016 C 
ATOM     26  C   UNL     1     -24.706 -16.644  -5.208  1.00  0.00     0.012 C 
ATOM     27  C   UNL     1     -26.259 -14.216  -8.644  1.00  0.00     0.014 C 
ATOM     28  O   UNL     1     -23.612 -13.725 -10.406  1.00  0.00    -0.349 OA
ATOM     29  C   UNL     1     -22.651 -12.790 -10.858  1.00  0.00     0.167 C 
ENDROOT
BRANCH  23  30
ATOM     30  O   UNL     1     -21.875 -13.074   0.364  1.00  0.00    -0.393 OA
ATOM     31  H   UNL     1     -21.361 -12.227   0.324  1.00  0.00     0.210 HD
ENDBRANCH  23  30
TORSDOF 1
ENDMDL
MODEL 3
REMARK VINA RESULT:    -5.756      1.638      1.932
REMARK INTER + INTRA:          -5.925
REMARK INTER:                  -5.925
REMARK INTRA:                   0.000
REMARK UNBOUND:                 0.000
REMARK SMILES C[C@@H]1CC[C@@]2(OC1)O[C@H]1C[C@@H]3[C@@H]4CC=C5C[C@@H](O)CC[C@@]5(C)[C@@H]4CC[C@@]3(C)[C@H]1[C@H]2C
REMARK SMILES IDX 1 1 2 2 3 3 4 4 5 5 29 6 28 7 9 8 8 9 10 10 11 11 26 12
REMARK SMILES IDX 25 13 24 14 23 15 12 16 13 17 14 18 15 19 21 20 20 21 19 22
REMARK SMILES IDX 17 23 16 24 22 25 27 26 30 27 6 28 7 29 18 30
REMARK H PARENT 18 31
REMARK Flexibility Score: inf
ROOT
ATOM      1  C   UNL     1     -25.494 -13.255   0.863  1.00  0.00     0.010 C 
ATOM      2  C   UNL     1     -24.404 -14.331   0.740  1.00  0.00     0.012 C 
ATOM      3  C   UNL     1     -23.471 -14.058  -0.457  1.00  0.00     0.011 C 
ATOM      4  C   UNL     1     -24.041 -14.668  -1.739  1.00  0.00     0.066 C 
ATOM      5  C   UNL     1     -24.338 -16.198  -1.562  1.00  0.00     0.171 C 
ATOM      6  C   UNL     1     -23.381 -17.113  -2.346  1.00  0.00     0.052 C 
ATOM      7  C   UNL     1     -24.098 -17.456  -3.649  1.00  0.00     0.033 C 
ATOM      8  C   UNL     1     -25.567 -17.164  -3.283  1.00  0.00     0.126 C 
ATOM      9  O   UNL     1     -25.643 -16.469  -2.048  1.00  0.00    -0.346 OA
ATOM     10  C   UNL     1     -26.174 -16.301  -4.403  1.00  0.00     0.037 C 
ATOM     11  C   UNL     1     -24.963 -15.652  -5.034  1.00  0.00     0.002 C 
ATOM     12  C   UNL     1     -23.865 -16.732  -5.033  1.00  0.00    -0.024 C 
ATOM     13  C   UNL     1     -22.528 -16.011  -5.305  1.00  0.00     0.008 C 
ATOM     14  C   UNL     1     -22.566 -15.228  -6.641  1.00  0.00     0.005 C 
ATOM     15  C   UNL     1     -23.744 -14.197  -6.730  1.00  0.00     0.003 C 
ATOM     16  C   UNL     1     -25.121 -14.814  -6.326  1.00  0.00     0.000 C 
ATOM     17  C   UNL     1     -25.898 -15.513  -7.464  1.00  0.00     0.031 C 
ATOM     18  C   UNL     1     -25.485 -15.131  -8.857  1.00  0.00    -0.027 C 
ATOM     19  C   UNL     1     -24.593 -14.166  -9.162  1.00  0.00    -0.065 C 
ATOM     20  C   UNL     1     -23.816 -13.402  -8.095  1.00  0.00    -0.008 C 
ATOM     21  C   UNL     1     -24.563 -12.043  -7.901  1.00  0.00     0.014 C 
ATOM     22  C   UNL     1     -24.807 -11.274  -9.226  1.00  0.00     0.033 C 
ATOM     23  C   UNL     1     -25.479 -12.154 -10.312  1.00  0.00     0.118 C 
ATOM     24  C   UNL     1     -24.730 -13.486 -10.507  1.00  0.00     0.063 C 
ATOM     25  C   UNL     1     -22.372 -13.102  -8.597  1.00  0.00     0.016 C 
ATOM     26  C   UNL     1     -24.051 -17.840  -6.117  1.00  0.00     0.012 C 
ATOM     27  C   UNL     1     -21.875 -16.790  -2.339  1.00  0.00     0.014 C 
ATOM     28  O   UNL     1     -24.262 -16.585  -0.191  1.00  0.00    -0.349 OA
ATOM     29  C   UNL     1     -25.036 -15.738   0.637  1.00  0.00     0.167 C 
ENDROOT
BRANCH  23  30
ATOM     30  O   UNL     1     -26.814 -12.423  -9.967  1.00  0.00    -0.393 OA
ATOM     31  H   UNL     1     -26.897 -13.407  -9.881  1.00  0.00     0.210 HD
ENDBRANCH  23  30
TORSDOF 1
ENDMDL
MODEL 4
REMARK VINA RESULT:    -5.595      1.786      2.804
REMARK INTER + INTRA:          -5.758
REMARK INTER:                  -5.758
REMARK INTRA:                   0.000
REMARK UNBOUND:                 0.000
REMARK SMILES C[C@@H]1CC[C@@]2(OC1)O[C@H]1C[C@@H]3[C@@H]4CC=C5C[C@@H](O)CC[C@@]5(C)[C@@H]4CC[C@@]3(C)[C@H]1[C@H]2C
REMARK SMILES IDX 1 1 2 2 3 3 4 4 5 5 29 6 28 7 9 8 8 9 10 10 11 11 26 12
REMARK SMILES IDX 25 13 24 14 23 15 12 16 13 17 14 18 15 19 21 20 20 21 19 22
REMARK SMILES IDX 17 23 16 24 22 25 27 26 30 27 6 28 7 29 18 30
REMARK H PARENT 18 31
REMARK Flexibility Score: inf
ROOT
ATOM      1  C   UNL     1     -27.389 -12.872   1.152  1.00  0.00     0.010 C 
ATOM      2  C   UNL     1     -25.859 -12.908   1.288  1.00  0.00     0.012 C 
ATOM      3  C   UNL     1     -25.167 -12.239   0.083  1.00  0.00     0.011 C 
ATOM      4  C   UNL     1     -24.964 -13.245  -1.052  1.00  0.00     0.066 C 
ATOM      5  C   UNL     1     -24.187 -14.516  -0.558  1.00  0.00     0.171 C 
ATOM      6  C   UNL     1     -22.751 -14.620  -1.104  1.00  0.00     0.052 C 
ATOM      7  C   UNL     1     -22.830 -15.540  -2.321  1.00  0.00     0.033 C 
ATOM      8  C   UNL     1     -24.152 -16.290  -2.060  1.00  0.00     0.126 C 
ATOM      9  O   UNL     1     -24.874 -15.673  -1.005  1.00  0.00    -0.346 OA
ATOM     10  C   UNL     1     -24.984 -16.248  -3.353  1.00  0.00     0.037 C 
ATOM     11  C   UNL     1     -24.434 -15.041  -4.080  1.00  0.00     0.002 C 
ATOM     12  C   UNL     1     -22.917 -15.057  -3.821  1.00  0.00    -0.024 C 
ATOM     13  C   UNL     1     -22.383 -13.662  -4.210  1.00  0.00     0.008 C 
ATOM     14  C   UNL     1     -22.714 -13.316  -5.683  1.00  0.00     0.005 C 
ATOM     15  C   UNL     1     -24.242 -13.404  -6.020  1.00  0.00     0.003 C 
ATOM     16  C   UNL     1     -24.897 -14.733  -5.525  1.00  0.00     0.000 C 
ATOM     17  C   UNL     1     -24.808 -15.925  -6.505  1.00  0.00     0.031 C 
ATOM     18  C   UNL     1     -24.534 -15.563  -7.937  1.00  0.00    -0.027 C 
ATOM     19  C   UNL     1     -24.480 -14.305  -8.420  1.00  0.00    -0.065 C 
ATOM     20  C   UNL     1     -24.601 -13.077  -7.525  1.00  0.00    -0.008 C 
ATOM     21  C   UNL     1     -26.083 -12.594  -7.644  1.00  0.00     0.014 C 
ATOM     22  C   UNL     1     -26.556 -12.399  -9.108  1.00  0.00     0.033 C 
ATOM     23  C   UNL     1     -26.279 -13.640  -9.996  1.00  0.00     0.118 C 
ATOM     24  C   UNL     1     -24.814 -14.103  -9.884  1.00  0.00     0.063 C 
ATOM     25  C   UNL     1     -23.671 -11.941  -8.045  1.00  0.00     0.016 C 
ATOM     26  C   UNL     1     -22.134 -16.126  -4.647  1.00  0.00     0.012 C 
ATOM     27  C   UNL     1     -21.875 -13.354  -1.131  1.00  0.00     0.014 C 
ATOM     28  O   UNL     1     -24.098 -14.547   0.866  1.00  0.00    -0.349 OA
ATOM     29  C   UNL     1     -25.361 -14.360   1.474  1.00  0.00     0.167 C 
ENDROOT
BRANCH  23  30
ATOM     30  O   UNL     1     -27.125 -14.701  -9.633  1.00  0.00    -0.393 OA
ATOM     31  H   UNL     1     -27.430 -15.127 -10.475  1.00  0.00     0.210 HD
ENDBRANCH  23  30
TORSDOF 1
ENDMDL
MODEL 5
REMARK VINA RESULT:    -4.812      2.186      4.354
REMARK INTER + INTRA:          -4.953
REMARK INTER:                  -4.953
REMARK INTRA:                   0.000
REMARK UNBOUND:                 0.000
REMARK SMILES C[C@@H]1CC[C@@]2(OC1)O[C@H]1C[C@@H]3[C@@H]4CC=C5C[C@@H](O)CC[C@@]5(C)[C@@H]4CC[C@@]3(C)[C@H]1[C@H]2C
REMARK SMILES IDX 1 1 2 2 3 3 4 4 5 5 29 6 28 7 9 8 8 9 10 10 11 11 26 12
REMARK SMILES IDX 25 13 24 14 23 15 12 16 13 17 14 18 15 19 21 20 20 21 19 22
REMARK SMILES IDX 17 23 16 24 22 25 27 26 30 27 6 28 7 29 18 30
REMARK H PARENT 18 31
REMARK Flexibility Score: inf
ROOT
ATOM      1  C   UNL     1     -22.584 -18.873   0.713  1.00  0.00     0.010 C 
ATOM      2  C   UNL     1     -23.329 -17.699   1.367  1.00  0.00     0.012 C 
ATOM      3  C   UNL     1     -24.472 -17.182   0.469  1.00  0.00     0.011 C 
ATOM      4  C   UNL     1     -23.953 -16.138  -0.521  1.00  0.00     0.066 C 
ATOM      5  C   UNL     1     -23.211 -14.969   0.217  1.00  0.00     0.171 C 
ATOM      6  C   UNL     1     -23.977 -13.634   0.198  1.00  0.00     0.052 C 
ATOM      7  C   UNL     1     -23.398 -12.833  -0.966  1.00  0.00     0.033 C 
ATOM      8  C   UNL     1     -22.034 -13.523  -1.172  1.00  0.00     0.126 C 
ATOM      9  O   UNL     1     -21.972 -14.733  -0.433  1.00  0.00    -0.346 OA
ATOM     10  C   UNL     1     -21.875 -13.822  -2.672  1.00  0.00     0.037 C 
ATOM     11  C   UNL     1     -23.302 -13.853  -3.173  1.00  0.00     0.002 C 
ATOM     12  C   UNL     1     -24.034 -12.736  -2.408  1.00  0.00    -0.024 C 
ATOM     13  C   UNL     1     -25.546 -12.981  -2.597  1.00  0.00     0.008 C 
ATOM     14  C   UNL     1     -25.935 -13.006  -4.096  1.00  0.00     0.005 C 
ATOM     15  C   UNL     1     -25.126 -14.053  -4.937  1.00  0.00     0.003 C 
ATOM     16  C   UNL     1     -23.586 -13.968  -4.691  1.00  0.00     0.000 C 
ATOM     17  C   UNL     1     -22.824 -12.954  -5.574  1.00  0.00     0.031 C 
ATOM     18  C   UNL     1     -23.535 -12.528  -6.826  1.00  0.00    -0.027 C 
ATOM     19  C   UNL     1     -24.700 -13.045  -7.268  1.00  0.00    -0.065 C 
ATOM     20  C   UNL     1     -25.491 -14.080  -6.475  1.00  0.00    -0.008 C 
ATOM     21  C   UNL     1     -25.140 -15.469  -7.100  1.00  0.00     0.014 C 
ATOM     22  C   UNL     1     -25.328 -15.523  -8.638  1.00  0.00     0.033 C 
ATOM     23  C   UNL     1     -24.606 -14.362  -9.369  1.00  0.00     0.118 C 
ATOM     24  C   UNL     1     -24.967 -12.995  -8.758  1.00  0.00     0.063 C 
ATOM     25  C   UNL     1     -27.019 -13.835  -6.650  1.00  0.00     0.016 C 
ATOM     26  C   UNL     1     -23.708 -11.293  -2.908  1.00  0.00     0.012 C 
ATOM     27  C   UNL     1     -25.493 -13.646   0.467  1.00  0.00     0.014 C 
ATOM     28  O   UNL     1     -22.966 -15.293   1.585  1.00  0.00    -0.349 OA
ATOM     29  C   UNL     1     -22.347 -16.558   1.720  1.00  0.00     0.167 C 
ENDROOT
BRANCH  23  30
ATOM     30  O   UNL     1     -23.214 -14.538  -9.315  1.00  0.00    -0.393 OA
ATOM     31  H   UNL     1     -22.859 -13.843  -8.702  1.00  0.00     0.210 HD
ENDBRANCH  23  30
TORSDOF 1
ENDMDL
MODEL 6
REMARK VINA RESULT:    -4.107      2.612      7.614
REMARK INTER + INTRA:          -4.227
REMARK INTER:                  -4.227
REMARK INTRA:                   0.000
REMARK UNBOUND:                 0.000
REMARK SMILES C[C@@H]1CC[C@@]2(OC1)O[C@H]1C[C@@H]3[C@@H]4CC=C5C[C@@H](O)CC[C@@]5(C)[C@@H]4CC[C@@]3(C)[C@H]1[C@H]2C
REMARK SMILES IDX 1 1 2 2 3 3 4 4 5 5 29 6 28 7 9 8 8 9 10 10 11 11 26 12
REMARK SMILES IDX 25 13 24 14 23 15 12 16 13 17 14 18 15 19 21 20 20 21 19 22
REMARK SMILES IDX 17 23 16 24 22 25 27 26 30 27 6 28 7 29 18 30
REMARK H PARENT 18 31
REMARK Flexibility Score: inf
ROOT
ATOM      1  C   UNL     1     -22.548 -19.732  -9.298  1.00  0.00     0.010 C 
ATOM      2  C   UNL     1     -22.513 -18.425 -10.106  1.00  0.00     0.012 C 
ATOM      3  C   UNL     1     -21.875 -17.276  -9.298  1.00  0.00     0.011 C 
ATOM      4  C   UNL     1     -22.925 -16.570  -8.438  1.00  0.00     0.066 C 
ATOM      5  C   UNL     1     -24.137 -16.078  -9.304  1.00  0.00     0.171 C 
ATOM      6  C   UNL     1     -24.207 -14.549  -9.465  1.00  0.00     0.052 C 
ATOM      7  C   UNL     1     -25.187 -14.059  -8.400  1.00  0.00     0.033 C 
ATOM      8  C   UNL     1     -25.978 -15.345  -8.088  1.00  0.00     0.126 C 
ATOM      9  O   UNL     1     -25.342 -16.474  -8.669  1.00  0.00    -0.346 OA
ATOM     10  C   UNL     1     -26.032 -15.510  -6.560  1.00  0.00     0.037 C 
ATOM     11  C   UNL     1     -24.840 -14.711  -6.082  1.00  0.00     0.002 C 
ATOM     12  C   UNL     1     -24.780 -13.471  -6.993  1.00  0.00    -0.024 C 
ATOM     13  C   UNL     1     -23.385 -12.841  -6.799  1.00  0.00     0.008 C 
ATOM     14  C   UNL     1     -23.124 -12.481  -5.315  1.00  0.00     0.005 C 
ATOM     15  C   UNL     1     -23.291 -13.695  -4.337  1.00  0.00     0.003 C 
ATOM     16  C   UNL     1     -24.621 -14.480  -4.567  1.00  0.00     0.000 C 
ATOM     17  C   UNL     1     -25.854 -13.943  -3.806  1.00  0.00     0.031 C 
ATOM     18  C   UNL     1     -25.550 -13.062  -2.627  1.00  0.00    -0.027 C 
ATOM     19  C   UNL     1     -24.315 -12.816  -2.143  1.00  0.00    -0.065 C 
ATOM     20  C   UNL     1     -23.052 -13.345  -2.813  1.00  0.00    -0.008 C 
ATOM     21  C   UNL     1     -22.636 -14.623  -2.015  1.00  0.00     0.014 C 
ATOM     22  C   UNL     1     -22.532 -14.392  -0.485  1.00  0.00     0.033 C 
ATOM     23  C   UNL     1     -23.801 -13.727   0.107  1.00  0.00     0.118 C 
ATOM     24  C   UNL     1     -24.197 -12.461  -0.676  1.00  0.00     0.063 C 
ATOM     25  C   UNL     1     -21.905 -12.298  -2.695  1.00  0.00     0.016 C 
ATOM     26  C   UNL     1     -25.855 -12.385  -6.671  1.00  0.00     0.012 C 
ATOM     27  C   UNL     1     -22.909 -13.773  -9.755  1.00  0.00     0.014 C 
ATOM     28  O   UNL     1     -24.097 -16.637 -10.617  1.00  0.00    -0.349 OA
ATOM     29  C   UNL     1     -23.933 -18.042 -10.583  1.00  0.00     0.167 C 
ENDROOT
BRANCH  23  30
ATOM     30  O   UNL     1     -24.878 -14.629   0.097  1.00  0.00    -0.393 OA
ATOM     31  H   UNL     1     -25.410 -14.435  -0.716  1.00  0.00     0.210 HD
ENDBRANCH  23  30
TORSDOF 1
ENDMDL
