MODEL 1
REMARK VINA RESULT:    -3.150      0.000      0.000
REMARK INTER + INTRA:          -3.529
REMARK INTER:                  -3.519
REMARK INTRA:                  -0.011
REMARK UNBOUND:                -0.011
REMARK SMILES CCCC(=O)[O-]
REMARK SMILES IDX 3 1 4 2 5 3 6 4 2 5 1 6
REMARK H PARENT
REMARK Flexibility Score: inf
ROOT
ATOM      1  C   UNL     1      10.983  38.549   1.427  1.00  0.00     0.052 C 
ENDROOT
BRANCH   1   2
ATOM      2  C   UNL     1       9.749  37.791   1.051  1.00  0.00     0.041 C 
ATOM      3  O   UNL     1       8.645  38.388   0.946  1.00  0.00    -0.550 OA
ATOM      4  O   UNL     1       9.827  36.433   0.770  1.00  0.00    -0.550 OA
ENDBRANCH   1   2
BRANCH   1   5
ATOM      5  C   UNL     1      11.019  39.901   0.709  1.00  0.00     0.003 C 
ATOM      6  C   UNL     1      12.110  40.801   1.284  1.00  0.00     0.004 C 
ENDBRANCH   1   5
TORSDOF 2
ENDMDL
MODEL 2
REMARK VINA RESULT:    -3.117      2.360      3.496
REMARK INTER + INTRA:          -3.493
REMARK INTER:                  -3.456
REMARK INTRA:                  -0.037
REMARK UNBOUND:                -0.011
REMARK SMILES CCCC(=O)[O-]
REMARK SMILES IDX 3 1 4 2 5 3 6 4 2 5 1 6
REMARK H PARENT
REMARK Flexibility Score: inf
ROOT
ATOM      1  C   UNL     1      10.498  39.123   0.694  1.00  0.00     0.052 C 
ENDROOT
BRANCH   1   2
ATOM      2  C   UNL     1      11.264  39.774   1.803  1.00  0.00     0.041 C 
ATOM      3  O   UNL     1      11.228  39.293   2.966  1.00  0.00    -0.550 OA
ATOM      4  O   UNL     1      12.057  40.884   1.540  1.00  0.00    -0.550 OA
ENDBRANCH   1   2
BRANCH   1   5
ATOM      5  C   UNL     1       9.458  38.153   1.261  1.00  0.00     0.003 C 
ATOM      6  C   UNL     1       9.687  36.735   0.744  1.00  0.00     0.004 C 
ENDBRANCH   1   5
TORSDOF 2
ENDMDL
MODEL 3
REMARK VINA RESULT:    -3.099      2.201      3.406
REMARK INTER + INTRA:          -3.472
REMARK INTER:                  -3.443
REMARK INTRA:                  -0.029
REMARK UNBOUND:                -0.011
REMARK SMILES CCCC(=O)[O-]
REMARK SMILES IDX 3 1 4 2 5 3 6 4 2 5 1 6
REMARK H PARENT
REMARK Flexibility Score: inf
ROOT
ATOM      1  C   UNL     1      10.792  38.812   1.737  1.00  0.00     0.052 C 
ENDROOT
BRANCH   1   2
ATOM      2  C   UNL     1      11.092  40.131   1.098  1.00  0.00     0.041 C 
ATOM      3  O   UNL     1      10.389  40.545   0.140  1.00  0.00    -0.550 OA
ATOM      4  O   UNL     1      12.119  40.925   1.593  1.00  0.00    -0.550 OA
ENDBRANCH   1   2
BRANCH   1   5
ATOM      5  C   UNL     1       9.502  38.221   1.163  1.00  0.00     0.003 C 
ATOM      6  C   UNL     1       9.703  36.769   0.736  1.00  0.00     0.004 C 
ENDBRANCH   1   5
TORSDOF 2
ENDMDL
MODEL 4
REMARK VINA RESULT:    -3.079      0.140      1.330
REMARK INTER + INTRA:          -3.450
REMARK INTER:                  -3.441
REMARK INTRA:                  -0.009
REMARK UNBOUND:                -0.011
REMARK SMILES CCCC(=O)[O-]
REMARK SMILES IDX 3 1 4 2 5 3 6 4 2 5 1 6
REMARK H PARENT
REMARK Flexibility Score: inf
ROOT
ATOM      1  C   UNL     1      11.083  38.503   1.395  1.00  0.00     0.052 C 
ENDROOT
BRANCH   1   2
ATOM      2  C   UNL     1       9.849  37.758   0.996  1.00  0.00     0.041 C 
ATOM      3  O   UNL     1       9.901  36.519   0.774  1.00  0.00    -0.550 OA
ATOM      4  O   UNL     1       8.632  38.423   0.914  1.00  0.00    -0.550 OA
ENDBRANCH   1   2
BRANCH   1   5
ATOM      5  C   UNL     1      11.006  39.958   0.923  1.00  0.00     0.003 C 
ATOM      6  C   UNL     1      12.223  40.754   1.389  1.00  0.00     0.004 C 
ENDBRANCH   1   5
TORSDOF 2
ENDMDL
MODEL 5
REMARK VINA RESULT:    -3.069      1.105      1.211
REMARK INTER + INTRA:          -3.439
REMARK INTER:                  -3.406
REMARK INTRA:                  -0.033
REMARK UNBOUND:                -0.011
REMARK SMILES CCCC(=O)[O-]
REMARK SMILES IDX 3 1 4 2 5 3 6 4 2 5 1 6
REMARK H PARENT
REMARK Flexibility Score: inf
ROOT
ATOM      1  C   UNL     1      11.195  38.160   1.416  1.00  0.00     0.052 C 
ENDROOT
BRANCH   1   2
ATOM      2  C   UNL     1       9.833  37.721   0.979  1.00  0.00     0.041 C 
ATOM      3  O   UNL     1       8.887  38.550   0.922  1.00  0.00    -0.550 OA
ATOM      4  O   UNL     1       9.620  36.405   0.587  1.00  0.00    -0.550 OA
ENDBRANCH   1   2
BRANCH   1   5
ATOM      5  C   UNL     1      11.139  39.575   1.999  1.00  0.00     0.003 C 
ATOM      6  C   UNL     1      11.524  39.579   3.476  1.00  0.00     0.004 C 
ENDBRANCH   1   5
TORSDOF 2
ENDMDL
MODEL 6
REMARK VINA RESULT:    -2.864      9.315      9.998
REMARK INTER + INTRA:          -3.209
REMARK INTER:                  -3.177
REMARK INTRA:                  -0.033
REMARK UNBOUND:                -0.011
REMARK SMILES CCCC(=O)[O-]
REMARK SMILES IDX 3 1 4 2 5 3 6 4 2 5 1 6
REMARK H PARENT
REMARK Flexibility Score: inf
ROOT
ATOM      1  C   UNL     1       5.846  39.388  -7.158  1.00  0.00     0.052 C 
ENDROOT
BRANCH   1   2
ATOM      2  C   UNL     1       4.500  40.027  -7.297  1.00  0.00     0.041 C 
ATOM      3  O   UNL     1       4.404  41.232  -7.648  1.00  0.00    -0.550 OA
ATOM      4  O   UNL     1       3.350  39.277  -7.086  1.00  0.00    -0.550 OA
ENDBRANCH   1   2
BRANCH   1   5
ATOM      5  C   UNL     1       5.865  38.439  -5.957  1.00  0.00     0.003 C 
ATOM      6  C   UNL     1       5.935  36.982  -6.407  1.00  0.00     0.004 C 
ENDBRANCH   1   5
TORSDOF 2
ENDMDL
MODEL 7
REMARK VINA RESULT:    -2.761      8.503      9.296
REMARK INTER + INTRA:          -3.095
REMARK INTER:                  -3.067
REMARK INTRA:                  -0.028
REMARK UNBOUND:                -0.011
REMARK SMILES CCCC(=O)[O-]
REMARK SMILES IDX 3 1 4 2 5 3 6 4 2 5 1 6
REMARK H PARENT
REMARK Flexibility Score: inf
ROOT
ATOM      1  C   UNL     1       5.621  37.830  -6.187  1.00  0.00     0.052 C 
ENDROOT
BRANCH   1   2
ATOM      2  C   UNL     1       6.044  39.053  -6.938  1.00  0.00     0.041 C 
ATOM      3  O   UNL     1       7.263  39.259  -7.179  1.00  0.00    -0.550 OA
ATOM      4  O   UNL     1       5.088  39.941  -7.413  1.00  0.00    -0.550 OA
ENDBRANCH   1   2
BRANCH   1   5
ATOM      5  C   UNL     1       5.149  38.204  -4.779  1.00  0.00     0.003 C 
ATOM      6  C   UNL     1       3.626  38.279  -4.711  1.00  0.00     0.004 C 
ENDBRANCH   1   5
TORSDOF 2
ENDMDL
MODEL 8
REMARK VINA RESULT:    -2.721      1.515      1.790
REMARK INTER + INTRA:          -3.050
REMARK INTER:                  -3.013
REMARK INTRA:                  -0.037
REMARK UNBOUND:                -0.011
REMARK SMILES CCCC(=O)[O-]
REMARK SMILES IDX 3 1 4 2 5 3 6 4 2 5 1 6
REMARK H PARENT
REMARK Flexibility Score: inf
ROOT
ATOM      1  C   UNL     1      10.451  39.977   0.594  1.00  0.00     0.052 C 
ENDROOT
BRANCH   1   2
ATOM      2  C   UNL     1      10.795  38.612   1.102  1.00  0.00     0.041 C 
ATOM      3  O   UNL     1      11.656  38.472   2.010  1.00  0.00    -0.550 OA
ATOM      4  O   UNL     1      10.129  37.499   0.607  1.00  0.00    -0.550 OA
ENDBRANCH   1   2
BRANCH   1   5
ATOM      5  C   UNL     1      11.599  40.538  -0.250  1.00  0.00     0.003 C 
ATOM      6  C   UNL     1      12.368  41.615   0.510  1.00  0.00     0.004 C 
ENDBRANCH   1   5
TORSDOF 2
ENDMDL
MODEL 9
REMARK VINA RESULT:    -2.698      9.238      9.838
REMARK INTER + INTRA:          -3.025
REMARK INTER:                  -2.953
REMARK INTRA:                  -0.072
REMARK UNBOUND:                -0.011
REMARK SMILES CCCC(=O)[O-]
REMARK SMILES IDX 3 1 4 2 5 3 6 4 2 5 1 6
REMARK H PARENT
REMARK Flexibility Score: inf
ROOT
ATOM      1  C   UNL     1       4.876  39.271  -6.134  1.00  0.00     0.052 C 
ENDROOT
BRANCH   1   2
ATOM      2  C   UNL     1       6.098  38.534  -6.582  1.00  0.00     0.041 C 
ATOM      3  O   UNL     1       6.149  37.279  -6.497  1.00  0.00    -0.550 OA
ATOM      4  O   UNL     1       7.164  39.231  -7.137  1.00  0.00    -0.550 OA
ENDBRANCH   1   2
BRANCH   1   5
ATOM      5  C   UNL     1       4.352  40.170  -7.256  1.00  0.00     0.003 C 
ATOM      6  C   UNL     1       3.786  39.342  -8.407  1.00  0.00     0.004 C 
ENDBRANCH   1   5
TORSDOF 2
ENDMDL
