MODEL 1
REMARK VINA RESULT:    -4.174      0.000      0.000
REMARK INTER + INTRA:          -4.832
REMARK INTER:                  -4.784
REMARK INTRA:                  -0.048
REMARK UNBOUND:                -0.048
REMARK SMILES O=C([O-])c1cc(O)c(O)c(O)c1
REMARK SMILES IDX 4 1 5 2 12 3 6 4 10 5 8 6 2 7 1 8 3 9 7 10 11 12 9 14
REMARK H PARENT 7 11 11 13 9 15
REMARK Flexibility Score: inf
ROOT
ATOM      1  C   UNL     1      42.946  20.412  -3.761  1.00  0.00     0.005 A 
ATOM      2  C   UNL     1      43.212  19.063  -3.480  1.00  0.00     0.060 A 
ATOM      3  C   UNL     1      42.300  21.197  -2.790  1.00  0.00     0.060 A 
ATOM      4  C   UNL     1      42.842  18.502  -2.253  1.00  0.00     0.162 A 
ATOM      5  C   UNL     1      41.925  20.643  -1.558  1.00  0.00     0.162 A 
ATOM      6  C   UNL     1      42.197  19.291  -1.286  1.00  0.00     0.200 A 
ENDROOT
BRANCH   1   7
ATOM      7  C   UNL     1      43.341  20.997  -5.062  1.00  0.00     0.072 C 
ATOM      8  O   UNL     1      44.487  20.785  -5.539  1.00  0.00    -0.545 OA
ATOM      9  O   UNL     1      42.449  21.788  -5.777  1.00  0.00    -0.545 OA
ENDBRANCH   1   7
BRANCH   4  10
ATOM     10  O   UNL     1      43.125  17.158  -2.012  1.00  0.00    -0.504 OA
ATOM     11  H   UNL     1      43.946  16.703  -2.395  1.00  0.00     0.293 HD
ENDBRANCH   4  10
BRANCH   5  12
ATOM     12  O   UNL     1      41.285  21.432  -0.603  1.00  0.00    -0.504 OA
ATOM     13  H   UNL     1      41.315  22.444  -0.644  1.00  0.00     0.293 HD
ENDBRANCH   5  12
BRANCH   6  14
ATOM     14  O   UNL     1      41.832  18.724  -0.065  1.00  0.00    -0.502 OA
ATOM     15  H   UNL     1      42.090  17.778   0.191  1.00  0.00     0.293 HD
ENDBRANCH   6  14
TORSDOF 4
ENDMDL
MODEL 2
REMARK VINA RESULT:    -4.141      0.079      2.429
REMARK INTER + INTRA:          -4.794
REMARK INTER:                  -4.746
REMARK INTRA:                  -0.048
REMARK UNBOUND:                -0.048
REMARK SMILES O=C([O-])c1cc(O)c(O)c(O)c1
REMARK SMILES IDX 4 1 5 2 12 3 6 4 10 5 8 6 2 7 1 8 3 9 7 10 11 12 9 14
REMARK H PARENT 7 11 11 13 9 15
REMARK Flexibility Score: inf
ROOT
ATOM      1  C   UNL     1      42.963  20.403  -3.791  1.00  0.00     0.005 A 
ATOM      2  C   UNL     1      42.276  21.158  -2.828  1.00  0.00     0.060 A 
ATOM      3  C   UNL     1      43.292  19.067  -3.505  1.00  0.00     0.060 A 
ATOM      4  C   UNL     1      41.921  20.594  -1.598  1.00  0.00     0.162 A 
ATOM      5  C   UNL     1      42.940  18.494  -2.275  1.00  0.00     0.162 A 
ATOM      6  C   UNL     1      42.252  19.258  -1.316  1.00  0.00     0.200 A 
ENDROOT
BRANCH   1   7
ATOM      7  C   UNL     1      43.334  21.009  -5.090  1.00  0.00     0.072 C 
ATOM      8  O   UNL     1      44.490  20.851  -5.564  1.00  0.00    -0.545 OA
ATOM      9  O   UNL     1      42.410  21.762  -5.805  1.00  0.00    -0.545 OA
ENDBRANCH   1   7
BRANCH   4  10
ATOM     10  O   UNL     1      41.240  21.378  -0.667  1.00  0.00    -0.504 OA
ATOM     11  H   UNL     1      40.244  21.554  -0.737  1.00  0.00     0.293 HD
ENDBRANCH   4  10
BRANCH   5  12
ATOM     12  O   UNL     1      43.272  17.167  -2.002  1.00  0.00    -0.504 OA
ATOM     13  H   UNL     1      43.120  16.431  -2.682  1.00  0.00     0.293 HD
ENDBRANCH   5  12
BRANCH   6  14
ATOM     14  O   UNL     1      41.894  18.703  -0.088  1.00  0.00    -0.502 OA
ATOM     15  H   UNL     1      41.967  19.220   0.781  1.00  0.00     0.293 HD
ENDBRANCH   6  14
TORSDOF 4
ENDMDL
MODEL 3
REMARK VINA RESULT:    -4.081      1.569      1.769
REMARK INTER + INTRA:          -4.726
REMARK INTER:                  -4.677
REMARK INTRA:                  -0.049
REMARK UNBOUND:                -0.048
REMARK SMILES O=C([O-])c1cc(O)c(O)c(O)c1
REMARK SMILES IDX 4 1 5 2 12 3 6 4 10 5 8 6 2 7 1 8 3 9 7 10 11 12 9 14
REMARK H PARENT 7 11 11 13 9 15
REMARK Flexibility Score: inf
ROOT
ATOM      1  C   UNL     1      42.089  20.618  -3.776  1.00  0.00     0.005 A 
ATOM      2  C   UNL     1      41.032  19.748  -3.467  1.00  0.00     0.060 A 
ATOM      3  C   UNL     1      43.081  20.858  -2.810  1.00  0.00     0.060 A 
ATOM      4  C   UNL     1      40.962  19.125  -2.215  1.00  0.00     0.162 A 
ATOM      5  C   UNL     1      43.018  20.239  -1.554  1.00  0.00     0.162 A 
ATOM      6  C   UNL     1      41.957  19.369  -1.253  1.00  0.00     0.200 A 
ENDROOT
BRANCH   1   7
ATOM      7  C   UNL     1      42.155  21.272  -5.102  1.00  0.00     0.072 C 
ATOM      8  O   UNL     1      43.251  21.376  -5.713  1.00  0.00    -0.545 OA
ATOM      9  O   UNL     1      41.004  21.781  -5.694  1.00  0.00    -0.545 OA
ENDBRANCH   1   7
BRANCH   4  10
ATOM     10  O   UNL     1      39.896  18.268  -1.947  1.00  0.00    -0.504 OA
ATOM     11  H   UNL     1      39.853  17.708  -1.104  1.00  0.00     0.293 HD
ENDBRANCH   4  10
BRANCH   5  12
ATOM     12  O   UNL     1      44.009  20.485  -0.603  1.00  0.00    -0.504 OA
ATOM     13  H   UNL     1      44.262  21.428  -0.332  1.00  0.00     0.293 HD
ENDBRANCH   5  12
BRANCH   6  14
ATOM     14  O   UNL     1      41.879  18.744  -0.008  1.00  0.00    -0.502 OA
ATOM     15  H   UNL     1      42.025  19.247   0.859  1.00  0.00     0.293 HD
ENDBRANCH   6  14
TORSDOF 4
ENDMDL
MODEL 4
REMARK VINA RESULT:    -3.902      8.111      9.576
REMARK INTER + INTRA:          -4.521
REMARK INTER:                  -4.469
REMARK INTRA:                  -0.052
REMARK UNBOUND:                -0.048
REMARK SMILES O=C([O-])c1cc(O)c(O)c(O)c1
REMARK SMILES IDX 4 1 5 2 12 3 6 4 10 5 8 6 2 7 1 8 3 9 7 10 11 12 9 14
REMARK H PARENT 7 11 11 13 9 15
REMARK Flexibility Score: inf
ROOT
ATOM      1  C   UNL     1      50.736  14.782  -4.814  1.00  0.00     0.005 A 
ATOM      2  C   UNL     1      49.754  15.769  -4.642  1.00  0.00     0.060 A 
ATOM      3  C   UNL     1      50.562  13.531  -4.199  1.00  0.00     0.060 A 
ATOM      4  C   UNL     1      48.615  15.517  -3.870  1.00  0.00     0.162 A 
ATOM      5  C   UNL     1      49.424  13.270  -3.423  1.00  0.00     0.162 A 
ATOM      6  C   UNL     1      48.445  14.264  -3.257  1.00  0.00     0.200 A 
ENDROOT
BRANCH   1   7
ATOM      7  C   UNL     1      51.938  15.058  -5.633  1.00  0.00     0.072 C 
ATOM      8  O   UNL     1      52.276  16.242  -5.897  1.00  0.00    -0.545 OA
ATOM      9  O   UNL     1      52.712  14.011  -6.122  1.00  0.00    -0.545 OA
ENDBRANCH   1   7
BRANCH   4  10
ATOM     10  O   UNL     1      47.662  16.525  -3.723  1.00  0.00    -0.504 OA
ATOM     11  H   UNL     1      47.907  17.508  -3.762  1.00  0.00     0.293 HD
ENDBRANCH   4  10
BRANCH   5  12
ATOM     12  O   UNL     1      49.262  12.023  -2.817  1.00  0.00    -0.504 OA
ATOM     13  H   UNL     1      48.430  11.465  -2.967  1.00  0.00     0.293 HD
ENDBRANCH   5  12
BRANCH   6  14
ATOM     14  O   UNL     1      47.307  14.021  -2.489  1.00  0.00    -0.502 OA
ATOM     15  H   UNL     1      46.773  14.769  -2.061  1.00  0.00     0.293 HD
ENDBRANCH   6  14
TORSDOF 4
ENDMDL
MODEL 5
REMARK VINA RESULT:    -3.900      8.075      9.259
REMARK INTER + INTRA:          -4.518
REMARK INTER:                  -4.466
REMARK INTRA:                  -0.052
REMARK UNBOUND:                -0.048
REMARK SMILES O=C([O-])c1cc(O)c(O)c(O)c1
REMARK SMILES IDX 4 1 5 2 12 3 6 4 10 5 8 6 2 7 1 8 3 9 7 10 11 12 9 14
REMARK H PARENT 7 11 11 13 9 15
REMARK Flexibility Score: inf
ROOT
ATOM      1  C   UNL     1      50.732  14.823  -4.857  1.00  0.00     0.005 A 
ATOM      2  C   UNL     1      50.512  13.598  -4.209  1.00  0.00     0.060 A 
ATOM      3  C   UNL     1      49.785  15.851  -4.713  1.00  0.00     0.060 A 
ATOM      4  C   UNL     1      49.367  13.397  -3.429  1.00  0.00     0.162 A 
ATOM      5  C   UNL     1      48.635  15.658  -3.934  1.00  0.00     0.162 A 
ATOM      6  C   UNL     1      48.424  14.428  -3.288  1.00  0.00     0.200 A 
ENDROOT
BRANCH   1   7
ATOM      7  C   UNL     1      51.945  15.026  -5.679  1.00  0.00     0.072 C 
ATOM      8  O   UNL     1      52.309  16.185  -6.011  1.00  0.00    -0.545 OA
ATOM      9  O   UNL     1      52.703  13.937  -6.097  1.00  0.00    -0.545 OA
ENDBRANCH   1   7
BRANCH   4  10
ATOM     10  O   UNL     1      49.186  12.165  -2.802  1.00  0.00    -0.504 OA
ATOM     11  H   UNL     1      48.267  11.814  -2.557  1.00  0.00     0.293 HD
ENDBRANCH   4  10
BRANCH   5  12
ATOM     12  O   UNL     1      47.702  16.687  -3.798  1.00  0.00    -0.504 OA
ATOM     13  H   UNL     1      46.886  16.746  -4.396  1.00  0.00     0.293 HD
ENDBRANCH   5  12
BRANCH   6  14
ATOM     14  O   UNL     1      47.286  14.220  -2.509  1.00  0.00    -0.502 OA
ATOM     15  H   UNL     1      46.849  14.966  -1.979  1.00  0.00     0.293 HD
ENDBRANCH   6  14
TORSDOF 4
ENDMDL
MODEL 6
REMARK VINA RESULT:    -3.886      1.984      3.580
REMARK INTER + INTRA:          -4.502
REMARK INTER:                  -4.453
REMARK INTRA:                  -0.049
REMARK UNBOUND:                -0.048
REMARK SMILES O=C([O-])c1cc(O)c(O)c(O)c1
REMARK SMILES IDX 4 1 5 2 12 3 6 4 10 5 8 6 2 7 1 8 3 9 7 10 11 12 9 14
REMARK H PARENT 7 11 11 13 9 15
REMARK Flexibility Score: inf
ROOT
ATOM      1  C   UNL     1      42.500  19.049  -2.196  1.00  0.00     0.005 A 
ATOM      2  C   UNL     1      43.646  18.619  -2.882  1.00  0.00     0.060 A 
ATOM      3  C   UNL     1      41.664  18.092  -1.596  1.00  0.00     0.060 A 
ATOM      4  C   UNL     1      43.958  17.258  -2.971  1.00  0.00     0.162 A 
ATOM      5  C   UNL     1      41.969  16.726  -1.680  1.00  0.00     0.162 A 
ATOM      6  C   UNL     1      43.119  16.305  -2.369  1.00  0.00     0.200 A 
ENDROOT
BRANCH   1   7
ATOM      7  C   UNL     1      42.179  20.491  -2.108  1.00  0.00     0.072 C 
ATOM      8  O   UNL     1      42.280  21.234  -3.120  1.00  0.00    -0.545 OA
ATOM      9  O   UNL     1      41.758  21.046  -0.905  1.00  0.00    -0.545 OA
ENDBRANCH   1   7
BRANCH   4  10
ATOM     10  O   UNL     1      45.106  16.872  -3.662  1.00  0.00    -0.504 OA
ATOM     11  H   UNL     1      46.020  16.859  -3.224  1.00  0.00     0.293 HD
ENDBRANCH   4  10
BRANCH   5  12
ATOM     12  O   UNL     1      41.132  15.785  -1.080  1.00  0.00    -0.504 OA
ATOM     13  H   UNL     1      40.842  15.873  -0.113  1.00  0.00     0.293 HD
ENDBRANCH   5  12
BRANCH   6  14
ATOM     14  O   UNL     1      43.437  14.950  -2.461  1.00  0.00    -0.502 OA
ATOM     15  H   UNL     1      44.073  14.590  -3.164  1.00  0.00     0.293 HD
ENDBRANCH   6  14
TORSDOF 4
ENDMDL
MODEL 7
REMARK VINA RESULT:    -3.882      1.986      3.792
REMARK INTER + INTRA:          -4.497
REMARK INTER:                  -4.448
REMARK INTRA:                  -0.050
REMARK UNBOUND:                -0.048
REMARK SMILES O=C([O-])c1cc(O)c(O)c(O)c1
REMARK SMILES IDX 4 1 5 2 12 3 6 4 10 5 8 6 2 7 1 8 3 9 7 10 11 12 9 14
REMARK H PARENT 7 11 11 13 9 15
REMARK Flexibility Score: inf
ROOT
ATOM      1  C   UNL     1      42.453  19.044  -2.209  1.00  0.00     0.005 A 
ATOM      2  C   UNL     1      41.640  18.071  -1.608  1.00  0.00     0.060 A 
ATOM      3  C   UNL     1      43.607  18.638  -2.900  1.00  0.00     0.060 A 
ATOM      4  C   UNL     1      41.968  16.714  -1.692  1.00  0.00     0.162 A 
ATOM      5  C   UNL     1      43.943  17.280  -2.989  1.00  0.00     0.162 A 
ATOM      6  C   UNL     1      43.123  16.312  -2.385  1.00  0.00     0.200 A 
ENDROOT
BRANCH   1   7
ATOM      7  C   UNL     1      42.097  20.478  -2.115  1.00  0.00     0.072 C 
ATOM      8  O   UNL     1      42.315  21.258  -3.078  1.00  0.00    -0.545 OA
ATOM      9  O   UNL     1      41.515  20.983  -0.958  1.00  0.00    -0.545 OA
ENDBRANCH   1   7
BRANCH   4  10
ATOM     10  O   UNL     1      41.134  15.778  -1.081  1.00  0.00    -0.504 OA
ATOM     11  H   UNL     1      41.498  15.012  -0.526  1.00  0.00     0.293 HD
ENDBRANCH   4  10
BRANCH   5  12
ATOM     12  O   UNL     1      45.092  16.888  -3.679  1.00  0.00    -0.504 OA
ATOM     13  H   UNL     1      45.237  15.927  -3.966  1.00  0.00     0.293 HD
ENDBRANCH   5  12
BRANCH   6  14
ATOM     14  O   UNL     1      43.443  14.957  -2.464  1.00  0.00    -0.502 OA
ATOM     15  H   UNL     1      43.097  14.279  -1.794  1.00  0.00     0.293 HD
ENDBRANCH   6  14
TORSDOF 4
ENDMDL
MODEL 8
REMARK VINA RESULT:    -3.779      7.722      9.711
REMARK INTER + INTRA:          -4.380
REMARK INTER:                  -4.329
REMARK INTRA:                  -0.051
REMARK UNBOUND:                -0.048
REMARK SMILES O=C([O-])c1cc(O)c(O)c(O)c1
REMARK SMILES IDX 4 1 5 2 12 3 6 4 10 5 8 6 2 7 1 8 3 9 7 10 11 12 9 14
REMARK H PARENT 7 11 11 13 9 15
REMARK Flexibility Score: inf
ROOT
ATOM      1  C   UNL     1      48.815  13.910  -3.416  1.00  0.00     0.005 A 
ATOM      2  C   UNL     1      50.056  13.431  -3.865  1.00  0.00     0.060 A 
ATOM      3  C   UNL     1      48.405  15.201  -3.792  1.00  0.00     0.060 A 
ATOM      4  C   UNL     1      50.877  14.223  -4.675  1.00  0.00     0.162 A 
ATOM      5  C   UNL     1      49.222  16.001  -4.603  1.00  0.00     0.162 A 
ATOM      6  C   UNL     1      50.463  15.512  -5.048  1.00  0.00     0.200 A 
ENDROOT
BRANCH   1   7
ATOM      7  C   UNL     1      47.953  13.065  -2.560  1.00  0.00     0.072 C 
ATOM      8  O   UNL     1      46.701  13.199  -2.579  1.00  0.00    -0.545 OA
ATOM      9  O   UNL     1      48.515  12.110  -1.721  1.00  0.00    -0.545 OA
ENDBRANCH   1   7
BRANCH   4  10
ATOM     10  O   UNL     1      52.102  13.710  -5.099  1.00  0.00    -0.504 OA
ATOM     11  H   UNL     1      52.910  14.302  -5.254  1.00  0.00     0.293 HD
ENDBRANCH   4  10
BRANCH   5  12
ATOM     12  O   UNL     1      48.805  17.280  -4.970  1.00  0.00    -0.504 OA
ATOM     13  H   UNL     1      49.258  17.793  -5.717  1.00  0.00     0.293 HD
ENDBRANCH   5  12
BRANCH   6  14
ATOM     14  O   UNL     1      51.288  16.295  -5.856  1.00  0.00    -0.502 OA
ATOM     15  H   UNL     1      51.353  16.156  -6.858  1.00  0.00     0.293 HD
ENDBRANCH   6  14
TORSDOF 4
ENDMDL
MODEL 9
REMARK VINA RESULT:    -3.747      7.593      9.833
REMARK INTER + INTRA:          -4.344
REMARK INTER:                  -4.298
REMARK INTRA:                  -0.045
REMARK UNBOUND:                -0.048
REMARK SMILES O=C([O-])c1cc(O)c(O)c(O)c1
REMARK SMILES IDX 4 1 5 2 12 3 6 4 10 5 8 6 2 7 1 8 3 9 7 10 11 12 9 14
REMARK H PARENT 7 11 11 13 9 15
REMARK Flexibility Score: inf
ROOT
ATOM      1  C   UNL     1      48.674  13.943  -3.443  1.00  0.00     0.005 A 
ATOM      2  C   UNL     1      48.274  15.231  -3.830  1.00  0.00     0.060 A 
ATOM      3  C   UNL     1      49.938  13.472  -3.839  1.00  0.00     0.060 A 
ATOM      4  C   UNL     1      49.117  16.040  -4.600  1.00  0.00     0.162 A 
ATOM      5  C   UNL     1      50.788  14.276  -4.611  1.00  0.00     0.162 A 
ATOM      6  C   UNL     1      50.379  15.565  -4.993  1.00  0.00     0.200 A 
ENDROOT
BRANCH   1   7
ATOM      7  C   UNL     1      47.776  13.095  -2.629  1.00  0.00     0.072 C 
ATOM      8  O   UNL     1      47.240  12.068  -3.123  1.00  0.00    -0.545 OA
ATOM      9  O   UNL     1      47.511  13.419  -1.303  1.00  0.00    -0.545 OA
ENDBRANCH   1   7
BRANCH   4  10
ATOM     10  O   UNL     1      48.682  17.314  -4.965  1.00  0.00    -0.504 OA
ATOM     11  H   UNL     1      47.804  17.466  -5.448  1.00  0.00     0.293 HD
ENDBRANCH   4  10
BRANCH   5  12
ATOM     12  O   UNL     1      52.041  13.798  -4.998  1.00  0.00    -0.504 OA
ATOM     13  H   UNL     1      52.144  12.918  -5.489  1.00  0.00     0.293 HD
ENDBRANCH   5  12
BRANCH   6  14
ATOM     14  O   UNL     1      51.214  16.378  -5.761  1.00  0.00    -0.502 OA
ATOM     15  H   UNL     1      52.080  16.037  -6.163  1.00  0.00     0.293 HD
ENDBRANCH   6  14
TORSDOF 4
ENDMDL
