MODEL 1
REMARK VINA RESULT:    -4.781      0.000      0.000
REMARK INTER + INTRA:          -7.410
REMARK INTER:                  -5.899
REMARK INTRA:                  -1.511
REMARK UNBOUND:                -1.511
REMARK SMILES CC(C)=CCC[C@@H](C)c1ccc(C)cc1
REMARK SMILES IDX 6 1 7 2 8 3 9 4 13 5 12 6 11 7 14 8 10 9 15 10 5 11 4 12
REMARK SMILES IDX 2 13 1 14 3 15
REMARK H PARENT
REMARK Flexibility Score: inf
ROOT
ATOM      1  C   UNL     1     145.787 126.945 116.482  1.00  0.00     0.012 C 
ENDROOT
BRANCH   1   2
ATOM      2  C   UNL     1     145.597 127.731 115.163  1.00  0.00     0.016 C 
ATOM      3  C   UNL     1     146.038 126.928 113.929  1.00  0.00     0.013 C 
BRANCH   2   4
ATOM      4  C   UNL     1     144.150 128.170 115.018  1.00  0.00    -0.045 A 
ATOM      5  C   UNL     1     140.025 129.389 114.614  1.00  0.00     0.044 C 
ATOM      6  C   UNL     1     141.459 128.961 114.723  1.00  0.00    -0.051 A 
ATOM      7  C   UNL     1     142.488 129.908 114.630  1.00  0.00     0.004 A 
ATOM      8  C   UNL     1     141.779 127.621 114.988  1.00  0.00     0.004 A 
ATOM      9  C   UNL     1     143.823 129.516 114.768  1.00  0.00     0.004 A 
ATOM     10  C   UNL     1     143.113 127.228 115.126  1.00  0.00     0.004 A 
ENDBRANCH   2   4
ENDBRANCH   1   2
BRANCH   1  11
ATOM     11  C   UNL     1     145.501 127.776 117.750  1.00  0.00     0.028 C 
BRANCH  11  12
ATOM     12  C   UNL     1     144.377 127.196 118.575  1.00  0.00    -0.028 C 
ATOM     13  C   UNL     1     143.212 127.830 118.834  1.00  0.00    -0.080 C 
ATOM     14  C   UNL     1     142.937 129.235 118.346  1.00  0.00     0.039 C 
ATOM     15  C   UNL     1     142.175 127.116 119.661  1.00  0.00     0.039 C 
ENDBRANCH  11  12
ENDBRANCH   1  11
TORSDOF 4
ENDMDL
MODEL 2
REMARK VINA RESULT:    -4.598      1.236      2.061
REMARK INTER + INTRA:          -7.184
REMARK INTER:                  -5.881
REMARK INTRA:                  -1.303
REMARK UNBOUND:                -1.511
REMARK SMILES CC(C)=CCC[C@@H](C)c1ccc(C)cc1
REMARK SMILES IDX 6 1 7 2 8 3 9 4 13 5 12 6 11 7 14 8 10 9 15 10 5 11 4 12
REMARK SMILES IDX 2 13 1 14 3 15
REMARK H PARENT
REMARK Flexibility Score: inf
ROOT
ATOM      1  C   UNL     1     145.211 130.383 115.520  1.00  0.00     0.012 C 
ENDROOT
BRANCH   1   2
ATOM      2  C   UNL     1     144.746 129.404 114.416  1.00  0.00     0.016 C 
ATOM      3  C   UNL     1     145.669 128.182 114.283  1.00  0.00     0.013 C 
BRANCH   2   4
ATOM      4  C   UNL     1     143.317 128.960 114.677  1.00  0.00    -0.045 A 
ATOM      5  C   UNL     1     139.264 127.669 115.431  1.00  0.00     0.044 C 
ATOM      6  C   UNL     1     140.668 128.110 115.139  1.00  0.00    -0.051 A 
ATOM      7  C   UNL     1     140.931 129.440 114.783  1.00  0.00     0.004 A 
ATOM      8  C   UNL     1     141.736 127.213 115.286  1.00  0.00     0.004 A 
ATOM      9  C   UNL     1     142.243 129.861 114.547  1.00  0.00     0.004 A 
ATOM     10  C   UNL     1     143.048 127.632 115.050  1.00  0.00     0.004 A 
ENDBRANCH   2   4
ENDBRANCH   1   2
BRANCH   1  11
ATOM     11  C   UNL     1     145.999 129.708 116.661  1.00  0.00     0.028 C 
BRANCH  11  12
ATOM     12  C   UNL     1     145.115 129.339 117.829  1.00  0.00    -0.028 C 
ATOM     13  C   UNL     1     144.970 128.085 118.312  1.00  0.00    -0.080 C 
ATOM     14  C   UNL     1     145.662 126.897 117.682  1.00  0.00     0.039 C 
ATOM     15  C   UNL     1     144.064 127.873 119.497  1.00  0.00     0.039 C 
ENDBRANCH  11  12
ENDBRANCH   1  11
TORSDOF 4
ENDMDL
MODEL 3
REMARK VINA RESULT:    -4.551      1.840      3.448
REMARK INTER + INTRA:          -7.126
REMARK INTER:                  -6.197
REMARK INTRA:                  -0.930
REMARK UNBOUND:                -1.511
REMARK SMILES CC(C)=CCC[C@@H](C)c1ccc(C)cc1
REMARK SMILES IDX 6 1 7 2 8 3 9 4 13 5 12 6 11 7 14 8 10 9 15 10 5 11 4 12
REMARK SMILES IDX 2 13 1 14 3 15
REMARK H PARENT
REMARK Flexibility Score: inf
ROOT
ATOM      1  C   UNL     1     144.240 130.027 114.692  1.00  0.00     0.012 C 
ENDROOT
BRANCH   1   2
ATOM      2  C   UNL     1     143.157 129.857 115.783  1.00  0.00     0.016 C 
ATOM      3  C   UNL     1     142.723 131.197 116.399  1.00  0.00     0.013 C 
BRANCH   2   4
ATOM      4  C   UNL     1     141.954 129.122 115.217  1.00  0.00    -0.045 A 
ATOM      5  C   UNL     1     138.543 127.005 113.620  1.00  0.00     0.044 C 
ATOM      6  C   UNL     1     139.742 127.737 114.147  1.00  0.00    -0.051 A 
ATOM      7  C   UNL     1     139.816 129.134 114.050  1.00  0.00     0.004 A 
ATOM      8  C   UNL     1     140.767 127.038 114.802  1.00  0.00     0.004 A 
ATOM      9  C   UNL     1     140.915 129.821 114.573  1.00  0.00     0.004 A 
ATOM     10  C   UNL     1     141.866 127.724 115.326  1.00  0.00     0.004 A 
ENDBRANCH   2   4
ENDBRANCH   1   2
BRANCH   1  11
ATOM     11  C   UNL     1     145.683 129.868 115.216  1.00  0.00     0.028 C 
BRANCH  11  12
ATOM     12  C   UNL     1     145.757 128.975 116.432  1.00  0.00    -0.028 C 
ATOM     13  C   UNL     1     145.910 127.633 116.387  1.00  0.00    -0.080 C 
ATOM     14  C   UNL     1     145.977 126.876 115.079  1.00  0.00     0.039 C 
ATOM     15  C   UNL     1     145.984 126.875 117.687  1.00  0.00     0.039 C 
ENDBRANCH  11  12
ENDBRANCH   1  11
TORSDOF 4
ENDMDL
MODEL 4
REMARK VINA RESULT:    -4.479      1.974      3.811
REMARK INTER + INTRA:          -7.037
REMARK INTER:                  -5.647
REMARK INTRA:                  -1.390
REMARK UNBOUND:                -1.511
REMARK SMILES CC(C)=CCC[C@@H](C)c1ccc(C)cc1
REMARK SMILES IDX 6 1 7 2 8 3 9 4 13 5 12 6 11 7 14 8 10 9 15 10 5 11 4 12
REMARK SMILES IDX 2 13 1 14 3 15
REMARK H PARENT
REMARK Flexibility Score: inf
ROOT
ATOM      1  C   UNL     1     145.023 129.276 114.397  1.00  0.00     0.012 C 
ENDROOT
BRANCH   1   2
ATOM      2  C   UNL     1     144.745 127.784 114.695  1.00  0.00     0.016 C 
ATOM      3  C   UNL     1     146.023 126.930 114.675  1.00  0.00     0.013 C 
BRANCH   2   4
ATOM      4  C   UNL     1     144.033 127.640 116.029  1.00  0.00    -0.045 A 
ATOM      5  C   UNL     1     141.982 127.242 119.810  1.00  0.00     0.044 C 
ATOM      6  C   UNL     1     142.707 127.407 118.507  1.00  0.00    -0.051 A 
ATOM      7  C   UNL     1     143.993 126.875 118.341  1.00  0.00     0.004 A 
ATOM      8  C   UNL     1     142.077 128.034 117.422  1.00  0.00     0.004 A 
ATOM      9  C   UNL     1     144.655 126.997 117.116  1.00  0.00     0.004 A 
ATOM     10  C   UNL     1     142.737 128.156 116.196  1.00  0.00     0.004 A 
ENDBRANCH   2   4
ENDBRANCH   1   2
BRANCH   1  11
ATOM     11  C   UNL     1     146.001 129.938 115.389  1.00  0.00     0.028 C 
BRANCH  11  12
ATOM     12  C   UNL     1     145.479 131.253 115.918  1.00  0.00    -0.028 C 
ATOM     13  C   UNL     1     145.144 131.480 117.208  1.00  0.00    -0.080 C 
ATOM     14  C   UNL     1     145.220 130.395 118.259  1.00  0.00     0.039 C 
ATOM     15  C   UNL     1     144.652 132.851 117.591  1.00  0.00     0.039 C 
ENDBRANCH  11  12
ENDBRANCH   1  11
TORSDOF 4
ENDMDL
MODEL 5
REMARK VINA RESULT:    -4.473      1.674      3.238
REMARK INTER + INTRA:          -7.029
REMARK INTER:                  -5.501
REMARK INTRA:                  -1.528
REMARK UNBOUND:                -1.511
REMARK SMILES CC(C)=CCC[C@@H](C)c1ccc(C)cc1
REMARK SMILES IDX 6 1 7 2 8 3 9 4 13 5 12 6 11 7 14 8 10 9 15 10 5 11 4 12
REMARK SMILES IDX 2 13 1 14 3 15
REMARK H PARENT
REMARK Flexibility Score: inf
ROOT
ATOM      1  C   UNL     1     145.342 127.923 114.356  1.00  0.00     0.012 C 
ENDROOT
BRANCH   1   2
ATOM      2  C   UNL     1     145.011 127.006 115.557  1.00  0.00     0.016 C 
ATOM      3  C   UNL     1     145.989 127.191 116.728  1.00  0.00     0.013 C 
BRANCH   2   4
ATOM      4  C   UNL     1     143.583 127.244 116.019  1.00  0.00    -0.045 A 
ATOM      5  C   UNL     1     139.513 127.915 117.302  1.00  0.00     0.044 C 
ATOM      6  C   UNL     1     140.931 127.713 116.855  1.00  0.00    -0.051 A 
ATOM      7  C   UNL     1     141.963 127.625 117.799  1.00  0.00     0.004 A 
ATOM      8  C   UNL     1     141.225 127.542 115.494  1.00  0.00     0.004 A 
ATOM      9  C   UNL     1     143.280 127.400 117.385  1.00  0.00     0.004 A 
ATOM     10  C   UNL     1     142.541 127.317 115.079  1.00  0.00     0.004 A 
ENDBRANCH   2   4
ENDBRANCH   1   2
BRANCH   1  11
ATOM     11  C   UNL     1     145.701 129.369 114.754  1.00  0.00     0.028 C 
BRANCH  11  12
ATOM     12  C   UNL     1     144.483 130.259 114.842  1.00  0.00    -0.028 C 
ATOM     13  C   UNL     1     144.082 130.896 115.965  1.00  0.00    -0.080 C 
ATOM     14  C   UNL     1     144.807 130.737 117.282  1.00  0.00     0.039 C 
ATOM     15  C   UNL     1     142.853 131.766 115.895  1.00  0.00     0.039 C 
ENDBRANCH  11  12
ENDBRANCH   1  11
TORSDOF 4
ENDMDL
MODEL 6
REMARK VINA RESULT:    -4.455      1.829      3.219
REMARK INTER + INTRA:          -7.008
REMARK INTER:                  -5.925
REMARK INTRA:                  -1.083
REMARK UNBOUND:                -1.511
REMARK SMILES CC(C)=CCC[C@@H](C)c1ccc(C)cc1
REMARK SMILES IDX 6 1 7 2 8 3 9 4 13 5 12 6 11 7 14 8 10 9 15 10 5 11 4 12
REMARK SMILES IDX 2 13 1 14 3 15
REMARK H PARENT
REMARK Flexibility Score: inf
ROOT
ATOM      1  C   UNL     1     144.986 128.138 114.817  1.00  0.00     0.012 C 
ENDROOT
BRANCH   1   2
ATOM      2  C   UNL     1     143.884 127.293 115.497  1.00  0.00     0.016 C 
ATOM      3  C   UNL     1     144.031 127.250 117.026  1.00  0.00     0.013 C 
BRANCH   2   4
ATOM      4  C   UNL     1     142.510 127.817 115.113  1.00  0.00    -0.045 A 
ATOM      5  C   UNL     1     138.592 129.278 114.030  1.00  0.00     0.044 C 
ATOM      6  C   UNL     1     139.958 128.764 114.376  1.00  0.00    -0.051 A 
ATOM      7  C   UNL     1     141.057 129.634 114.394  1.00  0.00     0.004 A 
ATOM      8  C   UNL     1     140.136 127.424 114.751  1.00  0.00     0.004 A 
ATOM      9  C   UNL     1     142.324 129.164 114.752  1.00  0.00     0.004 A 
ATOM     10  C   UNL     1     141.402 126.953 115.109  1.00  0.00     0.004 A 
ENDBRANCH   2   4
ENDBRANCH   1   2
BRANCH   1  11
ATOM     11  C   UNL     1     145.984 128.775 115.807  1.00  0.00     0.028 C 
BRANCH  11  12
ATOM     12  C   UNL     1     146.178 130.252 115.554  1.00  0.00    -0.028 C 
ATOM     13  C   UNL     1     145.537 131.234 116.227  1.00  0.00    -0.080 C 
ATOM     14  C   UNL     1     144.505 130.936 117.292  1.00  0.00     0.039 C 
ATOM     15  C   UNL     1     145.848 132.666 115.875  1.00  0.00     0.039 C 
ENDBRANCH  11  12
ENDBRANCH   1  11
TORSDOF 4
ENDMDL
MODEL 7
REMARK VINA RESULT:    -4.338      1.397      4.898
REMARK INTER + INTRA:          -6.863
REMARK INTER:                  -5.380
REMARK INTRA:                  -1.483
REMARK UNBOUND:                -1.511
REMARK SMILES CC(C)=CCC[C@@H](C)c1ccc(C)cc1
REMARK SMILES IDX 6 1 7 2 8 3 9 4 13 5 12 6 11 7 14 8 10 9 15 10 5 11 4 12
REMARK SMILES IDX 2 13 1 14 3 15
REMARK H PARENT
REMARK Flexibility Score: inf
ROOT
ATOM      1  C   UNL     1     141.571 129.637 115.463  1.00  0.00     0.012 C 
ENDROOT
BRANCH   1   2
ATOM      2  C   UNL     1     141.627 128.241 116.126  1.00  0.00     0.016 C 
ATOM      3  C   UNL     1     141.898 127.117 115.114  1.00  0.00     0.013 C 
BRANCH   2   4
ATOM      4  C   UNL     1     142.674 128.225 117.227  1.00  0.00    -0.045 A 
ATOM      5  C   UNL     1     145.668 128.155 120.340  1.00  0.00     0.044 C 
ATOM      6  C   UNL     1     144.610 128.161 119.276  1.00  0.00    -0.051 A 
ATOM      7  C   UNL     1     143.629 129.162 119.263  1.00  0.00     0.004 A 
ATOM      8  C   UNL     1     144.634 127.206 118.249  1.00  0.00     0.004 A 
ATOM      9  C   UNL     1     142.664 129.190 118.251  1.00  0.00     0.004 A 
ATOM     10  C   UNL     1     143.670 127.233 117.238  1.00  0.00     0.004 A 
ENDBRANCH   2   4
ENDBRANCH   1   2
BRANCH   1  11
ATOM     11  C   UNL     1     142.725 129.904 114.474  1.00  0.00     0.028 C 
BRANCH  11  12
ATOM     12  C   UNL     1     143.964 130.425 115.165  1.00  0.00    -0.028 C 
ATOM     13  C   UNL     1     145.181 129.841 115.095  1.00  0.00    -0.080 C 
ATOM     14  C   UNL     1     145.411 128.553 114.336  1.00  0.00     0.039 C 
ATOM     15  C   UNL     1     146.329 130.487 115.825  1.00  0.00     0.039 C 
ENDBRANCH  11  12
ENDBRANCH   1  11
TORSDOF 4
ENDMDL
MODEL 8
REMARK VINA RESULT:    -4.276      1.789      4.589
REMARK INTER + INTRA:          -6.787
REMARK INTER:                  -5.240
REMARK INTRA:                  -1.547
REMARK UNBOUND:                -1.511
REMARK SMILES CC(C)=CCC[C@@H](C)c1ccc(C)cc1
REMARK SMILES IDX 6 1 7 2 8 3 9 4 13 5 12 6 11 7 14 8 10 9 15 10 5 11 4 12
REMARK SMILES IDX 2 13 1 14 3 15
REMARK H PARENT
REMARK Flexibility Score: inf
ROOT
ATOM      1  C   UNL     1     143.315 128.271 114.798  1.00  0.00     0.012 C 
ENDROOT
BRANCH   1   2
ATOM      2  C   UNL     1     144.233 127.191 115.418  1.00  0.00     0.016 C 
ATOM      3  C   UNL     1     145.596 127.099 114.715  1.00  0.00     0.013 C 
BRANCH   2   4
ATOM      4  C   UNL     1     144.421 127.453 116.903  1.00  0.00    -0.045 A 
ATOM      5  C   UNL     1     144.924 128.200 121.128  1.00  0.00     0.044 C 
ATOM      6  C   UNL     1     144.755 127.971 119.654  1.00  0.00    -0.051 A 
ATOM      7  C   UNL     1     145.855 127.604 118.866  1.00  0.00     0.004 A 
ATOM      8  C   UNL     1     143.485 128.055 119.067  1.00  0.00     0.004 A 
ATOM      9  C   UNL     1     145.692 127.354 117.500  1.00  0.00     0.004 A 
ATOM     10  C   UNL     1     143.320 127.806 117.702  1.00  0.00     0.004 A 
ENDBRANCH   2   4
ENDBRANCH   1   2
BRANCH   1  11
ATOM     11  C   UNL     1     144.051 129.575 114.425  1.00  0.00     0.028 C 
BRANCH  11  12
ATOM     12  C   UNL     1     144.015 130.593 115.541  1.00  0.00    -0.028 C 
ATOM     13  C   UNL     1     145.109 131.065 116.180  1.00  0.00    -0.080 C 
ATOM     14  C   UNL     1     146.502 130.570 115.861  1.00  0.00     0.039 C 
ATOM     15  C   UNL     1     144.917 132.094 117.265  1.00  0.00     0.039 C 
ENDBRANCH  11  12
ENDBRANCH   1  11
TORSDOF 4
ENDMDL
MODEL 9
REMARK VINA RESULT:    -4.256      2.180      4.330
REMARK INTER + INTRA:          -6.762
REMARK INTER:                  -5.444
REMARK INTRA:                  -1.318
REMARK UNBOUND:                -1.511
REMARK SMILES CC(C)=CCC[C@@H](C)c1ccc(C)cc1
REMARK SMILES IDX 6 1 7 2 8 3 9 4 13 5 12 6 11 7 14 8 10 9 15 10 5 11 4 12
REMARK SMILES IDX 2 13 1 14 3 15
REMARK H PARENT
REMARK Flexibility Score: inf
ROOT
ATOM      1  C   UNL     1     143.700 127.257 116.552  1.00  0.00     0.012 C 
ENDROOT
BRANCH   1   2
ATOM      2  C   UNL     1     145.213 127.578 116.605  1.00  0.00     0.016 C 
ATOM      3  C   UNL     1     146.002 126.890 115.481  1.00  0.00     0.013 C 
BRANCH   2   4
ATOM      4  C   UNL     1     145.431 129.081 116.561  1.00  0.00    -0.045 A 
ATOM      5  C   UNL     1     146.067 133.351 116.405  1.00  0.00     0.044 C 
ATOM      6  C   UNL     1     145.871 131.865 116.478  1.00  0.00    -0.051 A 
ATOM      7  C   UNL     1     145.053 131.308 117.471  1.00  0.00     0.004 A 
ATOM      8  C   UNL     1     146.449 131.027 115.513  1.00  0.00     0.004 A 
ATOM      9  C   UNL     1     144.840 129.927 117.517  1.00  0.00     0.004 A 
ATOM     10  C   UNL     1     146.237 129.647 115.558  1.00  0.00     0.004 A 
ENDBRANCH   2   4
ENDBRANCH   1   2
BRANCH   1  11
ATOM     11  C   UNL     1     143.099 127.321 115.133  1.00  0.00     0.028 C 
BRANCH  11  12
ATOM     12  C   UNL     1     141.752 128.006 115.111  1.00  0.00    -0.028 C 
ATOM     13  C   UNL     1     141.556 129.295 114.757  1.00  0.00    -0.080 C 
ATOM     14  C   UNL     1     142.702 130.209 114.384  1.00  0.00     0.039 C 
ATOM     15  C   UNL     1     140.149 129.836 114.767  1.00  0.00     0.039 C 
ENDBRANCH  11  12
ENDBRANCH   1  11
TORSDOF 4
ENDMDL
