MODEL 1
REMARK VINA RESULT:    -3.964      0.000      0.000
REMARK INTER + INTRA:          -6.264
REMARK INTER:                  -6.049
REMARK INTRA:                  -0.215
REMARK UNBOUND:                -0.215
REMARK SMILES CC1=CCC[C@@H](C)C(=O)C[C@H](C(C)C)C(=O)C1
REMARK SMILES IDX 8 1 9 2 6 3 7 4 5 5 4 6 3 7 2 8 1 9 10 11 11 12 15 13 16 14
REMARK SMILES IDX 17 15 12 17 13 18 14 19
REMARK H PARENT
REMARK Flexibility Score: 70.00
ROOT
ATOM      1  C   UNL     1      15.763 -20.458 -21.471  1.00  0.00     0.136 C 
ATOM      2  O   UNL     1      16.956 -20.190 -21.513  1.00  0.00    -0.299 OA
ENDROOT
BRANCH   1   3
ATOM      3  C   UNL     1      15.152 -21.310 -22.567  1.00  0.00     0.053 C 
ATOM      4  C   UNL     1      15.740 -22.727 -22.536  1.00  0.00     0.016 C 
BRANCH   3   5
ATOM      5  C   UNL     1      15.367 -20.653 -23.950  1.00  0.00     0.015 C 
BRANCH   5   6
ATOM      6  C   UNL     1      14.986 -19.160 -23.935  1.00  0.00     0.028 C 
BRANCH   6   7
ATOM      7  C   UNL     1      13.496 -18.926 -23.930  1.00  0.00    -0.028 C 
ATOM      8  C   UNL     1      12.828 -18.125 -23.063  1.00  0.00    -0.070 CG0
ATOM      9  C   UNL     1      11.323 -18.097 -23.154  1.00  0.00     0.039 C 
ATOM     10  G   UNL     1      13.517 -17.226 -22.044  1.00  0.00     0.000 G0
ENDBRANCH   6   7
ENDBRANCH   5   6
ENDBRANCH   3   5
ENDBRANCH   1   3
BRANCH   1  11
ATOM     11  C   UNL     1      14.936 -19.940 -20.316  1.00  0.00     0.087 C 
BRANCH  11  12
ATOM     12  C   UNL     1      14.966 -18.391 -20.218  1.00  0.00     0.066 C 
BRANCH  12  13
ATOM     13  C   UNL     1      13.640 -17.785 -20.661  1.00  0.00     0.140 C 
ATOM     14  O   UNL     1      12.699 -17.721 -19.884  1.00  0.00    -0.299 OA
BRANCH  13  15
ATOM     15  C   UNL     1      13.503 -17.205 -22.048  1.00  0.00     0.106 CG0
ATOM     16  G   UNL     1      12.838 -18.142 -23.047  1.00  0.00     0.000 G0
ENDBRANCH  13  15
ENDBRANCH  12  13
BRANCH  12  17
ATOM     17  C   UNL     1      15.405 -17.865 -18.812  1.00  0.00    -0.006 C 
ATOM     18  C   UNL     1      16.901 -17.509 -18.787  1.00  0.00     0.008 C 
ATOM     19  C   UNL     1      15.081 -18.830 -17.657  1.00  0.00     0.008 C 
ENDBRANCH  12  17
ENDBRANCH  11  12
ENDBRANCH   1  11
TORSDOF 1
ENDMDL
MODEL 2
REMARK VINA RESULT:    -3.898      2.252      4.565
REMARK INTER + INTRA:          -6.164
REMARK INTER:                  -6.109
REMARK INTRA:                  -0.055
REMARK UNBOUND:                -0.215
REMARK SMILES CC1=CCC[C@@H](C)C(=O)C[C@H](C(C)C)C(=O)C1
REMARK SMILES IDX 8 1 9 2 6 3 7 4 5 5 4 6 3 7 2 8 1 9 10 11 11 12 15 13 16 14
REMARK SMILES IDX 17 15 12 17 13 18 14 19
REMARK H PARENT
REMARK Flexibility Score: 70.00
ROOT
ATOM      1  C   UNL     1      10.741 -17.538 -21.732  1.00  0.00     0.136 C 
ATOM      2  O   UNL     1      10.366 -17.994 -20.661  1.00  0.00    -0.299 OA
ENDROOT
BRANCH   1   3
ATOM      3  C   UNL     1       9.713 -17.112 -22.762  1.00  0.00     0.053 C 
ATOM      4  C   UNL     1       8.878 -18.316 -23.217  1.00  0.00     0.016 C 
BRANCH   3   5
ATOM      5  C   UNL     1      10.402 -16.432 -23.968  1.00  0.00     0.015 C 
BRANCH   5   6
ATOM      6  C   UNL     1      10.586 -17.411 -25.143  1.00  0.00     0.028 C 
BRANCH   6   7
ATOM      7  C   UNL     1      11.984 -17.406 -25.709  1.00  0.00    -0.028 C 
ATOM      8  C   UNL     1      12.996 -18.217 -25.313  1.00  0.00    -0.070 CG0
ATOM      9  C   UNL     1      14.354 -17.994 -25.932  1.00  0.00     0.039 C 
ATOM     10  G   UNL     1      12.822 -19.361 -24.321  1.00  0.00     0.000 G0
ENDBRANCH   6   7
ENDBRANCH   5   6
ENDBRANCH   3   5
ENDBRANCH   1   3
BRANCH   1  11
ATOM     11  C   UNL     1      12.225 -17.401 -21.990  1.00  0.00     0.087 C 
BRANCH  11  12
ATOM     12  C   UNL     1      12.987 -18.736 -21.771  1.00  0.00     0.066 C 
BRANCH  12  13
ATOM     13  C   UNL     1      13.648 -19.212 -23.058  1.00  0.00     0.140 C 
ATOM     14  O   UNL     1      14.830 -19.522 -23.070  1.00  0.00    -0.299 OA
BRANCH  13  15
ATOM     15  C   UNL     1      12.827 -19.359 -24.317  1.00  0.00     0.106 CG0
ATOM     16  G   UNL     1      12.994 -18.210 -25.302  1.00  0.00     0.000 G0
ENDBRANCH  13  15
ENDBRANCH  12  13
BRANCH  12  17
ATOM     17  C   UNL     1      14.000 -18.686 -20.581  1.00  0.00    -0.006 C 
ATOM     18  C   UNL     1      14.061 -20.030 -19.837  1.00  0.00     0.008 C 
ATOM     19  C   UNL     1      13.729 -17.549 -19.579  1.00  0.00     0.008 C 
ENDBRANCH  12  17
ENDBRANCH  11  12
ENDBRANCH   1  11
TORSDOF 1
ENDMDL
MODEL 3
REMARK VINA RESULT:    -3.865      2.042      4.517
REMARK INTER + INTRA:          -6.113
REMARK INTER:                  -5.896
REMARK INTRA:                  -0.217
REMARK UNBOUND:                -0.215
REMARK SMILES CC1=CCC[C@@H](C)C(=O)C[C@H](C(C)C)C(=O)C1
REMARK SMILES IDX 8 1 9 2 6 3 7 4 5 5 4 6 3 7 2 8 1 9 10 11 11 12 15 13 16 14
REMARK SMILES IDX 17 15 12 17 13 18 14 19
REMARK H PARENT
REMARK Flexibility Score: 70.00
ROOT
ATOM      1  C   UNL     1      13.021 -18.351 -19.792  1.00  0.00     0.136 C 
ATOM      2  O   UNL     1      12.462 -17.386 -19.290  1.00  0.00    -0.299 OA
ENDROOT
BRANCH   1   3
ATOM      3  C   UNL     1      14.302 -18.876 -19.173  1.00  0.00     0.053 C 
ATOM      4  C   UNL     1      14.981 -17.782 -18.337  1.00  0.00     0.016 C 
BRANCH   3   5
ATOM      5  C   UNL     1      15.257 -19.407 -20.267  1.00  0.00     0.015 C 
BRANCH   5   6
ATOM      6  C   UNL     1      16.012 -18.260 -20.967  1.00  0.00     0.028 C 
BRANCH   6   7
ATOM      7  C   UNL     1      16.406 -18.586 -22.386  1.00  0.00    -0.028 C 
ATOM      8  C   UNL     1      15.675 -18.298 -23.491  1.00  0.00    -0.070 CG0
ATOM      9  C   UNL     1      16.191 -18.794 -24.820  1.00  0.00     0.039 C 
ATOM     10  G   UNL     1      14.398 -17.468 -23.465  1.00  0.00     0.000 G0
ENDBRANCH   6   7
ENDBRANCH   5   6
ENDBRANCH   3   5
ENDBRANCH   1   3
BRANCH   1  11
ATOM     11  C   UNL     1      12.407 -19.002 -21.011  1.00  0.00     0.087 C 
BRANCH  11  12
ATOM     12  C   UNL     1      12.186 -17.991 -22.169  1.00  0.00     0.066 C 
BRANCH  12  13
ATOM     13  C   UNL     1      13.124 -18.274 -23.334  1.00  0.00     0.140 C 
ATOM     14  O   UNL     1      12.834 -19.114 -24.174  1.00  0.00    -0.299 OA
BRANCH  13  15
ATOM     15  C   UNL     1      14.394 -17.472 -23.491  1.00  0.00     0.106 CG0
ATOM     16  G   UNL     1      15.661 -18.318 -23.512  1.00  0.00     0.000 G0
ENDBRANCH  13  15
ENDBRANCH  12  13
BRANCH  12  17
ATOM     17  C   UNL     1      10.695 -17.893 -22.633  1.00  0.00    -0.006 C 
ATOM     18  C   UNL     1      10.440 -16.609 -23.439  1.00  0.00     0.008 C 
ATOM     19  C   UNL     1       9.676 -17.996 -21.483  1.00  0.00     0.008 C 
ENDBRANCH  12  17
ENDBRANCH  11  12
ENDBRANCH   1  11
TORSDOF 1
ENDMDL
MODEL 4
REMARK VINA RESULT:    -3.774      3.795      6.048
REMARK INTER + INTRA:          -5.975
REMARK INTER:                  -5.761
REMARK INTRA:                  -0.214
REMARK UNBOUND:                -0.215
REMARK SMILES CC1=CCC[C@@H](C)C(=O)C[C@H](C(C)C)C(=O)C1
REMARK SMILES IDX 8 1 9 2 6 3 7 4 5 5 4 6 3 7 2 8 1 9 10 11 11 12 15 13 16 14
REMARK SMILES IDX 17 15 12 17 13 18 14 19
REMARK H PARENT
REMARK Flexibility Score: 70.00
ROOT
ATOM      1  C   UNL     1      16.251 -23.137 -23.274  1.00  0.00     0.136 C 
ATOM      2  O   UNL     1      15.810 -22.958 -22.147  1.00  0.00    -0.299 OA
ENDROOT
BRANCH   1   3
ATOM      3  C   UNL     1      17.274 -24.231 -23.509  1.00  0.00     0.053 C 
ATOM      4  C   UNL     1      17.530 -25.014 -22.214  1.00  0.00     0.016 C 
BRANCH   3   5
ATOM      5  C   UNL     1      18.590 -23.635 -24.061  1.00  0.00     0.015 C 
BRANCH   5   6
ATOM      6  C   UNL     1      18.667 -23.757 -25.596  1.00  0.00     0.028 C 
BRANCH   6   7
ATOM      7  C   UNL     1      19.333 -22.574 -26.254  1.00  0.00    -0.028 C 
ATOM      8  C   UNL     1      18.691 -21.506 -26.788  1.00  0.00    -0.070 CG0
ATOM      9  C   UNL     1      19.528 -20.466 -27.491  1.00  0.00     0.039 C 
ATOM     10  G   UNL     1      17.188 -21.281 -26.672  1.00  0.00     0.000 G0
ENDBRANCH   6   7
ENDBRANCH   5   6
ENDBRANCH   3   5
ENDBRANCH   1   3
BRANCH   1  11
ATOM     11  C   UNL     1      15.749 -22.266 -24.404  1.00  0.00     0.087 C 
BRANCH  11  12
ATOM     12  C   UNL     1      16.231 -20.796 -24.272  1.00  0.00     0.066 C 
BRANCH  12  13
ATOM     13  C   UNL     1      16.788 -20.278 -25.592  1.00  0.00     0.140 C 
ATOM     14  O   UNL     1      16.964 -19.080 -25.763  1.00  0.00    -0.299 OA
BRANCH  13  15
ATOM     15  C   UNL     1      17.182 -21.251 -26.677  1.00  0.00     0.106 CG0
ATOM     16  G   UNL     1      18.682 -21.504 -26.765  1.00  0.00     0.000 G0
ENDBRANCH  13  15
ENDBRANCH  12  13
BRANCH  12  17
ATOM     17  C   UNL     1      15.145 -19.836 -23.683  1.00  0.00    -0.006 C 
ATOM     18  C   UNL     1      15.422 -19.514 -22.205  1.00  0.00     0.008 C 
ATOM     19  C   UNL     1      13.704 -20.354 -23.841  1.00  0.00     0.008 C 
ENDBRANCH  12  17
ENDBRANCH  11  12
ENDBRANCH   1  11
TORSDOF 1
ENDMDL
MODEL 5
REMARK VINA RESULT:    -3.747      2.379      4.960
REMARK INTER + INTRA:          -5.933
REMARK INTER:                  -5.740
REMARK INTRA:                  -0.192
REMARK UNBOUND:                -0.215
REMARK SMILES CC1=CCC[C@@H](C)C(=O)C[C@H](C(C)C)C(=O)C1
REMARK SMILES IDX 8 1 9 2 6 3 7 4 5 5 4 6 3 7 2 8 1 9 10 11 11 12 15 13 16 14
REMARK SMILES IDX 17 15 12 17 13 18 14 19
REMARK H PARENT
REMARK Flexibility Score: 70.00
ROOT
ATOM      1  C   UNL     1      13.763 -18.076 -20.267  1.00  0.00     0.136 C 
ATOM      2  O   UNL     1      12.875 -17.598 -19.575  1.00  0.00    -0.299 OA
ENDROOT
BRANCH   1   3
ATOM      3  C   UNL     1      14.940 -18.762 -19.600  1.00  0.00     0.053 C 
ATOM      4  C   UNL     1      14.454 -19.912 -18.708  1.00  0.00     0.016 C 
BRANCH   3   5
ATOM      5  C   UNL     1      15.772 -17.746 -18.786  1.00  0.00     0.015 C 
BRANCH   5   6
ATOM      6  C   UNL     1      17.135 -17.467 -19.450  1.00  0.00     0.028 C 
BRANCH   6   7
ATOM      7  C   UNL     1      17.737 -18.683 -20.108  1.00  0.00    -0.028 C 
ATOM      8  C   UNL     1      17.767 -18.922 -21.442  1.00  0.00    -0.070 CG0
ATOM      9  C   UNL     1      18.326 -20.245 -21.903  1.00  0.00     0.039 C 
ATOM     10  G   UNL     1      17.313 -17.914 -22.490  1.00  0.00     0.000 G0
ENDBRANCH   6   7
ENDBRANCH   5   6
ENDBRANCH   3   5
ENDBRANCH   1   3
BRANCH   1  11
ATOM     11  C   UNL     1      13.652 -17.978 -21.772  1.00  0.00     0.087 C 
BRANCH  11  12
ATOM     12  C   UNL     1      14.822 -17.171 -22.397  1.00  0.00     0.066 C 
BRANCH  12  13
ATOM     13  C   UNL     1      15.893 -18.097 -22.959  1.00  0.00     0.140 C 
ATOM     14  O   UNL     1      15.606 -18.939 -23.796  1.00  0.00    -0.299 OA
BRANCH  13  15
ATOM     15  C   UNL     1      17.330 -17.937 -22.524  1.00  0.00     0.106 CG0
ATOM     16  G   UNL     1      17.761 -18.919 -21.443  1.00  0.00     0.000 G0
ENDBRANCH  13  15
ENDBRANCH  12  13
BRANCH  12  17
ATOM     17  C   UNL     1      14.354 -16.116 -23.453  1.00  0.00    -0.006 C 
ATOM     18  C   UNL     1      15.209 -14.839 -23.388  1.00  0.00     0.008 C 
ATOM     19  C   UNL     1      12.862 -15.748 -23.348  1.00  0.00     0.008 C 
ENDBRANCH  12  17
ENDBRANCH  11  12
ENDBRANCH   1  11
TORSDOF 1
ENDMDL
MODEL 6
REMARK VINA RESULT:    -3.710      1.471      4.247
REMARK INTER + INTRA:          -5.876
REMARK INTER:                  -5.641
REMARK INTRA:                  -0.236
REMARK UNBOUND:                -0.215
REMARK SMILES CC1=CCC[C@@H](C)C(=O)C[C@H](C(C)C)C(=O)C1
REMARK SMILES IDX 8 1 9 2 6 3 7 4 5 5 4 6 3 7 2 8 1 9 10 11 11 12 15 13 16 14
REMARK SMILES IDX 17 15 12 17 13 18 14 19
REMARK H PARENT
REMARK Flexibility Score: 70.00
ROOT
ATOM      1  C   UNL     1      14.748 -19.513 -20.229  1.00  0.00     0.136 C 
ATOM      2  O   UNL     1      14.104 -20.426 -19.729  1.00  0.00    -0.299 OA
ENDROOT
BRANCH   1   3
ATOM      3  C   UNL     1      14.603 -18.108 -19.676  1.00  0.00     0.053 C 
ATOM      4  C   UNL     1      15.176 -18.030 -18.254  1.00  0.00     0.016 C 
BRANCH   3   5
ATOM      5  C   UNL     1      13.123 -17.665 -19.699  1.00  0.00     0.015 C 
BRANCH   5   6
ATOM      6  C   UNL     1      12.517 -17.782 -21.112  1.00  0.00     0.028 C 
BRANCH   6   7
ATOM      7  C   UNL     1      13.073 -16.771 -22.083  1.00  0.00    -0.028 C 
ATOM      8  C   UNL     1      13.604 -17.057 -23.298  1.00  0.00    -0.070 CG0
ATOM      9  C   UNL     1      14.199 -15.917 -24.086  1.00  0.00     0.039 C 
ATOM     10  G   UNL     1      13.585 -18.447 -23.921  1.00  0.00     0.000 G0
ENDBRANCH   6   7
ENDBRANCH   5   6
ENDBRANCH   3   5
ENDBRANCH   1   3
BRANCH   1  11
ATOM     11  C   UNL     1      15.683 -19.819 -21.378  1.00  0.00     0.087 C 
BRANCH  11  12
ATOM     12  C   UNL     1      14.923 -20.311 -22.639  1.00  0.00     0.066 C 
BRANCH  12  13
ATOM     13  C   UNL     1      14.867 -19.225 -23.707  1.00  0.00     0.140 C 
ATOM     14  O   UNL     1      15.836 -19.008 -24.420  1.00  0.00    -0.299 OA
BRANCH  13  15
ATOM     15  C   UNL     1      13.590 -18.452 -23.928  1.00  0.00     0.106 CG0
ATOM     16  G   UNL     1      13.599 -17.056 -23.317  1.00  0.00     0.000 G0
ENDBRANCH  13  15
ENDBRANCH  12  13
BRANCH  12  17
ATOM     17  C   UNL     1      15.472 -21.660 -23.210  1.00  0.00    -0.006 C 
ATOM     18  C   UNL     1      14.648 -22.136 -24.418  1.00  0.00     0.008 C 
ATOM     19  C   UNL     1      15.562 -22.787 -22.165  1.00  0.00     0.008 C 
ENDBRANCH  12  17
ENDBRANCH  11  12
ENDBRANCH   1  11
TORSDOF 1
ENDMDL
MODEL 7
REMARK VINA RESULT:    -3.677      2.344      5.113
REMARK INTER + INTRA:          -5.827
REMARK INTER:                  -5.605
REMARK INTRA:                  -0.221
REMARK UNBOUND:                -0.215
REMARK SMILES CC1=CCC[C@@H](C)C(=O)C[C@H](C(C)C)C(=O)C1
REMARK SMILES IDX 8 1 9 2 6 3 7 4 5 5 4 6 3 7 2 8 1 9 10 11 11 12 15 13 16 14
REMARK SMILES IDX 17 15 12 17 13 18 14 19
REMARK H PARENT
REMARK Flexibility Score: 70.00
ROOT
ATOM      1  C   UNL     1      14.151 -20.185 -20.806  1.00  0.00     0.136 C 
ATOM      2  O   UNL     1      13.017 -20.646 -20.823  1.00  0.00    -0.299 OA
ENDROOT
BRANCH   1   3
ATOM      3  C   UNL     1      14.364 -18.746 -20.376  1.00  0.00     0.053 C 
ATOM      4  C   UNL     1      13.456 -18.402 -19.187  1.00  0.00     0.016 C 
BRANCH   3   5
ATOM      5  C   UNL     1      14.114 -17.782 -21.558  1.00  0.00     0.015 C 
BRANCH   5   6
ATOM      6  C   UNL     1      15.395 -17.019 -21.949  1.00  0.00     0.028 C 
BRANCH   6   7
ATOM      7  C   UNL     1      16.519 -17.197 -20.959  1.00  0.00    -0.028 C 
ATOM      8  C   UNL     1      17.579 -18.029 -21.113  1.00  0.00    -0.070 CG0
ATOM      9  C   UNL     1      18.552 -18.142 -19.965  1.00  0.00     0.039 C 
ATOM     10  G   UNL     1      17.860 -18.811 -22.390  1.00  0.00     0.000 G0
ENDBRANCH   6   7
ENDBRANCH   5   6
ENDBRANCH   3   5
ENDBRANCH   1   3
BRANCH   1  11
ATOM     11  C   UNL     1      15.309 -21.072 -21.203  1.00  0.00     0.087 C 
BRANCH  11  12
ATOM     12  C   UNL     1      15.963 -20.624 -22.538  1.00  0.00     0.066 C 
BRANCH  12  13
ATOM     13  C   UNL     1      17.432 -20.275 -22.342  1.00  0.00     0.140 C 
ATOM     14  O   UNL     1      18.263 -21.158 -22.188  1.00  0.00    -0.299 OA
BRANCH  13  15
ATOM     15  C   UNL     1      17.879 -18.834 -22.397  1.00  0.00     0.106 CG0
ATOM     16  G   UNL     1      17.582 -18.046 -21.128  1.00  0.00     0.000 G0
ENDBRANCH  13  15
ENDBRANCH  12  13
BRANCH  12  17
ATOM     17  C   UNL     1      15.758 -21.645 -23.705  1.00  0.00    -0.006 C 
ATOM     18  C   UNL     1      14.482 -21.336 -24.505  1.00  0.00     0.008 C 
ATOM     19  C   UNL     1      15.743 -23.116 -23.251  1.00  0.00     0.008 C 
ENDBRANCH  12  17
ENDBRANCH  11  12
ENDBRANCH   1  11
TORSDOF 1
ENDMDL
MODEL 8
REMARK VINA RESULT:    -3.487      2.087      4.019
REMARK INTER + INTRA:          -5.536
REMARK INTER:                  -5.219
REMARK INTRA:                  -0.317
REMARK UNBOUND:                -0.215
REMARK SMILES CC1=CCC[C@@H](C)C(=O)C[C@H](C(C)C)C(=O)C1
REMARK SMILES IDX 8 1 9 2 6 3 7 4 5 5 4 6 3 7 2 8 1 9 10 11 11 12 15 13 16 14
REMARK SMILES IDX 17 15 12 17 13 18 14 19
REMARK H PARENT
REMARK Flexibility Score: 70.00
ROOT
ATOM      1  C   UNL     1      11.878 -17.726 -21.896  1.00  0.00     0.136 C 
ATOM      2  O   UNL     1      10.932 -18.298 -21.371  1.00  0.00    -0.299 OA
ENDROOT
BRANCH   1   3
ATOM      3  C   UNL     1      11.759 -17.250 -23.331  1.00  0.00     0.053 C 
ATOM      4  C   UNL     1      10.465 -16.447 -23.524  1.00  0.00     0.016 C 
BRANCH   3   5
ATOM      5  C   UNL     1      11.817 -18.447 -24.307  1.00  0.00     0.015 C 
BRANCH   5   6
ATOM      6  C   UNL     1      13.203 -18.575 -24.968  1.00  0.00     0.028 C 
BRANCH   6   7
ATOM      7  C   UNL     1      13.913 -17.253 -25.123  1.00  0.00    -0.028 C 
ATOM      8  C   UNL     1      15.027 -16.874 -24.447  1.00  0.00    -0.070 CG0
ATOM      9  C   UNL     1      15.534 -15.470 -24.668  1.00  0.00     0.039 C 
ATOM     10  G   UNL     1      15.810 -17.800 -23.525  1.00  0.00     0.000 G0
ENDBRANCH   6   7
ENDBRANCH   5   6
ENDBRANCH   3   5
ENDBRANCH   1   3
BRANCH   1  11
ATOM     11  C   UNL     1      13.136 -17.498 -21.088  1.00  0.00     0.087 C 
BRANCH  11  12
ATOM     12  C   UNL     1      14.285 -18.457 -21.505  1.00  0.00     0.066 C 
BRANCH  12  13
ATOM     13  C   UNL     1      15.473 -17.684 -22.061  1.00  0.00     0.140 C 
ATOM     14  O   UNL     1      16.176 -17.012 -21.321  1.00  0.00    -0.299 OA
BRANCH  13  15
ATOM     15  C   UNL     1      15.825 -17.793 -23.525  1.00  0.00     0.106 CG0
ATOM     16  G   UNL     1      15.024 -16.860 -24.425  1.00  0.00     0.000 G0
ENDBRANCH  13  15
ENDBRANCH  12  13
BRANCH  12  17
ATOM     17  C   UNL     1      14.713 -19.444 -20.370  1.00  0.00    -0.006 C 
ATOM     18  C   UNL     1      14.020 -20.809 -20.522  1.00  0.00     0.008 C 
ATOM     19  C   UNL     1      14.481 -18.899 -18.949  1.00  0.00     0.008 C 
ENDBRANCH  12  17
ENDBRANCH  11  12
ENDBRANCH   1  11
TORSDOF 1
ENDMDL
MODEL 9
REMARK VINA RESULT:    -3.401      1.985      2.734
REMARK INTER + INTRA:          -5.405
REMARK INTER:                  -5.062
REMARK INTRA:                  -0.344
REMARK UNBOUND:                -0.215
REMARK SMILES CC1=CCC[C@@H](C)C(=O)C[C@H](C(C)C)C(=O)C1
REMARK SMILES IDX 8 1 9 2 6 3 7 4 5 5 4 6 3 7 2 8 1 9 10 11 11 12 15 13 16 14
REMARK SMILES IDX 17 15 12 17 13 18 14 19
REMARK H PARENT
REMARK Flexibility Score: 70.00
ROOT
ATOM      1  C   UNL     1      14.388 -20.616 -21.641  1.00  0.00     0.136 C 
ATOM      2  O   UNL     1      14.268 -21.314 -20.643  1.00  0.00    -0.299 OA
ENDROOT
BRANCH   1   3
ATOM      3  C   UNL     1      15.492 -20.920 -22.635  1.00  0.00     0.053 C 
ATOM      4  C   UNL     1      15.468 -22.404 -23.026  1.00  0.00     0.016 C 
BRANCH   3   5
ATOM      5  C   UNL     1      16.869 -20.525 -22.055  1.00  0.00     0.015 C 
BRANCH   5   6
ATOM      6  C   UNL     1      17.248 -19.078 -22.427  1.00  0.00     0.028 C 
BRANCH   6   7
ATOM      7  C   UNL     1      16.777 -18.674 -23.802  1.00  0.00    -0.028 C 
ATOM      8  C   UNL     1      15.899 -17.676 -24.071  1.00  0.00    -0.070 CG0
ATOM      9  C   UNL     1      15.474 -17.487 -25.507  1.00  0.00     0.039 C 
ATOM     10  G   UNL     1      15.364 -16.716 -23.017  1.00  0.00     0.000 G0
ENDBRANCH   6   7
ENDBRANCH   5   6
ENDBRANCH   3   5
ENDBRANCH   1   3
BRANCH   1  11
ATOM     11  C   UNL     1      13.417 -19.477 -21.860  1.00  0.00     0.087 C 
BRANCH  11  12
ATOM     12  C   UNL     1      13.963 -18.127 -21.323  1.00  0.00     0.066 C 
BRANCH  12  13
ATOM     13  C   UNL     1      14.038 -17.083 -22.429  1.00  0.00     0.140 C 
ATOM     14  O   UNL     1      13.027 -16.512 -22.812  1.00  0.00    -0.299 OA
BRANCH  13  15
ATOM     15  C   UNL     1      15.376 -16.705 -23.018  1.00  0.00     0.106 CG0
ATOM     16  G   UNL     1      15.890 -17.685 -24.065  1.00  0.00     0.000 G0
ENDBRANCH  13  15
ENDBRANCH  12  13
BRANCH  12  17
ATOM     17  C   UNL     1      13.187 -17.596 -20.073  1.00  0.00    -0.006 C 
ATOM     18  C   UNL     1      14.004 -17.780 -18.783  1.00  0.00     0.008 C 
ATOM     19  C   UNL     1      11.790 -18.217 -19.897  1.00  0.00     0.008 C 
ENDBRANCH  12  17
ENDBRANCH  11  12
ENDBRANCH   1  11
TORSDOF 1
ENDMDL
