MODEL 1
REMARK VINA RESULT:    -5.243      0.000      0.000
REMARK INTER + INTRA:          -8.587
REMARK INTER:                  -8.001
REMARK INTRA:                  -0.586
REMARK UNBOUND:                -0.586
REMARK SMILES C=CCCCCCCCCCC
REMARK SMILES IDX 7 1 8 2 9 3 10 4 11 5 12 6 6 7 5 8 4 9 3 10 2 11 1 12
REMARK H PARENT
REMARK Flexibility Score: inf
ROOT
ATOM      1  C   UNL     1      15.768  30.266  23.747  1.00  0.00     0.000 C 
ENDROOT
BRANCH   1   2
ATOM      2  C   UNL     1      17.031  31.111  23.952  1.00  0.00    -0.000 C 
BRANCH   2   3
ATOM      3  C   UNL     1      17.967  30.460  24.982  1.00  0.00    -0.000 C 
BRANCH   3   4
ATOM      4  C   UNL     1      17.785  28.937  25.068  1.00  0.00    -0.000 C 
BRANCH   4   5
ATOM      5  C   UNL     1      18.403  28.341  26.342  1.00  0.00    -0.003 C 
ATOM      6  C   UNL     1      19.594  27.447  26.007  1.00  0.00     0.004 C 
ENDBRANCH   4   5
ENDBRANCH   3   4
ENDBRANCH   2   3
ENDBRANCH   1   2
BRANCH   1   7
ATOM      7  C   UNL     1      14.879  30.863  22.645  1.00  0.00     0.000 C 
BRANCH   7   8
ATOM      8  C   UNL     1      15.451  32.164  22.062  1.00  0.00     0.000 C 
BRANCH   8   9
ATOM      9  C   UNL     1      14.361  33.196  21.734  1.00  0.00     0.004 C 
BRANCH   9  10
ATOM     10  C   UNL     1      13.052  32.502  21.337  1.00  0.00     0.027 C 
BRANCH  10  11
ATOM     11  C   UNL     1      11.859  33.233  21.890  1.00  0.00    -0.035 C 
ATOM     12  C   UNL     1      11.446  33.055  23.147  1.00  0.00     0.004 C 
ENDBRANCH  10  11
ENDBRANCH   9  10
ENDBRANCH   8   9
ENDBRANCH   7   8
ENDBRANCH   1   7
TORSDOF 9
ENDMDL
MODEL 2
REMARK VINA RESULT:    -5.221      0.923      6.881
REMARK INTER + INTRA:          -8.554
REMARK INTER:                  -7.939
REMARK INTRA:                  -0.615
REMARK UNBOUND:                -0.586
REMARK SMILES C=CCCCCCCCCCC
REMARK SMILES IDX 7 1 8 2 9 3 10 4 11 5 12 6 6 7 5 8 4 9 3 10 2 11 1 12
REMARK H PARENT
REMARK Flexibility Score: inf
ROOT
ATOM      1  C   UNL     1      15.706  30.125  23.845  1.00  0.00     0.000 C 
ENDROOT
BRANCH   1   2
ATOM      2  C   UNL     1      14.887  30.645  22.657  1.00  0.00    -0.000 C 
BRANCH   2   3
ATOM      3  C   UNL     1      15.535  31.899  22.050  1.00  0.00    -0.000 C 
BRANCH   3   4
ATOM      4  C   UNL     1      14.575  32.678  21.137  1.00  0.00    -0.000 C 
BRANCH   4   5
ATOM      5  C   UNL     1      13.467  33.396  21.922  1.00  0.00    -0.003 C 
ATOM      6  C   UNL     1      12.091  32.851  21.548  1.00  0.00     0.004 C 
ENDBRANCH   4   5
ENDBRANCH   3   4
ENDBRANCH   2   3
ENDBRANCH   1   2
BRANCH   1   7
ATOM      7  C   UNL     1      16.929  31.017  24.102  1.00  0.00     0.000 C 
BRANCH   7   8
ATOM      8  C   UNL     1      18.059  30.278  24.837  1.00  0.00     0.000 C 
BRANCH   8   9
ATOM      9  C   UNL     1      17.745  28.791  25.062  1.00  0.00     0.004 C 
BRANCH   9  10
ATOM     10  C   UNL     1      18.465  28.262  26.309  1.00  0.00     0.027 C 
BRANCH  10  11
ATOM     11  C   UNL     1      19.225  29.358  27.004  1.00  0.00    -0.035 C 
ATOM     12  C   UNL     1      19.069  29.604  28.308  1.00  0.00     0.004 C 
ENDBRANCH  10  11
ENDBRANCH   9  10
ENDBRANCH   8   9
ENDBRANCH   7   8
ENDBRANCH   1   7
TORSDOF 9
ENDMDL
MODEL 3
REMARK VINA RESULT:    -5.165      1.249      2.244
REMARK INTER + INTRA:          -8.468
REMARK INTER:                  -7.962
REMARK INTRA:                  -0.506
REMARK UNBOUND:                -0.586
REMARK SMILES C=CCCCCCCCCCC
REMARK SMILES IDX 7 1 8 2 9 3 10 4 11 5 12 6 6 7 5 8 4 9 3 10 2 11 1 12
REMARK H PARENT
REMARK Flexibility Score: inf
ROOT
ATOM      1  C   UNL     1      15.785  30.160  23.881  1.00  0.00     0.000 C 
ENDROOT
BRANCH   1   2
ATOM      2  C   UNL     1      16.954  31.146  23.995  1.00  0.00    -0.000 C 
BRANCH   2   3
ATOM      3  C   UNL     1      18.186  30.468  24.614  1.00  0.00    -0.000 C 
BRANCH   3   4
ATOM      4  C   UNL     1      17.916  29.012  25.028  1.00  0.00    -0.000 C 
BRANCH   4   5
ATOM      5  C   UNL     1      18.622  28.631  26.337  1.00  0.00    -0.003 C 
ATOM      6  C   UNL     1      19.590  27.471  26.120  1.00  0.00     0.004 C 
ENDBRANCH   4   5
ENDBRANCH   3   4
ENDBRANCH   2   3
ENDBRANCH   1   2
BRANCH   1   7
ATOM      7  C   UNL     1      14.846  30.551  22.729  1.00  0.00     0.000 C 
BRANCH   7   8
ATOM      8  C   UNL     1      15.278  31.848  22.026  1.00  0.00     0.000 C 
BRANCH   8   9
ATOM      9  C   UNL     1      14.126  32.854  21.880  1.00  0.00     0.004 C 
BRANCH   9  10
ATOM     10  C   UNL     1      14.160  33.528  20.502  1.00  0.00     0.027 C 
BRANCH  10  11
ATOM     11  C   UNL     1      15.564  33.901  20.113  1.00  0.00    -0.035 C 
ATOM     12  C   UNL     1      15.860  34.342  18.887  1.00  0.00     0.004 C 
ENDBRANCH  10  11
ENDBRANCH   9  10
ENDBRANCH   8   9
ENDBRANCH   7   8
ENDBRANCH   1   7
TORSDOF 9
ENDMDL
MODEL 4
REMARK VINA RESULT:    -5.083      2.300      2.967
REMARK INTER + INTRA:          -8.343
REMARK INTER:                  -7.805
REMARK INTRA:                  -0.538
REMARK UNBOUND:                -0.586
REMARK SMILES C=CCCCCCCCCCC
REMARK SMILES IDX 7 1 8 2 9 3 10 4 11 5 12 6 6 7 5 8 4 9 3 10 2 11 1 12
REMARK H PARENT
REMARK Flexibility Score: inf
ROOT
ATOM      1  C   UNL     1      16.808  31.291  23.818  1.00  0.00     0.000 C 
ENDROOT
BRANCH   1   2
ATOM      2  C   UNL     1      18.210  30.834  24.241  1.00  0.00    -0.000 C 
BRANCH   2   3
ATOM      3  C   UNL     1      18.132  29.623  25.183  1.00  0.00    -0.000 C 
BRANCH   3   4
ATOM      4  C   UNL     1      18.789  29.890  26.546  1.00  0.00    -0.000 C 
BRANCH   4   5
ATOM      5  C   UNL     1      19.460  28.639  27.133  1.00  0.00    -0.003 C 
ATOM      6  C   UNL     1      19.554  27.528  26.091  1.00  0.00     0.004 C 
ENDBRANCH   4   5
ENDBRANCH   3   4
ENDBRANCH   2   3
ENDBRANCH   1   2
BRANCH   1   7
ATOM      7  C   UNL     1      15.813  30.122  23.859  1.00  0.00     0.000 C 
BRANCH   7   8
ATOM      8  C   UNL     1      14.753  30.206  22.749  1.00  0.00     0.000 C 
BRANCH   8   9
ATOM      9  C   UNL     1      14.538  28.865  22.032  1.00  0.00     0.004 C 
BRANCH   9  10
ATOM     10  C   UNL     1      13.902  29.078  20.652  1.00  0.00     0.027 C 
BRANCH  10  11
ATOM     11  C   UNL     1      14.344  30.380  20.044  1.00  0.00    -0.035 C 
ATOM     12  C   UNL     1      15.228  30.425  19.044  1.00  0.00     0.004 C 
ENDBRANCH  10  11
ENDBRANCH   9  10
ENDBRANCH   8   9
ENDBRANCH   7   8
ENDBRANCH   1   7
TORSDOF 9
ENDMDL
MODEL 5
REMARK VINA RESULT:    -4.923      1.741      2.963
REMARK INTER + INTRA:          -8.099
REMARK INTER:                  -7.595
REMARK INTRA:                  -0.504
REMARK UNBOUND:                -0.586
REMARK SMILES C=CCCCCCCCCCC
REMARK SMILES IDX 7 1 8 2 9 3 10 4 11 5 12 6 6 7 5 8 4 9 3 10 2 11 1 12
REMARK H PARENT
REMARK Flexibility Score: inf
ROOT
ATOM      1  C   UNL     1      18.186  30.424  24.910  1.00  0.00     0.000 C 
ENDROOT
BRANCH   1   2
ATOM      2  C   UNL     1      18.744  30.519  26.336  1.00  0.00    -0.000 C 
BRANCH   2   3
ATOM      3  C   UNL     1      18.565  29.190  27.085  1.00  0.00    -0.000 C 
BRANCH   3   4
ATOM      4  C   UNL     1      19.795  28.275  26.972  1.00  0.00    -0.000 C 
BRANCH   4   5
ATOM      5  C   UNL     1      19.563  27.089  26.024  1.00  0.00    -0.003 C 
ATOM      6  C   UNL     1      20.879  26.598  25.428  1.00  0.00     0.004 C 
ENDBRANCH   4   5
ENDBRANCH   3   4
ENDBRANCH   2   3
ENDBRANCH   1   2
BRANCH   1   7
ATOM      7  C   UNL     1      17.115  29.328  24.810  1.00  0.00     0.000 C 
BRANCH   7   8
ATOM      8  C   UNL     1      15.918  29.745  23.941  1.00  0.00     0.000 C 
BRANCH   8   9
ATOM      9  C   UNL     1      16.051  31.176  23.397  1.00  0.00     0.004 C 
BRANCH   9  10
ATOM     10  C   UNL     1      14.984  31.458  22.332  1.00  0.00     0.027 C 
BRANCH  10  11
ATOM     11  C   UNL     1      15.520  32.349  21.245  1.00  0.00    -0.035 C 
ATOM     12  C   UNL     1      14.871  33.448  20.853  1.00  0.00     0.004 C 
ENDBRANCH  10  11
ENDBRANCH   9  10
ENDBRANCH   8   9
ENDBRANCH   7   8
ENDBRANCH   1   7
TORSDOF 9
ENDMDL
MODEL 6
REMARK VINA RESULT:    -4.870      2.095      6.587
REMARK INTER + INTRA:          -8.018
REMARK INTER:                  -7.520
REMARK INTRA:                  -0.498
REMARK UNBOUND:                -0.586
REMARK SMILES C=CCCCCCCCCCC
REMARK SMILES IDX 7 1 8 2 9 3 10 4 11 5 12 6 6 7 5 8 4 9 3 10 2 11 1 12
REMARK H PARENT
REMARK Flexibility Score: inf
ROOT
ATOM      1  C   UNL     1      15.792  29.935  23.746  1.00  0.00     0.000 C 
ENDROOT
BRANCH   1   2
ATOM      2  C   UNL     1      14.793  30.792  22.959  1.00  0.00    -0.000 C 
BRANCH   2   3
ATOM      3  C   UNL     1      14.735  30.358  21.487  1.00  0.00    -0.000 C 
BRANCH   3   4
ATOM      4  C   UNL     1      13.543  29.435  21.188  1.00  0.00    -0.000 C 
BRANCH   4   5
ATOM      5  C   UNL     1      13.961  27.965  21.028  1.00  0.00    -0.003 C 
ATOM      6  C   UNL     1      12.766  27.033  21.209  1.00  0.00     0.004 C 
ENDBRANCH   4   5
ENDBRANCH   3   4
ENDBRANCH   2   3
ENDBRANCH   1   2
BRANCH   1   7
ATOM      7  C   UNL     1      16.895  30.806  24.366  1.00  0.00     0.000 C 
BRANCH   7   8
ATOM      8  C   UNL     1      18.169  30.010  24.690  1.00  0.00     0.000 C 
BRANCH   8   9
ATOM      9  C   UNL     1      17.867  28.640  25.316  1.00  0.00     0.004 C 
BRANCH   9  10
ATOM     10  C   UNL     1      18.899  28.293  26.397  1.00  0.00     0.027 C 
BRANCH  10  11
ATOM     11  C   UNL     1      19.264  29.504  27.211  1.00  0.00    -0.035 C 
ATOM     12  C   UNL     1      18.825  29.669  28.461  1.00  0.00     0.004 C 
ENDBRANCH  10  11
ENDBRANCH   9  10
ENDBRANCH   8   9
ENDBRANCH   7   8
ENDBRANCH   1   7
TORSDOF 9
ENDMDL
MODEL 7
REMARK VINA RESULT:    -4.842      1.137      6.832
REMARK INTER + INTRA:          -7.976
REMARK INTER:                  -7.484
REMARK INTRA:                  -0.492
REMARK UNBOUND:                -0.586
REMARK SMILES C=CCCCCCCCCCC
REMARK SMILES IDX 7 1 8 2 9 3 10 4 11 5 12 6 6 7 5 8 4 9 3 10 2 11 1 12
REMARK H PARENT
REMARK Flexibility Score: inf
ROOT
ATOM      1  C   UNL     1      15.680  31.844  22.418  1.00  0.00     0.000 C 
ENDROOT
BRANCH   1   2
ATOM      2  C   UNL     1      14.669  32.813  21.793  1.00  0.00    -0.000 C 
BRANCH   2   3
ATOM      3  C   UNL     1      13.231  32.303  21.978  1.00  0.00    -0.000 C 
BRANCH   3   4
ATOM      4  C   UNL     1      12.180  33.285  21.438  1.00  0.00    -0.000 C 
BRANCH   4   5
ATOM      5  C   UNL     1      10.874  33.253  22.246  1.00  0.00    -0.003 C 
ATOM      6  C   UNL     1      11.128  32.800  23.681  1.00  0.00     0.004 C 
ENDBRANCH   4   5
ENDBRANCH   3   4
ENDBRANCH   2   3
ENDBRANCH   1   2
BRANCH   1   7
ATOM      7  C   UNL     1      14.985  30.565  22.909  1.00  0.00     0.000 C 
BRANCH   7   8
ATOM      8  C   UNL     1      15.837  29.776  23.916  1.00  0.00     0.000 C 
BRANCH   8   9
ATOM      9  C   UNL     1      17.105  30.532  24.339  1.00  0.00     0.004 C 
BRANCH   9  10
ATOM     10  C   UNL     1      17.927  29.706  25.336  1.00  0.00     0.027 C 
BRANCH  10  11
ATOM     11  C   UNL     1      18.761  30.592  26.221  1.00  0.00    -0.035 C 
ATOM     12  C   UNL     1      19.404  30.114  27.290  1.00  0.00     0.004 C 
ENDBRANCH  10  11
ENDBRANCH   9  10
ENDBRANCH   8   9
ENDBRANCH   7   8
ENDBRANCH   1   7
TORSDOF 9
ENDMDL
MODEL 8
REMARK VINA RESULT:    -4.799      5.164      7.413
REMARK INTER + INTRA:          -7.910
REMARK INTER:                  -6.640
REMARK INTRA:                  -1.270
REMARK UNBOUND:                -0.586
REMARK SMILES C=CCCCCCCCCCC
REMARK SMILES IDX 7 1 8 2 9 3 10 4 11 5 12 6 6 7 5 8 4 9 3 10 2 11 1 12
REMARK H PARENT
REMARK Flexibility Score: inf
ROOT
ATOM      1  C   UNL     1       8.756  34.242  22.166  1.00  0.00     0.000 C 
ENDROOT
BRANCH   1   2
ATOM      2  C   UNL     1       7.960  33.226  22.994  1.00  0.00    -0.000 C 
BRANCH   2   3
ATOM      3  C   UNL     1       8.173  33.455  24.498  1.00  0.00    -0.000 C 
BRANCH   3   4
ATOM      4  C   UNL     1       9.318  34.438  24.791  1.00  0.00    -0.000 C 
BRANCH   4   5
ATOM      5  C   UNL     1      10.559  33.742  25.369  1.00  0.00    -0.003 C 
ATOM      6  C   UNL     1      10.178  32.453  26.092  1.00  0.00     0.004 C 
ENDBRANCH   4   5
ENDBRANCH   3   4
ENDBRANCH   2   3
ENDBRANCH   1   2
BRANCH   1   7
ATOM      7  C   UNL     1       9.757  33.534  21.241  1.00  0.00     0.000 C 
BRANCH   7   8
ATOM      8  C   UNL     1      10.083  32.105  21.702  1.00  0.00     0.000 C 
BRANCH   8   9
ATOM      9  C   UNL     1      11.593  31.854  21.834  1.00  0.00     0.004 C 
BRANCH   9  10
ATOM     10  C   UNL     1      12.314  33.107  22.344  1.00  0.00     0.027 C 
BRANCH  10  11
ATOM     11  C   UNL     1      13.523  33.421  21.505  1.00  0.00    -0.035 C 
ATOM     12  C   UNL     1      13.461  33.463  20.172  1.00  0.00     0.004 C 
ENDBRANCH  10  11
ENDBRANCH   9  10
ENDBRANCH   8   9
ENDBRANCH   7   8
ENDBRANCH   1   7
TORSDOF 9
ENDMDL
MODEL 9
REMARK VINA RESULT:    -4.766      5.097      7.155
REMARK INTER + INTRA:          -7.860
REMARK INTER:                  -6.430
REMARK INTRA:                  -1.429
REMARK UNBOUND:                -0.586
REMARK SMILES C=CCCCCCCCCCC
REMARK SMILES IDX 7 1 8 2 9 3 10 4 11 5 12 6 6 7 5 8 4 9 3 10 2 11 1 12
REMARK H PARENT
REMARK Flexibility Score: inf
ROOT
ATOM      1  C   UNL     1       9.634  33.429  21.182  1.00  0.00     0.000 C 
ENDROOT
BRANCH   1   2
ATOM      2  C   UNL     1       9.936  31.991  21.623  1.00  0.00    -0.000 C 
BRANCH   2   3
ATOM      3  C   UNL     1      11.391  31.855  22.097  1.00  0.00    -0.000 C 
BRANCH   3   4
ATOM      4  C   UNL     1      12.077  33.215  22.302  1.00  0.00    -0.000 C 
BRANCH   4   5
ATOM      5  C   UNL     1      13.449  33.293  21.617  1.00  0.00    -0.003 C 
ATOM      6  C   UNL     1      13.302  33.608  20.130  1.00  0.00     0.004 C 
ENDBRANCH   4   5
ENDBRANCH   3   4
ENDBRANCH   2   3
ENDBRANCH   1   2
BRANCH   1   7
ATOM      7  C   UNL     1       8.481  34.025  22.004  1.00  0.00     0.000 C 
BRANCH   7   8
ATOM      8  C   UNL     1       7.899  33.029  23.019  1.00  0.00     0.000 C 
BRANCH   8   9
ATOM      9  C   UNL     1       8.112  33.473  24.474  1.00  0.00     0.004 C 
BRANCH   9  10
ATOM     10  C   UNL     1       9.326  34.403  24.590  1.00  0.00     0.027 C 
BRANCH  10  11
ATOM     11  C   UNL     1      10.363  33.832  25.518  1.00  0.00    -0.035 C 
ATOM     12  C   UNL     1      10.513  32.514  25.679  1.00  0.00     0.004 C 
ENDBRANCH  10  11
ENDBRANCH   9  10
ENDBRANCH   8   9
ENDBRANCH   7   8
ENDBRANCH   1   7
TORSDOF 9
ENDMDL
