MODEL 1
REMARK VINA RESULT:     5.161      0.000      0.000
REMARK INTER + INTRA:           7.410
REMARK INTER:                   7.877
REMARK INTRA:                  -0.467
REMARK UNBOUND:                -0.467
REMARK SMILES CCCCCCCCCCC(=O)[O-]
REMARK SMILES IDX 7 1 8 2 9 3 10 4 11 5 12 6 13 7 6 8 5 9 4 10 3 11 2 12 1 13
REMARK H PARENT
REMARK Flexibility Score: inf
ROOT
ATOM      1  C   UNL     1      12.351  11.769  17.652  1.00  0.00     0.000 C 
ENDROOT
BRANCH   1   2
ATOM      2  C   UNL     1      13.807  12.073  17.266  1.00  0.00     0.000 C 
BRANCH   2   3
ATOM      3  C   UNL     1      13.945  13.508  16.742  1.00  0.00     0.006 C 
BRANCH   3   4
ATOM      4  C   UNL     1      14.548  14.426  17.810  1.00  0.00     0.053 C 
BRANCH   4   5
ATOM      5  C   UNL     1      14.343  15.862  17.441  1.00  0.00     0.041 C 
ATOM      6  O   UNL     1      14.939  16.771  18.077  1.00  0.00    -0.550 OA
ATOM      7  O   UNL     1      13.532  16.194  16.364  1.00  0.00    -0.550 OA
ENDBRANCH   4   5
ENDBRANCH   3   4
ENDBRANCH   2   3
ENDBRANCH   1   2
BRANCH   1   8
ATOM      8  C   UNL     1      11.339  12.316  16.631  1.00  0.00     0.000 C 
BRANCH   8   9
ATOM      9  C   UNL     1      10.040  11.493  16.589  1.00  0.00    -0.000 C 
BRANCH   9  10
ATOM     10  C   UNL     1       9.087  11.937  15.464  1.00  0.00    -0.000 C 
BRANCH  10  11
ATOM     11  C   UNL     1       8.139  13.095  15.828  1.00  0.00    -0.000 C 
BRANCH  11  12
ATOM     12  C   UNL     1       7.905  13.224  17.341  1.00  0.00    -0.003 C 
ATOM     13  C   UNL     1       7.884  14.689  17.770  1.00  0.00     0.004 C 
ENDBRANCH  11  12
ENDBRANCH  10  11
ENDBRANCH   9  10
ENDBRANCH   8   9
ENDBRANCH   1   8
TORSDOF 9
ENDMDL
MODEL 2
REMARK VINA RESULT:     5.899      0.816      2.013
REMARK INTER + INTRA:           8.536
REMARK INTER:                   8.862
REMARK INTRA:                  -0.326
REMARK UNBOUND:                -0.467
REMARK SMILES CCCCCCCCCCC(=O)[O-]
REMARK SMILES IDX 7 1 8 2 9 3 10 4 11 5 12 6 13 7 6 8 5 9 4 10 3 11 2 12 1 13
REMARK H PARENT
REMARK Flexibility Score: inf
ROOT
ATOM      1  C   UNL     1      12.577  11.832  17.737  1.00  0.00     0.000 C 
ENDROOT
BRANCH   1   2
ATOM      2  C   UNL     1      13.971  12.020  17.119  1.00  0.00     0.000 C 
BRANCH   2   3
ATOM      3  C   UNL     1      14.148  13.449  16.593  1.00  0.00     0.006 C 
BRANCH   3   4
ATOM      4  C   UNL     1      14.661  14.380  17.696  1.00  0.00     0.053 C 
BRANCH   4   5
ATOM      5  C   UNL     1      14.317  15.803  17.381  1.00  0.00     0.041 C 
ATOM      6  O   UNL     1      13.469  16.067  16.488  1.00  0.00    -0.550 OA
ATOM      7  O   UNL     1      14.898  16.835  18.107  1.00  0.00    -0.550 OA
ENDBRANCH   4   5
ENDBRANCH   3   4
ENDBRANCH   2   3
ENDBRANCH   1   2
BRANCH   1   8
ATOM      8  C   UNL     1      11.453  12.389  16.847  1.00  0.00     0.000 C 
BRANCH   8   9
ATOM      9  C   UNL     1      10.085  11.756  17.160  1.00  0.00    -0.000 C 
BRANCH   9  10
ATOM     10  C   UNL     1       8.925  12.765  17.072  1.00  0.00    -0.000 C 
BRANCH  10  11
ATOM     11  C   UNL     1       8.115  12.719  15.764  1.00  0.00    -0.000 C 
BRANCH  11  12
ATOM     12  C   UNL     1       8.992  12.490  14.524  1.00  0.00    -0.003 C 
ATOM     13  C   UNL     1       8.623  11.185  13.823  1.00  0.00     0.004 C 
ENDBRANCH  11  12
ENDBRANCH  10  11
ENDBRANCH   9  10
ENDBRANCH   8   9
ENDBRANCH   1   8
TORSDOF 9
ENDMDL
MODEL 3
REMARK VINA RESULT:     6.330      3.150      5.781
REMARK INTER + INTRA:           9.194
REMARK INTER:                   9.768
REMARK INTRA:                  -0.574
REMARK UNBOUND:                -0.467
REMARK SMILES CCCCCCCCCCC(=O)[O-]
REMARK SMILES IDX 7 1 8 2 9 3 10 4 11 5 12 6 13 7 6 8 5 9 4 10 3 11 2 12 1 13
REMARK H PARENT
REMARK Flexibility Score: inf
ROOT
ATOM      1  C   UNL     1      12.760  12.065  17.740  1.00  0.00     0.000 C 
ENDROOT
BRANCH   1   2
ATOM      2  C   UNL     1      11.613  12.608  16.874  1.00  0.00     0.000 C 
BRANCH   2   3
ATOM      3  C   UNL     1      10.279  11.958  17.262  1.00  0.00     0.006 C 
BRANCH   3   4
ATOM      4  C   UNL     1       9.613  11.305  16.047  1.00  0.00     0.053 C 
BRANCH   4   5
ATOM      5  C   UNL     1       8.669  12.262  15.391  1.00  0.00     0.041 C 
ATOM      6  O   UNL     1       8.554  12.280  14.137  1.00  0.00    -0.550 OA
ATOM      7  O   UNL     1       7.880  13.102  16.166  1.00  0.00    -0.550 OA
ENDBRANCH   4   5
ENDBRANCH   3   4
ENDBRANCH   2   3
ENDBRANCH   1   2
BRANCH   1   8
ATOM      8  C   UNL     1      14.113  12.077  17.009  1.00  0.00     0.000 C 
BRANCH   8   9
ATOM      9  C   UNL     1      14.578  13.499  16.653  1.00  0.00    -0.000 C 
BRANCH   9  10
ATOM     10  C   UNL     1      14.542  14.459  17.856  1.00  0.00    -0.000 C 
BRANCH  10  11
ATOM     11  C   UNL     1      14.410  15.952  17.499  1.00  0.00    -0.000 C 
BRANCH  11  12
ATOM     12  C   UNL     1      13.469  16.202  16.311  1.00  0.00    -0.003 C 
ATOM     13  C   UNL     1      13.399  17.688  15.970  1.00  0.00     0.004 C 
ENDBRANCH  11  12
ENDBRANCH  10  11
ENDBRANCH   9  10
ENDBRANCH   8   9
ENDBRANCH   1   8
TORSDOF 9
ENDMDL
MODEL 4
REMARK VINA RESULT:     6.444      2.834      5.940
REMARK INTER + INTRA:           9.368
REMARK INTER:                   9.757
REMARK INTRA:                  -0.389
REMARK UNBOUND:                -0.467
REMARK SMILES CCCCCCCCCCC(=O)[O-]
REMARK SMILES IDX 7 1 8 2 9 3 10 4 11 5 12 6 13 7 6 8 5 9 4 10 3 11 2 12 1 13
REMARK H PARENT
REMARK Flexibility Score: inf
ROOT
ATOM      1  C   UNL     1      11.380  12.576  16.733  1.00  0.00     0.000 C 
ENDROOT
BRANCH   1   2
ATOM      2  C   UNL     1      10.028  11.848  16.794  1.00  0.00     0.000 C 
BRANCH   2   3
ATOM      3  C   UNL     1       8.865  12.844  16.704  1.00  0.00     0.006 C 
BRANCH   3   4
ATOM      4  C   UNL     1       7.930  12.493  15.543  1.00  0.00     0.053 C 
BRANCH   4   5
ATOM      5  C   UNL     1       8.718  12.210  14.303  1.00  0.00     0.041 C 
ATOM      6  O   UNL     1       9.459  13.100  13.807  1.00  0.00    -0.550 OA
ATOM      7  O   UNL     1       8.673  10.949  13.722  1.00  0.00    -0.550 OA
ENDBRANCH   4   5
ENDBRANCH   3   4
ENDBRANCH   2   3
ENDBRANCH   1   2
BRANCH   1   8
ATOM      8  C   UNL     1      12.483  11.847  17.518  1.00  0.00     0.000 C 
BRANCH   8   9
ATOM      9  C   UNL     1      13.889  12.377  17.189  1.00  0.00    -0.000 C 
BRANCH   9  10
ATOM     10  C   UNL     1      13.895  13.875  16.831  1.00  0.00    -0.000 C 
BRANCH  10  11
ATOM     11  C   UNL     1      14.844  14.746  17.675  1.00  0.00    -0.000 C 
BRANCH  11  12
ATOM     12  C   UNL     1      14.489  16.239  17.625  1.00  0.00    -0.003 C 
ATOM     13  C   UNL     1      13.566  16.546  16.448  1.00  0.00     0.004 C 
ENDBRANCH  11  12
ENDBRANCH  10  11
ENDBRANCH   9  10
ENDBRANCH   8   9
ENDBRANCH   1   8
TORSDOF 9
ENDMDL
MODEL 5
REMARK VINA RESULT:     7.695      2.979      6.286
REMARK INTER + INTRA:          11.276
REMARK INTER:                  11.752
REMARK INTRA:                  -0.476
REMARK UNBOUND:                -0.467
REMARK SMILES CCCCCCCCCCC(=O)[O-]
REMARK SMILES IDX 7 1 8 2 9 3 10 4 11 5 12 6 13 7 6 8 5 9 4 10 3 11 2 12 1 13
REMARK H PARENT
REMARK Flexibility Score: inf
ROOT
ATOM      1  C   UNL     1      11.452  12.198  16.761  1.00  0.00     0.000 C 
ENDROOT
BRANCH   1   2
ATOM      2  C   UNL     1      10.026  11.627  16.739  1.00  0.00     0.000 C 
BRANCH   2   3
ATOM      3  C   UNL     1       8.984  12.752  16.744  1.00  0.00     0.006 C 
BRANCH   3   4
ATOM      4  C   UNL     1       7.976  12.573  15.605  1.00  0.00     0.053 C 
BRANCH   4   5
ATOM      5  C   UNL     1       8.677  12.177  14.343  1.00  0.00     0.041 C 
ATOM      6  O   UNL     1       8.475  11.042  13.836  1.00  0.00    -0.550 OA
ATOM      7  O   UNL     1       9.517  13.078  13.702  1.00  0.00    -0.550 OA
ENDBRANCH   4   5
ENDBRANCH   3   4
ENDBRANCH   2   3
ENDBRANCH   1   2
BRANCH   1   8
ATOM      8  C   UNL     1      12.134  12.040  18.130  1.00  0.00     0.000 C 
BRANCH   8   9
ATOM      9  C   UNL     1      13.497  12.750  18.194  1.00  0.00    -0.000 C 
BRANCH   9  10
ATOM     10  C   UNL     1      13.885  13.423  16.864  1.00  0.00    -0.000 C 
BRANCH  10  11
ATOM     11  C   UNL     1      15.016  12.727  16.084  1.00  0.00    -0.000 C 
BRANCH  11  12
ATOM     12  C   UNL     1      15.128  11.229  16.402  1.00  0.00    -0.003 C 
ATOM     13  C   UNL     1      15.977  10.508  15.358  1.00  0.00     0.004 C 
ENDBRANCH  11  12
ENDBRANCH  10  11
ENDBRANCH   9  10
ENDBRANCH   8   9
ENDBRANCH   1   8
TORSDOF 9
ENDMDL
