MODEL 1
REMARK VINA RESULT:    -3.755      0.000      0.000
REMARK INTER + INTRA:          -9.014
REMARK INTER:                  -6.828
REMARK INTRA:                  -2.186
REMARK UNBOUND:                -2.186
REMARK SMILES CCCCCC=CCC=CCCCCCCCC(=O)[O-]
REMARK SMILES IDX 11 1 12 2 13 3 14 4 15 5 16 6 17 7 18 8 19 9 20 10 10 11
REMARK SMILES IDX 9 12 8 13 7 14 6 15 5 16 4 17 3 18 2 19 1 20
REMARK H PARENT
REMARK Flexibility Score: inf
ROOT
ATOM      1  C   UNL     1      56.050  25.567  50.087  1.00  0.00     0.027 C 
ENDROOT
BRANCH   1   2
ATOM      2  C   UNL     1      56.217  24.918  51.469  1.00  0.00     0.004 C 
BRANCH   2   3
ATOM      3  C   UNL     1      57.653  25.018  52.005  1.00  0.00     0.000 C 
BRANCH   3   4
ATOM      4  C   UNL     1      58.707  24.962  50.885  1.00  0.00     0.000 C 
BRANCH   4   5
ATOM      5  C   UNL     1      60.021  24.310  51.346  1.00  0.00     0.000 C 
BRANCH   5   6
ATOM      6  C   UNL     1      61.208  24.669  50.434  1.00  0.00     0.006 C 
BRANCH   6   7
ATOM      7  C   UNL     1      61.961  25.913  50.926  1.00  0.00     0.053 C 
BRANCH   7   8
ATOM      8  C   UNL     1      63.123  26.252  50.043  1.00  0.00     0.041 C 
ATOM      9  O   UNL     1      63.066  27.245  49.270  1.00  0.00    -0.550 OA
ATOM     10  O   UNL     1      64.285  25.493  50.101  1.00  0.00    -0.550 OA
ENDBRANCH   7   8
ENDBRANCH   6   7
ENDBRANCH   5   6
ENDBRANCH   4   5
ENDBRANCH   3   4
ENDBRANCH   2   3
ENDBRANCH   1   2
BRANCH   1  11
ATOM     11  C   UNL     1      54.740  25.160  49.463  1.00  0.00    -0.031 C 
ATOM     12  C   UNL     1      53.542  25.678  49.794  1.00  0.00    -0.027 C 
BRANCH  12  13
ATOM     13  C   UNL     1      53.334  26.795  50.786  1.00  0.00     0.054 C 
BRANCH  13  14
ATOM     14  C   UNL     1      53.883  28.101  50.271  1.00  0.00    -0.027 C 
ATOM     15  C   UNL     1      54.756  28.884  50.933  1.00  0.00    -0.031 C 
BRANCH  15  16
ATOM     16  C   UNL     1      55.357  28.570  52.282  1.00  0.00     0.027 C 
BRANCH  16  17
ATOM     17  C   UNL     1      56.889  28.622  52.240  1.00  0.00     0.004 C 
BRANCH  17  18
ATOM     18  C   UNL     1      57.427  28.663  50.799  1.00  0.00     0.000 C 
BRANCH  18  19
ATOM     19  C   UNL     1      58.962  28.717  50.743  1.00  0.00    -0.003 C 
ATOM     20  C   UNL     1      59.524  28.208  49.416  1.00  0.00     0.004 C 
ENDBRANCH  18  19
ENDBRANCH  17  18
ENDBRANCH  16  17
ENDBRANCH  15  16
ENDBRANCH  13  14
ENDBRANCH  12  13
ENDBRANCH   1  11
TORSDOF 14
ENDMDL
MODEL 2
REMARK VINA RESULT:    -3.670      1.929      3.413
REMARK INTER + INTRA:          -8.859
REMARK INTER:                  -6.147
REMARK INTRA:                  -2.712
REMARK UNBOUND:                -2.186
REMARK SMILES CCCCCC=CCC=CCCCCCCCC(=O)[O-]
REMARK SMILES IDX 11 1 12 2 13 3 14 4 15 5 16 6 17 7 18 8 19 9 20 10 10 11
REMARK SMILES IDX 9 12 8 13 7 14 6 15 5 16 4 17 3 18 2 19 1 20
REMARK H PARENT
REMARK Flexibility Score: inf
ROOT
ATOM      1  C   UNL     1      57.056  26.567  51.314  1.00  0.00     0.027 C 
ENDROOT
BRANCH   1   2
ATOM      2  C   UNL     1      57.427  27.933  50.718  1.00  0.00     0.004 C 
BRANCH   2   3
ATOM      3  C   UNL     1      58.669  28.553  51.378  1.00  0.00     0.000 C 
BRANCH   3   4
ATOM      4  C   UNL     1      59.808  28.802  50.374  1.00  0.00     0.000 C 
BRANCH   4   5
ATOM      5  C   UNL     1      60.003  27.627  49.402  1.00  0.00     0.000 C 
BRANCH   5   6
ATOM      6  C   UNL     1      61.004  26.584  49.931  1.00  0.00     0.006 C 
BRANCH   6   7
ATOM      7  C   UNL     1      60.393  25.178  50.000  1.00  0.00     0.053 C 
BRANCH   7   8
ATOM      8  C   UNL     1      60.128  24.750  51.412  1.00  0.00     0.041 C 
ATOM      9  O   UNL     1      59.443  23.719  51.645  1.00  0.00    -0.550 OA
ATOM     10  O   UNL     1      60.670  25.468  52.470  1.00  0.00    -0.550 OA
ENDBRANCH   7   8
ENDBRANCH   6   7
ENDBRANCH   5   6
ENDBRANCH   4   5
ENDBRANCH   3   4
ENDBRANCH   2   3
ENDBRANCH   1   2
BRANCH   1  11
ATOM     11  C   UNL     1      56.416  25.688  50.270  1.00  0.00    -0.031 C 
ATOM     12  C   UNL     1      55.093  25.460  50.168  1.00  0.00    -0.027 C 
BRANCH  12  13
ATOM     13  C   UNL     1      54.042  26.106  51.036  1.00  0.00     0.054 C 
BRANCH  13  14
ATOM     14  C   UNL     1      53.086  26.937  50.219  1.00  0.00    -0.027 C 
ATOM     15  C   UNL     1      53.130  28.279  50.110  1.00  0.00    -0.031 C 
BRANCH  15  16
ATOM     16  C   UNL     1      54.163  29.170  50.757  1.00  0.00     0.027 C 
BRANCH  16  17
ATOM     17  C   UNL     1      53.735  29.594  52.167  1.00  0.00     0.004 C 
BRANCH  17  18
ATOM     18  C   UNL     1      54.922  29.627  53.146  1.00  0.00     0.000 C 
BRANCH  18  19
ATOM     19  C   UNL     1      55.078  28.315  53.929  1.00  0.00    -0.003 C 
ATOM     20  C   UNL     1      56.442  28.188  54.608  1.00  0.00     0.004 C 
ENDBRANCH  18  19
ENDBRANCH  17  18
ENDBRANCH  16  17
ENDBRANCH  15  16
ENDBRANCH  13  14
ENDBRANCH  12  13
ENDBRANCH   1  11
TORSDOF 14
ENDMDL
MODEL 3
REMARK VINA RESULT:    -3.662     10.823     12.464
REMARK INTER + INTRA:          -8.844
REMARK INTER:                  -6.451
REMARK INTRA:                  -2.393
REMARK UNBOUND:                -2.186
REMARK SMILES CCCCCC=CCC=CCCCCCCCC(=O)[O-]
REMARK SMILES IDX 11 1 12 2 13 3 14 4 15 5 16 6 17 7 18 8 19 9 20 10 10 11
REMARK SMILES IDX 9 12 8 13 7 14 6 15 5 16 4 17 3 18 2 19 1 20
REMARK H PARENT
REMARK Flexibility Score: inf
ROOT
ATOM      1  C   UNL     1      62.846  28.218  59.050  1.00  0.00     0.027 C 
ENDROOT
BRANCH   1   2
ATOM      2  C   UNL     1      64.367  28.162  58.849  1.00  0.00     0.004 C 
BRANCH   2   3
ATOM      3  C   UNL     1      65.027  29.548  58.908  1.00  0.00     0.000 C 
BRANCH   3   4
ATOM      4  C   UNL     1      65.883  29.742  60.171  1.00  0.00     0.000 C 
BRANCH   4   5
ATOM      5  C   UNL     1      66.065  28.438  60.965  1.00  0.00     0.000 C 
BRANCH   5   6
ATOM      6  C   UNL     1      67.544  28.128  61.259  1.00  0.00     0.006 C 
BRANCH   6   7
ATOM      7  C   UNL     1      68.456  28.485  60.078  1.00  0.00     0.053 C 
BRANCH   7   8
ATOM      8  C   UNL     1      68.519  27.384  59.063  1.00  0.00     0.041 C 
ATOM      9  O   UNL     1      69.034  26.274  59.362  1.00  0.00    -0.550 OA
ATOM     10  O   UNL     1      67.974  27.571  57.800  1.00  0.00    -0.550 OA
ENDBRANCH   7   8
ENDBRANCH   6   7
ENDBRANCH   5   6
ENDBRANCH   4   5
ENDBRANCH   3   4
ENDBRANCH   2   3
ENDBRANCH   1   2
BRANCH   1  11
ATOM     11  C   UNL     1      62.442  27.435  60.274  1.00  0.00    -0.031 C 
ATOM     12  C   UNL     1      62.376  27.942  61.519  1.00  0.00    -0.027 C 
BRANCH  12  13
ATOM     13  C   UNL     1      62.625  29.388  61.871  1.00  0.00     0.054 C 
BRANCH  13  14
ATOM     14  C   UNL     1      61.371  30.213  61.737  1.00  0.00    -0.027 C 
ATOM     15  C   UNL     1      61.250  31.313  60.970  1.00  0.00    -0.031 C 
BRANCH  15  16
ATOM     16  C   UNL     1      62.337  31.883  60.090  1.00  0.00     0.027 C 
BRANCH  16  17
ATOM     17  C   UNL     1      62.817  33.247  60.602  1.00  0.00     0.004 C 
BRANCH  17  18
ATOM     18  C   UNL     1      64.346  33.301  60.757  1.00  0.00     0.000 C 
BRANCH  18  19
ATOM     19  C   UNL     1      64.806  34.442  61.677  1.00  0.00    -0.003 C 
ATOM     20  C   UNL     1      63.940  35.694  61.546  1.00  0.00     0.004 C 
ENDBRANCH  18  19
ENDBRANCH  17  18
ENDBRANCH  16  17
ENDBRANCH  15  16
ENDBRANCH  13  14
ENDBRANCH  12  13
ENDBRANCH   1  11
TORSDOF 14
ENDMDL
MODEL 4
REMARK VINA RESULT:    -3.640      1.855      4.601
REMARK INTER + INTRA:          -8.805
REMARK INTER:                  -6.993
REMARK INTRA:                  -1.812
REMARK UNBOUND:                -2.186
REMARK SMILES CCCCCC=CCC=CCCCCCCCC(=O)[O-]
REMARK SMILES IDX 11 1 12 2 13 3 14 4 15 5 16 6 17 7 18 8 19 9 20 10 10 11
REMARK SMILES IDX 9 12 8 13 7 14 6 15 5 16 4 17 3 18 2 19 1 20
REMARK H PARENT
REMARK Flexibility Score: inf
ROOT
ATOM      1  C   UNL     1      60.039  25.020  52.013  1.00  0.00     0.027 C 
ENDROOT
BRANCH   1   2
ATOM      2  C   UNL     1      61.360  24.250  52.159  1.00  0.00     0.004 C 
BRANCH   2   3
ATOM      3  C   UNL     1      62.595  25.141  51.958  1.00  0.00     0.000 C 
BRANCH   3   4
ATOM      4  C   UNL     1      63.252  24.937  50.582  1.00  0.00     0.000 C 
BRANCH   4   5
ATOM      5  C   UNL     1      64.263  26.046  50.243  1.00  0.00     0.000 C 
BRANCH   5   6
ATOM      6  C   UNL     1      63.707  27.059  49.226  1.00  0.00     0.006 C 
BRANCH   6   7
ATOM      7  C   UNL     1      64.137  28.497  49.546  1.00  0.00     0.053 C 
BRANCH   7   8
ATOM      8  C   UNL     1      65.025  29.067  48.483  1.00  0.00     0.041 C 
ATOM      9  O   UNL     1      65.182  28.457  47.392  1.00  0.00    -0.550 OA
ATOM     10  O   UNL     1      65.649  30.292  48.681  1.00  0.00    -0.550 OA
ENDBRANCH   7   8
ENDBRANCH   6   7
ENDBRANCH   5   6
ENDBRANCH   4   5
ENDBRANCH   3   4
ENDBRANCH   2   3
ENDBRANCH   1   2
BRANCH   1  11
ATOM     11  C   UNL     1      59.508  24.905  50.607  1.00  0.00    -0.031 C 
ATOM     12  C   UNL     1      59.605  25.869  49.672  1.00  0.00    -0.027 C 
BRANCH  12  13
ATOM     13  C   UNL     1      60.321  27.182  49.864  1.00  0.00     0.054 C 
BRANCH  13  14
ATOM     14  C   UNL     1      59.468  28.345  49.426  1.00  0.00    -0.027 C 
ATOM     15  C   UNL     1      58.381  28.794  50.083  1.00  0.00    -0.031 C 
BRANCH  15  16
ATOM     16  C   UNL     1      57.858  28.234  51.383  1.00  0.00     0.027 C 
BRANCH  16  17
ATOM     17  C   UNL     1      56.369  27.880  51.284  1.00  0.00     0.004 C 
BRANCH  17  18
ATOM     18  C   UNL     1      56.137  26.567  50.517  1.00  0.00     0.000 C 
BRANCH  18  19
ATOM     19  C   UNL     1      54.684  26.408  50.046  1.00  0.00    -0.003 C 
ATOM     20  C   UNL     1      54.423  25.060  49.373  1.00  0.00     0.004 C 
ENDBRANCH  18  19
ENDBRANCH  17  18
ENDBRANCH  16  17
ENDBRANCH  15  16
ENDBRANCH  13  14
ENDBRANCH  12  13
ENDBRANCH   1  11
TORSDOF 14
ENDMDL
MODEL 5
REMARK VINA RESULT:    -3.618      3.571      6.456
REMARK INTER + INTRA:          -8.764
REMARK INTER:                  -5.781
REMARK INTRA:                  -2.983
REMARK UNBOUND:                -2.186
REMARK SMILES CCCCCC=CCC=CCCCCCCCC(=O)[O-]
REMARK SMILES IDX 11 1 12 2 13 3 14 4 15 5 16 6 17 7 18 8 19 9 20 10 10 11
REMARK SMILES IDX 9 12 8 13 7 14 6 15 5 16 4 17 3 18 2 19 1 20
REMARK H PARENT
REMARK Flexibility Score: inf
ROOT
ATOM      1  C   UNL     1      59.382  27.088  53.572  1.00  0.00     0.027 C 
ENDROOT
BRANCH   1   2
ATOM      2  C   UNL     1      58.602  25.775  53.406  1.00  0.00     0.004 C 
BRANCH   2   3
ATOM      3  C   UNL     1      57.243  25.974  52.716  1.00  0.00     0.000 C 
BRANCH   3   4
ATOM      4  C   UNL     1      57.131  25.190  51.397  1.00  0.00     0.000 C 
BRANCH   4   5
ATOM      5  C   UNL     1      56.470  26.012  50.278  1.00  0.00     0.000 C 
BRANCH   5   6
ATOM      6  C   UNL     1      55.865  27.330  50.795  1.00  0.00     0.006 C 
BRANCH   6   7
ATOM      7  C   UNL     1      54.449  27.569  50.254  1.00  0.00     0.053 C 
BRANCH   7   8
ATOM      8  C   UNL     1      53.619  26.322  50.285  1.00  0.00     0.041 C 
ATOM      9  O   UNL     1      53.270  25.765  49.210  1.00  0.00    -0.550 OA
ATOM     10  O   UNL     1      53.263  25.753  51.500  1.00  0.00    -0.550 OA
ENDBRANCH   7   8
ENDBRANCH   6   7
ENDBRANCH   5   6
ENDBRANCH   4   5
ENDBRANCH   3   4
ENDBRANCH   2   3
ENDBRANCH   1   2
BRANCH   1  11
ATOM     11  C   UNL     1      58.477  28.275  53.366  1.00  0.00    -0.031 C 
ATOM     12  C   UNL     1      58.664  29.226  52.431  1.00  0.00    -0.027 C 
BRANCH  12  13
ATOM     13  C   UNL     1      59.765  29.211  51.400  1.00  0.00     0.054 C 
BRANCH  13  14
ATOM     14  C   UNL     1      59.267  28.713  50.068  1.00  0.00    -0.027 C 
ATOM     15  C   UNL     1      59.747  27.634  49.420  1.00  0.00    -0.031 C 
BRANCH  15  16
ATOM     16  C   UNL     1      60.836  26.724  49.935  1.00  0.00     0.027 C 
BRANCH  16  17
ATOM     17  C   UNL     1      60.376  25.261  49.969  1.00  0.00     0.004 C 
BRANCH  17  18
ATOM     18  C   UNL     1      61.084  24.458  51.074  1.00  0.00     0.000 C 
BRANCH  18  19
ATOM     19  C   UNL     1      60.621  22.995  51.129  1.00  0.00    -0.003 C 
ATOM     20  C   UNL     1      61.705  22.013  50.683  1.00  0.00     0.004 C 
ENDBRANCH  18  19
ENDBRANCH  17  18
ENDBRANCH  16  17
ENDBRANCH  15  16
ENDBRANCH  13  14
ENDBRANCH  12  13
ENDBRANCH   1  11
TORSDOF 14
ENDMDL
MODEL 6
REMARK VINA RESULT:    -3.602      1.629      3.960
REMARK INTER + INTRA:          -8.735
REMARK INTER:                  -6.361
REMARK INTRA:                  -2.374
REMARK UNBOUND:                -2.186
REMARK SMILES CCCCCC=CCC=CCCCCCCCC(=O)[O-]
REMARK SMILES IDX 11 1 12 2 13 3 14 4 15 5 16 6 17 7 18 8 19 9 20 10 10 11
REMARK SMILES IDX 9 12 8 13 7 14 6 15 5 16 4 17 3 18 2 19 1 20
REMARK H PARENT
REMARK Flexibility Score: inf
ROOT
ATOM      1  C   UNL     1      54.318  28.959  52.585  1.00  0.00     0.027 C 
ENDROOT
BRANCH   1   2
ATOM      2  C   UNL     1      55.559  29.764  53.000  1.00  0.00     0.004 C 
BRANCH   2   3
ATOM      3  C   UNL     1      56.830  28.904  53.072  1.00  0.00     0.000 C 
BRANCH   3   4
ATOM      4  C   UNL     1      58.102  29.701  52.736  1.00  0.00     0.000 C 
BRANCH   4   5
ATOM      5  C   UNL     1      59.077  28.908  51.850  1.00  0.00     0.000 C 
BRANCH   5   6
ATOM      6  C   UNL     1      58.503  28.625  50.450  1.00  0.00     0.006 C 
BRANCH   6   7
ATOM      7  C   UNL     1      59.606  28.446  49.397  1.00  0.00     0.053 C 
BRANCH   7   8
ATOM      8  C   UNL     1      60.332  27.146  49.560  1.00  0.00     0.041 C 
ATOM      9  O   UNL     1      59.691  26.064  49.626  1.00  0.00    -0.550 OA
ATOM     10  O   UNL     1      61.720  27.125  49.601  1.00  0.00    -0.550 OA
ENDBRANCH   7   8
ENDBRANCH   6   7
ENDBRANCH   5   6
ENDBRANCH   4   5
ENDBRANCH   3   4
ENDBRANCH   2   3
ENDBRANCH   1   2
BRANCH   1  11
ATOM     11  C   UNL     1      54.004  29.177  51.128  1.00  0.00    -0.031 C 
ATOM     12  C   UNL     1      53.520  28.233  50.299  1.00  0.00    -0.027 C 
BRANCH  12  13
ATOM     13  C   UNL     1      53.149  26.832  50.719  1.00  0.00     0.054 C 
BRANCH  13  14
ATOM     14  C   UNL     1      53.697  25.806  49.761  1.00  0.00    -0.027 C 
ATOM     15  C   UNL     1      55.005  25.527  49.595  1.00  0.00    -0.031 C 
BRANCH  15  16
ATOM     16  C   UNL     1      56.135  26.168  50.365  1.00  0.00     0.027 C 
BRANCH  16  17
ATOM     17  C   UNL     1      56.742  25.195  51.383  1.00  0.00     0.004 C 
BRANCH  17  18
ATOM     18  C   UNL     1      56.063  25.301  52.760  1.00  0.00     0.000 C 
BRANCH  18  19
ATOM     19  C   UNL     1      57.073  25.477  53.904  1.00  0.00    -0.003 C 
ATOM     20  C   UNL     1      58.520  25.536  53.414  1.00  0.00     0.004 C 
ENDBRANCH  18  19
ENDBRANCH  17  18
ENDBRANCH  16  17
ENDBRANCH  15  16
ENDBRANCH  13  14
ENDBRANCH  12  13
ENDBRANCH   1  11
TORSDOF 14
ENDMDL
MODEL 7
REMARK VINA RESULT:    -3.575      3.430      6.450
REMARK INTER + INTRA:          -8.686
REMARK INTER:                  -6.161
REMARK INTRA:                  -2.524
REMARK UNBOUND:                -2.186
REMARK SMILES CCCCCC=CCC=CCCCCCCCC(=O)[O-]
REMARK SMILES IDX 11 1 12 2 13 3 14 4 15 5 16 6 17 7 18 8 19 9 20 10 10 11
REMARK SMILES IDX 9 12 8 13 7 14 6 15 5 16 4 17 3 18 2 19 1 20
REMARK H PARENT
REMARK Flexibility Score: inf
ROOT
ATOM      1  C   UNL     1      56.610  25.537  50.303  1.00  0.00     0.027 C 
ENDROOT
BRANCH   1   2
ATOM      2  C   UNL     1      55.107  25.222  50.315  1.00  0.00     0.004 C 
BRANCH   2   3
ATOM      3  C   UNL     1      54.253  26.375  49.765  1.00  0.00     0.000 C 
BRANCH   3   4
ATOM      4  C   UNL     1      53.827  27.369  50.860  1.00  0.00     0.000 C 
BRANCH   4   5
ATOM      5  C   UNL     1      54.523  28.733  50.719  1.00  0.00     0.000 C 
BRANCH   5   6
ATOM      6  C   UNL     1      53.901  29.809  51.627  1.00  0.00     0.006 C 
BRANCH   6   7
ATOM      7  C   UNL     1      54.818  30.179  52.800  1.00  0.00     0.053 C 
BRANCH   7   8
ATOM      8  C   UNL     1      54.613  29.277  53.979  1.00  0.00     0.041 C 
ATOM      9  O   UNL     1      55.412  28.329  54.200  1.00  0.00    -0.550 OA
ATOM     10  O   UNL     1      53.562  29.508  54.857  1.00  0.00    -0.550 OA
ENDBRANCH   7   8
ENDBRANCH   6   7
ENDBRANCH   5   6
ENDBRANCH   4   5
ENDBRANCH   3   4
ENDBRANCH   2   3
ENDBRANCH   1   2
BRANCH   1  11
ATOM     11  C   UNL     1      57.221  25.266  51.654  1.00  0.00    -0.031 C 
ATOM     12  C   UNL     1      58.478  24.824  51.850  1.00  0.00    -0.027 C 
BRANCH  12  13
ATOM     13  C   UNL     1      59.490  24.601  50.755  1.00  0.00     0.054 C 
BRANCH  13  14
ATOM     14  C   UNL     1      60.737  25.418  50.980  1.00  0.00    -0.027 C 
ATOM     15  C   UNL     1      61.011  26.589  50.374  1.00  0.00    -0.031 C 
BRANCH  15  16
ATOM     16  C   UNL     1      60.102  27.296  49.397  1.00  0.00     0.027 C 
BRANCH  16  17
ATOM     17  C   UNL     1      59.669  28.669  49.926  1.00  0.00     0.004 C 
BRANCH  17  18
ATOM     18  C   UNL     1      58.226  28.655  50.457  1.00  0.00     0.000 C 
BRANCH  18  19
ATOM     19  C   UNL     1      58.155  28.840  51.981  1.00  0.00    -0.003 C 
ATOM     20  C   UNL     1      59.505  29.209  52.596  1.00  0.00     0.004 C 
ENDBRANCH  18  19
ENDBRANCH  17  18
ENDBRANCH  16  17
ENDBRANCH  15  16
ENDBRANCH  13  14
ENDBRANCH  12  13
ENDBRANCH   1  11
TORSDOF 14
ENDMDL
MODEL 8
REMARK VINA RESULT:    -3.533      2.065      4.594
REMARK INTER + INTRA:          -8.611
REMARK INTER:                  -5.914
REMARK INTRA:                  -2.697
REMARK UNBOUND:                -2.186
REMARK SMILES CCCCCC=CCC=CCCCCCCCC(=O)[O-]
REMARK SMILES IDX 11 1 12 2 13 3 14 4 15 5 16 6 17 7 18 8 19 9 20 10 10 11
REMARK SMILES IDX 9 12 8 13 7 14 6 15 5 16 4 17 3 18 2 19 1 20
REMARK H PARENT
REMARK Flexibility Score: inf
ROOT
ATOM      1  C   UNL     1      58.527  28.662  50.388  1.00  0.00     0.027 C 
ENDROOT
BRANCH   1   2
ATOM      2  C   UNL     1      59.364  28.031  49.265  1.00  0.00     0.004 C 
BRANCH   2   3
ATOM      3  C   UNL     1      60.713  27.488  49.761  1.00  0.00     0.000 C 
BRANCH   3   4
ATOM      4  C   UNL     1      60.700  25.962  49.956  1.00  0.00     0.000 C 
BRANCH   4   5
ATOM      5  C   UNL     1      61.659  25.502  51.066  1.00  0.00     0.000 C 
BRANCH   5   6
ATOM      6  C   UNL     1      61.029  24.442  51.987  1.00  0.00     0.006 C 
BRANCH   6   7
ATOM      7  C   UNL     1      60.279  23.361  51.198  1.00  0.00     0.053 C 
BRANCH   7   8
ATOM      8  C   UNL     1      61.166  22.207  50.842  1.00  0.00     0.041 C 
ATOM      9  O   UNL     1      62.047  21.811  51.651  1.00  0.00    -0.550 OA
ATOM     10  O   UNL     1      60.995  21.545  49.633  1.00  0.00    -0.550 OA
ENDBRANCH   7   8
ENDBRANCH   6   7
ENDBRANCH   5   6
ENDBRANCH   4   5
ENDBRANCH   3   4
ENDBRANCH   2   3
ENDBRANCH   1   2
BRANCH   1  11
ATOM     11  C   UNL     1      59.344  28.804  51.646  1.00  0.00    -0.031 C 
ATOM     12  C   UNL     1      58.925  28.449  52.875  1.00  0.00    -0.027 C 
BRANCH  12  13
ATOM     13  C   UNL     1      57.602  27.788  53.172  1.00  0.00     0.054 C 
BRANCH  13  14
ATOM     14  C   UNL     1      57.779  26.334  53.529  1.00  0.00    -0.027 C 
ATOM     15  C   UNL     1      57.572  25.303  52.687  1.00  0.00    -0.031 C 
BRANCH  15  16
ATOM     16  C   UNL     1      57.164  25.432  51.239  1.00  0.00     0.027 C 
BRANCH  16  17
ATOM     17  C   UNL     1      55.640  25.390  51.079  1.00  0.00     0.004 C 
BRANCH  17  18
ATOM     18  C   UNL     1      55.137  26.422  50.054  1.00  0.00     0.000 C 
BRANCH  18  19
ATOM     19  C   UNL     1      54.908  27.808  50.676  1.00  0.00    -0.003 C 
ATOM     20  C   UNL     1      53.512  28.361  50.392  1.00  0.00     0.004 C 
ENDBRANCH  18  19
ENDBRANCH  17  18
ENDBRANCH  16  17
ENDBRANCH  15  16
ENDBRANCH  13  14
ENDBRANCH  12  13
ENDBRANCH   1  11
TORSDOF 14
ENDMDL
MODEL 9
REMARK VINA RESULT:    -3.495     10.915     13.133
REMARK INTER + INTRA:          -8.542
REMARK INTER:                  -6.152
REMARK INTRA:                  -2.390
REMARK UNBOUND:                -2.186
REMARK SMILES CCCCCC=CCC=CCCCCCCCC(=O)[O-]
REMARK SMILES IDX 11 1 12 2 13 3 14 4 15 5 16 6 17 7 18 8 19 9 20 10 10 11
REMARK SMILES IDX 9 12 8 13 7 14 6 15 5 16 4 17 3 18 2 19 1 20
REMARK H PARENT
REMARK Flexibility Score: inf
ROOT
ATOM      1  C   UNL     1      63.886  31.447  58.804  1.00  0.00     0.027 C 
ENDROOT
BRANCH   1   2
ATOM      2  C   UNL     1      64.851  32.317  59.623  1.00  0.00     0.004 C 
BRANCH   2   3
ATOM      3  C   UNL     1      64.199  32.906  60.883  1.00  0.00     0.000 C 
BRANCH   3   4
ATOM      4  C   UNL     1      64.669  34.342  61.175  1.00  0.00     0.000 C 
BRANCH   4   5
ATOM      5  C   UNL     1      63.499  35.336  61.268  1.00  0.00     0.000 C 
BRANCH   5   6
ATOM      6  C   UNL     1      62.149  34.693  60.904  1.00  0.00     0.006 C 
BRANCH   6   7
ATOM      7  C   UNL     1      61.114  35.733  60.456  1.00  0.00     0.053 C 
BRANCH   7   8
ATOM      8  C   UNL     1      60.723  35.554  59.020  1.00  0.00     0.041 C 
ATOM      9  O   UNL     1      61.592  35.631  58.111  1.00  0.00    -0.550 OA
ATOM     10  O   UNL     1      59.406  35.264  58.689  1.00  0.00    -0.550 OA
ENDBRANCH   7   8
ENDBRANCH   6   7
ENDBRANCH   5   6
ENDBRANCH   4   5
ENDBRANCH   3   4
ENDBRANCH   2   3
ENDBRANCH   1   2
BRANCH   1  11
ATOM     11  C   UNL     1      62.632  32.214  58.471  1.00  0.00    -0.031 C 
ATOM     12  C   UNL     1      61.385  31.814  58.784  1.00  0.00    -0.027 C 
BRANCH  12  13
ATOM     13  C   UNL     1      61.056  30.575  59.578  1.00  0.00     0.054 C 
BRANCH  13  14
ATOM     14  C   UNL     1      61.091  30.844  61.061  1.00  0.00    -0.027 C 
ATOM     15  C   UNL     1      61.925  30.246  61.933  1.00  0.00    -0.031 C 
BRANCH  15  16
ATOM     16  C   UNL     1      62.986  29.235  61.568  1.00  0.00     0.027 C 
BRANCH  16  17
ATOM     17  C   UNL     1      62.429  27.807  61.583  1.00  0.00     0.004 C 
BRANCH  17  18
ATOM     18  C   UNL     1      62.423  27.174  60.181  1.00  0.00     0.000 C 
BRANCH  18  19
ATOM     19  C   UNL     1      63.827  26.762  59.713  1.00  0.00    -0.003 C 
ATOM     20  C   UNL     1      64.602  25.984  60.777  1.00  0.00     0.004 C 
ENDBRANCH  18  19
ENDBRANCH  17  18
ENDBRANCH  16  17
ENDBRANCH  15  16
ENDBRANCH  13  14
ENDBRANCH  12  13
ENDBRANCH   1  11
TORSDOF 14
ENDMDL
