MODEL 1
REMARK VINA RESULT:   101.067      0.000      0.000
REMARK INTER + INTRA:         165.556
REMARK INTER:                 166.060
REMARK INTRA:                  -0.503
REMARK UNBOUND:                -0.503
REMARK SMILES C[C@H]1O[C@H](OC[C@H]2O[C@H](Oc3c(-c4ccc(O)c(O)c4)oc4cc(O)cc(O)c4c3=O)[C@@H](O)[C@@H](O)[C@H]2O)[C@H](O)[C@H](O)[C@@H]1O
REMARK SMILES IDX 7 1 36 2 34 3 32 4 9 5 8 6 6 7 5 8 4 9 1 10 2 11 42 12 3 13
REMARK SMILES IDX 40 14 38 15 43 16 41 18 39 20 37 22 35 24 10 26 11 27 12 28
REMARK SMILES IDX 30 29 21 30 29 31 31 32 22 33 27 34 23 35 26 36 24 37 13 38
REMARK SMILES IDX 20 39 14 40 18 41 15 42 16 43 19 44 17 46 28 48 25 50 33 52
REMARK H PARENT 43 17 41 19 39 21 37 23 35 25 19 45 17 47 28 49 25 51 33 53
REMARK Flexibility Score: inf
ROOT
ATOM      1  C   UNL     1       4.469  -6.066  10.751  1.00  0.00     0.180 C 
ATOM      2  C   UNL     1       4.843  -7.217  11.718  1.00  0.00     0.177 C 
ATOM      3  C   UNL     1       4.534  -6.761  13.162  1.00  0.00     0.180 C 
ATOM      4  C   UNL     1       3.094  -6.223  13.277  1.00  0.00     0.214 C 
ATOM      5  C   UNL     1       2.794  -5.203  12.153  1.00  0.00     0.339 C 
ATOM      6  O   UNL     1       3.089  -5.737  10.864  1.00  0.00    -0.332 OA
ENDROOT
BRANCH   1   7
ATOM      7  C   UNL     1       4.810  -6.440   9.298  1.00  0.00     0.198 C 
BRANCH   7   8
ATOM      8  O   UNL     1       3.662  -6.975   8.681  1.00  0.00    -0.347 OA
BRANCH   8   9
ATOM      9  C   UNL     1       3.287  -6.265   7.509  1.00  0.00     0.281 C 
ATOM     10  C   UNL     1       6.049  -7.226   5.261  1.00  0.00     0.041 C 
ATOM     11  C   UNL     1       4.850  -7.448   6.185  1.00  0.00     0.150 C 
ATOM     12  C   UNL     1       3.733  -8.226   5.434  1.00  0.00     0.174 C 
ATOM     13  O   UNL     1       4.389  -6.171   6.624  1.00  0.00    -0.344 OA
ATOM     14  C   UNL     1       2.464  -8.345   6.300  1.00  0.00     0.179 C 
ATOM     15  C   UNL     1       2.077  -6.953   6.820  1.00  0.00     0.202 C 
BRANCH  12  16
ATOM     16  O   UNL     1       4.175  -9.502   5.028  1.00  0.00    -0.388 OA
ATOM     17  H   UNL     1       4.449  -9.432   4.078  1.00  0.00     0.211 HD
ENDBRANCH  12  16
BRANCH  14  18
ATOM     18  O   UNL     1       2.697  -9.207   7.390  1.00  0.00    -0.387 OA
ATOM     19  H   UNL     1       3.555  -9.670   7.223  1.00  0.00     0.211 HD
ENDBRANCH  14  18
BRANCH  15  20
ATOM     20  O   UNL     1       0.992  -7.070   7.707  1.00  0.00    -0.385 OA
ATOM     21  H   UNL     1       0.894  -8.031   7.938  1.00  0.00     0.211 HD
ENDBRANCH  15  20
ENDBRANCH   8   9
ENDBRANCH   7   8
ENDBRANCH   1   7
BRANCH   2  22
ATOM     22  O   UNL     1       4.130  -8.381  11.362  1.00  0.00    -0.387 OA
ATOM     23  H   UNL     1       4.280  -9.060  12.077  1.00  0.00     0.211 HD
ENDBRANCH   2  22
BRANCH   3  24
ATOM     24  O   UNL     1       4.740  -7.812  14.076  1.00  0.00    -0.387 OA
ATOM     25  H   UNL     1       4.971  -7.400  14.946  1.00  0.00     0.211 HD
ENDBRANCH   3  24
BRANCH   5  26
ATOM     26  O   UNL     1       3.532  -3.992  12.375  1.00  0.00    -0.454 OA
BRANCH  26  27
ATOM     27  C   UNL     1       3.019  -2.728  12.065  1.00  0.00     0.214 A 
ATOM     28  C   UNL     1       3.164  -1.672  12.973  1.00  0.00     0.180 A 
ATOM     29  C   UNL     1       2.375  -2.496  10.845  1.00  0.00     0.239 A 
ATOM     30  O   UNL     1       2.753  -0.448  12.644  1.00  0.00    -0.452 OA
ATOM     31  C   UNL     1       1.920  -1.191  10.536  1.00  0.00     0.111 A 
ATOM     32  O   UNL     1       2.219  -3.456  10.033  1.00  0.00    -0.285 OA
ATOM     33  C   UNL     1       2.151  -0.171  11.491  1.00  0.00     0.146 A 
ATOM     34  C   UNL     1       1.275  -0.869   9.320  1.00  0.00     0.134 A 
ATOM     35  C   UNL     1       1.762   1.144  11.224  1.00  0.00     0.094 A 
ATOM     36  C   UNL     1       0.897   0.462   9.065  1.00  0.00     0.093 A 
ATOM     37  C   UNL     1       1.152   1.461  10.009  1.00  0.00     0.123 A 
BRANCH  28  38
ATOM     38  C   UNL     1       3.791  -1.894  14.284  1.00  0.00     0.025 A 
ATOM     39  C   UNL     1       5.148  -2.256  14.365  1.00  0.00     0.062 A 
ATOM     40  C   UNL     1       3.030  -1.803  15.460  1.00  0.00     0.016 A 
ATOM     41  C   UNL     1       5.724  -2.567  15.607  1.00  0.00     0.158 A 
ATOM     42  C   UNL     1       3.616  -2.070  16.700  1.00  0.00     0.051 A 
ATOM     43  C   UNL     1       4.956  -2.480  16.783  1.00  0.00     0.157 A 
BRANCH  41  44
ATOM     44  O   UNL     1       7.050  -2.981  15.671  1.00  0.00    -0.504 OA
ATOM     45  H   UNL     1       7.298  -3.958  15.752  1.00  0.00     0.293 HD
ENDBRANCH  41  44
BRANCH  43  46
ATOM     46  O   UNL     1       5.481  -2.816  18.028  1.00  0.00    -0.504 OA
ATOM     47  H   UNL     1       5.039  -2.518  18.885  1.00  0.00     0.293 HD
ENDBRANCH  43  46
ENDBRANCH  28  38
BRANCH  34  48
ATOM     48  O   UNL     1       0.990  -1.855   8.376  1.00  0.00    -0.507 OA
ATOM     49  H   UNL     1       1.560  -2.691   8.287  1.00  0.00     0.293 HD
ENDBRANCH  34  48
BRANCH  37  50
ATOM     50  O   UNL     1       0.796   2.782   9.753  1.00  0.00    -0.508 OA
ATOM     51  H   UNL     1       0.796   3.485  10.489  1.00  0.00     0.293 HD
ENDBRANCH  37  50
ENDBRANCH  26  27
ENDBRANCH   5  26
BRANCH   4  52
ATOM     52  O   UNL     1       2.152  -7.268  13.308  1.00  0.00    -0.384 OA
ATOM     53  H   UNL     1       2.601  -8.092  12.979  1.00  0.00     0.211 HD
ENDBRANCH   4  52
TORSDOF 16
ENDMDL
MODEL 2
REMARK VINA RESULT:   101.722      2.324      5.734
REMARK INTER + INTRA:         166.632
REMARK INTER:                 164.024
REMARK INTRA:                   2.608
REMARK UNBOUND:                -0.503
REMARK SMILES C[C@H]1O[C@H](OC[C@H]2O[C@H](Oc3c(-c4ccc(O)c(O)c4)oc4cc(O)cc(O)c4c3=O)[C@@H](O)[C@@H](O)[C@H]2O)[C@H](O)[C@H](O)[C@@H]1O
REMARK SMILES IDX 7 1 36 2 34 3 32 4 9 5 8 6 6 7 5 8 4 9 1 10 2 11 42 12 3 13
REMARK SMILES IDX 40 14 38 15 43 16 41 18 39 20 37 22 35 24 10 26 11 27 12 28
REMARK SMILES IDX 30 29 21 30 29 31 31 32 22 33 27 34 23 35 26 36 24 37 13 38
REMARK SMILES IDX 20 39 14 40 18 41 15 42 16 43 19 44 17 46 28 48 25 50 33 52
REMARK H PARENT 43 17 41 19 39 21 37 23 35 25 19 45 17 47 28 49 25 51 33 53
REMARK Flexibility Score: inf
ROOT
ATOM      1  C   UNL     1       2.888  -4.946  10.180  1.00  0.00     0.180 C 
ATOM      2  C   UNL     1       1.368  -4.786   9.930  1.00  0.00     0.177 C 
ATOM      3  C   UNL     1       0.635  -4.909  11.285  1.00  0.00     0.180 C 
ATOM      4  C   UNL     1       1.251  -3.965  12.336  1.00  0.00     0.214 C 
ATOM      5  C   UNL     1       2.792  -4.105  12.370  1.00  0.00     0.339 C 
ATOM      6  O   UNL     1       3.364  -3.946  11.073  1.00  0.00    -0.332 OA
ENDROOT
BRANCH   1   7
ATOM      7  C   UNL     1       3.669  -4.891   8.855  1.00  0.00     0.198 C 
BRANCH   7   8
ATOM      8  O   UNL     1       3.530  -6.125   8.190  1.00  0.00    -0.347 OA
BRANCH   8   9
ATOM      9  C   UNL     1       3.024  -5.983   6.870  1.00  0.00     0.281 C 
ATOM     10  C   UNL     1       5.910  -7.221   4.935  1.00  0.00     0.041 C 
ATOM     11  C   UNL     1       4.778  -7.285   5.961  1.00  0.00     0.150 C 
ATOM     12  C   UNL     1       3.825  -8.470   5.634  1.00  0.00     0.174 C 
ATOM     13  O   UNL     1       4.085  -6.037   5.933  1.00  0.00    -0.344 OA
ATOM     14  C   UNL     1       2.604  -8.474   6.574  1.00  0.00     0.179 C 
ATOM     15  C   UNL     1       1.964  -7.079   6.574  1.00  0.00     0.202 C 
BRANCH  12  16
ATOM     16  O   UNL     1       4.499  -9.707   5.694  1.00  0.00    -0.388 OA
ATOM     17  H   UNL     1       3.809 -10.419   5.719  1.00  0.00     0.211 HD
ENDBRANCH  12  16
BRANCH  14  18
ATOM     18  O   UNL     1       3.000  -8.809   7.884  1.00  0.00    -0.387 OA
ATOM     19  H   UNL     1       3.783  -9.410   7.813  1.00  0.00     0.211 HD
ENDBRANCH  14  18
BRANCH  15  20
ATOM     20  O   UNL     1       0.923  -7.041   7.520  1.00  0.00    -0.385 OA
ATOM     21  H   UNL     1       1.265  -6.572   8.324  1.00  0.00     0.211 HD
ENDBRANCH  15  20
ENDBRANCH   8   9
ENDBRANCH   7   8
ENDBRANCH   1   7
BRANCH   2  22
ATOM     22  O   UNL     1       1.123  -3.547   9.302  1.00  0.00    -0.387 OA
ATOM     23  H   UNL     1       1.946  -2.991   9.397  1.00  0.00     0.211 HD
ENDBRANCH   2  22
BRANCH   3  24
ATOM     24  O   UNL     1      -0.741  -4.650  11.137  1.00  0.00    -0.387 OA
ATOM     25  H   UNL     1      -1.208  -5.523  11.181  1.00  0.00     0.211 HD
ENDBRANCH   3  24
BRANCH   5  26
ATOM     26  O   UNL     1       3.159  -5.375  12.930  1.00  0.00    -0.454 OA
BRANCH  26  27
ATOM     27  C   UNL     1       4.486  -5.812  13.002  1.00  0.00     0.214 A 
ATOM     28  C   UNL     1       5.493  -4.926  13.403  1.00  0.00     0.180 A 
ATOM     29  C   UNL     1       4.823  -7.134  12.694  1.00  0.00     0.239 A 
ATOM     30  O   UNL     1       6.743  -5.361  13.554  1.00  0.00    -0.452 OA
ATOM     31  C   UNL     1       6.166  -7.560  12.833  1.00  0.00     0.111 A 
ATOM     32  O   UNL     1       3.918  -7.931  12.304  1.00  0.00    -0.285 OA
ATOM     33  C   UNL     1       7.112  -6.612  13.292  1.00  0.00     0.146 A 
ATOM     34  C   UNL     1       6.586  -8.882  12.559  1.00  0.00     0.134 A 
ATOM     35  C   UNL     1       8.444  -6.985  13.489  1.00  0.00     0.094 A 
ATOM     36  C   UNL     1       7.930  -9.242  12.771  1.00  0.00     0.093 A 
ATOM     37  C   UNL     1       8.847  -8.299  13.245  1.00  0.00     0.123 A 
BRANCH  28  38
ATOM     38  C   UNL     1       5.181  -3.517  13.685  1.00  0.00     0.025 A 
ATOM     39  C   UNL     1       4.575  -2.718  12.699  1.00  0.00     0.062 A 
ATOM     40  C   UNL     1       5.533  -2.944  14.917  1.00  0.00     0.016 A 
ATOM     41  C   UNL     1       4.366  -1.348  12.929  1.00  0.00     0.158 A 
ATOM     42  C   UNL     1       5.286  -1.591  15.161  1.00  0.00     0.051 A 
ATOM     43  C   UNL     1       4.728  -0.777  14.163  1.00  0.00     0.157 A 
BRANCH  41  44
ATOM     44  O   UNL     1       3.821  -0.553  11.926  1.00  0.00    -0.504 OA
ATOM     45  H   UNL     1       4.395  -0.149  11.198  1.00  0.00     0.293 HD
ENDBRANCH  41  44
BRANCH  43  46
ATOM     46  O   UNL     1       4.570   0.584  14.414  1.00  0.00    -0.504 OA
ATOM     47  H   UNL     1       3.975   0.917  15.158  1.00  0.00     0.293 HD
ENDBRANCH  43  46
ENDBRANCH  28  38
BRANCH  34  48
ATOM     48  O   UNL     1       5.692  -9.830  12.063  1.00  0.00    -0.507 OA
ATOM     49  H   UNL     1       4.822 -10.046  12.540  1.00  0.00     0.293 HD
ENDBRANCH  34  48
BRANCH  37  50
ATOM     50  O   UNL     1      10.173  -8.656  13.473  1.00  0.00    -0.508 OA
ATOM     51  H   UNL     1      10.620  -9.403  12.946  1.00  0.00     0.293 HD
ENDBRANCH  37  50
ENDBRANCH  26  27
ENDBRANCH   5  26
BRANCH   4  52
ATOM     52  O   UNL     1       0.845  -2.632  12.134  1.00  0.00    -0.384 OA
ATOM     53  H   UNL     1      -0.056  -2.523  12.540  1.00  0.00     0.211 HD
ENDBRANCH   4  52
TORSDOF 16
ENDMDL
MODEL 3
REMARK VINA RESULT:   101.957      2.261      8.971
REMARK INTER + INTRA:         167.018
REMARK INTER:                 166.405
REMARK INTRA:                   0.613
REMARK UNBOUND:                -0.503
REMARK SMILES C[C@H]1O[C@H](OC[C@H]2O[C@H](Oc3c(-c4ccc(O)c(O)c4)oc4cc(O)cc(O)c4c3=O)[C@@H](O)[C@@H](O)[C@H]2O)[C@H](O)[C@H](O)[C@@H]1O
REMARK SMILES IDX 7 1 36 2 34 3 32 4 9 5 8 6 6 7 5 8 4 9 1 10 2 11 42 12 3 13
REMARK SMILES IDX 40 14 38 15 43 16 41 18 39 20 37 22 35 24 10 26 11 27 12 28
REMARK SMILES IDX 30 29 21 30 29 31 31 32 22 33 27 34 23 35 26 36 24 37 13 38
REMARK SMILES IDX 20 39 14 40 18 41 15 42 16 43 19 44 17 46 28 48 25 50 33 52
REMARK H PARENT 43 17 41 19 39 21 37 23 35 25 19 45 17 47 28 49 25 51 33 53
REMARK Flexibility Score: inf
ROOT
ATOM      1  C   UNL     1       2.737  -3.783  11.067  1.00  0.00     0.180 C 
ATOM      2  C   UNL     1       1.240  -3.390  10.996  1.00  0.00     0.177 C 
ATOM      3  C   UNL     1       0.392  -4.635  11.340  1.00  0.00     0.180 C 
ATOM      4  C   UNL     1       0.860  -5.278  12.660  1.00  0.00     0.214 C 
ATOM      5  C   UNL     1       2.396  -5.466  12.668  1.00  0.00     0.339 C 
ATOM      6  O   UNL     1       3.078  -4.251  12.367  1.00  0.00    -0.332 OA
ENDROOT
BRANCH   1   7
ATOM      7  C   UNL     1       3.633  -2.595  10.676  1.00  0.00     0.198 C 
BRANCH   7   8
ATOM      8  O   UNL     1       4.476  -2.282  11.761  1.00  0.00    -0.347 OA
BRANCH   8   9
ATOM      9  C   UNL     1       3.757  -2.005  12.954  1.00  0.00     0.281 C 
ATOM     10  C   UNL     1       6.510  -2.101  15.406  1.00  0.00     0.041 C 
ATOM     11  C   UNL     1       5.748  -1.618  14.172  1.00  0.00     0.150 C 
ATOM     12  C   UNL     1       5.471  -0.091  14.277  1.00  0.00     0.174 C 
ATOM     13  O   UNL     1       4.533  -2.362  14.084  1.00  0.00    -0.344 OA
ATOM     14  C   UNL     1       4.589   0.392  13.109  1.00  0.00     0.179 C 
ATOM     15  C   UNL     1       3.350  -0.507  13.008  1.00  0.00     0.202 C 
BRANCH  12  16
ATOM     16  O   UNL     1       6.670   0.649  14.329  1.00  0.00    -0.388 OA
ATOM     17  H   UNL     1       7.404   0.010  14.521  1.00  0.00     0.211 HD
ENDBRANCH  12  16
BRANCH  14  18
ATOM     18  O   UNL     1       5.310   0.339  11.900  1.00  0.00    -0.387 OA
ATOM     19  H   UNL     1       6.017   1.029  11.945  1.00  0.00     0.211 HD
ENDBRANCH  14  18
BRANCH  15  20
ATOM     20  O   UNL     1       2.601  -0.147  11.873  1.00  0.00    -0.385 OA
ATOM     21  H   UNL     1       2.098  -0.950  11.578  1.00  0.00     0.211 HD
ENDBRANCH  15  20
ENDBRANCH   8   9
ENDBRANCH   7   8
ENDBRANCH   1   7
BRANCH   2  22
ATOM     22  O   UNL     1       0.994  -2.317  11.878  1.00  0.00    -0.387 OA
ATOM     23  H   UNL     1       0.085  -2.446  12.267  1.00  0.00     0.211 HD
ENDBRANCH   2  22
BRANCH   3  24
ATOM     24  O   UNL     1      -0.976  -4.307  11.410  1.00  0.00    -0.387 OA
ATOM     25  H   UNL     1      -1.120  -3.843  12.273  1.00  0.00     0.211 HD
ENDBRANCH   3  24
BRANCH   5  26
ATOM     26  O   UNL     1       2.772  -6.497  11.742  1.00  0.00    -0.454 OA
BRANCH  26  27
ATOM     27  C   UNL     1       3.984  -7.189  11.835  1.00  0.00     0.214 A 
ATOM     28  C   UNL     1       4.736  -7.442  10.681  1.00  0.00     0.180 A 
ATOM     29  C   UNL     1       4.470  -7.621  13.074  1.00  0.00     0.239 A 
ATOM     30  O   UNL     1       5.929  -8.025  10.777  1.00  0.00    -0.452 OA
ATOM     31  C   UNL     1       5.727  -8.267  13.141  1.00  0.00     0.111 A 
ATOM     32  O   UNL     1       3.779  -7.418  14.117  1.00  0.00    -0.285 OA
ATOM     33  C   UNL     1       6.444  -8.438  11.932  1.00  0.00     0.146 A 
ATOM     34  C   UNL     1       6.296  -8.719  14.353  1.00  0.00     0.134 A 
ATOM     35  C   UNL     1       7.709  -9.031  11.941  1.00  0.00     0.094 A 
ATOM     36  C   UNL     1       7.576  -9.307  14.344  1.00  0.00     0.093 A 
ATOM     37  C   UNL     1       8.279  -9.449  13.145  1.00  0.00     0.123 A 
BRANCH  28  38
ATOM     38  C   UNL     1       4.230  -7.046   9.359  1.00  0.00     0.025 A 
ATOM     39  C   UNL     1       2.902  -7.333   8.996  1.00  0.00     0.062 A 
ATOM     40  C   UNL     1       5.081  -6.428   8.428  1.00  0.00     0.016 A 
ATOM     41  C   UNL     1       2.444  -7.047   7.699  1.00  0.00     0.158 A 
ATOM     42  C   UNL     1       4.612  -6.105   7.152  1.00  0.00     0.051 A 
ATOM     43  C   UNL     1       3.303  -6.435   6.768  1.00  0.00     0.157 A 
BRANCH  41  44
ATOM     44  O   UNL     1       1.148  -7.389   7.331  1.00  0.00    -0.504 OA
ATOM     45  H   UNL     1       0.839  -7.342   6.369  1.00  0.00     0.293 HD
ENDBRANCH  41  44
BRANCH  43  46
ATOM     46  O   UNL     1       2.898  -6.169   5.462  1.00  0.00    -0.504 OA
ATOM     47  H   UNL     1       3.532  -5.774   4.783  1.00  0.00     0.293 HD
ENDBRANCH  43  46
ENDBRANCH  28  38
BRANCH  34  48
ATOM     48  O   UNL     1       5.602  -8.608  15.558  1.00  0.00    -0.507 OA
ATOM     49  H   UNL     1       4.940  -9.316  15.861  1.00  0.00     0.293 HD
ENDBRANCH  34  48
BRANCH  37  50
ATOM     50  O   UNL     1       9.551 -10.013  13.134  1.00  0.00    -0.508 OA
ATOM     51  H   UNL     1      10.199  -9.848  12.367  1.00  0.00     0.293 HD
ENDBRANCH  37  50
ENDBRANCH  26  27
ENDBRANCH   5  26
BRANCH   4  52
ATOM     52  O   UNL     1       0.410  -4.551  13.777  1.00  0.00    -0.384 OA
ATOM     53  H   UNL     1       1.202  -4.124  14.202  1.00  0.00     0.211 HD
ENDBRANCH   4  52
TORSDOF 16
ENDMDL
MODEL 4
REMARK VINA RESULT:   102.123      0.957      1.130
REMARK INTER + INTRA:         167.291
REMARK INTER:                 166.962
REMARK INTRA:                   0.328
REMARK UNBOUND:                -0.503
REMARK SMILES C[C@H]1O[C@H](OC[C@H]2O[C@H](Oc3c(-c4ccc(O)c(O)c4)oc4cc(O)cc(O)c4c3=O)[C@@H](O)[C@@H](O)[C@H]2O)[C@H](O)[C@H](O)[C@@H]1O
REMARK SMILES IDX 7 1 36 2 34 3 32 4 9 5 8 6 6 7 5 8 4 9 1 10 2 11 42 12 3 13
REMARK SMILES IDX 40 14 38 15 43 16 41 18 39 20 37 22 35 24 10 26 11 27 12 28
REMARK SMILES IDX 30 29 21 30 29 31 31 32 22 33 27 34 23 35 26 36 24 37 13 38
REMARK SMILES IDX 20 39 14 40 18 41 15 42 16 43 19 44 17 46 28 48 25 50 33 52
REMARK H PARENT 43 17 41 19 39 21 37 23 35 25 19 45 17 47 28 49 25 51 33 53
REMARK Flexibility Score: inf
ROOT
ATOM      1  C   UNL     1       4.620  -6.222  10.731  1.00  0.00     0.180 C 
ATOM      2  C   UNL     1       4.942  -7.399  11.686  1.00  0.00     0.177 C 
ATOM      3  C   UNL     1       4.701  -6.927  13.138  1.00  0.00     0.180 C 
ATOM      4  C   UNL     1       3.304  -6.294  13.292  1.00  0.00     0.214 C 
ATOM      5  C   UNL     1       3.044  -5.253  12.177  1.00  0.00     0.339 C 
ATOM      6  O   UNL     1       3.269  -5.802  10.880  1.00  0.00    -0.332 OA
ENDROOT
BRANCH   1   7
ATOM      7  C   UNL     1       4.897  -6.613   9.269  1.00  0.00     0.198 C 
BRANCH   7   8
ATOM      8  O   UNL     1       3.698  -7.057   8.678  1.00  0.00    -0.347 OA
BRANCH   8   9
ATOM      9  C   UNL     1       3.330  -6.292   7.541  1.00  0.00     0.281 C 
ATOM     10  C   UNL     1       6.063  -7.198   5.237  1.00  0.00     0.041 C 
ATOM     11  C   UNL     1       4.866  -7.440   6.157  1.00  0.00     0.150 C 
ATOM     12  C   UNL     1       3.732  -8.167   5.379  1.00  0.00     0.174 C 
ATOM     13  O   UNL     1       4.428  -6.176   6.654  1.00  0.00    -0.344 OA
ATOM     14  C   UNL     1       2.466  -8.303   6.246  1.00  0.00     0.179 C 
ATOM     15  C   UNL     1       2.105  -6.929   6.829  1.00  0.00     0.202 C 
BRANCH  12  16
ATOM     16  O   UNL     1       4.151  -9.431   4.916  1.00  0.00    -0.388 OA
ATOM     17  H   UNL     1       5.103  -9.539   5.171  1.00  0.00     0.211 HD
ENDBRANCH  12  16
BRANCH  14  18
ATOM     18  O   UNL     1       2.691  -9.215   7.296  1.00  0.00    -0.387 OA
ATOM     19  H   UNL     1       3.482  -8.900   7.799  1.00  0.00     0.211 HD
ENDBRANCH  14  18
BRANCH  15  20
ATOM     20  O   UNL     1       1.022  -7.067   7.716  1.00  0.00    -0.385 OA
ATOM     21  H   UNL     1       1.066  -6.315   8.363  1.00  0.00     0.211 HD
ENDBRANCH  15  20
ENDBRANCH   8   9
ENDBRANCH   7   8
ENDBRANCH   1   7
BRANCH   2  22
ATOM     22  O   UNL     1       4.143  -8.511  11.347  1.00  0.00    -0.387 OA
ATOM     23  H   UNL     1       4.197  -9.164  12.099  1.00  0.00     0.211 HD
ENDBRANCH   2  22
BRANCH   3  24
ATOM     24  O   UNL     1       4.860  -7.993  14.045  1.00  0.00    -0.387 OA
ATOM     25  H   UNL     1       3.984  -8.134  14.485  1.00  0.00     0.211 HD
ENDBRANCH   3  24
BRANCH   5  26
ATOM     26  O   UNL     1       3.867  -4.095  12.382  1.00  0.00    -0.454 OA
BRANCH  26  27
ATOM     27  C   UNL     1       3.423  -2.796  12.109  1.00  0.00     0.214 A 
ATOM     28  C   UNL     1       3.996  -1.707  12.777  1.00  0.00     0.180 A 
ATOM     29  C   UNL     1       2.422  -2.566  11.159  1.00  0.00     0.239 A 
ATOM     30  O   UNL     1       3.636  -0.465  12.458  1.00  0.00    -0.452 OA
ATOM     31  C   UNL     1       2.037  -1.236  10.864  1.00  0.00     0.111 A 
ATOM     32  O   UNL     1       1.883  -3.551  10.573  1.00  0.00    -0.285 OA
ATOM     33  C   UNL     1       2.703  -0.191  11.550  1.00  0.00     0.146 A 
ATOM     34  C   UNL     1       1.047  -0.916   9.908  1.00  0.00     0.134 A 
ATOM     35  C   UNL     1       2.395   1.143  11.270  1.00  0.00     0.094 A 
ATOM     36  C   UNL     1       0.756   0.434   9.633  1.00  0.00     0.093 A 
ATOM     37  C   UNL     1       1.437   1.453  10.303  1.00  0.00     0.123 A 
BRANCH  28  38
ATOM     38  C   UNL     1       5.014  -1.919  13.816  1.00  0.00     0.025 A 
ATOM     39  C   UNL     1       5.913  -0.888  14.144  1.00  0.00     0.062 A 
ATOM     40  C   UNL     1       5.134  -3.166  14.449  1.00  0.00     0.016 A 
ATOM     41  C   UNL     1       6.949  -1.119  15.063  1.00  0.00     0.158 A 
ATOM     42  C   UNL     1       6.139  -3.382  15.395  1.00  0.00     0.051 A 
ATOM     43  C   UNL     1       7.070  -2.373  15.690  1.00  0.00     0.157 A 
BRANCH  41  44
ATOM     44  O   UNL     1       7.869  -0.112  15.337  1.00  0.00    -0.504 OA
ATOM     45  H   UNL     1       8.856  -0.229  15.147  1.00  0.00     0.293 HD
ENDBRANCH  41  44
BRANCH  43  46
ATOM     46  O   UNL     1       8.105  -2.651  16.578  1.00  0.00    -0.504 OA
ATOM     47  H   UNL     1       8.467  -3.587  16.690  1.00  0.00     0.293 HD
ENDBRANCH  43  46
ENDBRANCH  28  38
BRANCH  34  48
ATOM     48  O   UNL     1       0.340  -1.918   9.244  1.00  0.00    -0.507 OA
ATOM     49  H   UNL     1       0.536  -2.902   9.398  1.00  0.00     0.293 HD
ENDBRANCH  34  48
BRANCH  37  50
ATOM     50  O   UNL     1       1.165   2.789  10.021  1.00  0.00    -0.508 OA
ATOM     51  H   UNL     1       1.127   3.490  10.758  1.00  0.00     0.293 HD
ENDBRANCH  37  50
ENDBRANCH  26  27
ENDBRANCH   5  26
BRANCH   4  52
ATOM     52  O   UNL     1       2.296  -7.274  13.346  1.00  0.00    -0.384 OA
ATOM     53  H   UNL     1       2.262  -7.626  14.275  1.00  0.00     0.211 HD
ENDBRANCH   4  52
TORSDOF 16
ENDMDL
MODEL 5
REMARK VINA RESULT:   102.522      1.350      1.828
REMARK INTER + INTRA:         167.947
REMARK INTER:                 164.188
REMARK INTRA:                   3.759
REMARK UNBOUND:                -0.503
REMARK SMILES C[C@H]1O[C@H](OC[C@H]2O[C@H](Oc3c(-c4ccc(O)c(O)c4)oc4cc(O)cc(O)c4c3=O)[C@@H](O)[C@@H](O)[C@H]2O)[C@H](O)[C@H](O)[C@@H]1O
REMARK SMILES IDX 7 1 36 2 34 3 32 4 9 5 8 6 6 7 5 8 4 9 1 10 2 11 42 12 3 13
REMARK SMILES IDX 40 14 38 15 43 16 41 18 39 20 37 22 35 24 10 26 11 27 12 28
REMARK SMILES IDX 30 29 21 30 29 31 31 32 22 33 27 34 23 35 26 36 24 37 13 38
REMARK SMILES IDX 20 39 14 40 18 41 15 42 16 43 19 44 17 46 28 48 25 50 33 52
REMARK H PARENT 43 17 41 19 39 21 37 23 35 25 19 45 17 47 28 49 25 51 33 53
REMARK Flexibility Score: inf
ROOT
ATOM      1  C   UNL     1       4.344  -6.822  11.095  1.00  0.00     0.180 C 
ATOM      2  C   UNL     1       5.204  -8.071  11.415  1.00  0.00     0.177 C 
ATOM      3  C   UNL     1       5.947  -7.823  12.747  1.00  0.00     0.180 C 
ATOM      4  C   UNL     1       4.971  -7.373  13.852  1.00  0.00     0.214 C 
ATOM      5  C   UNL     1       4.057  -6.229  13.349  1.00  0.00     0.339 C 
ATOM      6  O   UNL     1       3.401  -6.576  12.131  1.00  0.00    -0.332 OA
ENDROOT
BRANCH   1   7
ATOM      7  C   UNL     1       3.623  -6.986   9.746  1.00  0.00     0.198 C 
BRANCH   7   8
ATOM      8  O   UNL     1       4.531  -6.712   8.704  1.00  0.00    -0.347 OA
BRANCH   8   9
ATOM      9  C   UNL     1       3.919  -6.062   7.600  1.00  0.00     0.281 C 
ATOM     10  C   UNL     1       6.130  -7.198   4.876  1.00  0.00     0.041 C 
ATOM     11  C   UNL     1       5.155  -7.345   6.044  1.00  0.00     0.150 C 
ATOM     12  C   UNL     1       3.898  -8.143   5.595  1.00  0.00     0.174 C 
ATOM     13  O   UNL     1       4.807  -6.037   6.496  1.00  0.00    -0.344 OA
ATOM     14  C   UNL     1       2.843  -8.190   6.717  1.00  0.00     0.179 C 
ATOM     15  C   UNL     1       2.585  -6.764   7.226  1.00  0.00     0.202 C 
BRANCH  12  16
ATOM     16  O   UNL     1       4.235  -9.448   5.180  1.00  0.00    -0.388 OA
ATOM     17  H   UNL     1       3.604 -10.071   5.622  1.00  0.00     0.211 HD
ENDBRANCH  12  16
BRANCH  14  18
ATOM     18  O   UNL     1       3.298  -8.994   7.780  1.00  0.00    -0.387 OA
ATOM     19  H   UNL     1       2.684  -9.766   7.853  1.00  0.00     0.211 HD
ENDBRANCH  14  18
BRANCH  15  20
ATOM     20  O   UNL     1       1.714  -6.811   8.328  1.00  0.00    -0.385 OA
ATOM     21  H   UNL     1       0.896  -6.304   8.087  1.00  0.00     0.211 HD
ENDBRANCH  15  20
ENDBRANCH   8   9
ENDBRANCH   7   8
ENDBRANCH   1   7
BRANCH   2  22
ATOM     22  O   UNL     1       4.374  -9.210  11.472  1.00  0.00    -0.387 OA
ATOM     23  H   UNL     1       4.915  -9.962  11.841  1.00  0.00     0.211 HD
ENDBRANCH   2  22
BRANCH   3  24
ATOM     24  O   UNL     1       6.650  -8.974  13.151  1.00  0.00    -0.387 OA
ATOM     25  H   UNL     1       6.020  -9.531  13.675  1.00  0.00     0.211 HD
ENDBRANCH   3  24
BRANCH   5  26
ATOM     26  O   UNL     1       4.820  -5.025  13.184  1.00  0.00    -0.454 OA
BRANCH  26  27
ATOM     27  C   UNL     1       4.227  -3.790  12.897  1.00  0.00     0.214 A 
ATOM     28  C   UNL     1       4.704  -2.626  13.512  1.00  0.00     0.180 A 
ATOM     29  C   UNL     1       3.170  -3.696  11.986  1.00  0.00     0.239 A 
ATOM     30  O   UNL     1       4.200  -1.440  13.178  1.00  0.00    -0.452 OA
ATOM     31  C   UNL     1       2.631  -2.425  11.675  1.00  0.00     0.111 A 
ATOM     32  O   UNL     1       2.718  -4.751  11.449  1.00  0.00    -0.285 OA
ATOM     33  C   UNL     1       3.206  -1.295  12.305  1.00  0.00     0.146 A 
ATOM     34  C   UNL     1       1.574  -2.242  10.754  1.00  0.00     0.134 A 
ATOM     35  C   UNL     1       2.745  -0.011  12.005  1.00  0.00     0.094 A 
ATOM     36  C   UNL     1       1.128  -0.940  10.458  1.00  0.00     0.093 A 
ATOM     37  C   UNL     1       1.721   0.166  11.072  1.00  0.00     0.123 A 
BRANCH  28  38
ATOM     38  C   UNL     1       5.781  -2.696  14.511  1.00  0.00     0.025 A 
ATOM     39  C   UNL     1       7.110  -2.905  14.103  1.00  0.00     0.062 A 
ATOM     40  C   UNL     1       5.485  -2.612  15.881  1.00  0.00     0.016 A 
ATOM     41  C   UNL     1       8.126  -3.073  15.059  1.00  0.00     0.158 A 
ATOM     42  C   UNL     1       6.503  -2.736  16.830  1.00  0.00     0.051 A 
ATOM     43  C   UNL     1       7.823  -2.994  16.431  1.00  0.00     0.157 A 
BRANCH  41  44
ATOM     44  O   UNL     1       9.427  -3.337  14.646  1.00  0.00    -0.504 OA
ATOM     45  H   UNL     1      10.168  -3.521  15.311  1.00  0.00     0.293 HD
ENDBRANCH  41  44
BRANCH  43  46
ATOM     46  O   UNL     1       8.796  -3.192  17.407  1.00  0.00    -0.504 OA
ATOM     47  H   UNL     1       8.740  -2.736  18.307  1.00  0.00     0.293 HD
ENDBRANCH  43  46
ENDBRANCH  28  38
BRANCH  34  48
ATOM     48  O   UNL     1       0.954  -3.334  10.147  1.00  0.00    -0.507 OA
ATOM     49  H   UNL     1       0.692  -4.161  10.674  1.00  0.00     0.293 HD
ENDBRANCH  34  48
BRANCH  37  50
ATOM     50  O   UNL     1       1.294   1.456  10.769  1.00  0.00    -0.508 OA
ATOM     51  H   UNL     1       0.359   1.636  10.410  1.00  0.00     0.293 HD
ENDBRANCH  37  50
ENDBRANCH  26  27
ENDBRANCH   5  26
BRANCH   4  52
ATOM     52  O   UNL     1       4.231  -8.456  14.361  1.00  0.00    -0.384 OA
ATOM     53  H   UNL     1       3.735  -8.869  13.604  1.00  0.00     0.211 HD
ENDBRANCH   4  52
TORSDOF 16
ENDMDL
MODEL 6
REMARK VINA RESULT:   103.375      2.236      4.490
REMARK INTER + INTRA:         169.348
REMARK INTER:                 167.689
REMARK INTRA:                   1.659
REMARK UNBOUND:                -0.503
REMARK SMILES C[C@H]1O[C@H](OC[C@H]2O[C@H](Oc3c(-c4ccc(O)c(O)c4)oc4cc(O)cc(O)c4c3=O)[C@@H](O)[C@@H](O)[C@H]2O)[C@H](O)[C@H](O)[C@@H]1O
REMARK SMILES IDX 7 1 36 2 34 3 32 4 9 5 8 6 6 7 5 8 4 9 1 10 2 11 42 12 3 13
REMARK SMILES IDX 40 14 38 15 43 16 41 18 39 20 37 22 35 24 10 26 11 27 12 28
REMARK SMILES IDX 30 29 21 30 29 31 31 32 22 33 27 34 23 35 26 36 24 37 13 38
REMARK SMILES IDX 20 39 14 40 18 41 15 42 16 43 19 44 17 46 28 48 25 50 33 52
REMARK H PARENT 43 17 41 19 39 21 37 23 35 25 19 45 17 47 28 49 25 51 33 53
REMARK Flexibility Score: inf
ROOT
ATOM      1  C   UNL     1       4.042  -6.471  10.895  1.00  0.00     0.180 C 
ATOM      2  C   UNL     1       4.545  -7.832  11.440  1.00  0.00     0.177 C 
ATOM      3  C   UNL     1       5.313  -7.577  12.756  1.00  0.00     0.180 C 
ATOM      4  C   UNL     1       4.476  -6.727  13.731  1.00  0.00     0.214 C 
ATOM      5  C   UNL     1       3.895  -5.481  13.020  1.00  0.00     0.339 C 
ATOM      6  O   UNL     1       3.184  -5.834  11.835  1.00  0.00    -0.332 OA
ENDROOT
BRANCH   1   7
ATOM      7  C   UNL     1       3.317  -6.654   9.551  1.00  0.00     0.198 C 
BRANCH   7   8
ATOM      8  O   UNL     1       4.263  -6.596   8.508  1.00  0.00    -0.347 OA
BRANCH   8   9
ATOM      9  C   UNL     1       3.724  -6.065   7.307  1.00  0.00     0.281 C 
ATOM     10  C   UNL     1       6.191  -7.331   4.876  1.00  0.00     0.041 C 
ATOM     11  C   UNL     1       5.128  -7.421   5.971  1.00  0.00     0.150 C 
ATOM     12  C   UNL     1       3.941  -8.304   5.493  1.00  0.00     0.174 C 
ATOM     13  O   UNL     1       4.699  -6.095   6.280  1.00  0.00    -0.344 OA
ATOM     14  C   UNL     1       2.798  -8.301   6.526  1.00  0.00     0.179 C 
ATOM     15  C   UNL     1       2.450  -6.850   6.888  1.00  0.00     0.202 C 
BRANCH  12  16
ATOM     16  O   UNL     1       4.355  -9.623   5.219  1.00  0.00    -0.388 OA
ATOM     17  H   UNL     1       3.560 -10.209   5.311  1.00  0.00     0.211 HD
ENDBRANCH  12  16
BRANCH  14  18
ATOM     18  O   UNL     1       3.190  -8.995   7.688  1.00  0.00    -0.387 OA
ATOM     19  H   UNL     1       3.851  -9.679   7.415  1.00  0.00     0.211 HD
ENDBRANCH  14  18
BRANCH  15  20
ATOM     20  O   UNL     1       1.492  -6.841   7.918  1.00  0.00    -0.385 OA
ATOM     21  H   UNL     1       0.696  -7.335   7.591  1.00  0.00     0.211 HD
ENDBRANCH  15  20
ENDBRANCH   8   9
ENDBRANCH   7   8
ENDBRANCH   1   7
BRANCH   2  22
ATOM     22  O   UNL     1       3.447  -8.699  11.622  1.00  0.00    -0.387 OA
ATOM     23  H   UNL     1       2.822  -8.562  10.856  1.00  0.00     0.211 HD
ENDBRANCH   2  22
BRANCH   3  24
ATOM     24  O   UNL     1       5.689  -8.792  13.361  1.00  0.00    -0.387 OA
ATOM     25  H   UNL     1       5.607  -8.667  14.340  1.00  0.00     0.211 HD
ENDBRANCH   3  24
BRANCH   5  26
ATOM     26  O   UNL     1       4.946  -4.551  12.717  1.00  0.00    -0.454 OA
BRANCH  26  27
ATOM     27  C   UNL     1       4.895  -3.205  13.096  1.00  0.00     0.214 A 
ATOM     28  C   UNL     1       3.775  -2.430  12.773  1.00  0.00     0.180 A 
ATOM     29  C   UNL     1       5.945  -2.622  13.813  1.00  0.00     0.239 A 
ATOM     30  O   UNL     1       3.685  -1.174  13.206  1.00  0.00    -0.452 OA
ATOM     31  C   UNL     1       5.836  -1.275  14.232  1.00  0.00     0.111 A 
ATOM     32  O   UNL     1       6.972  -3.314  14.083  1.00  0.00    -0.285 OA
ATOM     33  C   UNL     1       4.648  -0.578  13.905  1.00  0.00     0.146 A 
ATOM     34  C   UNL     1       6.844  -0.616  14.973  1.00  0.00     0.134 A 
ATOM     35  C   UNL     1       4.465   0.741  14.328  1.00  0.00     0.094 A 
ATOM     36  C   UNL     1       6.640   0.711  15.398  1.00  0.00     0.093 A 
ATOM     37  C   UNL     1       5.452   1.377  15.085  1.00  0.00     0.123 A 
BRANCH  28  38
ATOM     38  C   UNL     1       2.677  -2.999  11.977  1.00  0.00     0.025 A 
ATOM     39  C   UNL     1       1.492  -3.419  12.608  1.00  0.00     0.062 A 
ATOM     40  C   UNL     1       2.822  -3.179  10.592  1.00  0.00     0.016 A 
ATOM     41  C   UNL     1       0.482  -4.054  11.867  1.00  0.00     0.158 A 
ATOM     42  C   UNL     1       1.799  -3.772   9.848  1.00  0.00     0.051 A 
ATOM     43  C   UNL     1       0.636  -4.238  10.480  1.00  0.00     0.157 A 
BRANCH  41  44
ATOM     44  O   UNL     1      -0.660  -4.518  12.509  1.00  0.00    -0.504 OA
ATOM     45  H   UNL     1      -1.240  -5.241  12.104  1.00  0.00     0.293 HD
ENDBRANCH  41  44
BRANCH  43  46
ATOM     46  O   UNL     1      -0.327  -4.896   9.718  1.00  0.00    -0.504 OA
ATOM     47  H   UNL     1      -0.915  -5.613  10.117  1.00  0.00     0.293 HD
ENDBRANCH  43  46
ENDBRANCH  28  38
BRANCH  34  48
ATOM     48  O   UNL     1       8.046  -1.255  15.275  1.00  0.00    -0.507 OA
ATOM     49  H   UNL     1       8.318  -2.123  14.825  1.00  0.00     0.293 HD
ENDBRANCH  34  48
BRANCH  37  50
ATOM     50  O   UNL     1       5.238   2.682  15.519  1.00  0.00    -0.508 OA
ATOM     51  H   UNL     1       5.197   3.459  14.863  1.00  0.00     0.293 HD
ENDBRANCH  37  50
ENDBRANCH  26  27
ENDBRANCH   5  26
BRANCH   4  52
ATOM     52  O   UNL     1       3.475  -7.492  14.357  1.00  0.00    -0.384 OA
ATOM     53  H   UNL     1       3.922  -8.217  14.871  1.00  0.00     0.211 HD
ENDBRANCH   4  52
TORSDOF 16
ENDMDL
