MODEL 1
REMARK VINA RESULT:    -4.174      0.000      0.000
REMARK INTER + INTRA:          -6.829
REMARK INTER:                  -6.370
REMARK INTRA:                  -0.459
REMARK UNBOUND:                -0.459
REMARK SMILES O=C([O-])CCCCCCCCC(=O)[O-]
REMARK SMILES IDX 7 1 6 2 5 3 4 4 2 5 1 6 3 7 8 8 9 9 10 10 11 11 12 12 13 13
REMARK SMILES IDX 14 14
REMARK H PARENT
REMARK Flexibility Score: inf
ROOT
ATOM      1  C   UNL     1       3.639  -2.887  -9.020  1.00  0.00     0.000 C 
ENDROOT
BRANCH   1   2
ATOM      2  C   UNL     1       5.019  -2.247  -9.241  1.00  0.00     0.000 C 
BRANCH   2   3
ATOM      3  C   UNL     1       5.402  -1.266  -8.122  1.00  0.00     0.006 C 
BRANCH   3   4
ATOM      4  C   UNL     1       6.378  -0.182  -8.597  1.00  0.00     0.053 C 
BRANCH   4   5
ATOM      5  C   UNL     1       6.453   0.927  -7.594  1.00  0.00     0.041 C 
ATOM      6  O   UNL     1       6.320   0.681  -6.367  1.00  0.00    -0.550 OA
ATOM      7  O   UNL     1       6.621   2.239  -8.020  1.00  0.00    -0.550 OA
ENDBRANCH   4   5
ENDBRANCH   3   4
ENDBRANCH   2   3
ENDBRANCH   1   2
BRANCH   1   8
ATOM      8  C   UNL     1       3.357  -3.081  -7.526  1.00  0.00     0.000 C 
BRANCH   8   9
ATOM      9  C   UNL     1       2.234  -4.106  -7.307  1.00  0.00     0.000 C 
BRANCH   9  10
ATOM     10  C   UNL     1       2.761  -5.487  -6.879  1.00  0.00     0.006 C 
BRANCH  10  11
ATOM     11  C   UNL     1       4.267  -5.522  -6.572  1.00  0.00     0.053 C 
BRANCH  11  12
ATOM     12  C   UNL     1       4.555  -6.171  -5.253  1.00  0.00     0.041 C 
ATOM     13  O   UNL     1       3.616  -6.623  -4.549  1.00  0.00    -0.550 OA
ATOM     14  O   UNL     1       5.862  -6.247  -4.789  1.00  0.00    -0.550 OA
ENDBRANCH  11  12
ENDBRANCH  10  11
ENDBRANCH   9  10
ENDBRANCH   8   9
ENDBRANCH   1   8
TORSDOF 9
ENDMDL
MODEL 2
REMARK VINA RESULT:    -4.140      4.066      4.802
REMARK INTER + INTRA:          -6.778
REMARK INTER:                  -6.211
REMARK INTRA:                  -0.567
REMARK UNBOUND:                -0.459
REMARK SMILES O=C([O-])CCCCCCCCC(=O)[O-]
REMARK SMILES IDX 7 1 6 2 5 3 4 4 2 5 1 6 3 7 8 8 9 9 10 10 11 11 12 12 13 13
REMARK SMILES IDX 14 14
REMARK H PARENT
REMARK Flexibility Score: inf
ROOT
ATOM      1  C   UNL     1       2.594  -4.483  -6.947  1.00  0.00     0.000 C 
ENDROOT
BRANCH   1   2
ATOM      2  C   UNL     1       3.305  -3.281  -7.587  1.00  0.00     0.000 C 
BRANCH   2   3
ATOM      3  C   UNL     1       2.535  -2.706  -8.786  1.00  0.00     0.006 C 
BRANCH   3   4
ATOM      4  C   UNL     1       1.060  -2.436  -8.466  1.00  0.00     0.053 C 
BRANCH   4   5
ATOM      5  C   UNL     1       0.175  -3.196  -9.404  1.00  0.00     0.041 C 
ATOM      6  O   UNL     1       0.541  -4.313  -9.854  1.00  0.00    -0.550 OA
ATOM      7  O   UNL     1      -1.032  -2.647  -9.819  1.00  0.00    -0.550 OA
ENDBRANCH   4   5
ENDBRANCH   3   4
ENDBRANCH   2   3
ENDBRANCH   1   2
BRANCH   1   8
ATOM      8  C   UNL     1       2.968  -5.787  -7.662  1.00  0.00     0.000 C 
BRANCH   8   9
ATOM      9  C   UNL     1       3.360  -6.875  -6.652  1.00  0.00     0.000 C 
BRANCH   9  10
ATOM     10  C   UNL     1       3.839  -6.297  -5.308  1.00  0.00     0.006 C 
BRANCH  10  11
ATOM     11  C   UNL     1       5.366  -6.285  -5.132  1.00  0.00     0.053 C 
BRANCH  11  12
ATOM     12  C   UNL     1       5.842  -7.428  -4.288  1.00  0.00     0.041 C 
ATOM     13  O   UNL     1       7.018  -7.858  -4.408  1.00  0.00    -0.550 OA
ATOM     14  O   UNL     1       4.973  -8.038  -3.392  1.00  0.00    -0.550 OA
ENDBRANCH  11  12
ENDBRANCH  10  11
ENDBRANCH   9  10
ENDBRANCH   8   9
ENDBRANCH   1   8
TORSDOF 9
ENDMDL
MODEL 3
REMARK VINA RESULT:    -4.111      4.054      6.858
REMARK INTER + INTRA:          -6.733
REMARK INTER:                  -6.112
REMARK INTRA:                  -0.621
REMARK UNBOUND:                -0.459
REMARK SMILES O=C([O-])CCCCCCCCC(=O)[O-]
REMARK SMILES IDX 7 1 6 2 5 3 4 4 2 5 1 6 3 7 8 8 9 9 10 10 11 11 12 12 13 13
REMARK SMILES IDX 14 14
REMARK H PARENT
REMARK Flexibility Score: inf
ROOT
ATOM      1  C   UNL     1       2.791  -5.375  -6.796  1.00  0.00     0.000 C 
ENDROOT
BRANCH   1   2
ATOM      2  C   UNL     1       3.505  -6.467  -5.985  1.00  0.00     0.000 C 
BRANCH   2   3
ATOM      3  C   UNL     1       4.793  -5.962  -5.317  1.00  0.00     0.006 C 
BRANCH   3   4
ATOM      4  C   UNL     1       5.890  -7.033  -5.264  1.00  0.00     0.053 C 
BRANCH   4   5
ATOM      5  C   UNL     1       5.400  -8.245  -4.537  1.00  0.00     0.041 C 
ATOM      6  O   UNL     1       5.034  -8.160  -3.336  1.00  0.00    -0.550 OA
ATOM      7  O   UNL     1       5.392  -9.481  -5.173  1.00  0.00    -0.550 OA
ENDBRANCH   4   5
ENDBRANCH   3   4
ENDBRANCH   2   3
ENDBRANCH   1   2
BRANCH   1   8
ATOM      8  C   UNL     1       3.793  -4.567  -7.630  1.00  0.00     0.000 C 
BRANCH   8   9
ATOM      9  C   UNL     1       3.363  -3.097  -7.734  1.00  0.00     0.000 C 
BRANCH   9  10
ATOM     10  C   UNL     1       1.841  -2.908  -7.592  1.00  0.00     0.006 C 
BRANCH  10  11
ATOM     11  C   UNL     1       1.130  -2.510  -8.895  1.00  0.00     0.053 C 
BRANCH  11  12
ATOM     12  C   UNL     1       0.326  -3.640  -9.463  1.00  0.00     0.041 C 
ATOM     13  O   UNL     1       0.881  -4.733  -9.748  1.00  0.00    -0.550 OA
ATOM     14  O   UNL     1      -1.031  -3.472  -9.707  1.00  0.00    -0.550 OA
ENDBRANCH  11  12
ENDBRANCH  10  11
ENDBRANCH   9  10
ENDBRANCH   8   9
ENDBRANCH   1   8
TORSDOF 9
ENDMDL
MODEL 4
REMARK VINA RESULT:    -4.067      3.907      7.205
REMARK INTER + INTRA:          -6.666
REMARK INTER:                  -5.954
REMARK INTRA:                  -0.712
REMARK UNBOUND:                -0.459
REMARK SMILES O=C([O-])CCCCCCCCC(=O)[O-]
REMARK SMILES IDX 7 1 6 2 5 3 4 4 2 5 1 6 3 7 8 8 9 9 10 10 11 11 12 12 13 13
REMARK SMILES IDX 14 14
REMARK H PARENT
REMARK Flexibility Score: inf
ROOT
ATOM      1  C   UNL     1       3.730  -6.374  -4.862  1.00  0.00     0.000 C 
ENDROOT
BRANCH   1   2
ATOM      2  C   UNL     1       5.262  -6.394  -4.963  1.00  0.00     0.000 C 
BRANCH   2   3
ATOM      3  C   UNL     1       5.870  -7.726  -4.495  1.00  0.00     0.006 C 
BRANCH   3   4
ATOM      4  C   UNL     1       4.908  -8.908  -4.670  1.00  0.00     0.053 C 
BRANCH   4   5
ATOM      5  C   UNL     1       4.997  -9.451  -6.061  1.00  0.00     0.041 C 
ATOM      6  O   UNL     1       6.093  -9.886  -6.503  1.00  0.00    -0.550 OA
ATOM      7  O   UNL     1       3.881  -9.432  -6.888  1.00  0.00    -0.550 OA
ENDBRANCH   4   5
ENDBRANCH   3   4
ENDBRANCH   2   3
ENDBRANCH   1   2
BRANCH   1   8
ATOM      8  C   UNL     1       3.096  -5.990  -6.204  1.00  0.00     0.000 C 
BRANCH   8   9
ATOM      9  C   UNL     1       4.140  -5.381  -7.151  1.00  0.00     0.000 C 
BRANCH   9  10
ATOM     10  C   UNL     1       3.664  -4.069  -7.801  1.00  0.00     0.006 C 
BRANCH  10  11
ATOM     11  C   UNL     1       2.300  -3.572  -7.296  1.00  0.00     0.053 C 
BRANCH  11  12
ATOM     12  C   UNL     1       1.302  -3.450  -8.406  1.00  0.00     0.041 C 
ATOM     13  O   UNL     1       0.646  -2.387  -8.556  1.00  0.00    -0.550 OA
ATOM     14  O   UNL     1       1.074  -4.525  -9.256  1.00  0.00    -0.550 OA
ENDBRANCH  11  12
ENDBRANCH  10  11
ENDBRANCH   9  10
ENDBRANCH   8   9
ENDBRANCH   1   8
TORSDOF 9
ENDMDL
MODEL 5
REMARK VINA RESULT:    -4.041      2.948      6.289
REMARK INTER + INTRA:          -6.626
REMARK INTER:                  -5.758
REMARK INTRA:                  -0.868
REMARK UNBOUND:                -0.459
REMARK SMILES O=C([O-])CCCCCCCCC(=O)[O-]
REMARK SMILES IDX 7 1 6 2 5 3 4 4 2 5 1 6 3 7 8 8 9 9 10 10 11 11 12 12 13 13
REMARK SMILES IDX 14 14
REMARK H PARENT
REMARK Flexibility Score: inf
ROOT
ATOM      1  C   UNL     1       6.434  -6.382  -8.025  1.00  0.00     0.000 C 
ENDROOT
BRANCH   1   2
ATOM      2  C   UNL     1       6.038  -7.439  -6.982  1.00  0.00     0.000 C 
BRANCH   2   3
ATOM      3  C   UNL     1       6.721  -7.216  -5.624  1.00  0.00     0.006 C 
BRANCH   3   4
ATOM      4  C   UNL     1       5.847  -6.419  -4.647  1.00  0.00     0.053 C 
BRANCH   4   5
ATOM      5  C   UNL     1       4.573  -7.153  -4.370  1.00  0.00     0.041 C 
ATOM      6  O   UNL     1       3.463  -6.587  -4.554  1.00  0.00    -0.550 OA
ATOM      7  O   UNL     1       4.611  -8.445  -3.863  1.00  0.00    -0.550 OA
ENDBRANCH   4   5
ENDBRANCH   3   4
ENDBRANCH   2   3
ENDBRANCH   1   2
BRANCH   1   8
ATOM      8  C   UNL     1       5.195  -5.686  -8.599  1.00  0.00     0.000 C 
BRANCH   8   9
ATOM      9  C   UNL     1       3.907  -6.296  -8.027  1.00  0.00     0.000 C 
BRANCH   9  10
ATOM     10  C   UNL     1       2.722  -5.313  -8.045  1.00  0.00     0.006 C 
BRANCH  10  11
ATOM     11  C   UNL     1       2.874  -4.122  -7.086  1.00  0.00     0.053 C 
BRANCH  11  12
ATOM     12  C   UNL     1       2.895  -2.813  -7.815  1.00  0.00     0.041 C 
ATOM     13  O   UNL     1       3.990  -2.291  -8.150  1.00  0.00    -0.550 OA
ATOM     14  O   UNL     1       1.704  -2.157  -8.096  1.00  0.00    -0.550 OA
ENDBRANCH  11  12
ENDBRANCH  10  11
ENDBRANCH   9  10
ENDBRANCH   8   9
ENDBRANCH   1   8
TORSDOF 9
ENDMDL
MODEL 6
REMARK VINA RESULT:    -4.000      3.946      5.181
REMARK INTER + INTRA:          -6.563
REMARK INTER:                  -6.086
REMARK INTRA:                  -0.478
REMARK UNBOUND:                -0.459
REMARK SMILES O=C([O-])CCCCCCCCC(=O)[O-]
REMARK SMILES IDX 7 1 6 2 5 3 4 4 2 5 1 6 3 7 8 8 9 9 10 10 11 11 12 12 13 13
REMARK SMILES IDX 14 14
REMARK H PARENT
REMARK Flexibility Score: inf
ROOT
ATOM      1  C   UNL     1       2.939  -6.007  -6.579  1.00  0.00     0.000 C 
ENDROOT
BRANCH   1   2
ATOM      2  C   UNL     1       3.687  -4.846  -7.252  1.00  0.00     0.000 C 
BRANCH   2   3
ATOM      3  C   UNL     1       2.898  -3.528  -7.207  1.00  0.00     0.006 C 
BRANCH   3   4
ATOM      4  C   UNL     1       1.495  -3.659  -7.813  1.00  0.00     0.053 C 
BRANCH   4   5
ATOM      5  C   UNL     1       1.584  -3.888  -9.289  1.00  0.00     0.041 C 
ATOM      6  O   UNL     1       2.192  -3.066 -10.022  1.00  0.00    -0.550 OA
ATOM      7  O   UNL     1       0.953  -4.985  -9.862  1.00  0.00    -0.550 OA
ENDBRANCH   4   5
ENDBRANCH   3   4
ENDBRANCH   2   3
ENDBRANCH   1   2
BRANCH   1   8
ATOM      8  C   UNL     1       3.921  -7.064  -6.059  1.00  0.00     0.000 C 
BRANCH   8   9
ATOM      9  C   UNL     1       4.006  -7.028  -4.526  1.00  0.00     0.000 C 
BRANCH   9  10
ATOM     10  C   UNL     1       5.405  -7.394  -3.998  1.00  0.00     0.006 C 
BRANCH  10  11
ATOM     11  C   UNL     1       6.558  -6.648  -4.688  1.00  0.00     0.053 C 
BRANCH  11  12
ATOM     12  C   UNL     1       7.779  -7.504  -4.823  1.00  0.00     0.041 C 
ATOM     13  O   UNL     1       8.616  -7.276  -5.735  1.00  0.00    -0.550 OA
ATOM     14  O   UNL     1       7.976  -8.574  -3.959  1.00  0.00    -0.550 OA
ENDBRANCH  11  12
ENDBRANCH  10  11
ENDBRANCH   9  10
ENDBRANCH   8   9
ENDBRANCH   1   8
TORSDOF 9
ENDMDL
MODEL 7
REMARK VINA RESULT:    -3.964      2.917      4.226
REMARK INTER + INTRA:          -6.508
REMARK INTER:                  -5.662
REMARK INTRA:                  -0.846
REMARK UNBOUND:                -0.459
REMARK SMILES O=C([O-])CCCCCCCCC(=O)[O-]
REMARK SMILES IDX 7 1 6 2 5 3 4 4 2 5 1 6 3 7 8 8 9 9 10 10 11 11 12 12 13 13
REMARK SMILES IDX 14 14
REMARK H PARENT
REMARK Flexibility Score: inf
ROOT
ATOM      1  C   UNL     1       5.050  -5.737  -8.806  1.00  0.00     0.000 C 
ENDROOT
BRANCH   1   2
ATOM      2  C   UNL     1       3.780  -6.302  -8.153  1.00  0.00     0.000 C 
BRANCH   2   3
ATOM      3  C   UNL     1       2.650  -5.264  -8.060  1.00  0.00     0.006 C 
BRANCH   3   4
ATOM      4  C   UNL     1       2.973  -4.125  -7.086  1.00  0.00     0.053 C 
BRANCH   4   5
ATOM      5  C   UNL     1       2.949  -2.809  -7.796  1.00  0.00     0.041 C 
ATOM      6  O   UNL     1       1.852  -2.249  -8.057  1.00  0.00    -0.550 OA
ATOM      7  O   UNL     1       4.137  -2.223  -8.215  1.00  0.00    -0.550 OA
ENDBRANCH   4   5
ENDBRANCH   3   4
ENDBRANCH   2   3
ENDBRANCH   1   2
BRANCH   1   8
ATOM      8  C   UNL     1       6.308  -6.353  -8.181  1.00  0.00     0.000 C 
BRANCH   8   9
ATOM      9  C   UNL     1       5.940  -7.419  -7.140  1.00  0.00     0.000 C 
BRANCH   9  10
ATOM     10  C   UNL     1       6.691  -7.238  -5.808  1.00  0.00     0.006 C 
BRANCH  10  11
ATOM     11  C   UNL     1       5.948  -6.378  -4.775  1.00  0.00     0.053 C 
BRANCH  11  12
ATOM     12  C   UNL     1       4.754  -7.085  -4.210  1.00  0.00     0.041 C 
ATOM     13  O   UNL     1       4.905  -8.055  -3.423  1.00  0.00    -0.550 OA
ATOM     14  O   UNL     1       3.475  -6.690  -4.581  1.00  0.00    -0.550 OA
ENDBRANCH  11  12
ENDBRANCH  10  11
ENDBRANCH   9  10
ENDBRANCH   8   9
ENDBRANCH   1   8
TORSDOF 9
ENDMDL
MODEL 8
REMARK VINA RESULT:    -3.942      3.779      4.907
REMARK INTER + INTRA:          -6.475
REMARK INTER:                  -5.711
REMARK INTRA:                  -0.764
REMARK UNBOUND:                -0.459
REMARK SMILES O=C([O-])CCCCCCCCC(=O)[O-]
REMARK SMILES IDX 7 1 6 2 5 3 4 4 2 5 1 6 3 7 8 8 9 9 10 10 11 11 12 12 13 13
REMARK SMILES IDX 14 14
REMARK H PARENT
REMARK Flexibility Score: inf
ROOT
ATOM      1  C   UNL     1       3.110  -6.013  -6.260  1.00  0.00     0.000 C 
ENDROOT
BRANCH   1   2
ATOM      2  C   UNL     1       4.251  -5.686  -7.235  1.00  0.00     0.000 C 
BRANCH   2   3
ATOM      3  C   UNL     1       4.004  -4.390  -8.023  1.00  0.00     0.006 C 
BRANCH   3   4
ATOM      4  C   UNL     1       2.953  -3.489  -7.363  1.00  0.00     0.053 C 
BRANCH   4   5
ATOM      5  C   UNL     1       1.787  -3.290  -8.279  1.00  0.00     0.041 C 
ATOM      6  O   UNL     1       1.136  -2.213  -8.252  1.00  0.00    -0.550 OA
ATOM      7  O   UNL     1       1.390  -4.314  -9.131  1.00  0.00    -0.550 OA
ENDBRANCH   4   5
ENDBRANCH   3   4
ENDBRANCH   2   3
ENDBRANCH   1   2
BRANCH   1   8
ATOM      8  C   UNL     1       3.659  -6.374  -4.874  1.00  0.00     0.000 C 
BRANCH   8   9
ATOM      9  C   UNL     1       5.194  -6.383  -4.876  1.00  0.00     0.000 C 
BRANCH   9  10
ATOM     10  C   UNL     1       5.784  -7.702  -4.344  1.00  0.00     0.006 C 
BRANCH  10  11
ATOM     11  C   UNL     1       4.882  -8.928  -4.552  1.00  0.00     0.053 C 
BRANCH  11  12
ATOM     12  C   UNL     1       5.040  -9.515  -5.922  1.00  0.00     0.041 C 
ATOM     13  O   UNL     1       4.082  -9.491  -6.737  1.00  0.00    -0.550 OA
ATOM     14  O   UNL     1       6.238 -10.117  -6.284  1.00  0.00    -0.550 OA
ENDBRANCH  11  12
ENDBRANCH  10  11
ENDBRANCH   9  10
ENDBRANCH   8   9
ENDBRANCH   1   8
TORSDOF 9
ENDMDL
MODEL 9
REMARK VINA RESULT:    -3.903      2.488      6.228
REMARK INTER + INTRA:          -6.416
REMARK INTER:                  -5.862
REMARK INTRA:                  -0.553
REMARK UNBOUND:                -0.459
REMARK SMILES O=C([O-])CCCCCCCCC(=O)[O-]
REMARK SMILES IDX 7 1 6 2 5 3 4 4 2 5 1 6 3 7 8 8 9 9 10 10 11 11 12 12 13 13
REMARK SMILES IDX 14 14
REMARK H PARENT
REMARK Flexibility Score: inf
ROOT
ATOM      1  C   UNL     1       3.998  -5.555  -6.402  1.00  0.00     0.000 C 
ENDROOT
BRANCH   1   2
ATOM      2  C   UNL     1       3.531  -6.361  -5.180  1.00  0.00     0.000 C 
BRANCH   2   3
ATOM      3  C   UNL     1       4.652  -7.218  -4.572  1.00  0.00     0.006 C 
BRANCH   3   4
ATOM      4  C   UNL     1       6.002  -6.489  -4.539  1.00  0.00     0.053 C 
BRANCH   4   5
ATOM      5  C   UNL     1       7.104  -7.414  -4.949  1.00  0.00     0.041 C 
ATOM      6  O   UNL     1       7.526  -8.291  -4.151  1.00  0.00    -0.550 OA
ATOM      7  O   UNL     1       7.699  -7.276  -6.197  1.00  0.00    -0.550 OA
ENDBRANCH   4   5
ENDBRANCH   3   4
ENDBRANCH   2   3
ENDBRANCH   1   2
BRANCH   1   8
ATOM      8  C   UNL     1       2.882  -5.447  -7.447  1.00  0.00     0.000 C 
BRANCH   8   9
ATOM      9  C   UNL     1       2.116  -4.124  -7.299  1.00  0.00     0.000 C 
BRANCH   9  10
ATOM     10  C   UNL     1       3.006  -2.890  -7.538  1.00  0.00     0.006 C 
BRANCH  10  11
ATOM     11  C   UNL     1       3.432  -2.692  -9.001  1.00  0.00     0.053 C 
BRANCH  11  12
ATOM     12  C   UNL     1       4.920  -2.740  -9.163  1.00  0.00     0.041 C 
ATOM     13  O   UNL     1       5.500  -3.837  -9.376  1.00  0.00    -0.550 OA
ATOM     14  O   UNL     1       5.669  -1.576  -9.047  1.00  0.00    -0.550 OA
ENDBRANCH  11  12
ENDBRANCH  10  11
ENDBRANCH   9  10
ENDBRANCH   8   9
ENDBRANCH   1   8
TORSDOF 9
ENDMDL
