MODEL 1
REMARK VINA RESULT:    -7.577      0.000      0.000
REMARK INTER + INTRA:          -9.219
REMARK INTER:                  -8.906
REMARK INTRA:                  -0.313
REMARK UNBOUND:                -0.313
REMARK SMILES O=c1cc(-c2ccc(O)c(O)c2)oc2cc(O)cc(O)c12
REMARK SMILES IDX 4 1 3 2 2 3 1 4 21 5 19 6 18 7 16 8 15 9 14 10 13 11 5 12
REMARK SMILES IDX 6 13 7 14 8 15 12 16 10 17 9 18 11 20 20 22 17 24
REMARK H PARENT 9 19 11 21 20 23 17 25
REMARK Flexibility Score: inf
ROOT
ATOM      1  C   UNL     1      -0.959  -0.246  27.381  1.00  0.00     0.138 A 
ATOM      2  C   UNL     1      -0.153  -0.888  28.335  1.00  0.00     0.100 A 
ATOM      3  C   UNL     1      -0.627  -1.052  29.638  1.00  0.00     0.197 A 
ATOM      4  O   UNL     1       0.105  -1.629  30.487  1.00  0.00    -0.289 OA
ATOM      5  C   UNL     1      -1.906  -0.568  29.978  1.00  0.00     0.107 A 
ATOM      6  C   UNL     1      -2.462  -0.693  31.274  1.00  0.00     0.134 A 
ATOM      7  C   UNL     1      -3.741  -0.178  31.533  1.00  0.00     0.093 A 
ATOM      8  C   UNL     1      -4.471   0.459  30.523  1.00  0.00     0.123 A 
ATOM      9  C   UNL     1      -3.926   0.585  29.245  1.00  0.00     0.094 A 
ATOM     10  C   UNL     1      -2.654   0.077  28.964  1.00  0.00     0.146 A 
ATOM     11  O   UNL     1      -2.159   0.209  27.738  1.00  0.00    -0.456 OA
ENDROOT
BRANCH   1  12
ATOM     12  C   UNL     1      -0.506  -0.043  25.982  1.00  0.00     0.021 A 
ATOM     13  C   UNL     1       0.867  -0.088  25.687  1.00  0.00     0.016 A 
ATOM     14  C   UNL     1       1.319   0.107  24.380  1.00  0.00     0.051 A 
ATOM     15  C   UNL     1       0.409   0.359  23.346  1.00  0.00     0.157 A 
ATOM     16  C   UNL     1      -1.416   0.223  24.940  1.00  0.00     0.062 A 
ATOM     17  C   UNL     1      -0.965   0.420  23.630  1.00  0.00     0.158 A 
BRANCH  15  18
ATOM     18  O   UNL     1       0.864   0.550  22.042  1.00  0.00    -0.504 OA
ATOM     19  H   UNL     1       1.768   0.207  21.740  1.00  0.00     0.293 HD
ENDBRANCH  15  18
BRANCH  17  20
ATOM     20  O   UNL     1      -1.897   0.680  22.625  1.00  0.00    -0.504 OA
ATOM     21  H   UNL     1      -2.854   0.352  22.682  1.00  0.00     0.293 HD
ENDBRANCH  17  20
ENDBRANCH   1  12
BRANCH   6  22
ATOM     22  O   UNL     1      -1.757  -1.323  32.299  1.00  0.00    -0.507 OA
ATOM     23  H   UNL     1      -1.907  -1.086  33.273  1.00  0.00     0.293 HD
ENDBRANCH   6  22
BRANCH   8  24
ATOM     24  O   UNL     1      -5.742   0.971  30.781  1.00  0.00    -0.508 OA
ATOM     25  H   UNL     1      -6.131   0.977  31.717  1.00  0.00     0.293 HD
ENDBRANCH   8  24
TORSDOF 5
ENDMDL
MODEL 2
REMARK VINA RESULT:    -7.513      5.152     11.344
REMARK INTER + INTRA:          -9.144
REMARK INTER:                  -8.833
REMARK INTRA:                  -0.311
REMARK UNBOUND:                -0.313
REMARK SMILES O=c1cc(-c2ccc(O)c(O)c2)oc2cc(O)cc(O)c12
REMARK SMILES IDX 4 1 3 2 2 3 1 4 21 5 19 6 18 7 16 8 15 9 14 10 13 11 5 12
REMARK SMILES IDX 6 13 7 14 8 15 12 16 10 17 9 18 11 20 20 22 17 24
REMARK H PARENT 9 19 11 21 20 23 17 25
REMARK Flexibility Score: inf
ROOT
ATOM      1  C   UNL     1       0.695   0.009  19.678  1.00  0.00     0.138 A 
ATOM      2  C   UNL     1      -0.133  -0.468  18.648  1.00  0.00     0.100 A 
ATOM      3  C   UNL     1       0.358  -0.525  17.343  1.00  0.00     0.197 A 
ATOM      4  O   UNL     1      -0.393  -0.953  16.426  1.00  0.00    -0.289 OA
ATOM      5  C   UNL     1       1.675  -0.100  17.075  1.00  0.00     0.107 A 
ATOM      6  C   UNL     1       2.249  -0.125  15.782  1.00  0.00     0.134 A 
ATOM      7  C   UNL     1       3.567   0.322  15.599  1.00  0.00     0.093 A 
ATOM      8  C   UNL     1       4.316   0.793  16.682  1.00  0.00     0.123 A 
ATOM      9  C   UNL     1       3.754   0.820  17.959  1.00  0.00     0.094 A 
ATOM     10  C   UNL     1       2.443   0.378  18.164  1.00  0.00     0.146 A 
ATOM     11  O   UNL     1       1.931   0.412  19.390  1.00  0.00    -0.456 OA
ENDROOT
BRANCH   1  12
ATOM     12  C   UNL     1       0.227   0.092  21.084  1.00  0.00     0.021 A 
ATOM     13  C   UNL     1      -1.151   0.167  21.350  1.00  0.00     0.016 A 
ATOM     14  C   UNL     1      -1.618   0.253  22.664  1.00  0.00     0.051 A 
ATOM     15  C   UNL     1      -0.715   0.277  23.735  1.00  0.00     0.157 A 
ATOM     16  C   UNL     1       1.129   0.129  22.164  1.00  0.00     0.062 A 
ATOM     17  C   UNL     1       0.665   0.218  23.482  1.00  0.00     0.158 A 
BRANCH  15  18
ATOM     18  O   UNL     1      -1.184   0.361  25.045  1.00  0.00    -0.504 OA
ATOM     19  H   UNL     1      -0.877   1.095  25.672  1.00  0.00     0.293 HD
ENDBRANCH  15  18
BRANCH  17  20
ATOM     20  O   UNL     1       1.590   0.250  24.525  1.00  0.00    -0.504 OA
ATOM     21  H   UNL     1       1.304   0.298  25.496  1.00  0.00     0.293 HD
ENDBRANCH  17  20
ENDBRANCH   1  12
BRANCH   6  22
ATOM     22  O   UNL     1       1.524  -0.589  14.684  1.00  0.00    -0.507 OA
ATOM     23  H   UNL     1       1.932  -1.222  14.006  1.00  0.00     0.293 HD
ENDBRANCH   6  22
BRANCH   8  24
ATOM     24  O   UNL     1       5.625   1.238  16.500  1.00  0.00    -0.508 OA
ATOM     25  H   UNL     1       6.340   1.081  17.201  1.00  0.00     0.293 HD
ENDBRANCH   8  24
TORSDOF 5
ENDMDL
MODEL 3
REMARK VINA RESULT:    -7.469      1.173      2.683
REMARK INTER + INTRA:          -9.092
REMARK INTER:                  -8.798
REMARK INTRA:                  -0.293
REMARK UNBOUND:                -0.313
REMARK SMILES O=c1cc(-c2ccc(O)c(O)c2)oc2cc(O)cc(O)c12
REMARK SMILES IDX 4 1 3 2 2 3 1 4 21 5 19 6 18 7 16 8 15 9 14 10 13 11 5 12
REMARK SMILES IDX 6 13 7 14 8 15 12 16 10 17 9 18 11 20 20 22 17 24
REMARK H PARENT 9 19 11 21 20 23 17 25
REMARK Flexibility Score: inf
ROOT
ATOM      1  C   UNL     1      -1.268  -0.062  27.404  1.00  0.00     0.138 A 
ATOM      2  C   UNL     1      -2.566   0.409  27.662  1.00  0.00     0.100 A 
ATOM      3  C   UNL     1      -3.098   0.286  28.947  1.00  0.00     0.197 A 
ATOM      4  O   UNL     1      -4.264   0.710  29.169  1.00  0.00    -0.289 OA
ATOM      5  C   UNL     1      -2.327  -0.313  29.964  1.00  0.00     0.107 A 
ATOM      6  C   UNL     1      -2.791  -0.476  31.292  1.00  0.00     0.134 A 
ATOM      7  C   UNL     1      -1.964  -1.089  32.245  1.00  0.00     0.093 A 
ATOM      8  C   UNL     1      -0.686  -1.540  31.896  1.00  0.00     0.123 A 
ATOM      9  C   UNL     1      -0.226  -1.381  30.588  1.00  0.00     0.094 A 
ATOM     10  C   UNL     1      -1.034  -0.772  29.622  1.00  0.00     0.146 A 
ATOM     11  O   UNL     1      -0.570  -0.632  28.385  1.00  0.00    -0.456 OA
ENDROOT
BRANCH   1  12
ATOM     12  C   UNL     1      -0.651   0.042  26.057  1.00  0.00     0.021 A 
ATOM     13  C   UNL     1       0.745  -0.055  25.928  1.00  0.00     0.016 A 
ATOM     14  C   UNL     1       1.351   0.047  24.673  1.00  0.00     0.051 A 
ATOM     15  C   UNL     1       0.574   0.257  23.528  1.00  0.00     0.157 A 
ATOM     16  C   UNL     1      -1.425   0.266  24.903  1.00  0.00     0.062 A 
ATOM     17  C   UNL     1      -0.820   0.370  23.645  1.00  0.00     0.158 A 
BRANCH  15  18
ATOM     18  O   UNL     1       1.182   0.356  22.277  1.00  0.00    -0.504 OA
ATOM     19  H   UNL     1       1.841  -0.342  21.950  1.00  0.00     0.293 HD
ENDBRANCH  15  18
BRANCH  17  20
ATOM     20  O   UNL     1      -1.621   0.591  22.525  1.00  0.00    -0.504 OA
ATOM     21  H   UNL     1      -1.381   1.275  21.818  1.00  0.00     0.293 HD
ENDBRANCH  17  20
ENDBRANCH   1  12
BRANCH   6  22
ATOM     22  O   UNL     1      -4.061  -0.036  31.668  1.00  0.00    -0.507 OA
ATOM     23  H   UNL     1      -4.885  -0.262  31.124  1.00  0.00     0.293 HD
ENDBRANCH   6  22
BRANCH   8  24
ATOM     24  O   UNL     1       0.135  -2.148  32.843  1.00  0.00    -0.508 OA
ATOM     25  H   UNL     1       0.031  -1.961  33.834  1.00  0.00     0.293 HD
ENDBRANCH   8  24
TORSDOF 5
ENDMDL
MODEL 4
REMARK VINA RESULT:    -7.260      5.110     11.054
REMARK INTER + INTRA:          -8.846
REMARK INTER:                  -8.558
REMARK INTRA:                  -0.289
REMARK UNBOUND:                -0.313
REMARK SMILES O=c1cc(-c2ccc(O)c(O)c2)oc2cc(O)cc(O)c12
REMARK SMILES IDX 4 1 3 2 2 3 1 4 21 5 19 6 18 7 16 8 15 9 14 10 13 11 5 12
REMARK SMILES IDX 6 13 7 14 8 15 12 16 10 17 9 18 11 20 20 22 17 24
REMARK H PARENT 9 19 11 21 20 23 17 25
REMARK Flexibility Score: inf
ROOT
ATOM      1  C   UNL     1       0.938   0.219  19.920  1.00  0.00     0.138 A 
ATOM      2  C   UNL     1       2.223   0.741  19.696  1.00  0.00     0.100 A 
ATOM      3  C   UNL     1       2.762   0.711  18.409  1.00  0.00     0.197 A 
ATOM      4  O   UNL     1       3.916   1.181  18.219  1.00  0.00    -0.289 OA
ATOM      5  C   UNL     1       2.011   0.156  17.353  1.00  0.00     0.107 A 
ATOM      6  C   UNL     1       2.482   0.088  16.020  1.00  0.00     0.134 A 
ATOM      7  C   UNL     1       1.675  -0.487  15.027  1.00  0.00     0.093 A 
ATOM      8  C   UNL     1       0.409  -0.994  15.343  1.00  0.00     0.123 A 
ATOM      9  C   UNL     1      -0.059  -0.929  16.656  1.00  0.00     0.094 A 
ATOM     10  C   UNL     1       0.729  -0.359  17.661  1.00  0.00     0.146 A 
ATOM     11  O   UNL     1       0.259  -0.308  18.903  1.00  0.00    -0.456 OA
ENDROOT
BRANCH   1  12
ATOM     12  C   UNL     1       0.315   0.223  21.268  1.00  0.00     0.021 A 
ATOM     13  C   UNL     1      -1.085   0.282  21.381  1.00  0.00     0.016 A 
ATOM     14  C   UNL     1      -1.696   0.294  22.637  1.00  0.00     0.051 A 
ATOM     15  C   UNL     1      -0.919   0.257  23.802  1.00  0.00     0.157 A 
ATOM     16  C   UNL     1       1.090   0.199  22.443  1.00  0.00     0.062 A 
ATOM     17  C   UNL     1       0.481   0.213  23.702  1.00  0.00     0.158 A 
BRANCH  15  18
ATOM     18  O   UNL     1      -1.533   0.267  25.054  1.00  0.00    -0.504 OA
ATOM     19  H   UNL     1      -1.701   1.132  25.556  1.00  0.00     0.293 HD
ENDBRANCH  15  18
BRANCH  17  20
ATOM     20  O   UNL     1       1.283   0.187  24.843  1.00  0.00    -0.504 OA
ATOM     21  H   UNL     1       1.046   0.708  25.679  1.00  0.00     0.293 HD
ENDBRANCH  17  20
ENDBRANCH   1  12
BRANCH   6  22
ATOM     22  O   UNL     1       3.740   0.584  15.678  1.00  0.00    -0.507 OA
ATOM     23  H   UNL     1       4.570   0.345  16.208  1.00  0.00     0.293 HD
ENDBRANCH   6  22
BRANCH   8  24
ATOM     24  O   UNL     1      -0.393  -1.565  14.356  1.00  0.00    -0.508 OA
ATOM     25  H   UNL     1      -0.203  -2.491  13.990  1.00  0.00     0.293 HD
ENDBRANCH   8  24
TORSDOF 5
ENDMDL
MODEL 5
REMARK VINA RESULT:    -6.860      5.669      8.589
REMARK INTER + INTRA:          -8.376
REMARK INTER:                  -8.081
REMARK INTRA:                  -0.295
REMARK UNBOUND:                -0.313
REMARK SMILES O=c1cc(-c2ccc(O)c(O)c2)oc2cc(O)cc(O)c12
REMARK SMILES IDX 4 1 3 2 2 3 1 4 21 5 19 6 18 7 16 8 15 9 14 10 13 11 5 12
REMARK SMILES IDX 6 13 7 14 8 15 12 16 10 17 9 18 11 20 20 22 17 24
REMARK H PARENT 9 19 11 21 20 23 17 25
REMARK Flexibility Score: inf
ROOT
ATOM      1  C   UNL     1       1.383  -0.229  19.584  1.00  0.00     0.138 A 
ATOM      2  C   UNL     1       1.565   0.652  20.663  1.00  0.00     0.100 A 
ATOM      3  C   UNL     1       0.963   0.370  21.890  1.00  0.00     0.197 A 
ATOM      4  O   UNL     1       1.131   1.167  22.851  1.00  0.00    -0.289 OA
ATOM      5  C   UNL     1       0.177  -0.793  22.027  1.00  0.00     0.107 A 
ATOM      6  C   UNL     1      -0.468  -1.153  23.235  1.00  0.00     0.134 A 
ATOM      7  C   UNL     1      -1.238  -2.324  23.288  1.00  0.00     0.093 A 
ATOM      8  C   UNL     1      -1.375  -3.139  22.158  1.00  0.00     0.123 A 
ATOM      9  C   UNL     1      -0.742  -2.787  20.966  1.00  0.00     0.094 A 
ATOM     10  C   UNL     1       0.032  -1.624  20.892  1.00  0.00     0.146 A 
ATOM     11  O   UNL     1       0.626  -1.313  19.744  1.00  0.00    -0.456 OA
ENDROOT
BRANCH   1  12
ATOM     12  C   UNL     1       1.999   0.021  18.256  1.00  0.00     0.021 A 
ATOM     13  C   UNL     1       1.536  -0.689  17.135  1.00  0.00     0.016 A 
ATOM     14  C   UNL     1       2.103  -0.479  15.876  1.00  0.00     0.051 A 
ATOM     15  C   UNL     1       3.149   0.438  15.717  1.00  0.00     0.157 A 
ATOM     16  C   UNL     1       3.059   0.932  18.091  1.00  0.00     0.062 A 
ATOM     17  C   UNL     1       3.631   1.144  16.831  1.00  0.00     0.158 A 
BRANCH  15  18
ATOM     18  O   UNL     1       3.712   0.648  14.459  1.00  0.00    -0.504 OA
ATOM     19  H   UNL     1       3.492   0.047  13.672  1.00  0.00     0.293 HD
ENDBRANCH  15  18
BRANCH  17  20
ATOM     20  O   UNL     1       4.679   2.056  16.708  1.00  0.00    -0.504 OA
ATOM     21  H   UNL     1       4.742   2.700  15.928  1.00  0.00     0.293 HD
ENDBRANCH  17  20
ENDBRANCH   1  12
BRANCH   6  22
ATOM     22  O   UNL     1      -0.349  -0.359  24.376  1.00  0.00    -0.507 OA
ATOM     23  H   UNL     1       0.136  -0.686  25.204  1.00  0.00     0.293 HD
ENDBRANCH   6  22
BRANCH   8  24
ATOM     24  O   UNL     1      -2.141  -4.302  22.211  1.00  0.00    -0.508 OA
ATOM     25  H   UNL     1      -2.502  -4.737  21.370  1.00  0.00     0.293 HD
ENDBRANCH   8  24
TORSDOF 5
ENDMDL
MODEL 6
REMARK VINA RESULT:    -6.851      5.989      9.297
REMARK INTER + INTRA:          -8.365
REMARK INTER:                  -8.086
REMARK INTRA:                  -0.279
REMARK UNBOUND:                -0.313
REMARK SMILES O=c1cc(-c2ccc(O)c(O)c2)oc2cc(O)cc(O)c12
REMARK SMILES IDX 4 1 3 2 2 3 1 4 21 5 19 6 18 7 16 8 15 9 14 10 13 11 5 12
REMARK SMILES IDX 6 13 7 14 8 15 12 16 10 17 9 18 11 20 20 22 17 24
REMARK H PARENT 9 19 11 21 20 23 17 25
REMARK Flexibility Score: inf
ROOT
ATOM      1  C   UNL     1       1.629  -0.783  18.619  1.00  0.00     0.138 A 
ATOM      2  C   UNL     1       1.459  -2.176  18.564  1.00  0.00     0.100 A 
ATOM      3  C   UNL     1       0.750  -2.822  19.578  1.00  0.00     0.197 A 
ATOM      4  O   UNL     1       0.604  -4.073  19.520  1.00  0.00    -0.289 OA
ATOM      5  C   UNL     1       0.218  -2.068  20.644  1.00  0.00     0.107 A 
ATOM      6  C   UNL     1      -0.513  -2.644  21.710  1.00  0.00     0.134 A 
ATOM      7  C   UNL     1      -1.004  -1.825  22.738  1.00  0.00     0.093 A 
ATOM      8  C   UNL     1      -0.777  -0.444  22.718  1.00  0.00     0.123 A 
ATOM      9  C   UNL     1      -0.056   0.128  21.668  1.00  0.00     0.094 A 
ATOM     10  C   UNL     1       0.441  -0.671  20.634  1.00  0.00     0.146 A 
ATOM     11  O   UNL     1       1.122  -0.101  19.645  1.00  0.00    -0.456 OA
ENDROOT
BRANCH   1  12
ATOM     12  C   UNL     1       2.374  -0.042  17.569  1.00  0.00     0.021 A 
ATOM     13  C   UNL     1       3.293   0.952  17.946  1.00  0.00     0.016 A 
ATOM     14  C   UNL     1       4.001   1.668  16.978  1.00  0.00     0.051 A 
ATOM     15  C   UNL     1       3.797   1.410  15.617  1.00  0.00     0.157 A 
ATOM     16  C   UNL     1       2.164  -0.288  16.199  1.00  0.00     0.062 A 
ATOM     17  C   UNL     1       2.870   0.429  15.227  1.00  0.00     0.158 A 
BRANCH  15  18
ATOM     18  O   UNL     1       4.507   2.125  14.653  1.00  0.00    -0.504 OA
ATOM     19  H   UNL     1       4.881   3.047  14.846  1.00  0.00     0.293 HD
ENDBRANCH  15  18
BRANCH  17  20
ATOM     20  O   UNL     1       2.636   0.155  13.880  1.00  0.00    -0.504 OA
ATOM     21  H   UNL     1       1.699   0.065  13.504  1.00  0.00     0.293 HD
ENDBRANCH  17  20
ENDBRANCH   1  12
BRANCH   6  22
ATOM     22  O   UNL     1      -0.753  -4.018  21.756  1.00  0.00    -0.507 OA
ATOM     23  H   UNL     1      -0.152  -4.647  22.276  1.00  0.00     0.293 HD
ENDBRANCH   6  22
BRANCH   8  24
ATOM     24  O   UNL     1      -1.264   0.370  23.738  1.00  0.00    -0.508 OA
ATOM     25  H   UNL     1      -1.708   1.260  23.540  1.00  0.00     0.293 HD
ENDBRANCH   8  24
TORSDOF 5
ENDMDL
MODEL 7
REMARK VINA RESULT:    -6.798      1.955      3.344
REMARK INTER + INTRA:          -8.303
REMARK INTER:                  -8.027
REMARK INTRA:                  -0.276
REMARK UNBOUND:                -0.313
REMARK SMILES O=c1cc(-c2ccc(O)c(O)c2)oc2cc(O)cc(O)c12
REMARK SMILES IDX 4 1 3 2 2 3 1 4 21 5 19 6 18 7 16 8 15 9 14 10 13 11 5 12
REMARK SMILES IDX 6 13 7 14 8 15 12 16 10 17 9 18 11 20 20 22 17 24
REMARK H PARENT 9 19 11 21 20 23 17 25
REMARK Flexibility Score: inf
ROOT
ATOM      1  C   UNL     1      -0.170  -0.340  24.547  1.00  0.00     0.138 A 
ATOM      2  C   UNL     1       0.785  -1.190  25.129  1.00  0.00     0.100 A 
ATOM      3  C   UNL     1       0.718  -1.463  26.496  1.00  0.00     0.197 A 
ATOM      4  O   UNL     1       1.581  -2.226  27.009  1.00  0.00    -0.289 OA
ATOM      5  C   UNL     1      -0.303  -0.880  27.274  1.00  0.00     0.107 A 
ATOM      6  C   UNL     1      -0.442  -1.105  28.664  1.00  0.00     0.134 A 
ATOM      7  C   UNL     1      -1.483  -0.482  29.368  1.00  0.00     0.093 A 
ATOM      8  C   UNL     1      -2.384   0.361  28.708  1.00  0.00     0.123 A 
ATOM      9  C   UNL     1      -2.250   0.586  27.337  1.00  0.00     0.094 A 
ATOM     10  C   UNL     1      -1.220  -0.027  26.617  1.00  0.00     0.146 A 
ATOM     11  O   UNL     1      -1.116   0.203  25.312  1.00  0.00    -0.456 OA
ENDROOT
BRANCH   1  12
ATOM     12  C   UNL     1      -0.149  -0.013  23.099  1.00  0.00     0.021 A 
ATOM     13  C   UNL     1      -1.336  -0.106  22.352  1.00  0.00     0.016 A 
ATOM     14  C   UNL     1      -1.341   0.189  20.987  1.00  0.00     0.051 A 
ATOM     15  C   UNL     1      -0.159   0.573  20.342  1.00  0.00     0.157 A 
ATOM     16  C   UNL     1       1.038   0.361  22.442  1.00  0.00     0.062 A 
ATOM     17  C   UNL     1       1.036   0.656  21.073  1.00  0.00     0.158 A 
BRANCH  15  18
ATOM     18  O   UNL     1      -0.169   0.869  18.979  1.00  0.00    -0.504 OA
ATOM     19  H   UNL     1      -0.438   1.784  18.637  1.00  0.00     0.293 HD
ENDBRANCH  15  18
BRANCH  17  20
ATOM     20  O   UNL     1       2.232   1.025  20.458  1.00  0.00    -0.504 OA
ATOM     21  H   UNL     1       3.023   1.373  20.986  1.00  0.00     0.293 HD
ENDBRANCH  17  20
ENDBRANCH   1  12
BRANCH   6  22
ATOM     22  O   UNL     1       0.443  -1.941  29.348  1.00  0.00    -0.507 OA
ATOM     23  H   UNL     1       0.201  -2.897  29.579  1.00  0.00     0.293 HD
ENDBRANCH   6  22
BRANCH   8  24
ATOM     24  O   UNL     1      -3.418   0.981  29.407  1.00  0.00    -0.508 OA
ATOM     25  H   UNL     1      -3.456   1.988  29.514  1.00  0.00     0.293 HD
ENDBRANCH   8  24
TORSDOF 5
ENDMDL
MODEL 8
REMARK VINA RESULT:    -6.772      2.122      6.863
REMARK INTER + INTRA:          -8.273
REMARK INTER:                  -7.980
REMARK INTRA:                  -0.293
REMARK UNBOUND:                -0.313
REMARK SMILES O=c1cc(-c2ccc(O)c(O)c2)oc2cc(O)cc(O)c12
REMARK SMILES IDX 4 1 3 2 2 3 1 4 21 5 19 6 18 7 16 8 15 9 14 10 13 11 5 12
REMARK SMILES IDX 6 13 7 14 8 15 12 16 10 17 9 18 11 20 20 22 17 24
REMARK H PARENT 9 19 11 21 20 23 17 25
REMARK Flexibility Score: inf
ROOT
ATOM      1  C   UNL     1      -1.876  -1.305  28.483  1.00  0.00     0.138 A 
ATOM      2  C   UNL     1      -1.588  -2.666  28.285  1.00  0.00     0.100 A 
ATOM      3  C   UNL     1      -1.000  -3.076  27.088  1.00  0.00     0.197 A 
ATOM      4  O   UNL     1      -0.746  -4.299  26.919  1.00  0.00    -0.289 OA
ATOM      5  C   UNL     1      -0.708  -2.121  26.093  1.00  0.00     0.107 A 
ATOM      6  C   UNL     1      -0.112  -2.452  24.852  1.00  0.00     0.134 A 
ATOM      7  C   UNL     1       0.141  -1.441  23.912  1.00  0.00     0.093 A 
ATOM      8  C   UNL     1      -0.191  -0.111  24.190  1.00  0.00     0.123 A 
ATOM      9  C   UNL     1      -0.778   0.220  25.412  1.00  0.00     0.094 A 
ATOM     10  C   UNL     1      -1.038  -0.771  26.363  1.00  0.00     0.146 A 
ATOM     11  O   UNL     1      -1.596  -0.430  27.520  1.00  0.00    -0.456 OA
ENDROOT
BRANCH   1  12
ATOM     12  C   UNL     1      -2.501  -0.812  29.737  1.00  0.00     0.021 A 
ATOM     13  C   UNL     1      -2.028  -1.278  30.975  1.00  0.00     0.016 A 
ATOM     14  C   UNL     1      -2.603  -0.835  32.168  1.00  0.00     0.051 A 
ATOM     15  C   UNL     1      -3.668   0.074  32.145  1.00  0.00     0.157 A 
ATOM     16  C   UNL     1      -3.581   0.092  29.720  1.00  0.00     0.062 A 
ATOM     17  C   UNL     1      -4.160   0.536  30.913  1.00  0.00     0.158 A 
BRANCH  15  18
ATOM     18  O   UNL     1      -4.239   0.516  33.338  1.00  0.00    -0.504 OA
ATOM     19  H   UNL     1      -4.844   1.329  33.368  1.00  0.00     0.293 HD
ENDBRANCH  15  18
BRANCH  17  20
ATOM     20  O   UNL     1      -5.227   1.434  30.856  1.00  0.00    -0.504 OA
ATOM     21  H   UNL     1      -5.648   1.712  29.977  1.00  0.00     0.293 HD
ENDBRANCH  17  20
ENDBRANCH   1  12
BRANCH   6  22
ATOM     22  O   UNL     1       0.228  -3.770  24.549  1.00  0.00    -0.507 OA
ATOM     23  H   UNL     1       1.185  -4.043  24.354  1.00  0.00     0.293 HD
ENDBRANCH   6  22
BRANCH   8  24
ATOM     24  O   UNL     1       0.061   0.893  23.256  1.00  0.00    -0.508 OA
ATOM     25  H   UNL     1       0.265   1.844  23.542  1.00  0.00     0.293 HD
ENDBRANCH   8  24
TORSDOF 5
ENDMDL
MODEL 9
REMARK VINA RESULT:    -6.749      3.270      9.131
REMARK INTER + INTRA:          -8.245
REMARK INTER:                  -7.970
REMARK INTRA:                  -0.275
REMARK UNBOUND:                -0.313
REMARK SMILES O=c1cc(-c2ccc(O)c(O)c2)oc2cc(O)cc(O)c12
REMARK SMILES IDX 4 1 3 2 2 3 1 4 21 5 19 6 18 7 16 8 15 9 14 10 13 11 5 12
REMARK SMILES IDX 6 13 7 14 8 15 12 16 10 17 9 18 11 20 20 22 17 24
REMARK H PARENT 9 19 11 21 20 23 17 25
REMARK Flexibility Score: inf
ROOT
ATOM      1  C   UNL     1      -0.106  -0.363  22.517  1.00  0.00     0.138 A 
ATOM      2  C   UNL     1      -1.062  -1.184  21.896  1.00  0.00     0.100 A 
ATOM      3  C   UNL     1      -1.027  -1.353  20.511  1.00  0.00     0.197 A 
ATOM      4  O   UNL     1      -1.890  -2.090  19.963  1.00  0.00    -0.289 OA
ATOM      5  C   UNL     1      -0.035  -0.694  19.755  1.00  0.00     0.107 A 
ATOM      6  C   UNL     1       0.071  -0.812  18.348  1.00  0.00     0.134 A 
ATOM      7  C   UNL     1       1.084  -0.118  17.669  1.00  0.00     0.093 A 
ATOM      8  C   UNL     1       1.988   0.688  18.368  1.00  0.00     0.123 A 
ATOM      9  C   UNL     1       1.886   0.807  19.755  1.00  0.00     0.094 A 
ATOM     10  C   UNL     1       0.885   0.123  20.452  1.00  0.00     0.146 A 
ATOM     11  O   UNL     1       0.811   0.252  21.773  1.00  0.00    -0.456 OA
ENDROOT
BRANCH   1  12
ATOM     12  C   UNL     1      -0.095  -0.147  23.986  1.00  0.00     0.021 A 
ATOM     13  C   UNL     1       1.106  -0.303  24.698  1.00  0.00     0.016 A 
ATOM     14  C   UNL     1       1.142  -0.113  26.082  1.00  0.00     0.051 A 
ATOM     15  C   UNL     1      -0.024   0.229  26.779  1.00  0.00     0.157 A 
ATOM     16  C   UNL     1      -1.266   0.184  24.695  1.00  0.00     0.062 A 
ATOM     17  C   UNL     1      -1.234   0.374  26.081  1.00  0.00     0.158 A 
BRANCH  15  18
ATOM     18  O   UNL     1       0.016   0.420  28.159  1.00  0.00    -0.504 OA
ATOM     19  H   UNL     1       0.315   1.300  28.564  1.00  0.00     0.293 HD
ENDBRANCH  15  18
BRANCH  17  20
ATOM     20  O   UNL     1      -2.414   0.702  26.747  1.00  0.00    -0.504 OA
ATOM     21  H   UNL     1      -2.447   0.829  27.752  1.00  0.00     0.293 HD
ENDBRANCH  17  20
ENDBRANCH   1  12
BRANCH   6  22
ATOM     22  O   UNL     1      -0.817  -1.609  17.626  1.00  0.00    -0.507 OA
ATOM     23  H   UNL     1      -1.120  -2.514  17.967  1.00  0.00     0.293 HD
ENDBRANCH   6  22
BRANCH   8  24
ATOM     24  O   UNL     1       2.994   1.377  17.693  1.00  0.00    -0.508 OA
ATOM     25  H   UNL     1       2.801   1.904  16.849  1.00  0.00     0.293 HD
ENDBRANCH   8  24
TORSDOF 5
ENDMDL
