MODEL 1
REMARK VINA RESULT:    -5.276      0.000      0.000
REMARK INTER + INTRA:          -5.276
REMARK INTER:                  -5.276
REMARK INTRA:                   0.000
REMARK UNBOUND:                 0.000
REMARK SMILES CC1=CC[C@]23C[C@H]1C(C)(C)[C@H]2CC[C@@H]3C
REMARK SMILES IDX 15 1 14 2 13 3 12 4 11 5 5 6 4 7 3 8 2 9 7 10 6 11 8 12 9 13
REMARK SMILES IDX 10 14 1 15
REMARK H PARENT
REMARK Flexibility Score: inf
ROOT
ATOM      1  C   UNL     1       1.907  14.060  12.385  1.00  0.00     0.008 C 
ATOM      2  C   UNL     1       2.067  14.948  13.628  1.00  0.00    -0.007 C 
ATOM      3  C   UNL     1       1.462  16.334  13.400  1.00  0.00     0.004 C 
ATOM      4  C   UNL     1       1.144  16.853  14.788  1.00  0.00     0.005 C 
ATOM      5  C   UNL     1       0.648  15.617  15.549  1.00  0.00     0.002 C 
ATOM      6  C   UNL     1       1.418  14.420  14.947  1.00  0.00    -0.020 C 
ATOM      7  C   UNL     1       0.466  13.187  14.795  1.00  0.00     0.035 C 
ATOM      8  C   UNL     1       0.045  12.611  16.138  1.00  0.00    -0.027 C 
ATOM      9  C   UNL     1       0.624  13.008  17.296  1.00  0.00    -0.074 C 
ATOM     10  C   UNL     1       1.600  14.187  17.291  1.00  0.00     0.021 C 
ATOM     11  C   UNL     1       2.450  14.074  16.029  1.00  0.00     0.016 C 
ATOM     12  C   UNL     1       0.864  15.550  17.103  1.00  0.00    -0.025 C 
ATOM     13  C   UNL     1      -0.494  15.613  17.846  1.00  0.00     0.012 C 
ATOM     14  C   UNL     1       1.745  16.689  17.679  1.00  0.00     0.012 C 
ATOM     15  C   UNL     1       0.265  12.323  18.584  1.00  0.00     0.039 C 
ENDROOT
TORSDOF 0
ENDMDL
MODEL 2
REMARK VINA RESULT:    -4.981      1.264      3.229
REMARK INTER + INTRA:          -4.981
REMARK INTER:                  -4.981
REMARK INTRA:                   0.000
REMARK UNBOUND:                 0.000
REMARK SMILES CC1=CC[C@]23C[C@H]1C(C)(C)[C@H]2CC[C@@H]3C
REMARK SMILES IDX 15 1 14 2 13 3 12 4 11 5 5 6 4 7 3 8 2 9 7 10 6 11 8 12 9 13
REMARK SMILES IDX 10 14 1 15
REMARK H PARENT
REMARK Flexibility Score: inf
ROOT
ATOM      1  C   UNL     1       1.889  18.566  16.825  1.00  0.00     0.008 C 
ATOM      2  C   UNL     1       0.993  17.615  16.018  1.00  0.00    -0.007 C 
ATOM      3  C   UNL     1       1.449  17.528  14.561  1.00  0.00     0.004 C 
ATOM      4  C   UNL     1       0.927  16.192  14.068  1.00  0.00     0.005 C 
ATOM      5  C   UNL     1       1.102  15.252  15.268  1.00  0.00     0.002 C 
ATOM      6  C   UNL     1       0.917  16.138  16.521  1.00  0.00    -0.020 C 
ATOM      7  C   UNL     1       1.954  15.737  17.624  1.00  0.00     0.035 C 
ATOM      8  C   UNL     1       1.679  14.358  18.203  1.00  0.00    -0.027 C 
ATOM      9  C   UNL     1       0.536  13.686  17.929  1.00  0.00    -0.074 C 
ATOM     10  C   UNL     1      -0.432  14.231  16.877  1.00  0.00     0.021 C 
ATOM     11  C   UNL     1      -0.475  15.749  17.036  1.00  0.00     0.016 C 
ATOM     12  C   UNL     1       0.116  14.042  15.429  1.00  0.00    -0.025 C 
ATOM     13  C   UNL     1       0.864  12.699  15.235  1.00  0.00     0.012 C 
ATOM     14  C   UNL     1      -1.071  14.042  14.430  1.00  0.00     0.012 C 
ATOM     15  C   UNL     1       0.251  12.383  18.622  1.00  0.00     0.039 C 
ENDROOT
TORSDOF 0
ENDMDL
MODEL 3
REMARK VINA RESULT:    -4.822      1.265      2.711
REMARK INTER + INTRA:          -4.822
REMARK INTER:                  -4.822
REMARK INTRA:                   0.000
REMARK UNBOUND:                 0.000
REMARK SMILES CC1=CC[C@]23C[C@H]1C(C)(C)[C@H]2CC[C@@H]3C
REMARK SMILES IDX 15 1 14 2 13 3 12 4 11 5 5 6 4 7 3 8 2 9 7 10 6 11 8 12 9 13
REMARK SMILES IDX 10 14 1 15
REMARK H PARENT
REMARK Flexibility Score: inf
ROOT
ATOM      1  C   UNL     1       1.309  17.618  13.315  1.00  0.00     0.008 C 
ATOM      2  C   UNL     1       1.475  16.851  14.636  1.00  0.00    -0.007 C 
ATOM      3  C   UNL     1       0.554  17.411  15.720  1.00  0.00     0.004 C 
ATOM      4  C   UNL     1       0.363  16.269  16.698  1.00  0.00     0.005 C 
ATOM      5  C   UNL     1       0.281  15.021  15.810  1.00  0.00     0.002 C 
ATOM      6  C   UNL     1       1.183  15.318  14.590  1.00  0.00    -0.020 C 
ATOM      7  C   UNL     1       0.510  14.787  13.280  1.00  0.00     0.035 C 
ATOM      8  C   UNL     1       0.452  13.269  13.232  1.00  0.00    -0.027 C 
ATOM      9  C   UNL     1       1.113  12.502  14.131  1.00  0.00    -0.074 C 
ATOM     10  C   UNL     1       1.795  13.160  15.334  1.00  0.00     0.021 C 
ATOM     11  C   UNL     1       2.429  14.460  14.847  1.00  0.00     0.016 C 
ATOM     12  C   UNL     1       0.760  13.645  16.394  1.00  0.00    -0.025 C 
ATOM     13  C   UNL     1      -0.438  12.675  16.560  1.00  0.00     0.012 C 
ATOM     14  C   UNL     1       1.455  13.741  17.778  1.00  0.00     0.012 C 
ATOM     15  C   UNL     1       1.130  11.008  13.971  1.00  0.00     0.039 C 
ENDROOT
TORSDOF 0
ENDMDL
MODEL 4
REMARK VINA RESULT:    -4.710      1.382      3.092
REMARK INTER + INTRA:          -4.710
REMARK INTER:                  -4.710
REMARK INTRA:                   0.000
REMARK UNBOUND:                 0.000
REMARK SMILES CC1=CC[C@]23C[C@H]1C(C)(C)[C@H]2CC[C@@H]3C
REMARK SMILES IDX 15 1 14 2 13 3 12 4 11 5 5 6 4 7 3 8 2 9 7 10 6 11 8 12 9 13
REMARK SMILES IDX 10 14 1 15
REMARK H PARENT
REMARK Flexibility Score: inf
ROOT
ATOM      1  C   UNL     1       2.131  16.972  12.008  1.00  0.00     0.008 C 
ATOM      2  C   UNL     1       2.020  15.602  12.692  1.00  0.00    -0.007 C 
ATOM      3  C   UNL     1       3.392  14.944  12.842  1.00  0.00     0.004 C 
ATOM      4  C   UNL     1       3.237  13.976  13.998  1.00  0.00     0.005 C 
ATOM      5  C   UNL     1       2.327  14.713  14.988  1.00  0.00     0.002 C 
ATOM      6  C   UNL     1       1.392  15.588  14.122  1.00  0.00    -0.020 C 
ATOM      7  C   UNL     1       1.189  16.988  14.794  1.00  0.00     0.035 C 
ATOM      8  C   UNL     1       0.389  16.902  16.084  1.00  0.00    -0.027 C 
ATOM      9  C   UNL     1      -0.243  15.763  16.454  1.00  0.00    -0.074 C 
ATOM     10  C   UNL     1      -0.013  14.474  15.661  1.00  0.00     0.021 C 
ATOM     11  C   UNL     1       0.048  14.850  14.183  1.00  0.00     0.016 C 
ATOM     12  C   UNL     1       1.398  13.869  15.932  1.00  0.00    -0.025 C 
ATOM     13  C   UNL     1       1.846  14.013  17.409  1.00  0.00     0.012 C 
ATOM     14  C   UNL     1       1.371  12.350  15.618  1.00  0.00     0.012 C 
ATOM     15  C   UNL     1      -1.125  15.760  17.672  1.00  0.00     0.039 C 
ENDROOT
TORSDOF 0
ENDMDL
MODEL 5
REMARK VINA RESULT:    -4.695      1.467      3.536
REMARK INTER + INTRA:          -4.695
REMARK INTER:                  -4.695
REMARK INTRA:                   0.000
REMARK UNBOUND:                 0.000
REMARK SMILES CC1=CC[C@]23C[C@H]1C(C)(C)[C@H]2CC[C@@H]3C
REMARK SMILES IDX 15 1 14 2 13 3 12 4 11 5 5 6 4 7 3 8 2 9 7 10 6 11 8 12 9 13
REMARK SMILES IDX 10 14 1 15
REMARK H PARENT
REMARK Flexibility Score: inf
ROOT
ATOM      1  C   UNL     1      -1.094  18.691  14.590  1.00  0.00     0.008 C 
ATOM      2  C   UNL     1      -0.936  17.172  14.430  1.00  0.00    -0.007 C 
ATOM      3  C   UNL     1      -0.513  16.806  13.007  1.00  0.00     0.004 C 
ATOM      4  C   UNL     1       0.167  15.457  13.137  1.00  0.00     0.005 C 
ATOM      5  C   UNL     1       0.941  15.549  14.457  1.00  0.00     0.002 C 
ATOM      6  C   UNL     1       0.103  16.478  15.367  1.00  0.00    -0.020 C 
ATOM      7  C   UNL     1       1.044  17.436  16.172  1.00  0.00     0.035 C 
ATOM      8  C   UNL     1       1.877  16.696  17.206  1.00  0.00    -0.027 C 
ATOM      9  C   UNL     1       1.641  15.399  17.514  1.00  0.00    -0.074 C 
ATOM     10  C   UNL     1       0.635  14.593  16.688  1.00  0.00     0.021 C 
ATOM     11  C   UNL     1      -0.540  15.514  16.372  1.00  0.00     0.016 C 
ATOM     12  C   UNL     1       1.195  14.235  15.278  1.00  0.00    -0.025 C 
ATOM     13  C   UNL     1       2.705  13.887  15.296  1.00  0.00     0.012 C 
ATOM     14  C   UNL     1       0.453  12.985  14.736  1.00  0.00     0.012 C 
ATOM     15  C   UNL     1       2.405  14.744  18.631  1.00  0.00     0.039 C 
ENDROOT
TORSDOF 0
ENDMDL
MODEL 6
REMARK VINA RESULT:    -4.610      1.154      4.068
REMARK INTER + INTRA:          -4.610
REMARK INTER:                  -4.610
REMARK INTRA:                   0.000
REMARK UNBOUND:                 0.000
REMARK SMILES CC1=CC[C@]23C[C@H]1C(C)(C)[C@H]2CC[C@@H]3C
REMARK SMILES IDX 15 1 14 2 13 3 12 4 11 5 5 6 4 7 3 8 2 9 7 10 6 11 8 12 9 13
REMARK SMILES IDX 10 14 1 15
REMARK H PARENT
REMARK Flexibility Score: inf
ROOT
ATOM      1  C   UNL     1       0.042  12.367  18.419  1.00  0.00     0.008 C 
ATOM      2  C   UNL     1      -0.557  13.424  17.480  1.00  0.00    -0.007 C 
ATOM      3  C   UNL     1      -1.080  14.628  18.265  1.00  0.00     0.004 C 
ATOM      4  C   UNL     1      -1.067  15.775  17.273  1.00  0.00     0.005 C 
ATOM      5  C   UNL     1       0.207  15.548  16.449  1.00  0.00     0.002 C 
ATOM      6  C   UNL     1       0.401  14.015  16.397  1.00  0.00    -0.020 C 
ATOM      7  C   UNL     1       1.917  13.657  16.556  1.00  0.00     0.035 C 
ATOM      8  C   UNL     1       2.744  14.093  15.357  1.00  0.00    -0.027 C 
ATOM      9  C   UNL     1       2.165  14.533  14.215  1.00  0.00    -0.074 C 
ATOM     10  C   UNL     1       0.653  14.771  14.173  1.00  0.00     0.021 C 
ATOM     11  C   UNL     1      -0.010  13.648  14.965  1.00  0.00     0.016 C 
ATOM     12  C   UNL     1       0.245  16.052  14.963  1.00  0.00    -0.025 C 
ATOM     13  C   UNL     1       1.262  17.211  14.806  1.00  0.00     0.012 C 
ATOM     14  C   UNL     1      -1.114  16.572  14.425  1.00  0.00     0.012 C 
ATOM     15  C   UNL     1       3.016  14.833  13.013  1.00  0.00     0.039 C 
ENDROOT
TORSDOF 0
ENDMDL
MODEL 7
REMARK VINA RESULT:    -4.608      1.559      3.682
REMARK INTER + INTRA:          -4.608
REMARK INTER:                  -4.608
REMARK INTRA:                   0.000
REMARK UNBOUND:                 0.000
REMARK SMILES CC1=CC[C@]23C[C@H]1C(C)(C)[C@H]2CC[C@@H]3C
REMARK SMILES IDX 15 1 14 2 13 3 12 4 11 5 5 6 4 7 3 8 2 9 7 10 6 11 8 12 9 13
REMARK SMILES IDX 10 14 1 15
REMARK H PARENT
REMARK Flexibility Score: inf
ROOT
ATOM      1  C   UNL     1       1.856  16.695  17.892  1.00  0.00     0.008 C 
ATOM      2  C   UNL     1       0.924  16.636  16.672  1.00  0.00    -0.007 C 
ATOM      3  C   UNL     1       1.176  17.811  15.726  1.00  0.00     0.004 C 
ATOM      4  C   UNL     1       0.684  17.334  14.373  1.00  0.00     0.005 C 
ATOM      5  C   UNL     1       1.091  15.856  14.323  1.00  0.00     0.002 C 
ATOM      6  C   UNL     1       1.023  15.355  15.784  1.00  0.00    -0.020 C 
ATOM      7  C   UNL     1       2.230  14.404  16.086  1.00  0.00     0.035 C 
ATOM      8  C   UNL     1       2.136  13.090  15.326  1.00  0.00    -0.027 C 
ATOM      9  C   UNL     1       1.016  12.735  14.654  1.00  0.00    -0.074 C 
ATOM     10  C   UNL     1      -0.126  13.741  14.496  1.00  0.00     0.021 C 
ATOM     11  C   UNL     1      -0.252  14.502  15.813  1.00  0.00     0.016 C 
ATOM     12  C   UNL     1       0.225  14.863  13.471  1.00  0.00    -0.025 C 
ATOM     13  C   UNL     1       1.031  14.340  12.254  1.00  0.00     0.012 C 
ATOM     14  C   UNL     1      -1.088  15.472  12.911  1.00  0.00     0.012 C 
ATOM     15  C   UNL     1       0.923  11.373  14.024  1.00  0.00     0.039 C 
ENDROOT
TORSDOF 0
ENDMDL
MODEL 8
REMARK VINA RESULT:    -4.552      1.588      4.023
REMARK INTER + INTRA:          -4.552
REMARK INTER:                  -4.552
REMARK INTRA:                   0.000
REMARK UNBOUND:                 0.000
REMARK SMILES CC1=CC[C@]23C[C@H]1C(C)(C)[C@H]2CC[C@@H]3C
REMARK SMILES IDX 15 1 14 2 13 3 12 4 11 5 5 6 4 7 3 8 2 9 7 10 6 11 8 12 9 13
REMARK SMILES IDX 10 14 1 15
REMARK H PARENT
REMARK Flexibility Score: inf
ROOT
ATOM      1  C   UNL     1       2.245  14.625  18.251  1.00  0.00     0.008 C 
ATOM      2  C   UNL     1       1.373  15.617  17.468  1.00  0.00    -0.007 C 
ATOM      3  C   UNL     1       1.883  17.050  17.628  1.00  0.00     0.004 C 
ATOM      4  C   UNL     1       1.369  17.786  16.407  1.00  0.00     0.005 C 
ATOM      5  C   UNL     1       1.489  16.763  15.270  1.00  0.00     0.002 C 
ATOM      6  C   UNL     1       1.264  15.382  15.928  1.00  0.00    -0.020 C 
ATOM      7  C   UNL     1       2.254  14.329  15.325  1.00  0.00     0.035 C 
ATOM      8  C   UNL     1       1.945  14.010  13.870  1.00  0.00    -0.027 C 
ATOM      9  C   UNL     1       0.807  14.438  13.274  1.00  0.00    -0.074 C 
ATOM     10  C   UNL     1      -0.115  15.413  14.009  1.00  0.00     0.021 C 
ATOM     11  C   UNL     1      -0.151  14.994  15.476  1.00  0.00     0.016 C 
ATOM     12  C   UNL     1       0.486  16.851  14.065  1.00  0.00    -0.025 C 
ATOM     13  C   UNL     1       1.230  17.248  12.765  1.00  0.00     0.012 C 
ATOM     14  C   UNL     1      -0.661  17.877  14.257  1.00  0.00     0.012 C 
ATOM     15  C   UNL     1       0.483  13.993  11.875  1.00  0.00     0.039 C 
ENDROOT
TORSDOF 0
ENDMDL
