MODEL 1
REMARK VINA RESULT:    -3.953      0.000      0.000
REMARK INTER + INTRA:         -15.700
REMARK INTER:                 -10.423
REMARK INTRA:                  -5.277
REMARK UNBOUND:                -5.277
REMARK SMILES CCCCCCCCCCCCCCCCCCCCCCCCCCCCCC(=O)[O-]
REMARK SMILES IDX 16 1 17 2 18 3 19 4 20 5 21 6 22 7 23 8 24 9 25 10 26 11
REMARK SMILES IDX 27 12 28 13 29 14 30 15 31 16 32 17 15 18 14 19 13 20 12 21
REMARK SMILES IDX 11 22 10 23 9 24 8 25 7 26 6 27 5 28 4 29 3 30 2 31 1 32
REMARK H PARENT
REMARK Flexibility Score: inf
ROOT
ATOM      1  C   UNL     1      41.077  20.223 224.166  1.00  0.00     0.000 C 
ENDROOT
BRANCH   1   2
ATOM      2  C   UNL     1      41.341  21.539 223.410  1.00  0.00     0.000 C 
BRANCH   2   3
ATOM      3  C   UNL     1      40.292  22.622 223.707  1.00  0.00     0.000 C 
BRANCH   3   4
ATOM      4  C   UNL     1      40.956  23.990 223.898  1.00  0.00     0.000 C 
BRANCH   4   5
ATOM      5  C   UNL     1      42.072  23.918 224.952  1.00  0.00     0.000 C 
BRANCH   5   6
ATOM      6  C   UNL     1      41.733  24.700 226.233  1.00  0.00     0.000 C 
BRANCH   6   7
ATOM      7  C   UNL     1      40.712  25.841 226.048  1.00  0.00     0.000 C 
BRANCH   7   8
ATOM      8  C   UNL     1      39.450  25.744 226.926  1.00  0.00     0.000 C 
BRANCH   8   9
ATOM      9  C   UNL     1      38.121  25.667 226.153  1.00  0.00     0.000 C 
BRANCH   9  10
ATOM     10  C   UNL     1      38.217  26.252 224.733  1.00  0.00     0.000 C 
BRANCH  10  11
ATOM     11  C   UNL     1      37.679  25.280 223.661  1.00  0.00     0.000 C 
BRANCH  11  12
ATOM     12  C   UNL     1      36.179  24.969 223.800  1.00  0.00     0.000 C 
BRANCH  12  13
ATOM     13  C   UNL     1      35.656  24.048 222.687  1.00  0.00     0.006 C 
BRANCH  13  14
ATOM     14  C   UNL     1      36.790  23.345 221.929  1.00  0.00     0.053 C 
BRANCH  14  15
ATOM     15  C   UNL     1      36.821  23.722 220.477  1.00  0.00     0.041 C 
ATOM     16  O   UNL     1      35.997  24.557 220.019  1.00  0.00    -0.550 OA
ATOM     17  O   UNL     1      37.762  23.147 219.631  1.00  0.00    -0.550 OA
ENDBRANCH  14  15
ENDBRANCH  13  14
ENDBRANCH  12  13
ENDBRANCH  11  12
ENDBRANCH  10  11
ENDBRANCH   9  10
ENDBRANCH   8   9
ENDBRANCH   7   8
ENDBRANCH   6   7
ENDBRANCH   5   6
ENDBRANCH   4   5
ENDBRANCH   3   4
ENDBRANCH   2   3
ENDBRANCH   1   2
BRANCH   1  18
ATOM     18  C   UNL     1      42.115  19.874 225.250  1.00  0.00     0.000 C 
BRANCH  18  19
ATOM     19  C   UNL     1      41.970  20.642 226.578  1.00  0.00     0.000 C 
BRANCH  19  20
ATOM     20  C   UNL     1      41.144  19.901 227.650  1.00  0.00     0.000 C 
BRANCH  20  21
ATOM     21  C   UNL     1      40.100  20.806 228.329  1.00  0.00     0.000 C 
BRANCH  21  22
ATOM     22  C   UNL     1      39.841  22.097 227.534  1.00  0.00     0.000 C 
BRANCH  22  23
ATOM     23  C   UNL     1      38.539  22.029 226.716  1.00  0.00     0.000 C 
BRANCH  23  24
ATOM     24  C   UNL     1      37.763  20.725 226.955  1.00  0.00    -0.000 C 
BRANCH  24  25
ATOM     25  C   UNL     1      37.597  19.897 225.672  1.00  0.00    -0.000 C 
BRANCH  25  26
ATOM     26  C   UNL     1      38.101  18.461 225.877  1.00  0.00    -0.000 C 
BRANCH  26  27
ATOM     27  C   UNL     1      37.733  17.885 227.256  1.00  0.00    -0.000 C 
BRANCH  27  28
ATOM     28  C   UNL     1      38.640  16.746 227.756  1.00  0.00    -0.000 C 
BRANCH  28  29
ATOM     29  C   UNL     1      39.912  16.577 226.909  1.00  0.00    -0.000 C 
BRANCH  29  30
ATOM     30  C   UNL     1      40.508  15.159 226.997  1.00  0.00    -0.000 C 
BRANCH  30  31
ATOM     31  C   UNL     1      41.902  15.078 227.644  1.00  0.00    -0.003 C 
ATOM     32  C   UNL     1      42.180  13.729 228.304  1.00  0.00     0.004 C 
ENDBRANCH  30  31
ENDBRANCH  29  30
ENDBRANCH  28  29
ENDBRANCH  27  28
ENDBRANCH  26  27
ENDBRANCH  25  26
ENDBRANCH  24  25
ENDBRANCH  23  24
ENDBRANCH  22  23
ENDBRANCH  21  22
ENDBRANCH  20  21
ENDBRANCH  19  20
ENDBRANCH  18  19
ENDBRANCH   1  18
TORSDOF 28
ENDMDL
MODEL 2
REMARK VINA RESULT:    -3.905      3.624      7.499
REMARK INTER + INTRA:         -15.574
REMARK INTER:                  -9.635
REMARK INTRA:                  -5.939
REMARK UNBOUND:                -5.277
REMARK SMILES CCCCCCCCCCCCCCCCCCCCCCCCCCCCCC(=O)[O-]
REMARK SMILES IDX 16 1 17 2 18 3 19 4 20 5 21 6 22 7 23 8 24 9 25 10 26 11
REMARK SMILES IDX 27 12 28 13 29 14 30 15 31 16 32 17 15 18 14 19 13 20 12 21
REMARK SMILES IDX 11 22 10 23 9 24 8 25 7 26 6 27 5 28 4 29 3 30 2 31 1 32
REMARK H PARENT
REMARK Flexibility Score: inf
ROOT
ATOM      1  C   UNL     1      42.095  21.100 222.379  1.00  0.00     0.000 C 
ENDROOT
BRANCH   1   2
ATOM      2  C   UNL     1      41.894  19.741 223.075  1.00  0.00     0.000 C 
BRANCH   2   3
ATOM      3  C   UNL     1      42.764  19.575 224.331  1.00  0.00     0.000 C 
BRANCH   3   4
ATOM      4  C   UNL     1      41.903  19.591 225.599  1.00  0.00     0.000 C 
BRANCH   4   5
ATOM      5  C   UNL     1      42.105  20.895 226.386  1.00  0.00     0.000 C 
BRANCH   5   6
ATOM      6  C   UNL     1      41.483  20.845 227.792  1.00  0.00     0.000 C 
BRANCH   6   7
ATOM      7  C   UNL     1      40.161  21.623 227.946  1.00  0.00     0.000 C 
BRANCH   7   8
ATOM      8  C   UNL     1      39.726  22.434 226.710  1.00  0.00     0.000 C 
BRANCH   8   9
ATOM      9  C   UNL     1      38.329  22.090 226.162  1.00  0.00     0.000 C 
BRANCH   9  10
ATOM     10  C   UNL     1      38.319  20.814 225.301  1.00  0.00     0.000 C 
BRANCH  10  11
ATOM     11  C   UNL     1      37.430  19.706 225.907  1.00  0.00     0.000 C 
BRANCH  11  12
ATOM     12  C   UNL     1      38.109  18.326 225.965  1.00  0.00     0.000 C 
BRANCH  12  13
ATOM     13  C   UNL     1      38.877  18.097 227.276  1.00  0.00     0.006 C 
BRANCH  13  14
ATOM     14  C   UNL     1      38.190  18.756 228.480  1.00  0.00     0.053 C 
BRANCH  14  15
ATOM     15  C   UNL     1      38.933  18.512 229.760  1.00  0.00     0.041 C 
ATOM     16  O   UNL     1      39.994  17.832 229.761  1.00  0.00    -0.550 OA
ATOM     17  O   UNL     1      38.449  19.036 230.953  1.00  0.00    -0.550 OA
ENDBRANCH  14  15
ENDBRANCH  13  14
ENDBRANCH  12  13
ENDBRANCH  11  12
ENDBRANCH  10  11
ENDBRANCH   9  10
ENDBRANCH   8   9
ENDBRANCH   7   8
ENDBRANCH   6   7
ENDBRANCH   5   6
ENDBRANCH   4   5
ENDBRANCH   3   4
ENDBRANCH   2   3
ENDBRANCH   1   2
BRANCH   1  18
ATOM     18  C   UNL     1      41.697  22.329 223.220  1.00  0.00     0.000 C 
BRANCH  18  19
ATOM     19  C   UNL     1      40.285  22.886 222.951  1.00  0.00     0.000 C 
BRANCH  19  20
ATOM     20  C   UNL     1      40.090  24.353 223.390  1.00  0.00     0.000 C 
BRANCH  20  21
ATOM     21  C   UNL     1      38.610  24.720 223.598  1.00  0.00     0.000 C 
BRANCH  21  22
ATOM     22  C   UNL     1      38.418  25.764 224.712  1.00  0.00     0.000 C 
BRANCH  22  23
ATOM     23  C   UNL     1      39.627  25.833 225.662  1.00  0.00     0.000 C 
BRANCH  23  24
ATOM     24  C   UNL     1      39.661  27.134 226.478  1.00  0.00    -0.000 C 
BRANCH  24  25
ATOM     25  C   UNL     1      39.970  26.889 227.962  1.00  0.00    -0.000 C 
BRANCH  25  26
ATOM     26  C   UNL     1      40.256  25.403 228.224  1.00  0.00    -0.000 C 
BRANCH  26  27
ATOM     27  C   UNL     1      41.522  25.174 229.069  1.00  0.00    -0.000 C 
BRANCH  27  28
ATOM     28  C   UNL     1      42.652  24.402 228.363  1.00  0.00    -0.000 C 
BRANCH  28  29
ATOM     29  C   UNL     1      42.721  24.687 226.854  1.00  0.00    -0.000 C 
BRANCH  29  30
ATOM     30  C   UNL     1      43.811  25.711 226.485  1.00  0.00    -0.000 C 
BRANCH  30  31
ATOM     31  C   UNL     1      43.496  27.166 226.878  1.00  0.00    -0.003 C 
ATOM     32  C   UNL     1      44.504  27.753 227.863  1.00  0.00     0.004 C 
ENDBRANCH  30  31
ENDBRANCH  29  30
ENDBRANCH  28  29
ENDBRANCH  27  28
ENDBRANCH  26  27
ENDBRANCH  25  26
ENDBRANCH  24  25
ENDBRANCH  23  24
ENDBRANCH  22  23
ENDBRANCH  21  22
ENDBRANCH  20  21
ENDBRANCH  19  20
ENDBRANCH  18  19
ENDBRANCH   1  18
TORSDOF 28
ENDMDL
MODEL 3
REMARK VINA RESULT:    -3.896      1.503      3.554
REMARK INTER + INTRA:         -15.549
REMARK INTER:                 -10.355
REMARK INTRA:                  -5.194
REMARK UNBOUND:                -5.277
REMARK SMILES CCCCCCCCCCCCCCCCCCCCCCCCCCCCCC(=O)[O-]
REMARK SMILES IDX 16 1 17 2 18 3 19 4 20 5 21 6 22 7 23 8 24 9 25 10 26 11
REMARK SMILES IDX 27 12 28 13 29 14 30 15 31 16 32 17 15 18 14 19 13 20 12 21
REMARK SMILES IDX 11 22 10 23 9 24 8 25 7 26 6 27 5 28 4 29 3 30 2 31 1 32
REMARK H PARENT
REMARK Flexibility Score: inf
ROOT
ATOM      1  C   UNL     1      40.696  22.187 226.901  1.00  0.00     0.000 C 
ENDROOT
BRANCH   1   2
ATOM      2  C   UNL     1      41.255  23.477 227.531  1.00  0.00     0.000 C 
BRANCH   2   3
ATOM      3  C   UNL     1      42.002  24.363 226.521  1.00  0.00     0.000 C 
BRANCH   3   4
ATOM      4  C   UNL     1      42.750  25.494 227.235  1.00  0.00     0.000 C 
BRANCH   4   5
ATOM      5  C   UNL     1      43.260  26.538 226.229  1.00  0.00     0.000 C 
BRANCH   5   6
ATOM      6  C   UNL     1      42.393  27.810 226.199  1.00  0.00     0.000 C 
BRANCH   6   7
ATOM      7  C   UNL     1      41.326  27.896 227.309  1.00  0.00     0.000 C 
BRANCH   7   8
ATOM      8  C   UNL     1      39.867  27.776 226.831  1.00  0.00     0.000 C 
BRANCH   8   9
ATOM      9  C   UNL     1      39.027  26.708 227.554  1.00  0.00     0.000 C 
BRANCH   9  10
ATOM     10  C   UNL     1      38.311  25.750 226.586  1.00  0.00     0.000 C 
BRANCH  10  11
ATOM     11  C   UNL     1      38.827  25.887 225.137  1.00  0.00     0.000 C 
BRANCH  11  12
ATOM     12  C   UNL     1      37.721  26.175 224.107  1.00  0.00     0.000 C 
BRANCH  12  13
ATOM     13  C   UNL     1      36.418  25.418 224.407  1.00  0.00     0.006 C 
BRANCH  13  14
ATOM     14  C   UNL     1      36.451  23.971 223.897  1.00  0.00     0.053 C 
BRANCH  14  15
ATOM     15  C   UNL     1      36.025  23.866 222.462  1.00  0.00     0.041 C 
ATOM     16  O   UNL     1      36.878  23.664 221.557  1.00  0.00    -0.550 OA
ATOM     17  O   UNL     1      34.682  23.994 222.126  1.00  0.00    -0.550 OA
ENDBRANCH  14  15
ENDBRANCH  13  14
ENDBRANCH  12  13
ENDBRANCH  11  12
ENDBRANCH  10  11
ENDBRANCH   9  10
ENDBRANCH   8   9
ENDBRANCH   7   8
ENDBRANCH   6   7
ENDBRANCH   5   6
ENDBRANCH   4   5
ENDBRANCH   3   4
ENDBRANCH   2   3
ENDBRANCH   1   2
BRANCH   1  18
ATOM     18  C   UNL     1      39.425  22.375 226.050  1.00  0.00     0.000 C 
BRANCH  18  19
ATOM     19  C   UNL     1      39.527  21.888 224.591  1.00  0.00     0.000 C 
BRANCH  19  20
ATOM     20  C   UNL     1      39.653  23.024 223.553  1.00  0.00     0.000 C 
BRANCH  20  21
ATOM     21  C   UNL     1      41.087  23.185 223.018  1.00  0.00     0.000 C 
BRANCH  21  22
ATOM     22  C   UNL     1      42.040  22.109 223.566  1.00  0.00     0.000 C 
BRANCH  22  23
ATOM     23  C   UNL     1      42.307  20.990 222.543  1.00  0.00     0.000 C 
BRANCH  23  24
ATOM     24  C   UNL     1      41.962  19.597 223.092  1.00  0.00    -0.000 C 
BRANCH  24  25
ATOM     25  C   UNL     1      42.684  19.290 224.413  1.00  0.00    -0.000 C 
BRANCH  25  26
ATOM     26  C   UNL     1      41.677  18.941 225.518  1.00  0.00    -0.000 C 
BRANCH  26  27
ATOM     27  C   UNL     1      40.341  18.409 224.970  1.00  0.00    -0.000 C 
BRANCH  27  28
ATOM     28  C   UNL     1      39.133  18.572 225.910  1.00  0.00    -0.000 C 
BRANCH  28  29
ATOM     29  C   UNL     1      39.501  18.406 227.394  1.00  0.00    -0.000 C 
BRANCH  29  30
ATOM     30  C   UNL     1      38.849  17.170 228.041  1.00  0.00    -0.000 C 
BRANCH  30  31
ATOM     31  C   UNL     1      39.489  15.823 227.663  1.00  0.00    -0.003 C 
ATOM     32  C   UNL     1      41.016  15.864 227.664  1.00  0.00     0.004 C 
ENDBRANCH  30  31
ENDBRANCH  29  30
ENDBRANCH  28  29
ENDBRANCH  27  28
ENDBRANCH  26  27
ENDBRANCH  25  26
ENDBRANCH  24  25
ENDBRANCH  23  24
ENDBRANCH  22  23
ENDBRANCH  21  22
ENDBRANCH  20  21
ENDBRANCH  19  20
ENDBRANCH  18  19
ENDBRANCH   1  18
TORSDOF 28
ENDMDL
MODEL 4
REMARK VINA RESULT:    -3.854      3.478      6.515
REMARK INTER + INTRA:         -15.439
REMARK INTER:                  -8.833
REMARK INTRA:                  -6.606
REMARK UNBOUND:                -5.277
REMARK SMILES CCCCCCCCCCCCCCCCCCCCCCCCCCCCCC(=O)[O-]
REMARK SMILES IDX 16 1 17 2 18 3 19 4 20 5 21 6 22 7 23 8 24 9 25 10 26 11
REMARK SMILES IDX 27 12 28 13 29 14 30 15 31 16 32 17 15 18 14 19 13 20 12 21
REMARK SMILES IDX 11 22 10 23 9 24 8 25 7 26 6 27 5 28 4 29 3 30 2 31 1 32
REMARK H PARENT
REMARK Flexibility Score: inf
ROOT
ATOM      1  C   UNL     1      41.866  21.779 223.775  1.00  0.00     0.000 C 
ENDROOT
BRANCH   1   2
ATOM      2  C   UNL     1      40.835  22.516 222.899  1.00  0.00     0.000 C 
BRANCH   2   3
ATOM      3  C   UNL     1      40.680  23.998 223.272  1.00  0.00     0.000 C 
BRANCH   3   4
ATOM      4  C   UNL     1      40.869  24.206 224.779  1.00  0.00     0.000 C 
BRANCH   4   5
ATOM      5  C   UNL     1      40.042  25.401 225.278  1.00  0.00     0.000 C 
BRANCH   5   6
ATOM      6  C   UNL     1      39.652  25.277 226.761  1.00  0.00     0.000 C 
BRANCH   6   7
ATOM      7  C   UNL     1      39.906  23.892 227.387  1.00  0.00     0.000 C 
BRANCH   7   8
ATOM      8  C   UNL     1      39.962  23.865 228.927  1.00  0.00     0.000 C 
BRANCH   8   9
ATOM      9  C   UNL     1      41.208  24.520 229.547  1.00  0.00     0.000 C 
BRANCH   9  10
ATOM     10  C   UNL     1      42.458  23.626 229.470  1.00  0.00     0.000 C 
BRANCH  10  11
ATOM     11  C   UNL     1      43.632  24.321 228.746  1.00  0.00     0.000 C 
BRANCH  11  12
ATOM     12  C   UNL     1      43.526  24.282 227.211  1.00  0.00     0.000 C 
BRANCH  12  13
ATOM     13  C   UNL     1      43.757  25.656 226.564  1.00  0.00     0.006 C 
BRANCH  13  14
ATOM     14  C   UNL     1      43.072  26.790 227.338  1.00  0.00     0.053 C 
BRANCH  14  15
ATOM     15  C   UNL     1      44.045  27.840 227.785  1.00  0.00     0.041 C 
ATOM     16  O   UNL     1      43.646  29.004 228.057  1.00  0.00    -0.550 OA
ATOM     17  O   UNL     1      45.396  27.531 227.898  1.00  0.00    -0.550 OA
ENDBRANCH  14  15
ENDBRANCH  13  14
ENDBRANCH  12  13
ENDBRANCH  11  12
ENDBRANCH  10  11
ENDBRANCH   9  10
ENDBRANCH   8   9
ENDBRANCH   7   8
ENDBRANCH   6   7
ENDBRANCH   5   6
ENDBRANCH   4   5
ENDBRANCH   3   4
ENDBRANCH   2   3
ENDBRANCH   1   2
BRANCH   1  18
ATOM     18  C   UNL     1      41.473  20.344 224.178  1.00  0.00     0.000 C 
BRANCH  18  19
ATOM     19  C   UNL     1      41.962  19.890 225.568  1.00  0.00     0.000 C 
BRANCH  19  20
ATOM     20  C   UNL     1      41.731  20.925 226.689  1.00  0.00     0.000 C 
BRANCH  20  21
ATOM     21  C   UNL     1      41.155  20.295 227.970  1.00  0.00     0.000 C 
BRANCH  21  22
ATOM     22  C   UNL     1      41.064  18.763 227.878  1.00  0.00     0.000 C 
BRANCH  22  23
ATOM     23  C   UNL     1      39.610  18.260 227.927  1.00  0.00     0.000 C 
BRANCH  23  24
ATOM     24  C   UNL     1      39.109  17.775 226.558  1.00  0.00    -0.000 C 
BRANCH  24  25
ATOM     25  C   UNL     1      38.103  18.746 225.922  1.00  0.00    -0.000 C 
BRANCH  25  26
ATOM     26  C   UNL     1      37.526  19.704 226.975  1.00  0.00    -0.000 C 
BRANCH  26  27
ATOM     27  C   UNL     1      37.792  21.185 226.652  1.00  0.00    -0.000 C 
BRANCH  27  28
ATOM     28  C   UNL     1      38.036  21.499 225.164  1.00  0.00    -0.000 C 
BRANCH  28  29
ATOM     29  C   UNL     1      37.413  22.833 224.723  1.00  0.00    -0.000 C 
BRANCH  29  30
ATOM     30  C   UNL     1      36.836  22.785 223.295  1.00  0.00    -0.000 C 
BRANCH  30  31
ATOM     31  C   UNL     1      36.275  24.119 222.774  1.00  0.00    -0.003 C 
ATOM     32  C   UNL     1      36.875  25.337 223.475  1.00  0.00     0.004 C 
ENDBRANCH  30  31
ENDBRANCH  29  30
ENDBRANCH  28  29
ENDBRANCH  27  28
ENDBRANCH  26  27
ENDBRANCH  25  26
ENDBRANCH  24  25
ENDBRANCH  23  24
ENDBRANCH  22  23
ENDBRANCH  21  22
ENDBRANCH  20  21
ENDBRANCH  19  20
ENDBRANCH  18  19
ENDBRANCH   1  18
TORSDOF 28
ENDMDL
MODEL 5
REMARK VINA RESULT:    -3.814      3.621      5.839
REMARK INTER + INTRA:         -15.333
REMARK INTER:                  -9.959
REMARK INTRA:                  -5.374
REMARK UNBOUND:                -5.277
REMARK SMILES CCCCCCCCCCCCCCCCCCCCCCCCCCCCCC(=O)[O-]
REMARK SMILES IDX 16 1 17 2 18 3 19 4 20 5 21 6 22 7 23 8 24 9 25 10 26 11
REMARK SMILES IDX 27 12 28 13 29 14 30 15 31 16 32 17 15 18 14 19 13 20 12 21
REMARK SMILES IDX 11 22 10 23 9 24 8 25 7 26 6 27 5 28 4 29 3 30 2 31 1 32
REMARK H PARENT
REMARK Flexibility Score: inf
ROOT
ATOM      1  C   UNL     1      41.595  23.144 225.802  1.00  0.00     0.000 C 
ENDROOT
BRANCH   1   2
ATOM      2  C   UNL     1      40.449  23.442 226.787  1.00  0.00     0.000 C 
BRANCH   2   3
ATOM      3  C   UNL     1      39.287  22.443 226.676  1.00  0.00     0.000 C 
BRANCH   3   4
ATOM      4  C   UNL     1      37.959  23.173 226.445  1.00  0.00     0.000 C 
BRANCH   4   5
ATOM      5  C   UNL     1      37.618  23.237 224.949  1.00  0.00     0.000 C 
BRANCH   5   6
ATOM      6  C   UNL     1      37.539  24.679 224.417  1.00  0.00     0.000 C 
BRANCH   6   7
ATOM      7  C   UNL     1      37.770  25.776 225.475  1.00  0.00     0.000 C 
BRANCH   7   8
ATOM      8  C   UNL     1      39.067  26.589 225.308  1.00  0.00     0.000 C 
BRANCH   8   9
ATOM      9  C   UNL     1      39.730  27.039 226.623  1.00  0.00     0.000 C 
BRANCH   9  10
ATOM     10  C   UNL     1      40.569  28.320 226.464  1.00  0.00     0.000 C 
BRANCH  10  11
ATOM     11  C   UNL     1      42.085  28.027 226.435  1.00  0.00     0.000 C 
BRANCH  11  12
ATOM     12  C   UNL     1      42.459  26.633 226.968  1.00  0.00     0.000 C 
BRANCH  12  13
ATOM     13  C   UNL     1      43.857  26.181 226.519  1.00  0.00     0.006 C 
BRANCH  13  14
ATOM     14  C   UNL     1      44.416  25.054 227.397  1.00  0.00     0.053 C 
BRANCH  14  15
ATOM     15  C   UNL     1      45.791  25.364 227.911  1.00  0.00     0.041 C 
ATOM     16  O   UNL     1      46.091  26.538 228.258  1.00  0.00    -0.550 OA
ATOM     17  O   UNL     1      46.742  24.355 228.003  1.00  0.00    -0.550 OA
ENDBRANCH  14  15
ENDBRANCH  13  14
ENDBRANCH  12  13
ENDBRANCH  11  12
ENDBRANCH  10  11
ENDBRANCH   9  10
ENDBRANCH   8   9
ENDBRANCH   7   8
ENDBRANCH   6   7
ENDBRANCH   5   6
ENDBRANCH   4   5
ENDBRANCH   3   4
ENDBRANCH   2   3
ENDBRANCH   1   2
BRANCH   1  18
ATOM     18  C   UNL     1      41.649  24.062 224.565  1.00  0.00     0.000 C 
BRANCH  18  19
ATOM     19  C   UNL     1      40.889  23.549 223.327  1.00  0.00     0.000 C 
BRANCH  19  20
ATOM     20  C   UNL     1      40.877  22.012 223.184  1.00  0.00     0.000 C 
BRANCH  20  21
ATOM     21  C   UNL     1      42.275  21.429 222.906  1.00  0.00     0.000 C 
BRANCH  21  22
ATOM     22  C   UNL     1      42.311  19.899 223.065  1.00  0.00     0.000 C 
BRANCH  22  23
ATOM     23  C   UNL     1      42.773  19.468 224.467  1.00  0.00     0.000 C 
BRANCH  23  24
ATOM     24  C   UNL     1      41.630  19.483 225.494  1.00  0.00    -0.000 C 
BRANCH  24  25
ATOM     25  C   UNL     1      40.385  18.732 224.998  1.00  0.00    -0.000 C 
BRANCH  25  26
ATOM     26  C   UNL     1      39.103  19.377 225.545  1.00  0.00    -0.000 C 
BRANCH  26  27
ATOM     27  C   UNL     1      38.094  18.346 226.082  1.00  0.00    -0.000 C 
BRANCH  27  28
ATOM     28  C   UNL     1      37.622  18.580 227.529  1.00  0.00    -0.000 C 
BRANCH  28  29
ATOM     29  C   UNL     1      38.731  19.135 228.439  1.00  0.00    -0.000 C 
BRANCH  29  30
ATOM     30  C   UNL     1      39.420  18.043 229.279  1.00  0.00    -0.000 C 
BRANCH  30  31
ATOM     31  C   UNL     1      40.831  17.652 228.806  1.00  0.00    -0.003 C 
ATOM     32  C   UNL     1      40.833  16.474 227.834  1.00  0.00     0.004 C 
ENDBRANCH  30  31
ENDBRANCH  29  30
ENDBRANCH  28  29
ENDBRANCH  27  28
ENDBRANCH  26  27
ENDBRANCH  25  26
ENDBRANCH  24  25
ENDBRANCH  23  24
ENDBRANCH  22  23
ENDBRANCH  21  22
ENDBRANCH  20  21
ENDBRANCH  19  20
ENDBRANCH  18  19
ENDBRANCH   1  18
TORSDOF 28
ENDMDL
MODEL 6
REMARK VINA RESULT:    -3.775      1.449      3.919
REMARK INTER + INTRA:         -15.231
REMARK INTER:                 -10.161
REMARK INTRA:                  -5.071
REMARK UNBOUND:                -5.277
REMARK SMILES CCCCCCCCCCCCCCCCCCCCCCCCCCCCCC(=O)[O-]
REMARK SMILES IDX 16 1 17 2 18 3 19 4 20 5 21 6 22 7 23 8 24 9 25 10 26 11
REMARK SMILES IDX 27 12 28 13 29 14 30 15 31 16 32 17 15 18 14 19 13 20 12 21
REMARK SMILES IDX 11 22 10 23 9 24 8 25 7 26 6 27 5 28 4 29 3 30 2 31 1 32
REMARK H PARENT
REMARK Flexibility Score: inf
ROOT
ATOM      1  C   UNL     1      41.054  24.366 224.902  1.00  0.00     0.000 C 
ENDROOT
BRANCH   1   2
ATOM      2  C   UNL     1      42.029  23.787 225.944  1.00  0.00     0.000 C 
BRANCH   2   3
ATOM      3  C   UNL     1      43.016  24.832 226.488  1.00  0.00     0.000 C 
BRANCH   3   4
ATOM      4  C   UNL     1      42.819  26.184 225.793  1.00  0.00     0.000 C 
BRANCH   4   5
ATOM      5  C   UNL     1      42.877  27.337 226.807  1.00  0.00     0.000 C 
BRANCH   5   6
ATOM      6  C   UNL     1      41.618  28.222 226.775  1.00  0.00     0.000 C 
BRANCH   6   7
ATOM      7  C   UNL     1      40.309  27.479 226.440  1.00  0.00     0.000 C 
BRANCH   7   8
ATOM      8  C   UNL     1      39.706  26.656 227.594  1.00  0.00     0.000 C 
BRANCH   8   9
ATOM      9  C   UNL     1      38.170  26.568 227.601  1.00  0.00     0.000 C 
BRANCH   9  10
ATOM     10  C   UNL     1      37.646  25.168 227.234  1.00  0.00     0.000 C 
BRANCH  10  11
ATOM     11  C   UNL     1      36.798  25.179 225.943  1.00  0.00     0.000 C 
BRANCH  11  12
ATOM     12  C   UNL     1      37.598  25.536 224.678  1.00  0.00     0.000 C 
BRANCH  12  13
ATOM     13  C   UNL     1      36.845  25.195 223.383  1.00  0.00     0.006 C 
BRANCH  13  14
ATOM     14  C   UNL     1      37.416  23.954 222.684  1.00  0.00     0.053 C 
BRANCH  14  15
ATOM     15  C   UNL     1      36.762  23.699 221.357  1.00  0.00     0.041 C 
ATOM     16  O   UNL     1      35.534  23.931 221.198  1.00  0.00    -0.550 OA
ATOM     17  O   UNL     1      37.513  23.202 220.299  1.00  0.00    -0.550 OA
ENDBRANCH  14  15
ENDBRANCH  13  14
ENDBRANCH  12  13
ENDBRANCH  11  12
ENDBRANCH  10  11
ENDBRANCH   9  10
ENDBRANCH   8   9
ENDBRANCH   7   8
ENDBRANCH   6   7
ENDBRANCH   5   6
ENDBRANCH   4   5
ENDBRANCH   3   4
ENDBRANCH   2   3
ENDBRANCH   1   2
BRANCH   1  18
ATOM     18  C   UNL     1      41.236  23.828 223.469  1.00  0.00     0.000 C 
BRANCH  18  19
ATOM     19  C   UNL     1      40.908  22.334 223.276  1.00  0.00     0.000 C 
BRANCH  19  20
ATOM     20  C   UNL     1      42.016  21.531 222.561  1.00  0.00     0.000 C 
BRANCH  20  21
ATOM     21  C   UNL     1      42.417  20.258 223.328  1.00  0.00     0.000 C 
BRANCH  21  22
ATOM     22  C   UNL     1      41.355  19.839 224.359  1.00  0.00     0.000 C 
BRANCH  22  23
ATOM     23  C   UNL     1      41.860  19.975 225.806  1.00  0.00     0.000 C 
BRANCH  23  24
ATOM     24  C   UNL     1      41.023  19.157 226.801  1.00  0.00    -0.000 C 
BRANCH  24  25
ATOM     25  C   UNL     1      41.031  17.655 226.480  1.00  0.00    -0.000 C 
BRANCH  25  26
ATOM     26  C   UNL     1      39.689  17.009 226.855  1.00  0.00    -0.000 C 
BRANCH  26  27
ATOM     27  C   UNL     1      38.475  17.848 226.421  1.00  0.00    -0.000 C 
BRANCH  27  28
ATOM     28  C   UNL     1      37.688  18.509 227.569  1.00  0.00    -0.000 C 
BRANCH  28  29
ATOM     29  C   UNL     1      37.119  19.886 227.190  1.00  0.00    -0.000 C 
BRANCH  29  30
ATOM     30  C   UNL     1      37.173  20.162 225.675  1.00  0.00    -0.000 C 
BRANCH  30  31
ATOM     31  C   UNL     1      38.023  21.378 225.265  1.00  0.00    -0.003 C 
ATOM     32  C   UNL     1      38.810  21.979 226.428  1.00  0.00     0.004 C 
ENDBRANCH  30  31
ENDBRANCH  29  30
ENDBRANCH  28  29
ENDBRANCH  27  28
ENDBRANCH  26  27
ENDBRANCH  25  26
ENDBRANCH  24  25
ENDBRANCH  23  24
ENDBRANCH  22  23
ENDBRANCH  21  22
ENDBRANCH  20  21
ENDBRANCH  19  20
ENDBRANCH  18  19
ENDBRANCH   1  18
TORSDOF 28
ENDMDL
MODEL 7
REMARK VINA RESULT:    -3.761      3.664      8.355
REMARK INTER + INTRA:         -15.194
REMARK INTER:                  -9.577
REMARK INTRA:                  -5.617
REMARK UNBOUND:                -5.277
REMARK SMILES CCCCCCCCCCCCCCCCCCCCCCCCCCCCCC(=O)[O-]
REMARK SMILES IDX 16 1 17 2 18 3 19 4 20 5 21 6 22 7 23 8 24 9 25 10 26 11
REMARK SMILES IDX 27 12 28 13 29 14 30 15 31 16 32 17 15 18 14 19 13 20 12 21
REMARK SMILES IDX 11 22 10 23 9 24 8 25 7 26 6 27 5 28 4 29 3 30 2 31 1 32
REMARK H PARENT
REMARK Flexibility Score: inf
ROOT
ATOM      1  C   UNL     1      37.894  23.339 223.005  1.00  0.00     0.000 C 
ENDROOT
BRANCH   1   2
ATOM      2  C   UNL     1      37.150  22.600 224.133  1.00  0.00     0.000 C 
BRANCH   2   3
ATOM      3  C   UNL     1      37.940  22.565 225.451  1.00  0.00     0.000 C 
BRANCH   3   4
ATOM      4  C   UNL     1      38.075  21.129 225.970  1.00  0.00     0.000 C 
BRANCH   4   5
ATOM      5  C   UNL     1      36.948  20.238 225.426  1.00  0.00     0.000 C 
BRANCH   5   6
ATOM      6  C   UNL     1      36.288  19.378 226.519  1.00  0.00     0.000 C 
BRANCH   6   7
ATOM      7  C   UNL     1      36.735  17.902 226.541  1.00  0.00     0.000 C 
BRANCH   7   8
ATOM      8  C   UNL     1      37.387  17.432 227.855  1.00  0.00     0.000 C 
BRANCH   8   9
ATOM      9  C   UNL     1      38.849  16.967 227.729  1.00  0.00     0.000 C 
BRANCH   9  10
ATOM     10  C   UNL     1      39.559  17.548 226.493  1.00  0.00     0.000 C 
BRANCH  10  11
ATOM     11  C   UNL     1      40.600  18.626 226.868  1.00  0.00     0.000 C 
BRANCH  11  12
ATOM     12  C   UNL     1      40.852  18.747 228.381  1.00  0.00     0.000 C 
BRANCH  12  13
ATOM     13  C   UNL     1      40.515  20.141 228.931  1.00  0.00     0.006 C 
BRANCH  13  14
ATOM     14  C   UNL     1      39.064  20.242 229.419  1.00  0.00     0.053 C 
BRANCH  14  15
ATOM     15  C   UNL     1      38.887  19.675 230.797  1.00  0.00     0.041 C 
ATOM     16  O   UNL     1      39.176  18.471 231.032  1.00  0.00    -0.550 OA
ATOM     17  O   UNL     1      38.401  20.479 231.821  1.00  0.00    -0.550 OA
ENDBRANCH  14  15
ENDBRANCH  13  14
ENDBRANCH  12  13
ENDBRANCH  11  12
ENDBRANCH  10  11
ENDBRANCH   9  10
ENDBRANCH   8   9
ENDBRANCH   7   8
ENDBRANCH   6   7
ENDBRANCH   5   6
ENDBRANCH   4   5
ENDBRANCH   3   4
ENDBRANCH   2   3
ENDBRANCH   1   2
BRANCH   1  18
ATOM     18  C   UNL     1      39.006  24.297 223.475  1.00  0.00     0.000 C 
BRANCH  18  19
ATOM     19  C   UNL     1      40.397  24.050 222.858  1.00  0.00     0.000 C 
BRANCH  19  20
ATOM     20  C   UNL     1      41.239  22.992 223.602  1.00  0.00     0.000 C 
BRANCH  20  21
ATOM     21  C   UNL     1      41.902  23.546 224.876  1.00  0.00     0.000 C 
BRANCH  21  22
ATOM     22  C   UNL     1      41.652  22.650 226.101  1.00  0.00     0.000 C 
BRANCH  22  23
ATOM     23  C   UNL     1      42.489  23.079 227.318  1.00  0.00     0.000 C 
BRANCH  23  24
ATOM     24  C   UNL     1      41.670  23.878 228.344  1.00  0.00    -0.000 C 
BRANCH  24  25
ATOM     25  C   UNL     1      40.157  23.762 228.106  1.00  0.00    -0.000 C 
BRANCH  25  26
ATOM     26  C   UNL     1      39.383  24.707 229.037  1.00  0.00    -0.000 C 
BRANCH  26  27
ATOM     27  C   UNL     1      39.004  26.038 228.364  1.00  0.00    -0.000 C 
BRANCH  27  28
ATOM     28  C   UNL     1      38.767  25.961 226.844  1.00  0.00    -0.000 C 
BRANCH  28  29
ATOM     29  C   UNL     1      39.932  26.541 226.026  1.00  0.00    -0.000 C 
BRANCH  29  30
ATOM     30  C   UNL     1      40.330  27.962 226.470  1.00  0.00    -0.000 C 
BRANCH  30  31
ATOM     31  C   UNL     1      41.841  28.187 226.652  1.00  0.00    -0.003 C 
ATOM     32  C   UNL     1      42.678  26.958 226.300  1.00  0.00     0.004 C 
ENDBRANCH  30  31
ENDBRANCH  29  30
ENDBRANCH  28  29
ENDBRANCH  27  28
ENDBRANCH  26  27
ENDBRANCH  25  26
ENDBRANCH  24  25
ENDBRANCH  23  24
ENDBRANCH  22  23
ENDBRANCH  21  22
ENDBRANCH  20  21
ENDBRANCH  19  20
ENDBRANCH  18  19
ENDBRANCH   1  18
TORSDOF 28
ENDMDL
MODEL 8
REMARK VINA RESULT:    -3.748      1.804      3.571
REMARK INTER + INTRA:         -15.159
REMARK INTER:                  -9.497
REMARK INTRA:                  -5.662
REMARK UNBOUND:                -5.277
REMARK SMILES CCCCCCCCCCCCCCCCCCCCCCCCCCCCCC(=O)[O-]
REMARK SMILES IDX 16 1 17 2 18 3 19 4 20 5 21 6 22 7 23 8 24 9 25 10 26 11
REMARK SMILES IDX 27 12 28 13 29 14 30 15 31 16 32 17 15 18 14 19 13 20 12 21
REMARK SMILES IDX 11 22 10 23 9 24 8 25 7 26 6 27 5 28 4 29 3 30 2 31 1 32
REMARK H PARENT
REMARK Flexibility Score: inf
ROOT
ATOM      1  C   UNL     1      38.112  21.500 225.424  1.00  0.00     0.000 C 
ENDROOT
BRANCH   1   2
ATOM      2  C   UNL     1      37.680  20.115 225.941  1.00  0.00     0.000 C 
BRANCH   2   3
ATOM      3  C   UNL     1      38.761  19.040 225.755  1.00  0.00     0.000 C 
BRANCH   3   4
ATOM      4  C   UNL     1      40.071  19.661 225.257  1.00  0.00     0.000 C 
BRANCH   4   5
ATOM      5  C   UNL     1      41.155  19.606 226.344  1.00  0.00     0.000 C 
BRANCH   5   6
ATOM      6  C   UNL     1      42.035  20.868 226.373  1.00  0.00     0.000 C 
BRANCH   6   7
ATOM      7  C   UNL     1      41.706  21.915 225.290  1.00  0.00     0.000 C 
BRANCH   7   8
ATOM      8  C   UNL     1      41.972  23.380 225.687  1.00  0.00     0.000 C 
BRANCH   8   9
ATOM      9  C   UNL     1      41.090  24.421 224.976  1.00  0.00     0.000 C 
BRANCH   9  10
ATOM     10  C   UNL     1      40.655  25.572 225.901  1.00  0.00     0.000 C 
BRANCH  10  11
ATOM     11  C   UNL     1      39.220  26.055 225.601  1.00  0.00     0.000 C 
BRANCH  11  12
ATOM     12  C   UNL     1      38.686  25.604 224.230  1.00  0.00     0.000 C 
BRANCH  12  13
ATOM     13  C   UNL     1      37.194  25.915 224.041  1.00  0.00     0.006 C 
BRANCH  13  14
ATOM     14  C   UNL     1      36.326  24.650 224.050  1.00  0.00     0.053 C 
BRANCH  14  15
ATOM     15  C   UNL     1      36.325  23.954 222.721  1.00  0.00     0.041 C 
ATOM     16  O   UNL     1      36.316  24.622 221.652  1.00  0.00    -0.550 OA
ATOM     17  O   UNL     1      36.331  22.565 222.665  1.00  0.00    -0.550 OA
ENDBRANCH  14  15
ENDBRANCH  13  14
ENDBRANCH  12  13
ENDBRANCH  11  12
ENDBRANCH  10  11
ENDBRANCH   9  10
ENDBRANCH   8   9
ENDBRANCH   7   8
ENDBRANCH   6   7
ENDBRANCH   5   6
ENDBRANCH   4   5
ENDBRANCH   3   4
ENDBRANCH   2   3
ENDBRANCH   1   2
BRANCH   1  18
ATOM     18  C   UNL     1      38.141  22.614 226.488  1.00  0.00     0.000 C 
BRANCH  18  19
ATOM     19  C   UNL     1      38.549  22.166 227.905  1.00  0.00     0.000 C 
BRANCH  19  20
ATOM     20  C   UNL     1      39.736  22.953 228.500  1.00  0.00     0.000 C 
BRANCH  20  21
ATOM     21  C   UNL     1      40.115  22.481 229.915  1.00  0.00     0.000 C 
BRANCH  21  22
ATOM     22  C   UNL     1      41.390  21.621 229.922  1.00  0.00     0.000 C 
BRANCH  22  23
ATOM     23  C   UNL     1      41.082  20.120 230.066  1.00  0.00     0.000 C 
BRANCH  23  24
ATOM     24  C   UNL     1      40.229  19.811 231.307  1.00  0.00    -0.000 C 
BRANCH  24  25
ATOM     25  C   UNL     1      38.919  19.091 230.954  1.00  0.00    -0.000 C 
BRANCH  25  26
ATOM     26  C   UNL     1      38.751  18.973 229.432  1.00  0.00    -0.000 C 
BRANCH  26  27
ATOM     27  C   UNL     1      38.753  17.516 228.939  1.00  0.00    -0.000 C 
BRANCH  27  28
ATOM     28  C   UNL     1      40.146  16.895 228.726  1.00  0.00    -0.000 C 
BRANCH  28  29
ATOM     29  C   UNL     1      40.561  15.949 229.864  1.00  0.00    -0.000 C 
BRANCH  29  30
ATOM     30  C   UNL     1      40.486  14.462 229.467  1.00  0.00    -0.000 C 
BRANCH  30  31
ATOM     31  C   UNL     1      39.878  14.189 228.081  1.00  0.00    -0.003 C 
ATOM     32  C   UNL     1      38.390  13.848 228.135  1.00  0.00     0.004 C 
ENDBRANCH  30  31
ENDBRANCH  29  30
ENDBRANCH  28  29
ENDBRANCH  27  28
ENDBRANCH  26  27
ENDBRANCH  25  26
ENDBRANCH  24  25
ENDBRANCH  23  24
ENDBRANCH  22  23
ENDBRANCH  21  22
ENDBRANCH  20  21
ENDBRANCH  19  20
ENDBRANCH  18  19
ENDBRANCH   1  18
TORSDOF 28
ENDMDL
MODEL 9
REMARK VINA RESULT:    -3.747      3.393      7.580
REMARK INTER + INTRA:         -15.157
REMARK INTER:                  -9.349
REMARK INTRA:                  -5.808
REMARK UNBOUND:                -5.277
REMARK SMILES CCCCCCCCCCCCCCCCCCCCCCCCCCCCCC(=O)[O-]
REMARK SMILES IDX 16 1 17 2 18 3 19 4 20 5 21 6 22 7 23 8 24 9 25 10 26 11
REMARK SMILES IDX 27 12 28 13 29 14 30 15 31 16 32 17 15 18 14 19 13 20 12 21
REMARK SMILES IDX 11 22 10 23 9 24 8 25 7 26 6 27 5 28 4 29 3 30 2 31 1 32
REMARK H PARENT
REMARK Flexibility Score: inf
ROOT
ATOM      1  C   UNL     1      37.212  22.451 224.151  1.00  0.00     0.000 C 
ENDROOT
BRANCH   1   2
ATOM      2  C   UNL     1      38.746  22.311 224.184  1.00  0.00     0.000 C 
BRANCH   2   3
ATOM      3  C   UNL     1      39.452  23.194 223.143  1.00  0.00     0.000 C 
BRANCH   3   4
ATOM      4  C   UNL     1      40.968  23.202 223.370  1.00  0.00     0.000 C 
BRANCH   4   5
ATOM      5  C   UNL     1      41.627  21.970 222.732  1.00  0.00     0.000 C 
BRANCH   5   6
ATOM      6  C   UNL     1      42.148  20.965 223.775  1.00  0.00     0.000 C 
BRANCH   6   7
ATOM      7  C   UNL     1      41.576  19.540 223.646  1.00  0.00     0.000 C 
BRANCH   7   8
ATOM      8  C   UNL     1      40.631  19.105 224.783  1.00  0.00     0.000 C 
BRANCH   8   9
ATOM      9  C   UNL     1      40.935  19.724 226.159  1.00  0.00     0.000 C 
BRANCH   9  10
ATOM     10  C   UNL     1      39.690  19.833 227.057  1.00  0.00     0.000 C 
BRANCH  10  11
ATOM     11  C   UNL     1      38.377  19.659 226.262  1.00  0.00     0.000 C 
BRANCH  11  12
ATOM     12  C   UNL     1      37.183  19.217 227.126  1.00  0.00     0.000 C 
BRANCH  12  13
ATOM     13  C   UNL     1      36.838  17.730 226.948  1.00  0.00     0.006 C 
BRANCH  13  14
ATOM     14  C   UNL     1      37.231  16.888 228.169  1.00  0.00     0.053 C 
BRANCH  14  15
ATOM     15  C   UNL     1      38.391  15.980 227.882  1.00  0.00     0.041 C 
ATOM     16  O   UNL     1      39.367  16.391 227.199  1.00  0.00    -0.550 OA
ATOM     17  O   UNL     1      38.390  14.679 228.370  1.00  0.00    -0.550 OA
ENDBRANCH  14  15
ENDBRANCH  13  14
ENDBRANCH  12  13
ENDBRANCH  11  12
ENDBRANCH  10  11
ENDBRANCH   9  10
ENDBRANCH   8   9
ENDBRANCH   7   8
ENDBRANCH   6   7
ENDBRANCH   5   6
ENDBRANCH   4   5
ENDBRANCH   3   4
ENDBRANCH   2   3
ENDBRANCH   1   2
BRANCH   1  18
ATOM     18  C   UNL     1      36.650  23.174 222.911  1.00  0.00     0.000 C 
BRANCH  18  19
ATOM     19  C   UNL     1      35.997  24.544 223.184  1.00  0.00     0.000 C 
BRANCH  19  20
ATOM     20  C   UNL     1      36.557  25.276 224.422  1.00  0.00     0.000 C 
BRANCH  20  21
ATOM     21  C   UNL     1      37.693  26.254 224.072  1.00  0.00     0.000 C 
BRANCH  21  22
ATOM     22  C   UNL     1      38.859  26.176 225.072  1.00  0.00     0.000 C 
BRANCH  22  23
ATOM     23  C   UNL     1      38.501  25.356 226.324  1.00  0.00     0.000 C 
BRANCH  23  24
ATOM     24  C   UNL     1      39.743  24.795 227.034  1.00  0.00    -0.000 C 
BRANCH  24  25
ATOM     25  C   UNL     1      39.501  23.396 227.622  1.00  0.00    -0.000 C 
BRANCH  25  26
ATOM     26  C   UNL     1      37.998  23.096 227.720  1.00  0.00    -0.000 C 
BRANCH  26  27
ATOM     27  C   UNL     1      37.535  22.809 229.160  1.00  0.00    -0.000 C 
BRANCH  27  28
ATOM     28  C   UNL     1      38.411  23.423 230.267  1.00  0.00    -0.000 C 
BRANCH  28  29
ATOM     29  C   UNL     1      38.053  24.888 230.571  1.00  0.00    -0.000 C 
BRANCH  29  30
ATOM     30  C   UNL     1      36.585  25.226 230.251  1.00  0.00    -0.000 C 
BRANCH  30  31
ATOM     31  C   UNL     1      36.386  26.356 229.226  1.00  0.00    -0.003 C 
ATOM     32  C   UNL     1      35.386  26.000 228.127  1.00  0.00     0.004 C 
ENDBRANCH  30  31
ENDBRANCH  29  30
ENDBRANCH  28  29
ENDBRANCH  27  28
ENDBRANCH  26  27
ENDBRANCH  25  26
ENDBRANCH  24  25
ENDBRANCH  23  24
ENDBRANCH  22  23
ENDBRANCH  21  22
ENDBRANCH  20  21
ENDBRANCH  19  20
ENDBRANCH  18  19
ENDBRANCH   1  18
TORSDOF 28
ENDMDL
