MODEL 1
REMARK VINA RESULT:    -5.302      0.000      0.000
REMARK INTER + INTRA:          -7.465
REMARK INTER:                  -7.162
REMARK INTRA:                  -0.303
REMARK UNBOUND:                -0.303
REMARK SMILES CCCCCCCC(=O)[O-]
REMARK SMILES IDX 5 1 6 2 7 3 8 4 9 5 10 6 4 7 3 8 2 9 1 10
REMARK H PARENT
REMARK Flexibility Score: inf
ROOT
ATOM      1  C   UNL     1     126.316 125.844 122.757  1.00  0.00     0.000 C 
ENDROOT
BRANCH   1   2
ATOM      2  C   UNL     1     124.801 125.597 122.662  1.00  0.00     0.006 C 
BRANCH   2   3
ATOM      3  C   UNL     1     124.021 126.850 122.242  1.00  0.00     0.053 C 
BRANCH   3   4
ATOM      4  C   UNL     1     122.549 126.580 122.266  1.00  0.00     0.041 C 
ATOM      5  O   UNL     1     121.803 127.212 123.058  1.00  0.00    -0.550 OA
ATOM      6  O   UNL     1     121.996 125.665 121.380  1.00  0.00    -0.550 OA
ENDBRANCH   3   4
ENDBRANCH   2   3
ENDBRANCH   1   2
BRANCH   1   7
ATOM      7  C   UNL     1     127.136 124.554 122.587  1.00  0.00     0.000 C 
BRANCH   7   8
ATOM      8  C   UNL     1     126.257 123.292 122.589  1.00  0.00    -0.000 C 
BRANCH   8   9
ATOM      9  C   UNL     1     126.606 122.328 123.732  1.00  0.00    -0.003 C 
ATOM     10  C   UNL     1     126.581 123.043 125.080  1.00  0.00     0.004 C 
ENDBRANCH   8   9
ENDBRANCH   7   8
ENDBRANCH   1   7
TORSDOF 6
ENDMDL
MODEL 2
REMARK VINA RESULT:    -5.294      3.224      3.739
REMARK INTER + INTRA:          -7.455
REMARK INTER:                  -7.024
REMARK INTRA:                  -0.431
REMARK UNBOUND:                -0.303
REMARK SMILES CCCCCCCC(=O)[O-]
REMARK SMILES IDX 5 1 6 2 7 3 8 4 9 5 10 6 4 7 3 8 2 9 1 10
REMARK H PARENT
REMARK Flexibility Score: inf
ROOT
ATOM      1  C   UNL     1     125.511 124.742 122.538  1.00  0.00     0.000 C 
ENDROOT
BRANCH   1   2
ATOM      2  C   UNL     1     126.867 125.451 122.380  1.00  0.00     0.006 C 
BRANCH   2   3
ATOM      3  C   UNL     1     126.840 126.900 122.885  1.00  0.00     0.053 C 
BRANCH   3   4
ATOM      4  C   UNL     1     127.417 126.982 124.264  1.00  0.00     0.041 C 
ATOM      5  O   UNL     1     128.111 126.034 124.716  1.00  0.00    -0.550 OA
ATOM      6  O   UNL     1     127.229 128.125 125.030  1.00  0.00    -0.550 OA
ENDBRANCH   3   4
ENDBRANCH   2   3
ENDBRANCH   1   2
BRANCH   1   7
ATOM      7  C   UNL     1     125.644 123.210 122.538  1.00  0.00     0.000 C 
BRANCH   7   8
ATOM      8  C   UNL     1     126.891 122.725 123.296  1.00  0.00    -0.000 C 
BRANCH   8   9
ATOM      9  C   UNL     1     126.547 122.041 124.626  1.00  0.00    -0.003 C 
ATOM     10  C   UNL     1     126.575 123.039 125.780  1.00  0.00     0.004 C 
ENDBRANCH   8   9
ENDBRANCH   7   8
ENDBRANCH   1   7
TORSDOF 6
ENDMDL
MODEL 3
REMARK VINA RESULT:    -5.207      0.223      1.043
REMARK INTER + INTRA:          -7.336
REMARK INTER:                  -7.005
REMARK INTRA:                  -0.331
REMARK UNBOUND:                -0.303
REMARK SMILES CCCCCCCC(=O)[O-]
REMARK SMILES IDX 5 1 6 2 7 3 8 4 9 5 10 6 4 7 3 8 2 9 1 10
REMARK H PARENT
REMARK Flexibility Score: inf
ROOT
ATOM      1  C   UNL     1     126.471 125.951 122.716  1.00  0.00     0.000 C 
ENDROOT
BRANCH   1   2
ATOM      2  C   UNL     1     124.962 125.778 122.953  1.00  0.00     0.006 C 
BRANCH   2   3
ATOM      3  C   UNL     1     124.129 126.894 122.309  1.00  0.00     0.053 C 
BRANCH   3   4
ATOM      4  C   UNL     1     122.681 126.517 122.289  1.00  0.00     0.041 C 
ATOM      5  O   UNL     1     122.281 125.577 121.554  1.00  0.00    -0.550 OA
ATOM      6  O   UNL     1     121.780 127.173 123.120  1.00  0.00    -0.550 OA
ENDBRANCH   3   4
ENDBRANCH   2   3
ENDBRANCH   1   2
BRANCH   1   7
ATOM      7  C   UNL     1     127.229 124.612 122.733  1.00  0.00     0.000 C 
BRANCH   7   8
ATOM      8  C   UNL     1     126.283 123.400 122.737  1.00  0.00    -0.000 C 
BRANCH   8   9
ATOM      9  C   UNL     1     126.557 122.438 123.901  1.00  0.00    -0.003 C 
ATOM     10  C   UNL     1     126.575 123.180 125.235  1.00  0.00     0.004 C 
ENDBRANCH   8   9
ENDBRANCH   7   8
ENDBRANCH   1   7
TORSDOF 6
ENDMDL
MODEL 4
REMARK VINA RESULT:    -5.168      2.646      3.540
REMARK INTER + INTRA:          -7.284
REMARK INTER:                  -6.857
REMARK INTRA:                  -0.427
REMARK UNBOUND:                -0.303
REMARK SMILES CCCCCCCC(=O)[O-]
REMARK SMILES IDX 5 1 6 2 7 3 8 4 9 5 10 6 4 7 3 8 2 9 1 10
REMARK H PARENT
REMARK Flexibility Score: inf
ROOT
ATOM      1  C   UNL     1     128.099 124.683 124.877  1.00  0.00     0.000 C 
ENDROOT
BRANCH   1   2
ATOM      2  C   UNL     1     128.103 126.168 124.479  1.00  0.00     0.006 C 
BRANCH   2   3
ATOM      3  C   UNL     1     126.695 126.707 124.189  1.00  0.00     0.053 C 
BRANCH   3   4
ATOM      4  C   UNL     1     126.678 127.446 122.887  1.00  0.00     0.041 C 
ATOM      5  O   UNL     1     127.758 127.782 122.336  1.00  0.00    -0.550 OA
ATOM      6  O   UNL     1     125.470 127.720 122.259  1.00  0.00    -0.550 OA
ENDBRANCH   3   4
ENDBRANCH   2   3
ENDBRANCH   1   2
BRANCH   1   7
ATOM      7  C   UNL     1     126.678 124.111 125.007  1.00  0.00     0.000 C 
BRANCH   7   8
ATOM      8  C   UNL     1     126.609 122.616 124.651  1.00  0.00    -0.000 C 
BRANCH   8   9
ATOM      9  C   UNL     1     126.384 122.372 123.153  1.00  0.00    -0.003 C 
ATOM     10  C   UNL     1     125.607 123.524 122.520  1.00  0.00     0.004 C 
ENDBRANCH   8   9
ENDBRANCH   7   8
ENDBRANCH   1   7
TORSDOF 6
ENDMDL
MODEL 5
REMARK VINA RESULT:    -5.100      1.601      1.996
REMARK INTER + INTRA:          -7.192
REMARK INTER:                  -6.779
REMARK INTRA:                  -0.413
REMARK UNBOUND:                -0.303
REMARK SMILES CCCCCCCC(=O)[O-]
REMARK SMILES IDX 5 1 6 2 7 3 8 4 9 5 10 6 4 7 3 8 2 9 1 10
REMARK H PARENT
REMARK Flexibility Score: inf
ROOT
ATOM      1  C   UNL     1     127.982 125.643 122.357  1.00  0.00     0.000 C 
ENDROOT
BRANCH   1   2
ATOM      2  C   UNL     1     127.154 126.454 123.367  1.00  0.00     0.006 C 
BRANCH   2   3
ATOM      3  C   UNL     1     126.261 127.504 122.693  1.00  0.00     0.053 C 
BRANCH   3   4
ATOM      4  C   UNL     1     124.863 126.987 122.554  1.00  0.00     0.041 C 
ATOM      5  O   UNL     1     124.533 125.902 123.100  1.00  0.00    -0.550 OA
ATOM      6  O   UNL     1     123.913 127.728 121.864  1.00  0.00    -0.550 OA
ENDBRANCH   3   4
ENDBRANCH   2   3
ENDBRANCH   1   2
BRANCH   1   7
ATOM      7  C   UNL     1     128.107 124.161 122.752  1.00  0.00     0.000 C 
BRANCH   7   8
ATOM      8  C   UNL     1     126.758 123.424 122.710  1.00  0.00    -0.000 C 
BRANCH   8   9
ATOM      9  C   UNL     1     126.569 122.465 123.894  1.00  0.00    -0.003 C 
ATOM     10  C   UNL     1     126.541 123.225 125.217  1.00  0.00     0.004 C 
ENDBRANCH   8   9
ENDBRANCH   7   8
ENDBRANCH   1   7
TORSDOF 6
ENDMDL
MODEL 6
REMARK VINA RESULT:    -5.048      3.419      4.974
REMARK INTER + INTRA:          -7.121
REMARK INTER:                  -6.740
REMARK INTRA:                  -0.382
REMARK UNBOUND:                -0.303
REMARK SMILES CCCCCCCC(=O)[O-]
REMARK SMILES IDX 5 1 6 2 7 3 8 4 9 5 10 6 4 7 3 8 2 9 1 10
REMARK H PARENT
REMARK Flexibility Score: inf
ROOT
ATOM      1  C   UNL     1     125.274 124.701 122.577  1.00  0.00     0.000 C 
ENDROOT
BRANCH   1   2
ATOM      2  C   UNL     1     126.570 123.879 122.667  1.00  0.00     0.006 C 
BRANCH   2   3
ATOM      3  C   UNL     1     126.509 122.793 123.749  1.00  0.00     0.053 C 
BRANCH   3   4
ATOM      4  C   UNL     1     126.875 123.365 125.083  1.00  0.00     0.041 C 
ATOM      5  O   UNL     1     126.459 122.822 126.139  1.00  0.00    -0.550 OA
ATOM      6  O   UNL     1     127.715 124.468 125.159  1.00  0.00    -0.550 OA
ENDBRANCH   3   4
ENDBRANCH   2   3
ENDBRANCH   1   2
BRANCH   1   7
ATOM      7  C   UNL     1     125.525 126.213 122.706  1.00  0.00     0.000 C 
BRANCH   7   8
ATOM      8  C   UNL     1     127.011 126.579 122.560  1.00  0.00    -0.000 C 
BRANCH   8   9
ATOM      9  C   UNL     1     127.305 128.033 122.954  1.00  0.00    -0.003 C 
ATOM     10  C   UNL     1     127.782 128.125 124.401  1.00  0.00     0.004 C 
ENDBRANCH   8   9
ENDBRANCH   7   8
ENDBRANCH   1   7
TORSDOF 6
ENDMDL
MODEL 7
REMARK VINA RESULT:    -4.751      3.038      4.956
REMARK INTER + INTRA:          -6.721
REMARK INTER:                  -6.369
REMARK INTRA:                  -0.352
REMARK UNBOUND:                -0.303
REMARK SMILES CCCCCCCC(=O)[O-]
REMARK SMILES IDX 5 1 6 2 7 3 8 4 9 5 10 6 4 7 3 8 2 9 1 10
REMARK H PARENT
REMARK Flexibility Score: inf
ROOT
ATOM      1  C   UNL     1     127.723 125.803 122.492  1.00  0.00     0.000 C 
ENDROOT
BRANCH   1   2
ATOM      2  C   UNL     1     127.973 124.309 122.754  1.00  0.00     0.006 C 
BRANCH   2   3
ATOM      3  C   UNL     1     126.697 123.464 122.631  1.00  0.00     0.053 C 
BRANCH   3   4
ATOM      4  C   UNL     1     126.549 122.568 123.821  1.00  0.00     0.041 C 
ATOM      5  O   UNL     1     126.472 121.321 123.668  1.00  0.00    -0.550 OA
ATOM      6  O   UNL     1     126.544 123.107 125.101  1.00  0.00    -0.550 OA
ENDBRANCH   3   4
ENDBRANCH   2   3
ENDBRANCH   1   2
BRANCH   1   7
ATOM      7  C   UNL     1     126.621 126.384 123.395  1.00  0.00     0.000 C 
BRANCH   7   8
ATOM      8  C   UNL     1     125.506 127.076 122.594  1.00  0.00    -0.000 C 
BRANCH   8   9
ATOM      9  C   UNL     1     124.173 126.316 122.656  1.00  0.00    -0.003 C 
ATOM     10  C   UNL     1     123.033 127.161 122.093  1.00  0.00     0.004 C 
ENDBRANCH   8   9
ENDBRANCH   7   8
ENDBRANCH   1   7
TORSDOF 6
ENDMDL
MODEL 8
REMARK VINA RESULT:    -4.742      2.612      4.388
REMARK INTER + INTRA:          -6.709
REMARK INTER:                  -6.297
REMARK INTRA:                  -0.412
REMARK UNBOUND:                -0.303
REMARK SMILES CCCCCCCC(=O)[O-]
REMARK SMILES IDX 5 1 6 2 7 3 8 4 9 5 10 6 4 7 3 8 2 9 1 10
REMARK H PARENT
REMARK Flexibility Score: inf
ROOT
ATOM      1  C   UNL     1     126.869 124.179 125.231  1.00  0.00     0.000 C 
ENDROOT
BRANCH   1   2
ATOM      2  C   UNL     1     126.571 122.745 124.762  1.00  0.00     0.006 C 
BRANCH   2   3
ATOM      3  C   UNL     1     126.835 122.545 123.264  1.00  0.00     0.053 C 
BRANCH   3   4
ATOM      4  C   UNL     1     125.592 122.816 122.475  1.00  0.00     0.041 C 
ATOM      5  O   UNL     1     124.954 121.866 121.953  1.00  0.00    -0.550 OA
ATOM      6  O   UNL     1     125.113 124.115 122.358  1.00  0.00    -0.550 OA
ENDBRANCH   3   4
ENDBRANCH   2   3
ENDBRANCH   1   2
BRANCH   1   7
ATOM      7  C   UNL     1     128.125 124.767 124.566  1.00  0.00     0.000 C 
BRANCH   7   8
ATOM      8  C   UNL     1     127.997 126.276 124.296  1.00  0.00    -0.000 C 
BRANCH   8   9
ATOM      9  C   UNL     1     127.659 126.591 122.833  1.00  0.00    -0.003 C 
ATOM     10  C   UNL     1     126.329 127.332 122.723  1.00  0.00     0.004 C 
ENDBRANCH   8   9
ENDBRANCH   7   8
ENDBRANCH   1   7
TORSDOF 6
ENDMDL
MODEL 9
REMARK VINA RESULT:    -4.666      3.146      5.159
REMARK INTER + INTRA:          -6.606
REMARK INTER:                  -6.352
REMARK INTRA:                  -0.254
REMARK UNBOUND:                -0.303
REMARK SMILES CCCCCCCC(=O)[O-]
REMARK SMILES IDX 5 1 6 2 7 3 8 4 9 5 10 6 4 7 3 8 2 9 1 10
REMARK H PARENT
REMARK Flexibility Score: inf
ROOT
ATOM      1  C   UNL     1     125.201 124.076 122.447  1.00  0.00     0.000 C 
ENDROOT
BRANCH   1   2
ATOM      2  C   UNL     1     126.512 123.282 122.559  1.00  0.00     0.006 C 
BRANCH   2   3
ATOM      3  C   UNL     1     126.590 122.444 123.842  1.00  0.00     0.053 C 
BRANCH   3   4
ATOM      4  C   UNL     1     126.910 123.316 125.015  1.00  0.00     0.041 C 
ATOM      5  O   UNL     1     127.708 124.281 124.887  1.00  0.00    -0.550 OA
ATOM      6  O   UNL     1     126.290 123.093 126.238  1.00  0.00    -0.550 OA
ENDBRANCH   3   4
ENDBRANCH   2   3
ENDBRANCH   1   2
BRANCH   1   7
ATOM      7  C   UNL     1     125.420 125.595 122.552  1.00  0.00     0.000 C 
BRANCH   7   8
ATOM      8  C   UNL     1     124.204 126.327 123.144  1.00  0.00    -0.000 C 
BRANCH   8   9
ATOM      9  C   UNL     1     123.286 126.920 122.066  1.00  0.00    -0.003 C 
ATOM     10  C   UNL     1     122.139 125.969 121.738  1.00  0.00     0.004 C 
ENDBRANCH   8   9
ENDBRANCH   7   8
ENDBRANCH   1   7
TORSDOF 6
ENDMDL
