MODEL 1
REMARK VINA RESULT:    -4.407      0.000      0.000
REMARK INTER + INTRA:          -6.957
REMARK INTER:                  -6.469
REMARK INTRA:                  -0.488
REMARK UNBOUND:                -0.488
REMARK SMILES O=C([O-])CCCCCCCC(=O)[O-]
REMARK SMILES IDX 7 1 6 2 5 3 4 4 2 5 1 6 3 7 8 8 9 9 10 10 11 11 12 12 13 13
REMARK H PARENT
REMARK Flexibility Score: inf
ROOT
ATOM      1  C   UNL     1      -4.069  -1.015  27.982  1.00  0.00     0.000 C 
ENDROOT
BRANCH   1   2
ATOM      2  C   UNL     1      -3.201  -0.252  28.990  1.00  0.00     0.000 C 
BRANCH   2   3
ATOM      3  C   UNL     1      -1.934   0.296  28.322  1.00  0.00     0.006 C 
BRANCH   3   4
ATOM      4  C   UNL     1      -1.536  -0.557  27.115  1.00  0.00     0.053 C 
BRANCH   4   5
ATOM      5  C   UNL     1      -0.407  -1.473  27.469  1.00  0.00     0.041 C 
ATOM      6  O   UNL     1      -0.633  -2.547  28.087  1.00  0.00    -0.550 OA
ATOM      7  O   UNL     1       0.900  -1.118  27.162  1.00  0.00    -0.550 OA
ENDBRANCH   4   5
ENDBRANCH   3   4
ENDBRANCH   2   3
ENDBRANCH   1   2
BRANCH   1   8
ATOM      8  C   UNL     1      -5.314  -1.600  28.659  1.00  0.00     0.000 C 
BRANCH   8   9
ATOM      9  C   UNL     1      -4.927  -2.618  29.739  1.00  0.00     0.006 C 
BRANCH   9  10
ATOM     10  C   UNL     1      -5.658  -3.947  29.528  1.00  0.00     0.053 C 
BRANCH  10  11
ATOM     11  C   UNL     1      -4.902  -4.815  28.571  1.00  0.00     0.041 C 
ATOM     12  O   UNL     1      -3.657  -4.679  28.441  1.00  0.00    -0.550 OA
ATOM     13  O   UNL     1      -5.565  -5.807  27.859  1.00  0.00    -0.550 OA
ENDBRANCH  10  11
ENDBRANCH   9  10
ENDBRANCH   8   9
ENDBRANCH   1   8
TORSDOF 8
ENDMDL
MODEL 2
REMARK VINA RESULT:    -4.407      0.961      5.059
REMARK INTER + INTRA:          -6.956
REMARK INTER:                  -6.503
REMARK INTRA:                  -0.453
REMARK UNBOUND:                -0.488
REMARK SMILES O=C([O-])CCCCCCCC(=O)[O-]
REMARK SMILES IDX 7 1 6 2 5 3 4 4 2 5 1 6 3 7 8 8 9 9 10 10 11 11 12 12 13 13
REMARK H PARENT
REMARK Flexibility Score: inf
ROOT
ATOM      1  C   UNL     1      -4.267  -0.828  27.861  1.00  0.00     0.000 C 
ENDROOT
BRANCH   1   2
ATOM      2  C   UNL     1      -5.259  -1.106  28.996  1.00  0.00     0.000 C 
BRANCH   2   3
ATOM      3  C   UNL     1      -5.078  -2.523  29.552  1.00  0.00     0.006 C 
BRANCH   3   4
ATOM      4  C   UNL     1      -5.836  -3.548  28.704  1.00  0.00     0.053 C 
BRANCH   4   5
ATOM      5  C   UNL     1      -4.953  -4.707  28.366  1.00  0.00     0.041 C 
ATOM      6  O   UNL     1      -5.449  -5.769  27.907  1.00  0.00    -0.550 OA
ATOM      7  O   UNL     1      -3.586  -4.632  28.605  1.00  0.00    -0.550 OA
ENDBRANCH   4   5
ENDBRANCH   3   4
ENDBRANCH   2   3
ENDBRANCH   1   2
BRANCH   1   8
ATOM      8  C   UNL     1      -2.839  -1.204  28.273  1.00  0.00     0.000 C 
BRANCH   8   9
ATOM      9  C   UNL     1      -1.805  -0.449  27.428  1.00  0.00     0.006 C 
BRANCH   9  10
ATOM     10  C   UNL     1      -0.515  -1.261  27.285  1.00  0.00     0.053 C 
BRANCH  10  11
ATOM     11  C   UNL     1       0.082  -1.539  28.628  1.00  0.00     0.041 C 
ATOM     12  O   UNL     1       0.450  -0.588  29.366  1.00  0.00    -0.550 OA
ATOM     13  O   UNL     1       0.186  -2.846  29.086  1.00  0.00    -0.550 OA
ENDBRANCH  10  11
ENDBRANCH   9  10
ENDBRANCH   8   9
ENDBRANCH   1   8
TORSDOF 8
ENDMDL
MODEL 3
REMARK VINA RESULT:    -4.391      1.321      5.550
REMARK INTER + INTRA:          -6.932
REMARK INTER:                  -6.467
REMARK INTRA:                  -0.466
REMARK UNBOUND:                -0.488
REMARK SMILES O=C([O-])CCCCCCCC(=O)[O-]
REMARK SMILES IDX 7 1 6 2 5 3 4 4 2 5 1 6 3 7 8 8 9 9 10 10 11 11 12 12 13 13
REMARK H PARENT
REMARK Flexibility Score: inf
ROOT
ATOM      1  C   UNL     1      -4.213  -0.904  27.907  1.00  0.00     0.000 C 
ENDROOT
BRANCH   1   2
ATOM      2  C   UNL     1      -5.347  -1.139  28.911  1.00  0.00     0.000 C 
BRANCH   2   3
ATOM      3  C   UNL     1      -5.357  -2.591  29.403  1.00  0.00     0.006 C 
BRANCH   3   4
ATOM      4  C   UNL     1      -5.816  -3.543  28.295  1.00  0.00     0.053 C 
BRANCH   4   5
ATOM      5  C   UNL     1      -4.930  -4.747  28.237  1.00  0.00     0.041 C 
ATOM      6  O   UNL     1      -5.399  -5.864  27.894  1.00  0.00    -0.550 OA
ATOM      7  O   UNL     1      -3.596  -4.646  28.611  1.00  0.00    -0.550 OA
ENDBRANCH   4   5
ENDBRANCH   3   4
ENDBRANCH   2   3
ENDBRANCH   1   2
BRANCH   1   8
ATOM      8  C   UNL     1      -2.915  -0.514  28.624  1.00  0.00     0.000 C 
BRANCH   8   9
ATOM      9  C   UNL     1      -1.709  -1.236  28.011  1.00  0.00     0.006 C 
BRANCH   9  10
ATOM     10  C   UNL     1      -1.208  -0.506  26.761  1.00  0.00     0.053 C 
BRANCH  10  11
ATOM     11  C   UNL     1      -0.374   0.675  27.143  1.00  0.00     0.041 C 
ATOM     12  O   UNL     1       0.807   0.512  27.549  1.00  0.00    -0.550 OA
ATOM     13  O   UNL     1      -0.883   1.960  27.005  1.00  0.00    -0.550 OA
ENDBRANCH  10  11
ENDBRANCH   9  10
ENDBRANCH   8   9
ENDBRANCH   1   8
TORSDOF 8
ENDMDL
MODEL 4
REMARK VINA RESULT:    -4.384      1.396      1.925
REMARK INTER + INTRA:          -6.923
REMARK INTER:                  -6.442
REMARK INTRA:                  -0.481
REMARK UNBOUND:                -0.488
REMARK SMILES O=C([O-])CCCCCCCC(=O)[O-]
REMARK SMILES IDX 7 1 6 2 5 3 4 4 2 5 1 6 3 7 8 8 9 9 10 10 11 11 12 12 13 13
REMARK H PARENT
REMARK Flexibility Score: inf
ROOT
ATOM      1  C   UNL     1      -4.086  -0.921  27.904  1.00  0.00     0.000 C 
ENDROOT
BRANCH   1   2
ATOM      2  C   UNL     1      -2.772  -0.577  28.615  1.00  0.00     0.000 C 
BRANCH   2   3
ATOM      3  C   UNL     1      -1.577  -1.230  27.912  1.00  0.00     0.006 C 
BRANCH   3   4
ATOM      4  C   UNL     1      -1.108  -0.384  26.724  1.00  0.00     0.053 C 
BRANCH   4   5
ATOM      5  C   UNL     1      -0.390   0.839  27.202  1.00  0.00     0.041 C 
ATOM      6  O   UNL     1       0.694   0.731  27.833  1.00  0.00    -0.550 OA
ATOM      7  O   UNL     1      -0.944   2.095  26.994  1.00  0.00    -0.550 OA
ENDBRANCH   4   5
ENDBRANCH   3   4
ENDBRANCH   2   3
ENDBRANCH   1   2
BRANCH   1   8
ATOM      8  C   UNL     1      -5.230  -1.087  28.911  1.00  0.00     0.000 C 
BRANCH   8   9
ATOM      9  C   UNL     1      -5.315  -2.533  29.414  1.00  0.00     0.006 C 
BRANCH   9  10
ATOM     10  C   UNL     1      -5.759  -3.479  28.294  1.00  0.00     0.053 C 
BRANCH  10  11
ATOM     11  C   UNL     1      -4.907  -4.708  28.278  1.00  0.00     0.041 C 
ATOM     12  O   UNL     1      -5.397  -5.814  27.928  1.00  0.00    -0.550 OA
ATOM     13  O   UNL     1      -3.558  -4.624  28.601  1.00  0.00    -0.550 OA
ENDBRANCH  10  11
ENDBRANCH   9  10
ENDBRANCH   8   9
ENDBRANCH   1   8
TORSDOF 8
ENDMDL
MODEL 5
REMARK VINA RESULT:    -4.272      2.294      3.265
REMARK INTER + INTRA:          -6.758
REMARK INTER:                  -6.193
REMARK INTRA:                  -0.565
REMARK UNBOUND:                -0.488
REMARK SMILES O=C([O-])CCCCCCCC(=O)[O-]
REMARK SMILES IDX 7 1 6 2 5 3 4 4 2 5 1 6 3 7 8 8 9 9 10 10 11 11 12 12 13 13
REMARK H PARENT
REMARK Flexibility Score: inf
ROOT
ATOM      1  C   UNL     1      -3.388  -4.622  28.318  1.00  0.00     0.000 C 
ENDROOT
BRANCH   1   2
ATOM      2  C   UNL     1      -2.405  -3.975  29.301  1.00  0.00     0.000 C 
BRANCH   2   3
ATOM      3  C   UNL     1      -1.136  -3.505  28.581  1.00  0.00     0.006 C 
BRANCH   3   4
ATOM      4  C   UNL     1      -1.061  -1.976  28.540  1.00  0.00     0.053 C 
BRANCH   4   5
ATOM      5  C   UNL     1      -0.479  -1.514  27.242  1.00  0.00     0.041 C 
ATOM      6  O   UNL     1       0.632  -1.959  26.851  1.00  0.00    -0.550 OA
ATOM      7  O   UNL     1      -1.140  -0.554  26.486  1.00  0.00    -0.550 OA
ENDBRANCH   4   5
ENDBRANCH   3   4
ENDBRANCH   2   3
ENDBRANCH   1   2
BRANCH   1   8
ATOM      8  C   UNL     1      -4.821  -4.578  28.862  1.00  0.00     0.000 C 
BRANCH   8   9
ATOM      9  C   UNL     1      -5.588  -3.377  28.295  1.00  0.00     0.006 C 
BRANCH   9  10
ATOM     10  C   UNL     1      -5.555  -2.195  29.267  1.00  0.00     0.053 C 
BRANCH  10  11
ATOM     11  C   UNL     1      -4.992  -0.981  28.598  1.00  0.00     0.041 C 
ATOM     12  O   UNL     1      -4.234  -1.102  27.600  1.00  0.00    -0.550 OA
ATOM     13  O   UNL     1      -5.344   0.286  29.046  1.00  0.00    -0.550 OA
ENDBRANCH  10  11
ENDBRANCH   9  10
ENDBRANCH   8   9
ENDBRANCH   1   8
TORSDOF 8
ENDMDL
MODEL 6
REMARK VINA RESULT:    -4.102      2.376      5.117
REMARK INTER + INTRA:          -6.508
REMARK INTER:                  -5.960
REMARK INTRA:                  -0.549
REMARK UNBOUND:                -0.488
REMARK SMILES O=C([O-])CCCCCCCC(=O)[O-]
REMARK SMILES IDX 7 1 6 2 5 3 4 4 2 5 1 6 3 7 8 8 9 9 10 10 11 11 12 12 13 13
REMARK H PARENT
REMARK Flexibility Score: inf
ROOT
ATOM      1  C   UNL     1      -2.944  -4.309  28.338  1.00  0.00     0.000 C 
ENDROOT
BRANCH   1   2
ATOM      2  C   UNL     1      -4.311  -4.317  29.031  1.00  0.00     0.000 C 
BRANCH   2   3
ATOM      3  C   UNL     1      -5.292  -3.373  28.327  1.00  0.00     0.006 C 
BRANCH   3   4
ATOM      4  C   UNL     1      -5.586  -2.142  29.189  1.00  0.00     0.053 C 
BRANCH   4   5
ATOM      5  C   UNL     1      -4.970  -0.920  28.586  1.00  0.00     0.041 C 
ATOM      6  O   UNL     1      -4.275  -1.011  27.540  1.00  0.00    -0.550 OA
ATOM      7  O   UNL     1      -5.123   0.314  29.205  1.00  0.00    -0.550 OA
ENDBRANCH   4   5
ENDBRANCH   3   4
ENDBRANCH   2   3
ENDBRANCH   1   2
BRANCH   1   8
ATOM      8  C   UNL     1      -1.815  -4.069  29.347  1.00  0.00     0.000 C 
BRANCH   8   9
ATOM      9  C   UNL     1      -0.691  -3.230  28.727  1.00  0.00     0.006 C 
BRANCH   9  10
ATOM     10  C   UNL     1      -1.165  -1.802  28.443  1.00  0.00     0.053 C 
BRANCH  10  11
ATOM     11  C   UNL     1      -0.558  -1.291  27.175  1.00  0.00     0.041 C 
ATOM     12  O   UNL     1      -1.080  -0.317  26.571  1.00  0.00    -0.550 OA
ATOM     13  O   UNL     1       0.611  -1.858  26.686  1.00  0.00    -0.550 OA
ENDBRANCH  10  11
ENDBRANCH   9  10
ENDBRANCH   8   9
ENDBRANCH   1   8
TORSDOF 8
ENDMDL
MODEL 7
REMARK VINA RESULT:    -3.943      1.243      1.894
REMARK INTER + INTRA:          -6.276
REMARK INTER:                  -5.826
REMARK INTRA:                  -0.449
REMARK UNBOUND:                -0.488
REMARK SMILES O=C([O-])CCCCCCCC(=O)[O-]
REMARK SMILES IDX 7 1 6 2 5 3 4 4 2 5 1 6 3 7 8 8 9 9 10 10 11 11 12 12 13 13
REMARK H PARENT
REMARK Flexibility Score: inf
ROOT
ATOM      1  C   UNL     1      -2.261  -0.176  28.253  1.00  0.00     0.000 C 
ENDROOT
BRANCH   1   2
ATOM      2  C   UNL     1      -1.314  -0.093  27.050  1.00  0.00     0.000 C 
BRANCH   2   3
ATOM      3  C   UNL     1       0.077  -0.632  27.405  1.00  0.00     0.006 C 
BRANCH   3   4
ATOM      4  C   UNL     1       0.102  -1.193  28.830  1.00  0.00     0.053 C 
BRANCH   4   5
ATOM      5  C   UNL     1       0.391  -2.661  28.811  1.00  0.00     0.041 C 
ATOM      6  O   UNL     1      -0.537  -3.492  29.000  1.00  0.00    -0.550 OA
ATOM      7  O   UNL     1       1.692  -3.112  28.634  1.00  0.00    -0.550 OA
ENDBRANCH   4   5
ENDBRANCH   3   4
ENDBRANCH   2   3
ENDBRANCH   1   2
BRANCH   1   8
ATOM      8  C   UNL     1      -3.571  -0.876  27.875  1.00  0.00     0.000 C 
BRANCH   8   9
ATOM      9  C   UNL     1      -4.152  -1.641  29.071  1.00  0.00     0.006 C 
BRANCH   9  10
ATOM     10  C   UNL     1      -5.306  -2.548  28.635  1.00  0.00     0.053 C 
BRANCH  10  11
ATOM     11  C   UNL     1      -4.869  -3.978  28.612  1.00  0.00     0.041 C 
ATOM     12  O   UNL     1      -3.717  -4.295  29.010  1.00  0.00    -0.550 OA
ATOM     13  O   UNL     1      -5.751  -4.968  28.199  1.00  0.00    -0.550 OA
ENDBRANCH  10  11
ENDBRANCH   9  10
ENDBRANCH   8   9
ENDBRANCH   1   8
TORSDOF 8
ENDMDL
MODEL 8
REMARK VINA RESULT:    -3.777      3.397      4.998
REMARK INTER + INTRA:          -6.031
REMARK INTER:                  -5.798
REMARK INTRA:                  -0.233
REMARK UNBOUND:                -0.488
REMARK SMILES O=C([O-])CCCCCCCC(=O)[O-]
REMARK SMILES IDX 7 1 6 2 5 3 4 4 2 5 1 6 3 7 8 8 9 9 10 10 11 11 12 12 13 13
REMARK H PARENT
REMARK Flexibility Score: inf
ROOT
ATOM      1  C   UNL     1      -5.069  -5.353  28.214  1.00  0.00     0.000 C 
ENDROOT
BRANCH   1   2
ATOM      2  C   UNL     1      -5.466  -4.376  29.328  1.00  0.00     0.000 C 
BRANCH   2   3
ATOM      3  C   UNL     1      -4.607  -3.107  29.280  1.00  0.00     0.006 C 
BRANCH   3   4
ATOM      4  C   UNL     1      -5.323  -1.987  28.520  1.00  0.00     0.053 C 
BRANCH   4   5
ATOM      5  C   UNL     1      -4.815  -0.649  28.956  1.00  0.00     0.041 C 
ATOM      6  O   UNL     1      -3.576  -0.436  29.032  1.00  0.00    -0.550 OA
ATOM      7  O   UNL     1      -5.708   0.348  29.325  1.00  0.00    -0.550 OA
ENDBRANCH   4   5
ENDBRANCH   3   4
ENDBRANCH   2   3
ENDBRANCH   1   2
BRANCH   1   8
ATOM      8  C   UNL     1      -5.940  -6.614  28.251  1.00  0.00     0.000 C 
BRANCH   8   9
ATOM      9  C   UNL     1      -5.747  -7.378  29.566  1.00  0.00     0.006 C 
BRANCH   9  10
ATOM     10  C   UNL     1      -6.446  -8.740  29.518  1.00  0.00     0.053 C 
BRANCH  10  11
ATOM     11  C   UNL     1      -5.476  -9.814  29.138  1.00  0.00     0.041 C 
ATOM     12  O   UNL     1      -5.232 -10.046  27.925  1.00  0.00    -0.550 OA
ATOM     13  O   UNL     1      -4.805 -10.525  30.125  1.00  0.00    -0.550 OA
ENDBRANCH  10  11
ENDBRANCH   9  10
ENDBRANCH   8   9
ENDBRANCH   1   8
TORSDOF 8
ENDMDL
MODEL 9
REMARK VINA RESULT:    -3.768      2.282      3.200
REMARK INTER + INTRA:          -6.019
REMARK INTER:                  -5.629
REMARK INTRA:                  -0.390
REMARK UNBOUND:                -0.488
REMARK SMILES O=C([O-])CCCCCCCC(=O)[O-]
REMARK SMILES IDX 7 1 6 2 5 3 4 4 2 5 1 6 3 7 8 8 9 9 10 10 11 11 12 12 13 13
REMARK H PARENT
REMARK Flexibility Score: inf
ROOT
ATOM      1  C   UNL     1      -1.462  -2.524  28.321  1.00  0.00     0.000 C 
ENDROOT
BRANCH   1   2
ATOM      2  C   UNL     1       0.002  -2.082  28.433  1.00  0.00     0.000 C 
BRANCH   2   3
ATOM      3  C   UNL     1       0.346  -1.036  27.365  1.00  0.00     0.006 C 
BRANCH   3   4
ATOM      4  C   UNL     1      -0.912  -0.307  26.884  1.00  0.00     0.053 C 
BRANCH   4   5
ATOM      5  C   UNL     1      -0.985   1.063  27.481  1.00  0.00     0.041 C 
ATOM      6  O   UNL     1      -0.811   2.079  26.758  1.00  0.00    -0.550 OA
ATOM      7  O   UNL     1      -1.196   1.217  28.845  1.00  0.00    -0.550 OA
ENDBRANCH   4   5
ENDBRANCH   3   4
ENDBRANCH   2   3
ENDBRANCH   1   2
BRANCH   1   8
ATOM      8  C   UNL     1      -1.683  -3.877  29.006  1.00  0.00     0.000 C 
BRANCH   8   9
ATOM      9  C   UNL     1      -3.165  -4.272  28.979  1.00  0.00     0.006 C 
BRANCH   9  10
ATOM     10  C   UNL     1      -4.043  -3.146  29.531  1.00  0.00     0.053 C 
BRANCH  10  11
ATOM     11  C   UNL     1      -5.041  -2.709  28.506  1.00  0.00     0.041 C 
ATOM     12  O   UNL     1      -5.981  -3.476  28.171  1.00  0.00    -0.550 OA
ATOM     13  O   UNL     1      -4.962  -1.436  27.957  1.00  0.00    -0.550 OA
ENDBRANCH  10  11
ENDBRANCH   9  10
ENDBRANCH   8   9
ENDBRANCH   1   8
TORSDOF 8
ENDMDL
