MODEL 1
REMARK VINA RESULT:    -4.240      0.000      0.000
REMARK INTER + INTRA:          -4.364
REMARK INTER:                  -4.364
REMARK INTRA:                   0.000
REMARK UNBOUND:                 0.000
REMARK SMILES C[C@H]1CC[C@H]2C(C)(C)[C@H]3C[C@@]12CC[C@@]3(C)O
REMARK SMILES IDX 1 1 2 2 3 3 4 4 5 5 11 6 12 7 13 8 14 9 9 10 10 11 6 12 7 13
REMARK SMILES IDX 8 14 15 15 16 16
REMARK H PARENT 16 17
REMARK Flexibility Score: inf
ROOT
ATOM      1  C   UNL     1       4.890  -0.961  -0.752  1.00  0.00     0.008 C 
ATOM      2  C   UNL     1       6.004  -0.132  -0.096  1.00  0.00    -0.008 C 
ATOM      3  C   UNL     1       7.344  -0.856  -0.081  1.00  0.00     0.004 C 
ATOM      4  C   UNL     1       8.383   0.239   0.129  1.00  0.00     0.005 C 
ATOM      5  C   UNL     1       7.773   1.547  -0.431  1.00  0.00     0.001 C 
ATOM      6  C   UNL     1       6.297   1.227  -0.765  1.00  0.00    -0.023 C 
ATOM      7  C   UNL     1       5.343   2.356  -0.287  1.00  0.00     0.010 C 
ATOM      8  C   UNL     1       5.752   3.744  -0.840  1.00  0.00     0.036 C 
ATOM      9  C   UNL     1       6.265   3.728  -2.323  1.00  0.00     0.065 C 
ATOM     10  C   UNL     1       7.105   2.423  -2.635  1.00  0.00     0.027 C 
ATOM     11  C   UNL     1       6.255   1.203  -2.294  1.00  0.00     0.014 C 
ATOM     12  C   UNL     1       8.377   2.171  -1.743  1.00  0.00    -0.026 C 
ATOM     13  C   UNL     1       9.340   1.217  -2.511  1.00  0.00     0.012 C 
ATOM     14  C   UNL     1       9.205   3.440  -1.421  1.00  0.00     0.012 C 
ATOM     15  C   UNL     1       5.055   3.838  -3.287  1.00  0.00     0.042 C 
ENDROOT
BRANCH   9  16
ATOM     16  O   UNL     1       7.079   4.851  -2.565  1.00  0.00    -0.390 OA
ATOM     17  H   UNL     1       7.028   5.073  -3.533  1.00  0.00     0.211 HD
ENDBRANCH   9  16
TORSDOF 1
ENDMDL
MODEL 2
REMARK VINA RESULT:    -4.159      2.036      4.262
REMARK INTER + INTRA:          -4.281
REMARK INTER:                  -4.281
REMARK INTRA:                   0.000
REMARK UNBOUND:                 0.000
REMARK SMILES C[C@H]1CC[C@H]2C(C)(C)[C@H]3C[C@@]12CC[C@@]3(C)O
REMARK SMILES IDX 1 1 2 2 3 3 4 4 5 5 11 6 12 7 13 8 14 9 9 10 10 11 6 12 7 13
REMARK SMILES IDX 8 14 15 15 16 16
REMARK H PARENT 16 17
REMARK Flexibility Score: inf
ROOT
ATOM      1  C   UNL     1       6.273   2.215  -4.937  1.00  0.00     0.008 C 
ATOM      2  C   UNL     1       7.347   2.484  -3.873  1.00  0.00    -0.008 C 
ATOM      3  C   UNL     1       7.342   3.926  -3.383  1.00  0.00     0.004 C 
ATOM      4  C   UNL     1       8.080   3.894  -2.050  1.00  0.00     0.005 C 
ATOM      5  C   UNL     1       7.899   2.469  -1.474  1.00  0.00     0.001 C 
ATOM      6  C   UNL     1       7.235   1.632  -2.592  1.00  0.00    -0.023 C 
ATOM      7  C   UNL     1       7.896   0.234  -2.734  1.00  0.00     0.010 C 
ATOM      8  C   UNL     1       7.920  -0.544  -1.394  1.00  0.00     0.036 C 
ATOM      9  C   UNL     1       6.627  -0.375  -0.521  1.00  0.00     0.065 C 
ATOM     10  C   UNL     1       6.039   1.091  -0.627  1.00  0.00     0.027 C 
ATOM     11  C   UNL     1       5.802   1.416  -2.098  1.00  0.00     0.014 C 
ATOM     12  C   UNL     1       6.996   2.268  -0.202  1.00  0.00    -0.026 C 
ATOM     13  C   UNL     1       6.124   3.508   0.156  1.00  0.00     0.012 C 
ATOM     14  C   UNL     1       7.859   1.981   1.051  1.00  0.00     0.012 C 
ATOM     15  C   UNL     1       5.568  -1.417  -0.965  1.00  0.00     0.042 C 
ENDROOT
BRANCH   9  16
ATOM     16  O   UNL     1       6.918  -0.643   0.831  1.00  0.00    -0.390 OA
ATOM     17  H   UNL     1       6.492   0.061   1.389  1.00  0.00     0.211 HD
ENDBRANCH   9  16
TORSDOF 1
ENDMDL
MODEL 3
REMARK VINA RESULT:    -4.142      1.360      2.443
REMARK INTER + INTRA:          -4.263
REMARK INTER:                  -4.263
REMARK INTRA:                   0.000
REMARK UNBOUND:                 0.000
REMARK SMILES C[C@H]1CC[C@H]2C(C)(C)[C@H]3C[C@@]12CC[C@@]3(C)O
REMARK SMILES IDX 1 1 2 2 3 3 4 4 5 5 11 6 12 7 13 8 14 9 9 10 10 11 6 12 7 13
REMARK SMILES IDX 8 14 15 15 16 16
REMARK H PARENT 16 17
REMARK Flexibility Score: inf
ROOT
ATOM      1  C   UNL     1       7.285  -1.484  -2.986  1.00  0.00     0.008 C 
ATOM      2  C   UNL     1       6.245  -0.734  -2.142  1.00  0.00    -0.008 C 
ATOM      3  C   UNL     1       6.357  -1.047  -0.655  1.00  0.00     0.004 C 
ATOM      4  C   UNL     1       5.633   0.096   0.046  1.00  0.00     0.005 C 
ATOM      5  C   UNL     1       5.720   1.322  -0.894  1.00  0.00     0.001 C 
ATOM      6  C   UNL     1       6.312   0.805  -2.226  1.00  0.00    -0.023 C 
ATOM      7  C   UNL     1       5.552   1.378  -3.453  1.00  0.00     0.010 C 
ATOM      8  C   UNL     1       5.489   2.926  -3.435  1.00  0.00     0.036 C 
ATOM      9  C   UNL     1       6.801   3.625  -2.931  1.00  0.00     0.065 C 
ATOM     10  C   UNL     1       7.488   2.801  -1.766  1.00  0.00     0.027 C 
ATOM     11  C   UNL     1       7.731   1.377  -2.254  1.00  0.00     0.014 C 
ATOM     12  C   UNL     1       6.622   2.542  -0.477  1.00  0.00    -0.026 C 
ATOM     13  C   UNL     1       7.583   2.240   0.712  1.00  0.00     0.012 C 
ATOM     14  C   UNL     1       5.754   3.744  -0.027  1.00  0.00     0.012 C 
ATOM     15  C   UNL     1       7.779   3.802  -4.121  1.00  0.00     0.042 C 
ENDROOT
BRANCH   9  16
ATOM     16  O   UNL     1       6.507   4.916  -2.451  1.00  0.00    -0.390 OA
ATOM     17  H   UNL     1       6.913   5.015  -1.549  1.00  0.00     0.211 HD
ENDBRANCH   9  16
TORSDOF 1
ENDMDL
MODEL 4
REMARK VINA RESULT:    -4.108      1.989      4.315
REMARK INTER + INTRA:          -4.228
REMARK INTER:                  -4.228
REMARK INTRA:                   0.000
REMARK UNBOUND:                 0.000
REMARK SMILES C[C@H]1CC[C@H]2C(C)(C)[C@H]3C[C@@]12CC[C@@]3(C)O
REMARK SMILES IDX 1 1 2 2 3 3 4 4 5 5 11 6 12 7 13 8 14 9 9 10 10 11 6 12 7 13
REMARK SMILES IDX 8 14 15 15 16 16
REMARK H PARENT 16 17
REMARK Flexibility Score: inf
ROOT
ATOM      1  C   UNL     1       9.756   4.467  -1.920  1.00  0.00     0.008 C 
ATOM      2  C   UNL     1       8.407   4.049  -2.523  1.00  0.00    -0.008 C 
ATOM      3  C   UNL     1       8.541   3.489  -3.933  1.00  0.00     0.004 C 
ATOM      4  C   UNL     1       7.258   2.701  -4.170  1.00  0.00     0.005 C 
ATOM      5  C   UNL     1       6.752   2.245  -2.780  1.00  0.00     0.001 C 
ATOM      6  C   UNL     1       7.641   2.963  -1.739  1.00  0.00    -0.023 C 
ATOM      7  C   UNL     1       6.802   3.541  -0.567  1.00  0.00     0.010 C 
ATOM      8  C   UNL     1       5.913   2.464   0.107  1.00  0.00     0.036 C 
ATOM      9  C   UNL     1       6.593   1.057   0.250  1.00  0.00     0.065 C 
ATOM     10  C   UNL     1       7.512   0.724  -0.995  1.00  0.00     0.027 C 
ATOM     11  C   UNL     1       8.525   1.851  -1.169  1.00  0.00     0.014 C 
ATOM     12  C   UNL     1       6.814   0.718  -2.407  1.00  0.00    -0.026 C 
ATOM     13  C   UNL     1       7.680  -0.136  -3.382  1.00  0.00     0.012 C 
ATOM     14  C   UNL     1       5.401   0.084  -2.429  1.00  0.00     0.012 C 
ATOM     15  C   UNL     1       7.420   1.017   1.561  1.00  0.00     0.042 C 
ENDROOT
BRANCH   9  16
ATOM     16  O   UNL     1       5.610   0.054   0.360  1.00  0.00    -0.390 OA
ATOM     17  H   UNL     1       6.050  -0.784   0.663  1.00  0.00     0.211 HD
ENDBRANCH   9  16
TORSDOF 1
ENDMDL
MODEL 5
REMARK VINA RESULT:    -4.101      1.874      3.431
REMARK INTER + INTRA:          -4.221
REMARK INTER:                  -4.221
REMARK INTRA:                   0.000
REMARK UNBOUND:                 0.000
REMARK SMILES C[C@H]1CC[C@H]2C(C)(C)[C@H]3C[C@@]12CC[C@@]3(C)O
REMARK SMILES IDX 1 1 2 2 3 3 4 4 5 5 11 6 12 7 13 8 14 9 9 10 10 11 6 12 7 13
REMARK SMILES IDX 8 14 15 15 16 16
REMARK H PARENT 16 17
REMARK Flexibility Score: inf
ROOT
ATOM      1  C   UNL     1       7.863   0.418   1.258  1.00  0.00     0.008 C 
ATOM      2  C   UNL     1       6.689   1.239   0.704  1.00  0.00    -0.008 C 
ATOM      3  C   UNL     1       6.876   2.738   0.900  1.00  0.00     0.004 C 
ATOM      4  C   UNL     1       5.926   3.389  -0.097  1.00  0.00     0.005 C 
ATOM      5  C   UNL     1       5.738   2.383  -1.258  1.00  0.00     0.001 C 
ATOM      6  C   UNL     1       6.419   1.070  -0.806  1.00  0.00    -0.023 C 
ATOM      7  C   UNL     1       5.546  -0.172  -1.130  1.00  0.00     0.010 C 
ATOM      8  C   UNL     1       5.148  -0.237  -2.626  1.00  0.00     0.036 C 
ATOM      9  C   UNL     1       6.279   0.204  -3.619  1.00  0.00     0.065 C 
ATOM     10  C   UNL     1       7.137   1.399  -3.033  1.00  0.00     0.027 C 
ATOM     11  C   UNL     1       7.680   0.985  -1.669  1.00  0.00     0.014 C 
ATOM     12  C   UNL     1       6.355   2.716  -2.666  1.00  0.00    -0.026 C 
ATOM     13  C   UNL     1       7.366   3.901  -2.648  1.00  0.00     0.012 C 
ATOM     14  C   UNL     1       5.250   3.116  -3.674  1.00  0.00     0.012 C 
ATOM     15  C   UNL     1       7.188  -1.011  -3.936  1.00  0.00     0.042 C 
ENDROOT
BRANCH   9  16
ATOM     16  O   UNL     1       5.715   0.618  -4.842  1.00  0.00    -0.390 OA
ATOM     17  H   UNL     1       4.853   1.074  -4.651  1.00  0.00     0.211 HD
ENDBRANCH   9  16
TORSDOF 1
ENDMDL
MODEL 6
REMARK VINA RESULT:    -4.090      1.036      3.196
REMARK INTER + INTRA:          -4.209
REMARK INTER:                  -4.209
REMARK INTRA:                   0.000
REMARK UNBOUND:                 0.000
REMARK SMILES C[C@H]1CC[C@H]2C(C)(C)[C@H]3C[C@@]12CC[C@@]3(C)O
REMARK SMILES IDX 1 1 2 2 3 3 4 4 5 5 11 6 12 7 13 8 14 9 9 10 10 11 6 12 7 13
REMARK SMILES IDX 8 14 15 15 16 16
REMARK H PARENT 16 17
REMARK Flexibility Score: inf
ROOT
ATOM      1  C   UNL     1       9.239  -0.569   0.338  1.00  0.00     0.008 C 
ATOM      2  C   UNL     1       8.065  -0.365  -0.631  1.00  0.00    -0.008 C 
ATOM      3  C   UNL     1       6.711  -0.605   0.025  1.00  0.00     0.004 C 
ATOM      4  C   UNL     1       5.703   0.092  -0.881  1.00  0.00     0.005 C 
ATOM      5  C   UNL     1       6.463   1.235  -1.597  1.00  0.00     0.001 C 
ATOM      6  C   UNL     1       7.958   1.043  -1.252  1.00  0.00    -0.023 C 
ATOM      7  C   UNL     1       8.864   1.225  -2.501  1.00  0.00     0.010 C 
ATOM      8  C   UNL     1       8.625   2.583  -3.208  1.00  0.00     0.036 C 
ATOM      9  C   UNL     1       8.382   3.789  -2.233  1.00  0.00     0.065 C 
ATOM     10  C   UNL     1       7.552   3.352  -0.959  1.00  0.00     0.027 C 
ATOM     11  C   UNL     1       8.270   2.187  -0.285  1.00  0.00     0.014 C 
ATOM     12  C   UNL     1       6.131   2.726  -1.222  1.00  0.00    -0.026 C 
ATOM     13  C   UNL     1       5.277   2.877   0.072  1.00  0.00     0.012 C 
ATOM     14  C   UNL     1       5.319   3.413  -2.348  1.00  0.00     0.012 C 
ATOM     15  C   UNL     1       9.748   4.391  -1.811  1.00  0.00     0.042 C 
ENDROOT
BRANCH   9  16
ATOM     16  O   UNL     1       7.677   4.812  -2.897  1.00  0.00    -0.390 OA
ATOM     17  H   UNL     1       6.711   4.578  -2.897  1.00  0.00     0.211 HD
ENDBRANCH   9  16
TORSDOF 1
ENDMDL
MODEL 7
REMARK VINA RESULT:    -4.064      8.817     11.432
REMARK INTER + INTRA:          -4.183
REMARK INTER:                  -4.183
REMARK INTRA:                   0.000
REMARK UNBOUND:                 0.000
REMARK SMILES C[C@H]1CC[C@H]2C(C)(C)[C@H]3C[C@@]12CC[C@@]3(C)O
REMARK SMILES IDX 1 1 2 2 3 3 4 4 5 5 11 6 12 7 13 8 14 9 9 10 10 11 6 12 7 13
REMARK SMILES IDX 8 14 15 15 16 16
REMARK H PARENT 16 17
REMARK Flexibility Score: inf
ROOT
ATOM      1  C   UNL     1      -2.600   8.428  -1.057  1.00  0.00     0.008 C 
ATOM      2  C   UNL     1      -3.394   7.135  -0.822  1.00  0.00    -0.008 C 
ATOM      3  C   UNL     1      -4.884   7.302  -1.089  1.00  0.00     0.004 C 
ATOM      4  C   UNL     1      -5.412   5.887  -1.289  1.00  0.00     0.005 C 
ATOM      5  C   UNL     1      -4.226   5.037  -1.805  1.00  0.00     0.001 C 
ATOM      6  C   UNL     1      -2.970   5.933  -1.691  1.00  0.00    -0.023 C 
ATOM      7  C   UNL     1      -1.761   5.155  -1.102  1.00  0.00     0.010 C 
ATOM      8  C   UNL     1      -1.452   3.861  -1.895  1.00  0.00     0.036 C 
ATOM      9  C   UNL     1      -1.612   3.997  -3.450  1.00  0.00     0.065 C 
ATOM     10  C   UNL     1      -2.824   4.942  -3.831  1.00  0.00     0.027 C 
ATOM     11  C   UNL     1      -2.629   6.288  -3.140  1.00  0.00     0.014 C 
ATOM     12  C   UNL     1      -4.243   4.522  -3.292  1.00  0.00    -0.026 C 
ATOM     13  C   UNL     1      -5.329   5.199  -4.181  1.00  0.00     0.012 C 
ATOM     14  C   UNL     1      -4.535   3.003  -3.349  1.00  0.00     0.012 C 
ATOM     15  C   UNL     1      -0.292   4.537  -4.058  1.00  0.00     0.042 C 
ENDROOT
BRANCH   9  16
ATOM     16  O   UNL     1      -1.835   2.731  -4.026  1.00  0.00    -0.390 OA
ATOM     17  H   UNL     1      -2.108   2.103  -3.306  1.00  0.00     0.211 HD
ENDBRANCH   9  16
TORSDOF 1
ENDMDL
MODEL 8
REMARK VINA RESULT:    -3.979      2.238      3.190
REMARK INTER + INTRA:          -4.095
REMARK INTER:                  -4.095
REMARK INTRA:                   0.000
REMARK UNBOUND:                 0.000
REMARK SMILES C[C@H]1CC[C@H]2C(C)(C)[C@H]3C[C@@]12CC[C@@]3(C)O
REMARK SMILES IDX 1 1 2 2 3 3 4 4 5 5 11 6 12 7 13 8 14 9 9 10 10 11 6 12 7 13
REMARK SMILES IDX 8 14 15 15 16 16
REMARK H PARENT 16 17
REMARK Flexibility Score: inf
ROOT
ATOM      1  C   UNL     1       5.220   2.788  -0.027  1.00  0.00     0.008 C 
ATOM      2  C   UNL     1       6.368   3.542  -0.714  1.00  0.00    -0.008 C 
ATOM      3  C   UNL     1       7.716   2.858  -0.526  1.00  0.00     0.004 C 
ATOM      4  C   UNL     1       8.604   3.422  -1.628  1.00  0.00     0.005 C 
ATOM      5  C   UNL     1       7.666   3.846  -2.784  1.00  0.00     0.001 C 
ATOM      6  C   UNL     1       6.224   3.715  -2.241  1.00  0.00    -0.023 C 
ATOM      7  C   UNL     1       5.349   4.938  -2.632  1.00  0.00     0.010 C 
ATOM      8  C   UNL     1       5.348   5.195  -4.159  1.00  0.00     0.036 C 
ATOM      9  C   UNL     1       5.314   3.895  -5.038  1.00  0.00     0.065 C 
ATOM     10  C   UNL     1       6.163   2.729  -4.387  1.00  0.00     0.027 C 
ATOM     11  C   UNL     1       5.659   2.492  -2.967  1.00  0.00     0.014 C 
ATOM     12  C   UNL     1       7.688   3.026  -4.126  1.00  0.00    -0.026 C 
ATOM     13  C   UNL     1       8.445   1.668  -4.024  1.00  0.00     0.012 C 
ATOM     14  C   UNL     1       8.394   3.822  -5.251  1.00  0.00     0.012 C 
ATOM     15  C   UNL     1       3.842   3.448  -5.237  1.00  0.00     0.042 C 
ENDROOT
BRANCH   9  16
ATOM     16  O   UNL     1       5.833   4.164  -6.319  1.00  0.00    -0.390 OA
ATOM     17  H   UNL     1       6.813   4.305  -6.237  1.00  0.00     0.211 HD
ENDBRANCH   9  16
TORSDOF 1
ENDMDL
MODEL 9
REMARK VINA RESULT:    -3.899      1.385      2.774
REMARK INTER + INTRA:          -4.013
REMARK INTER:                  -4.013
REMARK INTRA:                   0.000
REMARK UNBOUND:                 0.000
REMARK SMILES C[C@H]1CC[C@H]2C(C)(C)[C@H]3C[C@@]12CC[C@@]3(C)O
REMARK SMILES IDX 1 1 2 2 3 3 4 4 5 5 11 6 12 7 13 8 14 9 9 10 10 11 6 12 7 13
REMARK SMILES IDX 8 14 15 15 16 16
REMARK H PARENT 16 17
REMARK Flexibility Score: inf
ROOT
ATOM      1  C   UNL     1       7.484   2.286   2.178  1.00  0.00     0.008 C 
ATOM      2  C   UNL     1       8.042   1.461   1.009  1.00  0.00    -0.008 C 
ATOM      3  C   UNL     1       7.736  -0.026   1.140  1.00  0.00     0.004 C 
ATOM      4  C   UNL     1       7.906  -0.590  -0.265  1.00  0.00     0.005 C 
ATOM      5  C   UNL     1       7.630   0.573  -1.249  1.00  0.00     0.001 C 
ATOM      6  C   UNL     1       7.513   1.851  -0.387  1.00  0.00    -0.023 C 
ATOM      7  C   UNL     1       8.286   3.042  -1.016  1.00  0.00     0.010 C 
ATOM      8  C   UNL     1       7.854   3.316  -2.479  1.00  0.00     0.036 C 
ATOM      9  C   UNL     1       6.316   3.153  -2.744  1.00  0.00     0.065 C 
ATOM     10  C   UNL     1       5.701   1.964  -1.899  1.00  0.00     0.027 C 
ATOM     11  C   UNL     1       6.023   2.196  -0.426  1.00  0.00     0.014 C 
ATOM     12  C   UNL     1       6.326   0.536  -2.129  1.00  0.00    -0.026 C 
ATOM     13  C   UNL     1       5.289  -0.535  -1.677  1.00  0.00     0.012 C 
ATOM     14  C   UNL     1       6.662   0.206  -3.604  1.00  0.00     0.012 C 
ATOM     15  C   UNL     1       5.594   4.484  -2.413  1.00  0.00     0.042 C 
ENDROOT
BRANCH   9  16
ATOM     16  O   UNL     1       6.085   2.895  -4.110  1.00  0.00    -0.390 OA
ATOM     17  H   UNL     1       6.436   3.662  -4.636  1.00  0.00     0.211 HD
ENDBRANCH   9  16
TORSDOF 1
ENDMDL
