MODEL 1
REMARK VINA RESULT:    -3.985      0.000      0.000
REMARK INTER + INTRA:          -9.719
REMARK INTER:                  -7.479
REMARK INTRA:                  -2.240
REMARK UNBOUND:                -2.240
REMARK SMILES O=C([O-])CCCCCCCCCCCCCCC(=O)[O-]
REMARK SMILES IDX 10 1 9 2 8 3 7 4 6 5 5 6 4 7 2 8 1 9 3 10 11 11 12 12 13 13
REMARK SMILES IDX 14 14 15 15 16 16 17 17 18 18 19 19 20 20
REMARK H PARENT
REMARK Flexibility Score: inf
ROOT
ATOM      1  C   UNL     1      17.415  51.093  30.958  1.00  0.00     0.000 C 
ENDROOT
BRANCH   1   2
ATOM      2  C   UNL     1      18.500  50.046  30.653  1.00  0.00     0.000 C 
BRANCH   2   3
ATOM      3  C   UNL     1      19.344  50.400  29.420  1.00  0.00     0.000 C 
BRANCH   3   4
ATOM      4  C   UNL     1      19.109  51.857  28.995  1.00  0.00     0.000 C 
BRANCH   4   5
ATOM      5  C   UNL     1      18.799  51.993  27.496  1.00  0.00     0.000 C 
BRANCH   5   6
ATOM      6  C   UNL     1      17.297  52.181  27.215  1.00  0.00     0.006 C 
BRANCH   6   7
ATOM      7  C   UNL     1      16.540  50.845  27.194  1.00  0.00     0.053 C 
BRANCH   7   8
ATOM      8  C   UNL     1      16.191  50.428  25.799  1.00  0.00     0.041 C 
ATOM      9  O   UNL     1      16.378  49.240  25.427  1.00  0.00    -0.550 OA
ATOM     10  O   UNL     1      15.626  51.343  24.919  1.00  0.00    -0.550 OA
ENDBRANCH   7   8
ENDBRANCH   6   7
ENDBRANCH   5   6
ENDBRANCH   4   5
ENDBRANCH   3   4
ENDBRANCH   2   3
ENDBRANCH   1   2
BRANCH   1  11
ATOM     11  C   UNL     1      15.965  50.573  30.886  1.00  0.00     0.000 C 
BRANCH  11  12
ATOM     12  C   UNL     1      14.910  51.633  30.516  1.00  0.00     0.000 C 
BRANCH  12  13
ATOM     13  C   UNL     1      15.477  53.030  30.196  1.00  0.00     0.000 C 
BRANCH  13  14
ATOM     14  C   UNL     1      14.609  53.887  29.253  1.00  0.00     0.000 C 
BRANCH  14  15
ATOM     15  C   UNL     1      13.258  53.262  28.861  1.00  0.00     0.000 C 
BRANCH  15  16
ATOM     16  C   UNL     1      13.250  52.710  27.425  1.00  0.00     0.006 C 
BRANCH  16  17
ATOM     17  C   UNL     1      12.496  53.629  26.456  1.00  0.00     0.053 C 
BRANCH  17  18
ATOM     18  C   UNL     1      13.409  54.222  25.426  1.00  0.00     0.041 C 
ATOM     19  O   UNL     1      13.292  53.901  24.214  1.00  0.00    -0.550 OA
ATOM     20  O   UNL     1      14.407  55.107  25.810  1.00  0.00    -0.550 OA
ENDBRANCH  17  18
ENDBRANCH  16  17
ENDBRANCH  15  16
ENDBRANCH  14  15
ENDBRANCH  13  14
ENDBRANCH  12  13
ENDBRANCH  11  12
ENDBRANCH   1  11
TORSDOF 15
ENDMDL
MODEL 2
REMARK VINA RESULT:    -3.978      1.461      2.283
REMARK INTER + INTRA:          -9.707
REMARK INTER:                  -7.506
REMARK INTRA:                  -2.200
REMARK UNBOUND:                -2.240
REMARK SMILES O=C([O-])CCCCCCCCCCCCCCC(=O)[O-]
REMARK SMILES IDX 10 1 9 2 8 3 7 4 6 5 5 6 4 7 2 8 1 9 3 10 11 11 12 12 13 13
REMARK SMILES IDX 14 14 15 15 16 16 17 17 18 18 19 19 20 20
REMARK H PARENT
REMARK Flexibility Score: inf
ROOT
ATOM      1  C   UNL     1      18.312  50.430  30.723  1.00  0.00     0.000 C 
ENDROOT
BRANCH   1   2
ATOM      2  C   UNL     1      19.265  51.478  30.122  1.00  0.00     0.000 C 
BRANCH   2   3
ATOM      3  C   UNL     1      19.321  51.426  28.588  1.00  0.00     0.000 C 
BRANCH   3   4
ATOM      4  C   UNL     1      17.976  51.846  27.976  1.00  0.00     0.000 C 
BRANCH   4   5
ATOM      5  C   UNL     1      17.202  50.660  27.380  1.00  0.00     0.000 C 
BRANCH   5   6
ATOM      6  C   UNL     1      16.266  51.079  26.232  1.00  0.00     0.006 C 
BRANCH   6   7
ATOM      7  C   UNL     1      16.494  52.535  25.801  1.00  0.00     0.053 C 
BRANCH   7   8
ATOM      8  C   UNL     1      15.486  52.975  24.784  1.00  0.00     0.041 C 
ATOM      9  O   UNL     1      14.882  52.123  24.082  1.00  0.00    -0.550 OA
ATOM     10  O   UNL     1      15.190  54.325  24.636  1.00  0.00    -0.550 OA
ENDBRANCH   7   8
ENDBRANCH   6   7
ENDBRANCH   5   6
ENDBRANCH   4   5
ENDBRANCH   3   4
ENDBRANCH   2   3
ENDBRANCH   1   2
BRANCH   1  11
ATOM     11  C   UNL     1      17.537  50.893  31.973  1.00  0.00     0.000 C 
BRANCH  11  12
ATOM     12  C   UNL     1      16.598  52.094  31.750  1.00  0.00     0.000 C 
BRANCH  12  13
ATOM     13  C   UNL     1      15.471  51.855  30.727  1.00  0.00     0.000 C 
BRANCH  13  14
ATOM     14  C   UNL     1      14.645  53.106  30.360  1.00  0.00     0.000 C 
BRANCH  14  15
ATOM     15  C   UNL     1      15.286  54.023  29.303  1.00  0.00     0.000 C 
BRANCH  15  16
ATOM     16  C   UNL     1      14.333  54.352  28.141  1.00  0.00     0.006 C 
BRANCH  16  17
ATOM     17  C   UNL     1      12.966  53.673  28.305  1.00  0.00     0.053 C 
BRANCH  17  18
ATOM     18  C   UNL     1      12.656  52.763  27.156  1.00  0.00     0.041 C 
ATOM     19  O   UNL     1      12.951  51.540  27.217  1.00  0.00    -0.550 OA
ATOM     20  O   UNL     1      12.066  53.272  26.006  1.00  0.00    -0.550 OA
ENDBRANCH  17  18
ENDBRANCH  16  17
ENDBRANCH  15  16
ENDBRANCH  14  15
ENDBRANCH  13  14
ENDBRANCH  12  13
ENDBRANCH  11  12
ENDBRANCH   1  11
TORSDOF 15
ENDMDL
MODEL 3
REMARK VINA RESULT:    -3.971      3.047      5.432
REMARK INTER + INTRA:          -9.694
REMARK INTER:                  -7.719
REMARK INTRA:                  -1.975
REMARK UNBOUND:                -2.240
REMARK SMILES O=C([O-])CCCCCCCCCCCCCCC(=O)[O-]
REMARK SMILES IDX 10 1 9 2 8 3 7 4 6 5 5 6 4 7 2 8 1 9 3 10 11 11 12 12 13 13
REMARK SMILES IDX 14 14 15 15 16 16 17 17 18 18 19 19 20 20
REMARK H PARENT
REMARK Flexibility Score: inf
ROOT
ATOM      1  C   UNL     1      13.389  53.809  25.119  1.00  0.00     0.000 C 
ENDROOT
BRANCH   1   2
ATOM      2  C   UNL     1      14.810  53.248  25.299  1.00  0.00     0.000 C 
BRANCH   2   3
ATOM      3  C   UNL     1      15.315  52.490  24.064  1.00  0.00     0.000 C 
BRANCH   3   4
ATOM      4  C   UNL     1      15.940  51.144  24.463  1.00  0.00     0.000 C 
BRANCH   4   5
ATOM      5  C   UNL     1      15.604  50.743  25.909  1.00  0.00     0.000 C 
BRANCH   5   6
ATOM      6  C   UNL     1      16.815  50.160  26.659  1.00  0.00     0.006 C 
BRANCH   6   7
ATOM      7  C   UNL     1      17.234  51.033  27.850  1.00  0.00     0.053 C 
BRANCH   7   8
ATOM      8  C   UNL     1      18.491  51.796  27.564  1.00  0.00     0.041 C 
ATOM      9  O   UNL     1      19.421  51.824  28.411  1.00  0.00    -0.550 OA
ATOM     10  O   UNL     1      18.649  52.447  26.346  1.00  0.00    -0.550 OA
ENDBRANCH   7   8
ENDBRANCH   6   7
ENDBRANCH   5   6
ENDBRANCH   4   5
ENDBRANCH   3   4
ENDBRANCH   2   3
ENDBRANCH   1   2
BRANCH   1  11
ATOM     11  C   UNL     1      12.305  53.133  25.984  1.00  0.00     0.000 C 
BRANCH  11  12
ATOM     12  C   UNL     1      12.452  53.352  27.502  1.00  0.00     0.000 C 
BRANCH  12  13
ATOM     13  C   UNL     1      13.042  52.157  28.276  1.00  0.00     0.000 C 
BRANCH  13  14
ATOM     14  C   UNL     1      14.301  52.475  29.109  1.00  0.00     0.000 C 
BRANCH  14  15
ATOM     15  C   UNL     1      14.799  53.928  29.009  1.00  0.00     0.000 C 
BRANCH  15  16
ATOM     16  C   UNL     1      15.729  54.321  30.170  1.00  0.00     0.006 C 
BRANCH  16  17
ATOM     17  C   UNL     1      16.433  53.105  30.785  1.00  0.00     0.053 C 
BRANCH  17  18
ATOM     18  C   UNL     1      16.502  53.198  32.279  1.00  0.00     0.041 C 
ATOM     19  O   UNL     1      16.921  52.222  32.956  1.00  0.00    -0.550 OA
ATOM     20  O   UNL     1      16.075  54.351  32.923  1.00  0.00    -0.550 OA
ENDBRANCH  17  18
ENDBRANCH  16  17
ENDBRANCH  15  16
ENDBRANCH  14  15
ENDBRANCH  13  14
ENDBRANCH  12  13
ENDBRANCH  11  12
ENDBRANCH   1  11
TORSDOF 15
ENDMDL
MODEL 4
REMARK VINA RESULT:    -3.917      2.416      5.545
REMARK INTER + INTRA:          -9.592
REMARK INTER:                  -7.300
REMARK INTRA:                  -2.292
REMARK UNBOUND:                -2.240
REMARK SMILES O=C([O-])CCCCCCCCCCCCCCC(=O)[O-]
REMARK SMILES IDX 10 1 9 2 8 3 7 4 6 5 5 6 4 7 2 8 1 9 3 10 11 11 12 12 13 13
REMARK SMILES IDX 14 14 15 15 16 16 17 17 18 18 19 19 20 20
REMARK H PARENT
REMARK Flexibility Score: inf
ROOT
ATOM      1  C   UNL     1      15.897  50.757  25.651  1.00  0.00     0.000 C 
ENDROOT
BRANCH   1   2
ATOM      2  C   UNL     1      16.481  51.721  24.603  1.00  0.00     0.000 C 
BRANCH   2   3
ATOM      3  C   UNL     1      15.506  52.019  23.455  1.00  0.00     0.000 C 
BRANCH   3   4
ATOM      4  C   UNL     1      14.432  53.025  23.895  1.00  0.00     0.000 C 
BRANCH   4   5
ATOM      5  C   UNL     1      14.996  54.135  24.797  1.00  0.00     0.000 C 
BRANCH   5   6
ATOM      6  C   UNL     1      14.195  54.303  26.101  1.00  0.00     0.006 C 
BRANCH   6   7
ATOM      7  C   UNL     1      12.975  53.372  26.156  1.00  0.00     0.053 C 
BRANCH   7   8
ATOM      8  C   UNL     1      12.848  52.703  27.490  1.00  0.00     0.041 C 
ATOM      9  O   UNL     1      12.828  51.447  27.569  1.00  0.00    -0.550 OA
ATOM     10  O   UNL     1      12.786  53.467  28.649  1.00  0.00    -0.550 OA
ENDBRANCH   7   8
ENDBRANCH   6   7
ENDBRANCH   5   6
ENDBRANCH   4   5
ENDBRANCH   3   4
ENDBRANCH   2   3
ENDBRANCH   1   2
BRANCH   1  11
ATOM     11  C   UNL     1      16.253  51.089  27.115  1.00  0.00     0.000 C 
BRANCH  11  12
ATOM     12  C   UNL     1      17.251  52.250  27.295  1.00  0.00     0.000 C 
BRANCH  12  13
ATOM     13  C   UNL     1      18.671  51.825  27.717  1.00  0.00     0.000 C 
BRANCH  13  14
ATOM     14  C   UNL     1      18.745  50.987  29.010  1.00  0.00     0.000 C 
BRANCH  14  15
ATOM     15  C   UNL     1      18.984  51.795  30.298  1.00  0.00     0.000 C 
BRANCH  15  16
ATOM     16  C   UNL     1      17.864  51.609  31.336  1.00  0.00     0.006 C 
BRANCH  16  17
ATOM     17  C   UNL     1      16.670  50.834  30.766  1.00  0.00     0.053 C 
BRANCH  17  18
ATOM     18  C   UNL     1      15.443  51.690  30.675  1.00  0.00     0.041 C 
ATOM     19  O   UNL     1      14.301  51.159  30.631  1.00  0.00    -0.550 OA
ATOM     20  O   UNL     1      15.563  53.071  30.610  1.00  0.00    -0.550 OA
ENDBRANCH  17  18
ENDBRANCH  16  17
ENDBRANCH  15  16
ENDBRANCH  14  15
ENDBRANCH  13  14
ENDBRANCH  12  13
ENDBRANCH  11  12
ENDBRANCH   1  11
TORSDOF 15
ENDMDL
MODEL 5
REMARK VINA RESULT:    -3.907      1.569      4.328
REMARK INTER + INTRA:          -9.573
REMARK INTER:                  -7.469
REMARK INTRA:                  -2.104
REMARK UNBOUND:                -2.240
REMARK SMILES O=C([O-])CCCCCCCCCCCCCCC(=O)[O-]
REMARK SMILES IDX 10 1 9 2 8 3 7 4 6 5 5 6 4 7 2 8 1 9 3 10 11 11 12 12 13 13
REMARK SMILES IDX 14 14 15 15 16 16 17 17 18 18 19 19 20 20
REMARK H PARENT
REMARK Flexibility Score: inf
ROOT
ATOM      1  C   UNL     1      18.088  51.154  32.150  1.00  0.00     0.000 C 
ENDROOT
BRANCH   1   2
ATOM      2  C   UNL     1      16.783  51.844  31.718  1.00  0.00     0.000 C 
BRANCH   2   3
ATOM      3  C   UNL     1      15.748  50.864  31.147  1.00  0.00     0.000 C 
BRANCH   3   4
ATOM      4  C   UNL     1      14.632  51.616  30.406  1.00  0.00     0.000 C 
BRANCH   4   5
ATOM      5  C   UNL     1      14.988  53.086  30.135  1.00  0.00     0.000 C 
BRANCH   5   6
ATOM      6  C   UNL     1      14.680  53.515  28.690  1.00  0.00     0.006 C 
BRANCH   6   7
ATOM      7  C   UNL     1      13.198  53.865  28.493  1.00  0.00     0.053 C 
BRANCH   7   8
ATOM      8  C   UNL     1      12.555  52.990  27.461  1.00  0.00     0.041 C 
ATOM      9  O   UNL     1      11.720  53.474  26.652  1.00  0.00    -0.550 OA
ATOM     10  O   UNL     1      12.902  51.647  27.371  1.00  0.00    -0.550 OA
ENDBRANCH   7   8
ENDBRANCH   6   7
ENDBRANCH   5   6
ENDBRANCH   4   5
ENDBRANCH   3   4
ENDBRANCH   2   3
ENDBRANCH   1   2
BRANCH   1  11
ATOM     11  C   UNL     1      19.345  51.582  31.364  1.00  0.00     0.000 C 
BRANCH  11  12
ATOM     12  C   UNL     1      19.097  51.946  29.887  1.00  0.00     0.000 C 
BRANCH  12  13
ATOM     13  C   UNL     1      19.527  50.869  28.873  1.00  0.00     0.000 C 
BRANCH  13  14
ATOM     14  C   UNL     1      18.620  49.622  28.820  1.00  0.00     0.000 C 
BRANCH  14  15
ATOM     15  C   UNL     1      17.684  49.547  27.601  1.00  0.00     0.000 C 
BRANCH  15  16
ATOM     16  C   UNL     1      16.810  50.803  27.441  1.00  0.00     0.006 C 
BRANCH  16  17
ATOM     17  C   UNL     1      16.068  50.825  26.098  1.00  0.00     0.053 C 
BRANCH  17  18
ATOM     18  C   UNL     1      16.218  52.143  25.401  1.00  0.00     0.041 C 
ATOM     19  O   UNL     1      15.213  52.878  25.212  1.00  0.00    -0.550 OA
ATOM     20  O   UNL     1      17.462  52.544  24.935  1.00  0.00    -0.550 OA
ENDBRANCH  17  18
ENDBRANCH  16  17
ENDBRANCH  15  16
ENDBRANCH  14  15
ENDBRANCH  13  14
ENDBRANCH  12  13
ENDBRANCH  11  12
ENDBRANCH   1  11
TORSDOF 15
ENDMDL
MODEL 6
REMARK VINA RESULT:    -3.903      2.867      4.909
REMARK INTER + INTRA:          -9.566
REMARK INTER:                  -7.491
REMARK INTRA:                  -2.076
REMARK UNBOUND:                -2.240
REMARK SMILES O=C([O-])CCCCCCCCCCCCCCC(=O)[O-]
REMARK SMILES IDX 10 1 9 2 8 3 7 4 6 5 5 6 4 7 2 8 1 9 3 10 11 11 12 12 13 13
REMARK SMILES IDX 14 14 15 15 16 16 17 17 18 18 19 19 20 20
REMARK H PARENT
REMARK Flexibility Score: inf
ROOT
ATOM      1  C   UNL     1      16.570  51.851  24.987  1.00  0.00     0.000 C 
ENDROOT
BRANCH   1   2
ATOM      2  C   UNL     1      16.309  50.672  25.940  1.00  0.00     0.000 C 
BRANCH   2   3
ATOM      3  C   UNL     1      16.431  51.061  27.420  1.00  0.00     0.000 C 
BRANCH   3   4
ATOM      4  C   UNL     1      17.502  52.145  27.616  1.00  0.00     0.000 C 
BRANCH   4   5
ATOM      5  C   UNL     1      18.865  51.562  28.023  1.00  0.00     0.000 C 
BRANCH   5   6
ATOM      6  C   UNL     1      19.291  51.985  29.440  1.00  0.00     0.006 C 
BRANCH   6   7
ATOM      7  C   UNL     1      19.197  50.826  30.443  1.00  0.00     0.053 C 
BRANCH   7   8
ATOM      8  C   UNL     1      17.849  50.765  31.093  1.00  0.00     0.041 C 
ATOM      9  O   UNL     1      16.966  49.987  30.646  1.00  0.00    -0.550 OA
ATOM     10  O   UNL     1      17.580  51.541  32.213  1.00  0.00    -0.550 OA
ENDBRANCH   7   8
ENDBRANCH   6   7
ENDBRANCH   5   6
ENDBRANCH   4   5
ENDBRANCH   3   4
ENDBRANCH   2   3
ENDBRANCH   1   2
BRANCH   1  11
ATOM     11  C   UNL     1      15.676  51.886  23.730  1.00  0.00     0.000 C 
BRANCH  11  12
ATOM     12  C   UNL     1      14.636  53.023  23.702  1.00  0.00     0.000 C 
BRANCH  12  13
ATOM     13  C   UNL     1      14.540  53.848  25.000  1.00  0.00     0.000 C 
BRANCH  13  14
ATOM     14  C   UNL     1      13.186  53.760  25.732  1.00  0.00     0.000 C 
BRANCH  14  15
ATOM     15  C   UNL     1      13.120  52.713  26.858  1.00  0.00     0.000 C 
BRANCH  15  16
ATOM     16  C   UNL     1      12.962  53.346  28.252  1.00  0.00     0.006 C 
BRANCH  16  17
ATOM     17  C   UNL     1      14.307  53.785  28.843  1.00  0.00     0.053 C 
BRANCH  17  18
ATOM     18  C   UNL     1      14.609  53.077  30.128  1.00  0.00     0.041 C 
ATOM     19  O   UNL     1      14.188  51.905  30.321  1.00  0.00    -0.550 OA
ATOM     20  O   UNL     1      15.331  53.721  31.124  1.00  0.00    -0.550 OA
ENDBRANCH  17  18
ENDBRANCH  16  17
ENDBRANCH  15  16
ENDBRANCH  14  15
ENDBRANCH  13  14
ENDBRANCH  12  13
ENDBRANCH  11  12
ENDBRANCH   1  11
TORSDOF 15
ENDMDL
MODEL 7
REMARK VINA RESULT:    -3.883      0.844      4.594
REMARK INTER + INTRA:          -9.529
REMARK INTER:                  -7.330
REMARK INTRA:                  -2.199
REMARK UNBOUND:                -2.240
REMARK SMILES O=C([O-])CCCCCCCCCCCCCCC(=O)[O-]
REMARK SMILES IDX 10 1 9 2 8 3 7 4 6 5 5 6 4 7 2 8 1 9 3 10 11 11 12 12 13 13
REMARK SMILES IDX 14 14 15 15 16 16 17 17 18 18 19 19 20 20
REMARK H PARENT
REMARK Flexibility Score: inf
ROOT
ATOM      1  C   UNL     1      16.180  50.787  31.689  1.00  0.00     0.000 C 
ENDROOT
BRANCH   1   2
ATOM      2  C   UNL     1      15.368  51.715  30.768  1.00  0.00     0.000 C 
BRANCH   2   3
ATOM      3  C   UNL     1      15.849  53.172  30.812  1.00  0.00     0.000 C 
BRANCH   3   4
ATOM      4  C   UNL     1      15.338  53.956  29.593  1.00  0.00     0.000 C 
BRANCH   4   5
ATOM      5  C   UNL     1      14.151  53.265  28.902  1.00  0.00     0.000 C 
BRANCH   5   6
ATOM      6  C   UNL     1      14.074  53.584  27.399  1.00  0.00     0.006 C 
BRANCH   6   7
ATOM      7  C   UNL     1      12.690  53.271  26.811  1.00  0.00     0.053 C 
BRANCH   7   8
ATOM      8  C   UNL     1      12.570  53.745  25.395  1.00  0.00     0.041 C 
ATOM      9  O   UNL     1      11.443  54.050  24.923  1.00  0.00    -0.550 OA
ATOM     10  O   UNL     1      13.706  53.881  24.607  1.00  0.00    -0.550 OA
ENDBRANCH   7   8
ENDBRANCH   6   7
ENDBRANCH   5   6
ENDBRANCH   4   5
ENDBRANCH   3   4
ENDBRANCH   2   3
ENDBRANCH   1   2
BRANCH   1  11
ATOM     11  C   UNL     1      17.414  50.133  31.034  1.00  0.00     0.000 C 
BRANCH  11  12
ATOM     12  C   UNL     1      18.708  50.967  31.103  1.00  0.00     0.000 C 
BRANCH  12  13
ATOM     13  C   UNL     1      19.698  50.727  29.948  1.00  0.00     0.000 C 
BRANCH  13  14
ATOM     14  C   UNL     1      19.061  50.664  28.544  1.00  0.00     0.000 C 
BRANCH  14  15
ATOM     15  C   UNL     1      18.794  52.030  27.887  1.00  0.00     0.000 C 
BRANCH  15  16
ATOM     16  C   UNL     1      17.456  52.077  27.130  1.00  0.00     0.006 C 
BRANCH  16  17
ATOM     17  C   UNL     1      16.618  50.813  27.359  1.00  0.00     0.053 C 
BRANCH  17  18
ATOM     18  C   UNL     1      16.119  50.235  26.069  1.00  0.00     0.041 C 
ATOM     19  O   UNL     1      16.537  49.115  25.672  1.00  0.00    -0.550 OA
ATOM     20  O   UNL     1      15.213  50.946  25.294  1.00  0.00    -0.550 OA
ENDBRANCH  17  18
ENDBRANCH  16  17
ENDBRANCH  15  16
ENDBRANCH  14  15
ENDBRANCH  13  14
ENDBRANCH  12  13
ENDBRANCH  11  12
ENDBRANCH   1  11
TORSDOF 15
ENDMDL
MODEL 8
REMARK VINA RESULT:    -3.862      1.441      2.136
REMARK INTER + INTRA:          -9.488
REMARK INTER:                  -7.103
REMARK INTRA:                  -2.385
REMARK UNBOUND:                -2.240
REMARK SMILES O=C([O-])CCCCCCCCCCCCCCC(=O)[O-]
REMARK SMILES IDX 10 1 9 2 8 3 7 4 6 5 5 6 4 7 2 8 1 9 3 10 11 11 12 12 13 13
REMARK SMILES IDX 14 14 15 15 16 16 17 17 18 18 19 19 20 20
REMARK H PARENT
REMARK Flexibility Score: inf
ROOT
ATOM      1  C   UNL     1      16.655  50.351  32.484  1.00  0.00     0.000 C 
ENDROOT
BRANCH   1   2
ATOM      2  C   UNL     1      18.128  49.982  32.729  1.00  0.00     0.000 C 
BRANCH   2   3
ATOM      3  C   UNL     1      19.093  51.138  32.428  1.00  0.00     0.000 C 
BRANCH   3   4
ATOM      4  C   UNL     1      19.920  50.848  31.167  1.00  0.00     0.000 C 
BRANCH   4   5
ATOM      5  C   UNL     1      19.577  51.794  30.005  1.00  0.00     0.000 C 
BRANCH   5   6
ATOM      6  C   UNL     1      19.042  51.046  28.770  1.00  0.00     0.006 C 
BRANCH   6   7
ATOM      7  C   UNL     1      18.397  51.997  27.752  1.00  0.00     0.053 C 
BRANCH   7   8
ATOM      8  C   UNL     1      17.394  51.290  26.893  1.00  0.00     0.041 C 
ATOM      9  O   UNL     1      16.897  50.196  27.269  1.00  0.00    -0.550 OA
ATOM     10  O   UNL     1      16.981  51.857  25.693  1.00  0.00    -0.550 OA
ENDBRANCH   7   8
ENDBRANCH   6   7
ENDBRANCH   5   6
ENDBRANCH   4   5
ENDBRANCH   3   4
ENDBRANCH   2   3
ENDBRANCH   1   2
BRANCH   1  11
ATOM     11  C   UNL     1      16.182  50.218  31.022  1.00  0.00     0.000 C 
BRANCH  11  12
ATOM     12  C   UNL     1      15.608  51.508  30.403  1.00  0.00     0.000 C 
BRANCH  12  13
ATOM     13  C   UNL     1      16.119  52.815  31.038  1.00  0.00     0.000 C 
BRANCH  13  14
ATOM     14  C   UNL     1      15.682  54.106  30.316  1.00  0.00     0.000 C 
BRANCH  14  15
ATOM     15  C   UNL     1      15.373  53.943  28.816  1.00  0.00     0.000 C 
BRANCH  15  16
ATOM     16  C   UNL     1      13.972  54.452  28.436  1.00  0.00     0.006 C 
BRANCH  16  17
ATOM     17  C   UNL     1      13.030  53.309  28.038  1.00  0.00     0.053 C 
BRANCH  17  18
ATOM     18  C   UNL     1      13.486  52.621  26.788  1.00  0.00     0.041 C 
ATOM     19  O   UNL     1      13.726  51.384  26.796  1.00  0.00    -0.550 OA
ATOM     20  O   UNL     1      13.674  53.351  25.622  1.00  0.00    -0.550 OA
ENDBRANCH  17  18
ENDBRANCH  16  17
ENDBRANCH  15  16
ENDBRANCH  14  15
ENDBRANCH  13  14
ENDBRANCH  12  13
ENDBRANCH  11  12
ENDBRANCH   1  11
TORSDOF 15
ENDMDL
MODEL 9
REMARK VINA RESULT:    -3.859      9.452     11.550
REMARK INTER + INTRA:          -9.483
REMARK INTER:                  -7.171
REMARK INTRA:                  -2.311
REMARK UNBOUND:                -2.240
REMARK SMILES O=C([O-])CCCCCCCCCCCCCCC(=O)[O-]
REMARK SMILES IDX 10 1 9 2 8 3 7 4 6 5 5 6 4 7 2 8 1 9 3 10 11 11 12 12 13 13
REMARK SMILES IDX 14 14 15 15 16 16 17 17 18 18 19 19 20 20
REMARK H PARENT
REMARK Flexibility Score: inf
ROOT
ATOM      1  C   UNL     1      19.618  49.835  38.347  1.00  0.00     0.000 C 
ENDROOT
BRANCH   1   2
ATOM      2  C   UNL     1      21.151  49.932  38.255  1.00  0.00     0.000 C 
BRANCH   2   3
ATOM      3  C   UNL     1      21.628  51.193  37.520  1.00  0.00     0.000 C 
BRANCH   3   4
ATOM      4  C   UNL     1      20.447  52.126  37.209  1.00  0.00     0.000 C 
BRANCH   4   5
ATOM      5  C   UNL     1      20.517  53.448  37.991  1.00  0.00     0.000 C 
BRANCH   5   6
ATOM      6  C   UNL     1      21.719  53.505  38.951  1.00  0.00     0.006 C 
BRANCH   6   7
ATOM      7  C   UNL     1      21.290  53.407  40.422  1.00  0.00     0.053 C 
BRANCH   7   8
ATOM      8  C   UNL     1      21.952  52.257  41.116  1.00  0.00     0.041 C 
ATOM      9  O   UNL     1      21.363  51.660  42.056  1.00  0.00    -0.550 OA
ATOM     10  O   UNL     1      23.206  51.822  40.704  1.00  0.00    -0.550 OA
ENDBRANCH   7   8
ENDBRANCH   6   7
ENDBRANCH   5   6
ENDBRANCH   4   5
ENDBRANCH   3   4
ENDBRANCH   2   3
ENDBRANCH   1   2
BRANCH   1  11
ATOM     11  C   UNL     1      19.039  49.971  39.769  1.00  0.00     0.000 C 
BRANCH  11  12
ATOM     12  C   UNL     1      18.376  51.329  40.076  1.00  0.00     0.000 C 
BRANCH  12  13
ATOM     13  C   UNL     1      16.870  51.402  39.759  1.00  0.00     0.000 C 
BRANCH  13  14
ATOM     14  C   UNL     1      16.524  51.557  38.264  1.00  0.00     0.000 C 
BRANCH  14  15
ATOM     15  C   UNL     1      16.021  50.276  37.574  1.00  0.00     0.000 C 
BRANCH  15  16
ATOM     16  C   UNL     1      16.223  50.300  36.050  1.00  0.00     0.006 C 
BRANCH  16  17
ATOM     17  C   UNL     1      17.217  51.384  35.615  1.00  0.00     0.053 C 
BRANCH  17  18
ATOM     18  C   UNL     1      18.174  50.879  34.578  1.00  0.00     0.041 C 
ATOM     19  O   UNL     1      18.789  51.689  33.834  1.00  0.00    -0.550 OA
ATOM     20  O   UNL     1      18.365  49.514  34.416  1.00  0.00    -0.550 OA
ENDBRANCH  17  18
ENDBRANCH  16  17
ENDBRANCH  15  16
ENDBRANCH  14  15
ENDBRANCH  13  14
ENDBRANCH  12  13
ENDBRANCH  11  12
ENDBRANCH   1  11
TORSDOF 15
ENDMDL
