MODEL 1
REMARK VINA RESULT:    -8.431      0.000      0.000
REMARK INTER + INTRA:         -10.397
REMARK INTER:                 -10.403
REMARK INTRA:                   0.005
REMARK UNBOUND:                 0.005
REMARK SMILES Oc1cc(O)c2cc(O)c(-c3cc(O)c(O)c(O)c3)[o+]c2c1
REMARK SMILES IDX 10 1 20 2 21 3 22 4 2 5 3 6 4 7 6 8 7 9 8 10 11 11 12 12
REMARK SMILES IDX 13 13 19 14 15 15 17 16 14 17 16 19 18 21 9 23 1 25 5 27
REMARK H PARENT 14 18 16 20 18 22 9 24 1 26 5 28
REMARK Flexibility Score: inf
ROOT
ATOM      1  C   UNL     1      17.483  25.558   0.065  1.00  0.00     0.402 A 
ATOM      2  O   UNL     1      16.951  26.646   0.614  1.00  0.00    -0.202 OA
ATOM      3  C   UNL     1      17.570  27.823   0.649  1.00  0.00     0.368 A 
ATOM      4  C   UNL     1      16.927  28.911   1.245  1.00  0.00     0.162 A 
ATOM      5  C   UNL     1      17.550  30.158   1.294  1.00  0.00     0.128 A 
ATOM      6  C   UNL     1      18.825  30.321   0.740  1.00  0.00     0.093 A 
ATOM      7  C   UNL     1      19.490  29.246   0.136  1.00  0.00     0.136 A 
ATOM      8  C   UNL     1      18.860  27.976   0.089  1.00  0.00     0.125 A 
ATOM      9  C   UNL     1      19.456  26.840  -0.485  1.00  0.00     0.078 A 
ATOM     10  C   UNL     1      18.774  25.619  -0.491  1.00  0.00     0.223 A 
ENDROOT
BRANCH   1  11
ATOM     11  C   UNL     1      16.691  24.306   0.080  1.00  0.00     0.091 A 
ATOM     12  C   UNL     1      15.337  24.294  -0.286  1.00  0.00     0.068 A 
ATOM     13  C   UNL     1      14.600  23.104  -0.243  1.00  0.00     0.162 A 
ATOM     14  C   UNL     1      17.288  23.118   0.525  1.00  0.00     0.068 A 
ATOM     15  C   UNL     1      15.205  21.911   0.179  1.00  0.00     0.200 A 
ATOM     16  C   UNL     1      16.564  21.921   0.573  1.00  0.00     0.162 A 
BRANCH  13  17
ATOM     17  O   UNL     1      13.256  23.098  -0.616  1.00  0.00    -0.504 OA
ATOM     18  H   UNL     1      12.614  22.390  -0.278  1.00  0.00     0.293 HD
ENDBRANCH  13  17
BRANCH  15  19
ATOM     19  O   UNL     1      14.426  20.751   0.197  1.00  0.00    -0.502 OA
ATOM     20  H   UNL     1      14.191  20.241   1.036  1.00  0.00     0.293 HD
ENDBRANCH  15  19
BRANCH  16  21
ATOM     21  O   UNL     1      17.230  20.776   1.015  1.00  0.00    -0.504 OA
ATOM     22  H   UNL     1      16.770  19.905   1.240  1.00  0.00     0.293 HD
ENDBRANCH  16  21
ENDBRANCH   1  11
BRANCH  10  23
ATOM     23  O   UNL     1      19.385  24.480  -1.015  1.00  0.00    -0.500 OA
ATOM     24  H   UNL     1      18.927  23.576  -1.004  1.00  0.00     0.294 HD
ENDBRANCH  10  23
BRANCH   5  25
ATOM     25  O   UNL     1      16.895  31.231   1.893  1.00  0.00    -0.507 OA
ATOM     26  H   UNL     1      17.374  32.100   2.093  1.00  0.00     0.293 HD
ENDBRANCH   5  25
BRANCH   7  27
ATOM     27  O   UNL     1      20.759  29.492  -0.396  1.00  0.00    -0.507 OA
ATOM     28  H   UNL     1      21.479  30.025   0.070  1.00  0.00     0.293 HD
ENDBRANCH   7  27
TORSDOF 7
ENDMDL
MODEL 2
REMARK VINA RESULT:    -8.388      0.068      1.800
REMARK INTER + INTRA:         -10.345
REMARK INTER:                 -10.330
REMARK INTRA:                  -0.014
REMARK UNBOUND:                 0.005
REMARK SMILES Oc1cc(O)c2cc(O)c(-c3cc(O)c(O)c(O)c3)[o+]c2c1
REMARK SMILES IDX 10 1 20 2 21 3 22 4 2 5 3 6 4 7 6 8 7 9 8 10 11 11 12 12
REMARK SMILES IDX 13 13 19 14 15 15 17 16 14 17 16 19 18 21 9 23 1 25 5 27
REMARK H PARENT 14 18 16 20 18 22 9 24 1 26 5 28
REMARK Flexibility Score: inf
ROOT
ATOM      1  C   UNL     1      17.506  25.526   0.118  1.00  0.00     0.402 A 
ATOM      2  O   UNL     1      16.984  26.612   0.680  1.00  0.00    -0.202 OA
ATOM      3  C   UNL     1      17.595  27.793   0.691  1.00  0.00     0.368 A 
ATOM      4  C   UNL     1      16.964  28.879   1.304  1.00  0.00     0.162 A 
ATOM      5  C   UNL     1      17.580  30.130   1.329  1.00  0.00     0.128 A 
ATOM      6  C   UNL     1      18.835  30.301   0.733  1.00  0.00     0.093 A 
ATOM      7  C   UNL     1      19.487  29.229   0.112  1.00  0.00     0.136 A 
ATOM      8  C   UNL     1      18.866  27.954   0.089  1.00  0.00     0.125 A 
ATOM      9  C   UNL     1      19.451  26.820  -0.500  1.00  0.00     0.078 A 
ATOM     10  C   UNL     1      18.778  25.594  -0.480  1.00  0.00     0.223 A 
ENDROOT
BRANCH   1  11
ATOM     11  C   UNL     1      16.724  24.269   0.163  1.00  0.00     0.091 A 
ATOM     12  C   UNL     1      17.309  23.057   0.558  1.00  0.00     0.068 A 
ATOM     13  C   UNL     1      16.559  21.875   0.571  1.00  0.00     0.162 A 
ATOM     14  C   UNL     1      15.384  24.275  -0.253  1.00  0.00     0.068 A 
ATOM     15  C   UNL     1      15.212  21.888   0.178  1.00  0.00     0.200 A 
ATOM     16  C   UNL     1      14.621  23.102  -0.244  1.00  0.00     0.162 A 
BRANCH  13  17
ATOM     17  O   UNL     1      17.146  20.676   0.972  1.00  0.00    -0.504 OA
ATOM     18  H   UNL     1      18.033  20.657   1.463  1.00  0.00     0.293 HD
ENDBRANCH  13  17
BRANCH  15  19
ATOM     19  O   UNL     1      14.507  20.682   0.216  1.00  0.00    -0.502 OA
ATOM     20  H   UNL     1      13.629  20.525  -0.258  1.00  0.00     0.293 HD
ENDBRANCH  15  19
BRANCH  16  21
ATOM     21  O   UNL     1      13.291  23.189  -0.660  1.00  0.00    -0.504 OA
ATOM     22  H   UNL     1      13.006  23.428  -1.600  1.00  0.00     0.293 HD
ENDBRANCH  16  21
ENDBRANCH   1  11
BRANCH  10  23
ATOM     23  O   UNL     1      19.380  24.458  -1.019  1.00  0.00    -0.500 OA
ATOM     24  H   UNL     1      20.017  23.885  -0.479  1.00  0.00     0.294 HD
ENDBRANCH  10  23
BRANCH   5  25
ATOM     25  O   UNL     1      16.936  31.201   1.945  1.00  0.00    -0.507 OA
ATOM     26  H   UNL     1      16.295  31.798   1.436  1.00  0.00     0.293 HD
ENDBRANCH   5  25
BRANCH   7  27
ATOM     27  O   UNL     1      20.737  29.481  -0.462  1.00  0.00    -0.507 OA
ATOM     28  H   UNL     1      21.607  29.492   0.050  1.00  0.00     0.293 HD
ENDBRANCH   7  27
TORSDOF 7
ENDMDL
MODEL 3
REMARK VINA RESULT:    -8.121      1.127      7.416
REMARK INTER + INTRA:         -10.015
REMARK INTER:                  -9.945
REMARK INTRA:                  -0.070
REMARK UNBOUND:                 0.005
REMARK SMILES Oc1cc(O)c2cc(O)c(-c3cc(O)c(O)c(O)c3)[o+]c2c1
REMARK SMILES IDX 10 1 20 2 21 3 22 4 2 5 3 6 4 7 6 8 7 9 8 10 11 11 12 12
REMARK SMILES IDX 13 13 19 14 15 15 17 16 14 17 16 19 18 21 9 23 1 25 5 27
REMARK H PARENT 14 18 16 20 18 22 9 24 1 26 5 28
REMARK Flexibility Score: inf
ROOT
ATOM      1  C   UNL     1      16.714  26.774   0.229  1.00  0.00     0.402 A 
ATOM      2  O   UNL     1      17.255  25.597   0.527  1.00  0.00    -0.202 OA
ATOM      3  C   UNL     1      16.605  24.443   0.407  1.00  0.00     0.368 A 
ATOM      4  C   UNL     1      17.260  23.256   0.742  1.00  0.00     0.162 A 
ATOM      5  C   UNL     1      16.603  22.030   0.624  1.00  0.00     0.128 A 
ATOM      6  C   UNL     1      15.282  21.989   0.165  1.00  0.00     0.093 A 
ATOM      7  C   UNL     1      14.604  23.166  -0.178  1.00  0.00     0.136 A 
ATOM      8  C   UNL     1      15.267  24.414  -0.055  1.00  0.00     0.125 A 
ATOM      9  C   UNL     1      14.662  25.644  -0.364  1.00  0.00     0.078 A 
ATOM     10  C   UNL     1      15.379  26.835  -0.213  1.00  0.00     0.223 A 
ENDROOT
BRANCH   1  11
ATOM     11  C   UNL     1      17.544  27.990   0.396  1.00  0.00     0.091 A 
ATOM     12  C   UNL     1      18.817  28.090  -0.183  1.00  0.00     0.068 A 
ATOM     13  C   UNL     1      19.596  29.239   0.005  1.00  0.00     0.162 A 
ATOM     14  C   UNL     1      17.074  29.041   1.197  1.00  0.00     0.068 A 
ATOM     15  C   UNL     1      19.114  30.300   0.786  1.00  0.00     0.200 A 
ATOM     16  C   UNL     1      17.840  30.196   1.393  1.00  0.00     0.162 A 
BRANCH  13  17
ATOM     17  O   UNL     1      20.857  29.334  -0.580  1.00  0.00    -0.504 OA
ATOM     18  H   UNL     1      21.000  29.819  -1.460  1.00  0.00     0.293 HD
ENDBRANCH  13  17
BRANCH  15  19
ATOM     19  O   UNL     1      19.928  31.425   0.937  1.00  0.00    -0.502 OA
ATOM     20  H   UNL     1      20.666  31.502   1.622  1.00  0.00     0.293 HD
ENDBRANCH  15  19
BRANCH  16  21
ATOM     21  O   UNL     1      17.301  31.205   2.193  1.00  0.00    -0.504 OA
ATOM     22  H   UNL     1      17.848  31.931   2.635  1.00  0.00     0.293 HD
ENDBRANCH  16  21
ENDBRANCH   1  11
BRANCH  10  23
ATOM     23  O   UNL     1      14.763  28.059  -0.471  1.00  0.00    -0.500 OA
ATOM     24  H   UNL     1      15.165  28.935  -0.159  1.00  0.00     0.294 HD
ENDBRANCH  10  23
BRANCH   5  25
ATOM     25  O   UNL     1      17.273  20.857   0.964  1.00  0.00    -0.507 OA
ATOM     26  H   UNL     1      17.206  20.458   1.892  1.00  0.00     0.293 HD
ENDBRANCH   5  25
BRANCH   7  27
ATOM     27  O   UNL     1      13.287  23.041  -0.631  1.00  0.00    -0.507 OA
ATOM     28  H   UNL     1      12.489  23.474  -0.190  1.00  0.00     0.293 HD
ENDBRANCH   7  27
TORSDOF 7
ENDMDL
MODEL 4
REMARK VINA RESULT:    -8.111      1.273      7.336
REMARK INTER + INTRA:         -10.003
REMARK INTER:                  -9.895
REMARK INTRA:                  -0.107
REMARK UNBOUND:                 0.005
REMARK SMILES Oc1cc(O)c2cc(O)c(-c3cc(O)c(O)c(O)c3)[o+]c2c1
REMARK SMILES IDX 10 1 20 2 21 3 22 4 2 5 3 6 4 7 6 8 7 9 8 10 11 11 12 12
REMARK SMILES IDX 13 13 19 14 15 15 17 16 14 17 16 19 18 21 9 23 1 25 5 27
REMARK H PARENT 14 18 16 20 18 22 9 24 1 26 5 28
REMARK Flexibility Score: inf
ROOT
ATOM      1  C   UNL     1      17.165  26.002   0.544  1.00  0.00     0.402 A 
ATOM      2  O   UNL     1      17.775  24.821   0.543  1.00  0.00    -0.202 OA
ATOM      3  C   UNL     1      17.124  23.662   0.519  1.00  0.00     0.368 A 
ATOM      4  C   UNL     1      17.855  22.471   0.516  1.00  0.00     0.162 A 
ATOM      5  C   UNL     1      17.198  21.241   0.489  1.00  0.00     0.128 A 
ATOM      6  C   UNL     1      15.799  21.198   0.462  1.00  0.00     0.093 A 
ATOM      7  C   UNL     1      15.044  22.378   0.463  1.00  0.00     0.136 A 
ATOM      8  C   UNL     1      15.709  23.631   0.495  1.00  0.00     0.125 A 
ATOM      9  C   UNL     1      15.034  24.863   0.512  1.00  0.00     0.078 A 
ATOM     10  C   UNL     1      15.759  26.059   0.547  1.00  0.00     0.223 A 
ENDROOT
BRANCH   1  11
ATOM     11  C   UNL     1      18.002  27.225   0.562  1.00  0.00     0.091 A 
ATOM     12  C   UNL     1      17.840  28.207   1.550  1.00  0.00     0.068 A 
ATOM     13  C   UNL     1      18.625  29.366   1.536  1.00  0.00     0.162 A 
ATOM     14  C   UNL     1      18.937  27.435  -0.462  1.00  0.00     0.068 A 
ATOM     15  C   UNL     1      19.577  29.563   0.525  1.00  0.00     0.200 A 
ATOM     16  C   UNL     1      19.730  28.588  -0.488  1.00  0.00     0.162 A 
BRANCH  13  17
ATOM     17  O   UNL     1      18.463  30.335   2.525  1.00  0.00    -0.504 OA
ATOM     18  H   UNL     1      17.856  31.136   2.390  1.00  0.00     0.293 HD
ENDBRANCH  13  17
BRANCH  15  19
ATOM     19  O   UNL     1      20.339  30.734   0.562  1.00  0.00    -0.502 OA
ATOM     20  H   UNL     1      21.347  30.755   0.511  1.00  0.00     0.293 HD
ENDBRANCH  15  19
BRANCH  16  21
ATOM     21  O   UNL     1      20.648  28.721  -1.532  1.00  0.00    -0.504 OA
ATOM     22  H   UNL     1      21.613  28.993  -1.406  1.00  0.00     0.293 HD
ENDBRANCH  16  21
ENDBRANCH   1  11
BRANCH  10  23
ATOM     23  O   UNL     1      15.089  27.280   0.614  1.00  0.00    -0.500 OA
ATOM     24  H   UNL     1      15.583  28.151   0.772  1.00  0.00     0.294 HD
ENDBRANCH  10  23
BRANCH   5  25
ATOM     25  O   UNL     1      17.943  20.064   0.487  1.00  0.00    -0.507 OA
ATOM     26  H   UNL     1      18.910  20.048   0.788  1.00  0.00     0.293 HD
ENDBRANCH   5  25
BRANCH   7  27
ATOM     27  O   UNL     1      13.652  22.251   0.432  1.00  0.00    -0.507 OA
ATOM     28  H   UNL     1      13.009  22.940   0.795  1.00  0.00     0.293 HD
ENDBRANCH   7  27
TORSDOF 7
ENDMDL
MODEL 5
REMARK VINA RESULT:    -7.787      1.714      2.584
REMARK INTER + INTRA:          -9.603
REMARK INTER:                  -9.777
REMARK INTRA:                   0.174
REMARK UNBOUND:                 0.005
REMARK SMILES Oc1cc(O)c2cc(O)c(-c3cc(O)c(O)c(O)c3)[o+]c2c1
REMARK SMILES IDX 10 1 20 2 21 3 22 4 2 5 3 6 4 7 6 8 7 9 8 10 11 11 12 12
REMARK SMILES IDX 13 13 19 14 15 15 17 16 14 17 16 19 18 21 9 23 1 25 5 27
REMARK H PARENT 14 18 16 20 18 22 9 24 1 26 5 28
REMARK Flexibility Score: inf
ROOT
ATOM      1  C   UNL     1      16.087  26.247   0.582  1.00  0.00     0.402 A 
ATOM      2  O   UNL     1      17.160  26.741   1.191  1.00  0.00    -0.202 OA
ATOM      3  C   UNL     1      17.383  28.044   1.335  1.00  0.00     0.368 A 
ATOM      4  C   UNL     1      18.540  28.467   1.995  1.00  0.00     0.162 A 
ATOM      5  C   UNL     1      18.798  29.828   2.163  1.00  0.00     0.128 A 
ATOM      6  C   UNL     1      17.892  30.775   1.671  1.00  0.00     0.093 A 
ATOM      7  C   UNL     1      16.725  30.376   1.007  1.00  0.00     0.136 A 
ATOM      8  C   UNL     1      16.462  28.993   0.831  1.00  0.00     0.125 A 
ATOM      9  C   UNL     1      15.325  28.502   0.167  1.00  0.00     0.078 A 
ATOM     10  C   UNL     1      15.135  27.124   0.029  1.00  0.00     0.223 A 
ENDROOT
BRANCH   1  11
ATOM     11  C   UNL     1      15.947  24.775   0.492  1.00  0.00     0.091 A 
ATOM     12  C   UNL     1      14.686  24.162   0.440  1.00  0.00     0.068 A 
ATOM     13  C   UNL     1      14.574  22.768   0.379  1.00  0.00     0.162 A 
ATOM     14  C   UNL     1      17.095  23.970   0.520  1.00  0.00     0.068 A 
ATOM     15  C   UNL     1      15.725  21.965   0.382  1.00  0.00     0.200 A 
ATOM     16  C   UNL     1      16.999  22.575   0.459  1.00  0.00     0.162 A 
BRANCH  13  17
ATOM     17  O   UNL     1      13.318  22.167   0.319  1.00  0.00    -0.504 OA
ATOM     18  H   UNL     1      12.589  22.520  -0.291  1.00  0.00     0.293 HD
ENDBRANCH  13  17
BRANCH  15  19
ATOM     19  O   UNL     1      15.558  20.580   0.313  1.00  0.00    -0.502 OA
ATOM     20  H   UNL     1      16.190  19.913   0.730  1.00  0.00     0.293 HD
ENDBRANCH  15  19
BRANCH  16  21
ATOM     21  O   UNL     1      18.187  21.841   0.478  1.00  0.00    -0.504 OA
ATOM     22  H   UNL     1      18.375  21.052  -0.125  1.00  0.00     0.293 HD
ENDBRANCH  16  21
ENDBRANCH   1  11
BRANCH  10  23
ATOM     23  O   UNL     1      14.033  26.637  -0.673  1.00  0.00    -0.500 OA
ATOM     24  H   UNL     1      14.129  26.208  -1.586  1.00  0.00     0.294 HD
ENDBRANCH  10  23
BRANCH   5  25
ATOM     25  O   UNL     1      19.956  30.231   2.823  1.00  0.00    -0.507 OA
ATOM     26  H   UNL     1      19.965  31.038   3.435  1.00  0.00     0.293 HD
ENDBRANCH   5  25
BRANCH   7  27
ATOM     27  O   UNL     1      15.871  31.382   0.547  1.00  0.00    -0.507 OA
ATOM     28  H   UNL     1      14.969  31.216   0.124  1.00  0.00     0.293 HD
ENDBRANCH   7  27
TORSDOF 7
ENDMDL
MODEL 6
REMARK VINA RESULT:    -7.003      4.563      6.532
REMARK INTER + INTRA:          -8.636
REMARK INTER:                  -8.252
REMARK INTRA:                  -0.384
REMARK UNBOUND:                 0.005
REMARK SMILES Oc1cc(O)c2cc(O)c(-c3cc(O)c(O)c(O)c3)[o+]c2c1
REMARK SMILES IDX 10 1 20 2 21 3 22 4 2 5 3 6 4 7 6 8 7 9 8 10 11 11 12 12
REMARK SMILES IDX 13 13 19 14 15 15 17 16 14 17 16 19 18 21 9 23 1 25 5 27
REMARK H PARENT 14 18 16 20 18 22 9 24 1 26 5 28
REMARK Flexibility Score: inf
ROOT
ATOM      1  C   UNL     1      16.554  26.652  -3.208  1.00  0.00     0.402 A 
ATOM      2  O   UNL     1      17.800  26.684  -3.671  1.00  0.00    -0.202 OA
ATOM      3  C   UNL     1      18.105  26.536  -4.957  1.00  0.00     0.368 A 
ATOM      4  C   UNL     1      19.445  26.588  -5.348  1.00  0.00     0.162 A 
ATOM      5  C   UNL     1      19.794  26.438  -6.691  1.00  0.00     0.128 A 
ATOM      6  C   UNL     1      18.797  26.237  -7.652  1.00  0.00     0.093 A 
ATOM      7  C   UNL     1      17.446  26.181  -7.285  1.00  0.00     0.136 A 
ATOM      8  C   UNL     1      17.088  26.329  -5.920  1.00  0.00     0.125 A 
ATOM      9  C   UNL     1      15.762  26.274  -5.459  1.00  0.00     0.078 A 
ATOM     10  C   UNL     1      15.487  26.425  -4.096  1.00  0.00     0.223 A 
ENDROOT
BRANCH   1  11
ATOM     11  C   UNL     1      16.342  26.839  -1.754  1.00  0.00     0.091 A 
ATOM     12  C   UNL     1      16.052  28.101  -1.214  1.00  0.00     0.068 A 
ATOM     13  C   UNL     1      15.877  28.261   0.166  1.00  0.00     0.162 A 
ATOM     14  C   UNL     1      16.491  25.745  -0.889  1.00  0.00     0.068 A 
ATOM     15  C   UNL     1      16.002  27.162   1.027  1.00  0.00     0.200 A 
ATOM     16  C   UNL     1      16.319  25.890   0.493  1.00  0.00     0.162 A 
BRANCH  13  17
ATOM     17  O   UNL     1      15.581  29.517   0.694  1.00  0.00    -0.504 OA
ATOM     18  H   UNL     1      15.383  29.645   1.680  1.00  0.00     0.293 HD
ENDBRANCH  13  17
BRANCH  15  19
ATOM     19  O   UNL     1      15.812  27.375   2.395  1.00  0.00    -0.502 OA
ATOM     20  H   UNL     1      16.560  27.406   3.072  1.00  0.00     0.293 HD
ENDBRANCH  15  19
BRANCH  16  21
ATOM     21  O   UNL     1      16.471  24.753   1.289  1.00  0.00    -0.504 OA
ATOM     22  H   UNL     1      17.041  24.717   2.122  1.00  0.00     0.293 HD
ENDBRANCH  16  21
ENDBRANCH   1  11
BRANCH  10  23
ATOM     23  O   UNL     1      14.176  26.321  -3.632  1.00  0.00    -0.500 OA
ATOM     24  H   UNL     1      13.818  25.460  -3.234  1.00  0.00     0.294 HD
ENDBRANCH  10  23
BRANCH   5  25
ATOM     25  O   UNL     1      21.136  26.493  -7.062  1.00  0.00    -0.507 OA
ATOM     26  H   UNL     1      21.696  27.323  -6.907  1.00  0.00     0.293 HD
ENDBRANCH   5  25
BRANCH   7  27
ATOM     27  O   UNL     1      16.511  25.979  -8.304  1.00  0.00    -0.507 OA
ATOM     28  H   UNL     1      16.018  26.721  -8.780  1.00  0.00     0.293 HD
ENDBRANCH   7  27
TORSDOF 7
ENDMDL
MODEL 7
REMARK VINA RESULT:    -6.964      4.523      6.417
REMARK INTER + INTRA:          -8.588
REMARK INTER:                  -8.384
REMARK INTRA:                  -0.203
REMARK UNBOUND:                 0.005
REMARK SMILES Oc1cc(O)c2cc(O)c(-c3cc(O)c(O)c(O)c3)[o+]c2c1
REMARK SMILES IDX 10 1 20 2 21 3 22 4 2 5 3 6 4 7 6 8 7 9 8 10 11 11 12 12
REMARK SMILES IDX 13 13 19 14 15 15 17 16 14 17 16 19 18 21 9 23 1 25 5 27
REMARK H PARENT 14 18 16 20 18 22 9 24 1 26 5 28
REMARK Flexibility Score: inf
ROOT
ATOM      1  C   UNL     1      17.058  26.709  -2.799  1.00  0.00     0.402 A 
ATOM      2  O   UNL     1      15.911  26.681  -3.472  1.00  0.00    -0.202 OA
ATOM      3  C   UNL     1      15.845  26.632  -4.799  1.00  0.00     0.368 A 
ATOM      4  C   UNL     1      14.591  26.602  -5.416  1.00  0.00     0.162 A 
ATOM      5  C   UNL     1      14.491  26.548  -6.807  1.00  0.00     0.128 A 
ATOM      6  C   UNL     1      15.651  26.521  -7.588  1.00  0.00     0.093 A 
ATOM      7  C   UNL     1      16.919  26.549  -6.993  1.00  0.00     0.136 A 
ATOM      8  C   UNL     1      17.025  26.608  -5.580  1.00  0.00     0.125 A 
ATOM      9  C   UNL     1      18.253  26.653  -4.899  1.00  0.00     0.078 A 
ATOM     10  C   UNL     1      18.277  26.714  -3.502  1.00  0.00     0.223 A 
ENDROOT
BRANCH   1  11
ATOM     11  C   UNL     1      17.001  26.753  -1.319  1.00  0.00     0.091 A 
ATOM     12  C   UNL     1      17.595  25.753  -0.535  1.00  0.00     0.068 A 
ATOM     13  C   UNL     1      17.510  25.801   0.862  1.00  0.00     0.162 A 
ATOM     14  C   UNL     1      16.291  27.784  -0.687  1.00  0.00     0.068 A 
ATOM     15  C   UNL     1      16.820  26.846   1.494  1.00  0.00     0.200 A 
ATOM     16  C   UNL     1      16.199  27.845   0.708  1.00  0.00     0.162 A 
BRANCH  13  17
ATOM     17  O   UNL     1      18.109  24.808   1.635  1.00  0.00    -0.504 OA
ATOM     18  H   UNL     1      18.851  24.222   1.266  1.00  0.00     0.293 HD
ENDBRANCH  13  17
BRANCH  15  19
ATOM     19  O   UNL     1      16.772  26.850   2.890  1.00  0.00    -0.502 OA
ATOM     20  H   UNL     1      17.567  26.664   3.484  1.00  0.00     0.293 HD
ENDBRANCH  15  19
BRANCH  16  21
ATOM     21  O   UNL     1      15.485  28.908   1.266  1.00  0.00    -0.504 OA
ATOM     22  H   UNL     1      14.555  28.825   1.652  1.00  0.00     0.293 HD
ENDBRANCH  16  21
ENDBRANCH   1  11
BRANCH  10  23
ATOM     23  O   UNL     1      19.494  26.808  -2.827  1.00  0.00    -0.500 OA
ATOM     24  H   UNL     1      20.373  26.892  -3.324  1.00  0.00     0.294 HD
ENDBRANCH  10  23
BRANCH   5  25
ATOM     25  O   UNL     1      13.233  26.520  -7.404  1.00  0.00    -0.507 OA
ATOM     26  H   UNL     1      12.754  25.647  -7.591  1.00  0.00     0.293 HD
ENDBRANCH   5  25
BRANCH   7  27
ATOM     27  O   UNL     1      18.029  26.517  -7.843  1.00  0.00    -0.507 OA
ATOM     28  H   UNL     1      18.406  27.323  -8.319  1.00  0.00     0.293 HD
ENDBRANCH   7  27
TORSDOF 7
ENDMDL
MODEL 8
REMARK VINA RESULT:    -6.918      4.633      6.842
REMARK INTER + INTRA:          -8.530
REMARK INTER:                  -8.153
REMARK INTRA:                  -0.377
REMARK UNBOUND:                 0.005
REMARK SMILES Oc1cc(O)c2cc(O)c(-c3cc(O)c(O)c(O)c3)[o+]c2c1
REMARK SMILES IDX 10 1 20 2 21 3 22 4 2 5 3 6 4 7 6 8 7 9 8 10 11 11 12 12
REMARK SMILES IDX 13 13 19 14 15 15 17 16 14 17 16 19 18 21 9 23 1 25 5 27
REMARK H PARENT 14 18 16 20 18 22 9 24 1 26 5 28
REMARK Flexibility Score: inf
ROOT
ATOM      1  C   UNL     1      16.580  26.632  -3.332  1.00  0.00     0.402 A 
ATOM      2  O   UNL     1      17.823  26.598  -3.803  1.00  0.00    -0.202 OA
ATOM      3  C   UNL     1      18.114  26.388  -5.083  1.00  0.00     0.368 A 
ATOM      4  C   UNL     1      19.453  26.374  -5.482  1.00  0.00     0.162 A 
ATOM      5  C   UNL     1      19.788  26.158  -6.819  1.00  0.00     0.128 A 
ATOM      6  C   UNL     1      18.778  25.957  -7.767  1.00  0.00     0.093 A 
ATOM      7  C   UNL     1      17.428  25.967  -7.391  1.00  0.00     0.136 A 
ATOM      8  C   UNL     1      17.084  26.182  -6.032  1.00  0.00     0.125 A 
ATOM      9  C   UNL     1      15.760  26.196  -5.563  1.00  0.00     0.078 A 
ATOM     10  C   UNL     1      15.499  26.411  -4.206  1.00  0.00     0.223 A 
ENDROOT
BRANCH   1  11
ATOM     11  C   UNL     1      16.384  26.885  -1.886  1.00  0.00     0.091 A 
ATOM     12  C   UNL     1      16.283  25.830  -0.967  1.00  0.00     0.068 A 
ATOM     13  C   UNL     1      16.075  26.090   0.393  1.00  0.00     0.162 A 
ATOM     14  C   UNL     1      16.237  28.203  -1.430  1.00  0.00     0.068 A 
ATOM     15  C   UNL     1      15.953  27.410   0.851  1.00  0.00     0.200 A 
ATOM     16  C   UNL     1      16.030  28.478  -0.073  1.00  0.00     0.162 A 
BRANCH  13  17
ATOM     17  O   UNL     1      15.983  25.036   1.302  1.00  0.00    -0.504 OA
ATOM     18  H   UNL     1      16.123  24.074   1.015  1.00  0.00     0.293 HD
ENDBRANCH  13  17
BRANCH  15  19
ATOM     19  O   UNL     1      15.752  27.613   2.219  1.00  0.00    -0.502 OA
ATOM     20  H   UNL     1      14.851  27.568   2.672  1.00  0.00     0.293 HD
ENDBRANCH  15  19
BRANCH  16  21
ATOM     21  O   UNL     1      15.906  29.816   0.307  1.00  0.00    -0.504 OA
ATOM     22  H   UNL     1      16.424  30.239   1.064  1.00  0.00     0.293 HD
ENDBRANCH  16  21
ENDBRANCH   1  11
BRANCH  10  23
ATOM     23  O   UNL     1      14.188  26.375  -3.732  1.00  0.00    -0.500 OA
ATOM     24  H   UNL     1      13.394  26.476  -4.353  1.00  0.00     0.294 HD
ENDBRANCH  10  23
BRANCH   5  25
ATOM     25  O   UNL     1      21.128  26.148  -7.199  1.00  0.00    -0.507 OA
ATOM     26  H   UNL     1      21.408  25.944  -8.151  1.00  0.00     0.293 HD
ENDBRANCH   5  25
BRANCH   7  27
ATOM     27  O   UNL     1      16.479  25.761  -8.397  1.00  0.00    -0.507 OA
ATOM     28  H   UNL     1      15.828  24.990  -8.417  1.00  0.00     0.293 HD
ENDBRANCH   7  27
TORSDOF 7
ENDMDL
MODEL 9
REMARK VINA RESULT:    -6.851      5.256      6.398
REMARK INTER + INTRA:          -8.448
REMARK INTER:                  -8.093
REMARK INTRA:                  -0.355
REMARK UNBOUND:                 0.005
REMARK SMILES Oc1cc(O)c2cc(O)c(-c3cc(O)c(O)c(O)c3)[o+]c2c1
REMARK SMILES IDX 10 1 20 2 21 3 22 4 2 5 3 6 4 7 6 8 7 9 8 10 11 11 12 12
REMARK SMILES IDX 13 13 19 14 15 15 17 16 14 17 16 19 18 21 9 23 1 25 5 27
REMARK H PARENT 14 18 16 20 18 22 9 24 1 26 5 28
REMARK Flexibility Score: inf
ROOT
ATOM      1  C   UNL     1      16.591  27.018  -3.850  1.00  0.00     0.402 A 
ATOM      2  O   UNL     1      15.950  27.651  -2.872  1.00  0.00    -0.202 OA
ATOM      3  C   UNL     1      16.298  27.559  -1.592  1.00  0.00     0.368 A 
ATOM      4  C   UNL     1      15.564  28.266  -0.635  1.00  0.00     0.162 A 
ATOM      5  C   UNL     1      15.908  28.189   0.714  1.00  0.00     0.128 A 
ATOM      6  C   UNL     1      16.995  27.404   1.114  1.00  0.00     0.093 A 
ATOM      7  C   UNL     1      17.746  26.687   0.174  1.00  0.00     0.136 A 
ATOM      8  C   UNL     1      17.397  26.758  -1.199  1.00  0.00     0.125 A 
ATOM      9  C   UNL     1      18.086  26.064  -2.208  1.00  0.00     0.078 A 
ATOM     10  C   UNL     1      17.679  26.182  -3.541  1.00  0.00     0.223 A 
ENDROOT
BRANCH   1  11
ATOM     11  C   UNL     1      16.113  27.209  -5.239  1.00  0.00     0.091 A 
ATOM     12  C   UNL     1      16.784  28.056  -6.133  1.00  0.00     0.068 A 
ATOM     13  C   UNL     1      16.304  28.241  -7.435  1.00  0.00     0.162 A 
ATOM     14  C   UNL     1      14.933  26.575  -5.655  1.00  0.00     0.068 A 
ATOM     15  C   UNL     1      15.137  27.587  -7.858  1.00  0.00     0.200 A 
ATOM     16  C   UNL     1      14.441  26.749  -6.954  1.00  0.00     0.162 A 
BRANCH  13  17
ATOM     17  O   UNL     1      16.980  29.079  -8.320  1.00  0.00    -0.504 OA
ATOM     18  H   UNL     1      16.545  29.913  -8.699  1.00  0.00     0.293 HD
ENDBRANCH  13  17
BRANCH  15  19
ATOM     19  O   UNL     1      14.704  27.801  -9.169  1.00  0.00    -0.502 OA
ATOM     20  H   UNL     1      14.516  28.711  -9.562  1.00  0.00     0.293 HD
ENDBRANCH  15  19
BRANCH  16  21
ATOM     21  O   UNL     1      13.268  26.076  -7.300  1.00  0.00    -0.504 OA
ATOM     22  H   UNL     1      13.206  25.076  -7.429  1.00  0.00     0.293 HD
ENDBRANCH  16  21
ENDBRANCH   1  11
BRANCH  10  23
ATOM     23  O   UNL     1      18.330  25.454  -4.537  1.00  0.00    -0.500 OA
ATOM     24  H   UNL     1      18.583  24.481  -4.407  1.00  0.00     0.294 HD
ENDBRANCH  10  23
BRANCH   5  25
ATOM     25  O   UNL     1      15.165  28.901   1.654  1.00  0.00    -0.507 OA
ATOM     26  H   UNL     1      14.991  28.533   2.582  1.00  0.00     0.293 HD
ENDBRANCH   5  25
BRANCH   7  27
ATOM     27  O   UNL     1      18.818  25.927   0.652  1.00  0.00    -0.507 OA
ATOM     28  H   UNL     1      18.953  24.945   0.458  1.00  0.00     0.293 HD
ENDBRANCH   7  27
TORSDOF 7
ENDMDL
