MODEL 1
REMARK VINA RESULT:    -5.689      0.000      0.000
REMARK INTER + INTRA:          -6.119
REMARK INTER:                  -6.021
REMARK INTRA:                  -0.098
REMARK UNBOUND:                -0.098
REMARK SMILES C=C(C)[C@H]1CC=C(C)C(=O)C1
REMARK SMILES IDX 8 1 7 2 6 3 5 4 4 5 11 6 9 7 10 8 2 9 1 10 3 11
REMARK H PARENT
REMARK Flexibility Score: inf
ROOT
ATOM      1  C   UNL     1      -5.052  -3.508  -2.785  1.00  0.00     0.048 C 
ATOM      2  C   UNL     1      -4.831  -2.707  -1.532  1.00  0.00    -0.012 C 
ATOM      3  C   UNL     1      -3.583  -2.461  -1.098  1.00  0.00    -0.019 C 
ATOM      4  C   UNL     1      -3.314  -1.732   0.193  1.00  0.00     0.036 C 
ATOM      5  C   UNL     1      -4.434  -0.721   0.505  1.00  0.00     0.025 C 
ATOM      6  C   UNL     1      -5.804  -1.423   0.505  1.00  0.00     0.089 C 
ATOM      7  C   UNL     1      -5.999  -2.210  -0.763  1.00  0.00     0.158 C 
ATOM      8  O   UNL     1      -7.169  -2.481  -1.144  1.00  0.00    -0.295 OA
ENDROOT
BRANCH   5   9
ATOM      9  C   UNL     1      -4.180   0.003   1.819  1.00  0.00    -0.077 C 
ATOM     10  C   UNL     1      -3.222  -0.432   2.654  1.00  0.00     0.008 C 
ATOM     11  C   UNL     1      -4.984   1.217   2.217  1.00  0.00     0.039 C 
ENDBRANCH   5   9
TORSDOF 1
ENDMDL
MODEL 2
REMARK VINA RESULT:    -5.629      1.519      4.257
REMARK INTER + INTRA:          -6.057
REMARK INTER:                  -5.958
REMARK INTRA:                  -0.098
REMARK UNBOUND:                -0.098
REMARK SMILES C=C(C)[C@H]1CC=C(C)C(=O)C1
REMARK SMILES IDX 8 1 7 2 6 3 5 4 4 5 11 6 9 7 10 8 2 9 1 10 3 11
REMARK H PARENT
REMARK Flexibility Score: inf
ROOT
ATOM      1  C   UNL     1      -5.016   1.257   2.727  1.00  0.00     0.048 C 
ATOM      2  C   UNL     1      -4.839   0.435   1.480  1.00  0.00    -0.012 C 
ATOM      3  C   UNL     1      -3.605   0.136   1.038  1.00  0.00    -0.019 C 
ATOM      4  C   UNL     1      -3.376  -0.614  -0.248  1.00  0.00     0.036 C 
ATOM      5  C   UNL     1      -4.538  -1.583  -0.541  1.00  0.00     0.025 C 
ATOM      6  C   UNL     1      -5.879  -0.828  -0.536  1.00  0.00     0.089 C 
ATOM      7  C   UNL     1      -6.032  -0.022   0.725  1.00  0.00     0.158 C 
ATOM      8  O   UNL     1      -7.187   0.299   1.113  1.00  0.00    -0.295 OA
ENDROOT
BRANCH   5   9
ATOM      9  C   UNL     1      -4.324  -2.330  -1.850  1.00  0.00    -0.077 C 
ATOM     10  C   UNL     1      -3.277  -2.027  -2.634  1.00  0.00     0.008 C 
ATOM     11  C   UNL     1      -5.268  -3.419  -2.298  1.00  0.00     0.039 C 
ENDBRANCH   5   9
TORSDOF 1
ENDMDL
MODEL 3
REMARK VINA RESULT:    -5.485      1.701      2.484
REMARK INTER + INTRA:          -5.903
REMARK INTER:                  -5.805
REMARK INTRA:                  -0.098
REMARK UNBOUND:                -0.098
REMARK SMILES C=C(C)[C@H]1CC=C(C)C(=O)C1
REMARK SMILES IDX 8 1 7 2 6 3 5 4 4 5 11 6 9 7 10 8 2 9 1 10 3 11
REMARK H PARENT
REMARK Flexibility Score: inf
ROOT
ATOM      1  C   UNL     1      -4.834  -4.020  -2.788  1.00  0.00     0.048 C 
ATOM      2  C   UNL     1      -5.089  -2.882  -1.838  1.00  0.00    -0.012 C 
ATOM      3  C   UNL     1      -6.297  -2.737  -1.267  1.00  0.00    -0.019 C 
ATOM      4  C   UNL     1      -6.623  -1.568  -0.373  1.00  0.00     0.036 C 
ATOM      5  C   UNL     1      -5.371  -1.074   0.375  1.00  0.00     0.025 C 
ATOM      6  C   UNL     1      -4.244  -0.748  -0.622  1.00  0.00     0.089 C 
ATOM      7  C   UNL     1      -4.007  -1.906  -1.553  1.00  0.00     0.158 C 
ATOM      8  O   UNL     1      -2.890  -2.016  -2.125  1.00  0.00    -0.295 OA
ENDROOT
BRANCH   5   9
ATOM      9  C   UNL     1      -5.689   0.121   1.264  1.00  0.00    -0.077 C 
ATOM     10  C   UNL     1      -6.961   0.511   1.437  1.00  0.00     0.008 C 
ATOM     11  C   UNL     1      -4.598   0.888   1.971  1.00  0.00     0.039 C 
ENDBRANCH   5   9
TORSDOF 1
ENDMDL
MODEL 4
REMARK VINA RESULT:    -5.407      2.020      4.776
REMARK INTER + INTRA:          -5.821
REMARK INTER:                  -5.723
REMARK INTRA:                  -0.098
REMARK UNBOUND:                -0.098
REMARK SMILES C=C(C)[C@H]1CC=C(C)C(=O)C1
REMARK SMILES IDX 8 1 7 2 6 3 5 4 4 5 11 6 9 7 10 8 2 9 1 10 3 11
REMARK H PARENT
REMARK Flexibility Score: inf
ROOT
ATOM      1  C   UNL     1      -4.875   1.619   2.627  1.00  0.00     0.048 C 
ATOM      2  C   UNL     1      -5.090   0.486   1.662  1.00  0.00    -0.012 C 
ATOM      3  C   UNL     1      -6.187   0.459   0.886  1.00  0.00    -0.019 C 
ATOM      4  C   UNL     1      -6.485  -0.694  -0.037  1.00  0.00     0.036 C 
ATOM      5  C   UNL     1      -5.187  -1.353  -0.542  1.00  0.00     0.025 C 
ATOM      6  C   UNL     1      -4.301  -1.770   0.645  1.00  0.00     0.089 C 
ATOM      7  C   UNL     1      -4.098  -0.615   1.588  1.00  0.00     0.158 C 
ATOM      8  O   UNL     1      -3.094  -0.614   2.350  1.00  0.00    -0.295 OA
ENDROOT
BRANCH   5   9
ATOM      9  C   UNL     1      -5.481  -2.532  -1.458  1.00  0.00    -0.077 C 
ATOM     10  C   UNL     1      -6.749  -2.913  -1.680  1.00  0.00     0.008 C 
ATOM     11  C   UNL     1      -4.371  -3.297  -2.137  1.00  0.00     0.039 C 
ENDBRANCH   5   9
TORSDOF 1
ENDMDL
MODEL 5
REMARK VINA RESULT:    -5.311      1.496      2.026
REMARK INTER + INTRA:          -5.719
REMARK INTER:                  -5.627
REMARK INTRA:                  -0.093
REMARK UNBOUND:                -0.098
REMARK SMILES C=C(C)[C@H]1CC=C(C)C(=O)C1
REMARK SMILES IDX 8 1 7 2 6 3 5 4 4 5 11 6 9 7 10 8 2 9 1 10 3 11
REMARK H PARENT
REMARK Flexibility Score: inf
ROOT
ATOM      1  C   UNL     1      -5.245  -3.680  -2.613  1.00  0.00     0.048 C 
ATOM      2  C   UNL     1      -5.034  -2.602  -1.586  1.00  0.00    -0.012 C 
ATOM      3  C   UNL     1      -5.866  -2.497  -0.536  1.00  0.00    -0.019 C 
ATOM      4  C   UNL     1      -5.743  -1.386   0.474  1.00  0.00     0.036 C 
ATOM      5  C   UNL     1      -4.279  -0.929   0.623  1.00  0.00     0.025 C 
ATOM      6  C   UNL     1      -3.697  -0.539  -0.747  1.00  0.00     0.089 C 
ATOM      7  C   UNL     1      -3.917  -1.639  -1.751  1.00  0.00     0.158 C 
ATOM      8  O   UNL     1      -3.165  -1.709  -2.760  1.00  0.00    -0.295 OA
ENDROOT
BRANCH   5   9
ATOM      9  C   UNL     1      -4.150   0.208   1.626  1.00  0.00    -0.077 C 
ATOM     10  C   UNL     1      -2.943   0.549   2.106  1.00  0.00     0.008 C 
ATOM     11  C   UNL     1      -5.358   0.977   2.104  1.00  0.00     0.039 C 
ENDBRANCH   5   9
TORSDOF 1
ENDMDL
MODEL 6
REMARK VINA RESULT:    -5.149      1.841      2.457
REMARK INTER + INTRA:          -5.548
REMARK INTER:                  -5.450
REMARK INTRA:                  -0.098
REMARK UNBOUND:                -0.098
REMARK SMILES C=C(C)[C@H]1CC=C(C)C(=O)C1
REMARK SMILES IDX 8 1 7 2 6 3 5 4 4 5 11 6 9 7 10 8 2 9 1 10 3 11
REMARK H PARENT
REMARK Flexibility Score: inf
ROOT
ATOM      1  C   UNL     1      -6.750  -2.127  -0.789  1.00  0.00     0.048 C 
ATOM      2  C   UNL     1      -5.623  -1.687   0.104  1.00  0.00    -0.012 C 
ATOM      3  C   UNL     1      -4.779  -2.595   0.624  1.00  0.00    -0.019 C 
ATOM      4  C   UNL     1      -3.685  -2.211   1.586  1.00  0.00     0.036 C 
ATOM      5  C   UNL     1      -3.180  -0.781   1.312  1.00  0.00     0.025 C 
ATOM      6  C   UNL     1      -4.353   0.215   1.335  1.00  0.00     0.089 C 
ATOM      7  C   UNL     1      -5.461  -0.247   0.428  1.00  0.00     0.158 C 
ATOM      8  O   UNL     1      -6.281   0.598  -0.022  1.00  0.00    -0.295 OA
ENDROOT
BRANCH   5   9
ATOM      9  C   UNL     1      -2.089  -0.378   2.295  1.00  0.00    -0.077 C 
ATOM     10  C   UNL     1      -1.862  -1.121   3.390  1.00  0.00     0.008 C 
ATOM     11  C   UNL     1      -1.241   0.850   2.069  1.00  0.00     0.039 C 
ENDBRANCH   5   9
TORSDOF 1
ENDMDL
MODEL 7
REMARK VINA RESULT:    -5.085      2.026      3.491
REMARK INTER + INTRA:          -5.480
REMARK INTER:                  -5.383
REMARK INTRA:                  -0.097
REMARK UNBOUND:                -0.098
REMARK SMILES C=C(C)[C@H]1CC=C(C)C(=O)C1
REMARK SMILES IDX 8 1 7 2 6 3 5 4 4 5 11 6 9 7 10 8 2 9 1 10 3 11
REMARK H PARENT
REMARK Flexibility Score: inf
ROOT
ATOM      1  C   UNL     1      -6.746   0.117   0.675  1.00  0.00     0.048 C 
ATOM      2  C   UNL     1      -5.365  -0.279   1.121  1.00  0.00    -0.012 C 
ATOM      3  C   UNL     1      -4.547   0.632   1.675  1.00  0.00    -0.019 C 
ATOM      4  C   UNL     1      -3.129   0.302   2.063  1.00  0.00     0.036 C 
ATOM      5  C   UNL     1      -2.993  -1.179   2.467  1.00  0.00     0.025 C 
ATOM      6  C   UNL     1      -3.518  -2.091   1.344  1.00  0.00     0.089 C 
ATOM      7  C   UNL     1      -4.902  -1.675   0.924  1.00  0.00     0.158 C 
ATOM      8  O   UNL     1      -5.652  -2.517   0.362  1.00  0.00    -0.295 OA
ENDROOT
BRANCH   5   9
ATOM      9  C   UNL     1      -1.558  -1.525   2.840  1.00  0.00    -0.077 C 
ATOM     10  C   UNL     1      -0.734  -2.057   1.924  1.00  0.00     0.008 C 
ATOM     11  C   UNL     1      -1.027  -1.280   4.232  1.00  0.00     0.039 C 
ENDBRANCH   5   9
TORSDOF 1
ENDMDL
MODEL 8
REMARK VINA RESULT:    -5.071      1.939      4.363
REMARK INTER + INTRA:          -5.466
REMARK INTER:                  -5.368
REMARK INTRA:                  -0.098
REMARK UNBOUND:                -0.098
REMARK SMILES C=C(C)[C@H]1CC=C(C)C(=O)C1
REMARK SMILES IDX 8 1 7 2 6 3 5 4 4 5 11 6 9 7 10 8 2 9 1 10 3 11
REMARK H PARENT
REMARK Flexibility Score: inf
ROOT
ATOM      1  C   UNL     1      -1.647   0.367   1.980  1.00  0.00     0.048 C 
ATOM      2  C   UNL     1      -2.639  -0.313   1.077  1.00  0.00    -0.012 C 
ATOM      3  C   UNL     1      -2.214  -1.154   0.118  1.00  0.00    -0.019 C 
ATOM      4  C   UNL     1      -3.163  -1.795  -0.861  1.00  0.00     0.036 C 
ATOM      5  C   UNL     1      -4.552  -2.011  -0.229  1.00  0.00     0.025 C 
ATOM      6  C   UNL     1      -5.098  -0.684   0.330  1.00  0.00     0.089 C 
ATOM      7  C   UNL     1      -4.088  -0.032   1.234  1.00  0.00     0.158 C 
ATOM      8  O   UNL     1      -4.482   0.793   2.102  1.00  0.00    -0.295 OA
ENDROOT
BRANCH   5   9
ATOM      9  C   UNL     1      -5.523  -2.639  -1.219  1.00  0.00    -0.077 C 
ATOM     10  C   UNL     1      -6.842  -2.420  -1.099  1.00  0.00     0.008 C 
ATOM     11  C   UNL     1      -5.038  -3.511  -2.351  1.00  0.00     0.039 C 
ENDBRANCH   5   9
TORSDOF 1
ENDMDL
MODEL 9
REMARK VINA RESULT:    -5.031      1.585      2.325
REMARK INTER + INTRA:          -5.423
REMARK INTER:                  -5.325
REMARK INTRA:                  -0.098
REMARK UNBOUND:                -0.098
REMARK SMILES C=C(C)[C@H]1CC=C(C)C(=O)C1
REMARK SMILES IDX 8 1 7 2 6 3 5 4 4 5 11 6 9 7 10 8 2 9 1 10 3 11
REMARK H PARENT
REMARK Flexibility Score: inf
ROOT
ATOM      1  C   UNL     1      -1.613  -2.490  -2.231  1.00  0.00     0.048 C 
ATOM      2  C   UNL     1      -2.612  -1.856  -1.303  1.00  0.00    -0.012 C 
ATOM      3  C   UNL     1      -2.194  -1.077  -0.290  1.00  0.00    -0.019 C 
ATOM      4  C   UNL     1      -3.151  -0.487   0.713  1.00  0.00     0.036 C 
ATOM      5  C   UNL     1      -4.529  -0.222   0.077  1.00  0.00     0.025 C 
ATOM      6  C   UNL     1      -5.078  -1.508  -0.567  1.00  0.00     0.089 C 
ATOM      7  C   UNL     1      -4.061  -2.114  -1.495  1.00  0.00     0.158 C 
ATOM      8  O   UNL     1      -4.449  -2.883  -2.416  1.00  0.00    -0.295 OA
ENDROOT
BRANCH   5   9
ATOM      9  C   UNL     1      -5.508   0.355   1.089  1.00  0.00    -0.077 C 
ATOM     10  C   UNL     1      -6.825   0.130   0.955  1.00  0.00     0.008 C 
ATOM     11  C   UNL     1      -5.034   1.182   2.259  1.00  0.00     0.039 C 
ENDBRANCH   5   9
TORSDOF 1
ENDMDL
