MODEL 1
REMARK VINA RESULT:    -4.836      0.000      0.000
REMARK INTER + INTRA:          -8.193
REMARK INTER:                  -7.521
REMARK INTRA:                  -0.672
REMARK UNBOUND:                -0.672
REMARK SMILES COc1cc(CNC(=O)CCCCC=CC(C)C)ccc1O
REMARK SMILES IDX 11 1 12 2 13 3 14 4 15 5 16 6 17 7 18 8 10 9 8 10 9 11 7 12
REMARK SMILES IDX 6 14 5 15 4 16 19 17 3 18 20 19 21 20 2 21 1 22 22 23
REMARK H PARENT 7 13 22 24
REMARK Flexibility Score: inf
ROOT
ATOM      1  C   UNL     1       6.285  -4.120   2.933  1.00  0.00     0.010 C 
ENDROOT
BRANCH   1   2
ATOM      2  C   UNL     1       6.498  -2.911   3.859  1.00  0.00     0.005 C 
BRANCH   2   3
ATOM      3  C   UNL     1       5.641  -1.703   3.456  1.00  0.00     0.027 C 
BRANCH   3   4
ATOM      4  C   UNL     1       5.223  -0.906   4.661  1.00  0.00    -0.031 C 
ATOM      5  C   UNL     1       6.122  -0.298   5.451  1.00  0.00    -0.028 C 
BRANCH   5   6
ATOM      6  C   UNL     1       5.692   0.507   6.655  1.00  0.00     0.005 C 
ATOM      7  C   UNL     1       6.874   1.306   7.216  1.00  0.00     0.012 C 
ATOM      8  C   UNL     1       5.110  -0.413   7.733  1.00  0.00     0.012 C 
ENDBRANCH   5   6
ENDBRANCH   3   4
ENDBRANCH   2   3
ENDBRANCH   1   2
BRANCH   1   9
ATOM      9  C   UNL     1       5.718  -3.723   1.565  1.00  0.00     0.100 C 
BRANCH   9  10
ATOM     10  C   UNL     1       6.259  -4.621   0.494  1.00  0.00     0.220 C 
ATOM     11  O   UNL     1       5.499  -5.009  -0.435  1.00  0.00    -0.275 OA
ATOM     12  N   UNL     1       7.621  -5.067   0.549  1.00  0.00    -0.352 N 
ATOM     13  H   UNL     1       8.218  -4.773   1.355  1.00  0.00     0.163 HD
BRANCH  12  14
ATOM     14  C   UNL     1       8.207  -5.930  -0.474  1.00  0.00     0.151 C 
BRANCH  14  15
ATOM     15  C   UNL     1       9.114  -5.134  -1.372  1.00  0.00    -0.025 A 
ATOM     16  C   UNL     1      10.459  -4.944  -1.021  1.00  0.00     0.056 A 
ATOM     17  C   UNL     1       8.622  -4.558  -2.553  1.00  0.00     0.009 A 
ATOM     18  C   UNL     1      11.316  -4.187  -1.844  1.00  0.00     0.160 A 
ATOM     19  C   UNL     1       9.466  -3.810  -3.374  1.00  0.00     0.050 A 
ATOM     20  C   UNL     1      10.808  -3.621  -3.028  1.00  0.00     0.157 A 
BRANCH  18  21
ATOM     21  O   UNL     1      12.666  -3.977  -1.517  1.00  0.00    -0.493 OA
ATOM     22  C   UNL     1      13.267  -4.363  -0.286  1.00  0.00     0.278 C 
ENDBRANCH  18  21
BRANCH  20  23
ATOM     23  O   UNL     1      11.621  -2.866  -3.873  1.00  0.00    -0.504 OA
ATOM     24  H   UNL     1      12.523  -2.511  -3.579  1.00  0.00     0.293 HD
ENDBRANCH  20  23
ENDBRANCH  14  15
ENDBRANCH  12  14
ENDBRANCH   9  10
ENDBRANCH   1   9
TORSDOF 10
ENDMDL
MODEL 2
REMARK VINA RESULT:    -4.681      0.997      2.264
REMARK INTER + INTRA:          -7.953
REMARK INTER:                  -7.278
REMARK INTRA:                  -0.675
REMARK UNBOUND:                -0.672
REMARK SMILES COc1cc(CNC(=O)CCCCC=CC(C)C)ccc1O
REMARK SMILES IDX 11 1 12 2 13 3 14 4 15 5 16 6 17 7 18 8 10 9 8 10 9 11 7 12
REMARK SMILES IDX 6 14 5 15 4 16 19 17 3 18 20 19 21 20 2 21 1 22 22 23
REMARK H PARENT 7 13 22 24
REMARK Flexibility Score: inf
ROOT
ATOM      1  C   UNL     1       6.193  -4.062   2.565  1.00  0.00     0.010 C 
ENDROOT
BRANCH   1   2
ATOM      2  C   UNL     1       5.368  -3.164   3.502  1.00  0.00     0.005 C 
BRANCH   2   3
ATOM      3  C   UNL     1       5.251  -1.723   2.984  1.00  0.00     0.027 C 
BRANCH   3   4
ATOM      4  C   UNL     1       5.124  -0.746   4.120  1.00  0.00    -0.031 C 
ATOM      5  C   UNL     1       6.011  -0.717   5.128  1.00  0.00    -0.028 C 
BRANCH   5   6
ATOM      6  C   UNL     1       5.879   0.274   6.261  1.00  0.00     0.005 C 
ATOM      7  C   UNL     1       5.717  -0.459   7.598  1.00  0.00     0.012 C 
ATOM      8  C   UNL     1       4.690   1.210   6.019  1.00  0.00     0.012 C 
ENDBRANCH   5   6
ENDBRANCH   3   4
ENDBRANCH   2   3
ENDBRANCH   1   2
BRANCH   1   9
ATOM      9  C   UNL     1       5.566  -4.193   1.171  1.00  0.00     0.100 C 
BRANCH   9  10
ATOM     10  C   UNL     1       6.403  -5.085   0.304  1.00  0.00     0.220 C 
ATOM     11  O   UNL     1       5.847  -5.797  -0.576  1.00  0.00    -0.275 OA
ATOM     12  N   UNL     1       7.822  -5.155   0.502  1.00  0.00    -0.352 N 
ATOM     13  H   UNL     1       8.255  -4.593   1.271  1.00  0.00     0.163 HD
BRANCH  12  14
ATOM     14  C   UNL     1       8.689  -5.994  -0.322  1.00  0.00     0.151 C 
BRANCH  14  15
ATOM     15  C   UNL     1       9.499  -5.143  -1.262  1.00  0.00    -0.025 A 
ATOM     16  C   UNL     1       8.888  -4.562  -2.384  1.00  0.00     0.056 A 
ATOM     17  C   UNL     1      10.868  -4.940  -1.041  1.00  0.00     0.009 A 
ATOM     18  C   UNL     1       9.637  -3.777  -3.283  1.00  0.00     0.160 A 
ATOM     19  C   UNL     1      11.615  -4.161  -1.924  1.00  0.00     0.050 A 
ATOM     20  C   UNL     1      11.010  -3.579  -3.042  1.00  0.00     0.157 A 
BRANCH  18  21
ATOM     21  O   UNL     1       9.055  -3.185  -4.417  1.00  0.00    -0.493 OA
ATOM     22  C   UNL     1       8.117  -3.831  -5.271  1.00  0.00     0.278 C 
ENDBRANCH  18  21
BRANCH  20  23
ATOM     23  O   UNL     1      11.789  -2.807  -3.905  1.00  0.00    -0.504 OA
ATOM     24  H   UNL     1      11.699  -1.800  -3.958  1.00  0.00     0.293 HD
ENDBRANCH  20  23
ENDBRANCH  14  15
ENDBRANCH  12  14
ENDBRANCH   9  10
ENDBRANCH   1   9
TORSDOF 10
ENDMDL
MODEL 3
REMARK VINA RESULT:    -4.495     11.440     14.292
REMARK INTER + INTRA:          -7.662
REMARK INTER:                  -6.047
REMARK INTRA:                  -1.616
REMARK UNBOUND:                -0.672
REMARK SMILES COc1cc(CNC(=O)CCCCC=CC(C)C)ccc1O
REMARK SMILES IDX 11 1 12 2 13 3 14 4 15 5 16 6 17 7 18 8 10 9 8 10 9 11 7 12
REMARK SMILES IDX 6 14 5 15 4 16 19 17 3 18 20 19 21 20 2 21 1 22 22 23
REMARK H PARENT 7 13 22 24
REMARK Flexibility Score: inf
ROOT
ATOM      1  C   UNL     1       9.423   5.221  -9.282  1.00  0.00     0.010 C 
ENDROOT
BRANCH   1   2
ATOM      2  C   UNL     1       9.473   4.453  -7.951  1.00  0.00     0.005 C 
BRANCH   2   3
ATOM      3  C   UNL     1       9.191   2.954  -8.125  1.00  0.00     0.027 C 
BRANCH   3   4
ATOM      4  C   UNL     1       7.738   2.704  -8.425  1.00  0.00    -0.031 C 
ATOM      5  C   UNL     1       6.763   3.173  -7.630  1.00  0.00    -0.028 C 
BRANCH   5   6
ATOM      6  C   UNL     1       5.307   2.922  -7.943  1.00  0.00     0.005 C 
ATOM      7  C   UNL     1       4.694   4.137  -8.649  1.00  0.00     0.012 C 
ATOM      8  C   UNL     1       4.531   2.602  -6.661  1.00  0.00     0.012 C 
ENDBRANCH   5   6
ENDBRANCH   3   4
ENDBRANCH   2   3
ENDBRANCH   1   2
BRANCH   1   9
ATOM      9  C   UNL     1      10.276   6.496  -9.260  1.00  0.00     0.100 C 
BRANCH   9  10
ATOM     10  C   UNL     1       9.776   7.440  -8.209  1.00  0.00     0.220 C 
ATOM     11  O   UNL     1      10.572   7.873  -7.333  1.00  0.00    -0.275 OA
ATOM     12  N   UNL     1       8.391   7.816  -8.179  1.00  0.00    -0.352 N 
ATOM     13  H   UNL     1       7.740   7.405  -8.886  1.00  0.00     0.163 HD
BRANCH  12  14
ATOM     14  C   UNL     1       7.851   8.744  -7.189  1.00  0.00     0.151 C 
BRANCH  14  15
ATOM     15  C   UNL     1       7.004   8.005  -6.188  1.00  0.00    -0.025 A 
ATOM     16  C   UNL     1       6.645   8.624  -4.981  1.00  0.00     0.056 A 
ATOM     17  C   UNL     1       6.586   6.690  -6.440  1.00  0.00     0.009 A 
ATOM     18  C   UNL     1       5.867   7.938  -4.027  1.00  0.00     0.160 A 
ATOM     19  C   UNL     1       5.812   6.007  -5.502  1.00  0.00     0.050 A 
ATOM     20  C   UNL     1       5.451   6.621  -4.299  1.00  0.00     0.157 A 
BRANCH  18  21
ATOM     21  O   UNL     1       5.493   8.529  -2.809  1.00  0.00    -0.493 OA
ATOM     22  C   UNL     1       5.977   9.784  -2.340  1.00  0.00     0.278 C 
ENDBRANCH  18  21
BRANCH  20  23
ATOM     23  O   UNL     1       4.678   5.906  -3.383  1.00  0.00    -0.504 OA
ATOM     24  H   UNL     1       4.461   6.266  -2.462  1.00  0.00     0.293 HD
ENDBRANCH  20  23
ENDBRANCH  14  15
ENDBRANCH  12  14
ENDBRANCH   9  10
ENDBRANCH   1   9
TORSDOF 10
ENDMDL
MODEL 4
REMARK VINA RESULT:    -4.303     17.514     19.477
REMARK INTER + INTRA:          -7.365
REMARK INTER:                  -6.616
REMARK INTRA:                  -0.749
REMARK UNBOUND:                -0.672
REMARK SMILES COc1cc(CNC(=O)CCCCC=CC(C)C)ccc1O
REMARK SMILES IDX 11 1 12 2 13 3 14 4 15 5 16 6 17 7 18 8 10 9 8 10 9 11 7 12
REMARK SMILES IDX 6 14 5 15 4 16 19 17 3 18 20 19 21 20 2 21 1 22 22 23
REMARK H PARENT 7 13 22 24
REMARK Flexibility Score: inf
ROOT
ATOM      1  C   UNL     1      22.193   9.104   3.757  1.00  0.00     0.010 C 
ENDROOT
BRANCH   1   2
ATOM      2  C   UNL     1      22.883   7.900   4.419  1.00  0.00     0.005 C 
BRANCH   2   3
ATOM      3  C   UNL     1      23.667   8.291   5.680  1.00  0.00     0.027 C 
BRANCH   3   4
ATOM      4  C   UNL     1      23.338   9.693   6.113  1.00  0.00    -0.031 C 
ATOM      5  C   UNL     1      23.204  10.018   7.409  1.00  0.00    -0.028 C 
BRANCH   5   6
ATOM      6  C   UNL     1      22.881  11.431   7.835  1.00  0.00     0.005 C 
ATOM      7  C   UNL     1      21.370  11.598   8.034  1.00  0.00     0.012 C 
ATOM      8  C   UNL     1      23.396  12.434   6.797  1.00  0.00     0.012 C 
ENDBRANCH   5   6
ENDBRANCH   3   4
ENDBRANCH   2   3
ENDBRANCH   1   2
BRANCH   1   9
ATOM      9  C   UNL     1      21.787   8.825   2.304  1.00  0.00     0.100 C 
BRANCH   9  10
ATOM     10  C   UNL     1      21.249  10.070   1.664  1.00  0.00     0.220 C 
ATOM     11  O   UNL     1      22.047  10.891   1.136  1.00  0.00    -0.275 OA
ATOM     12  N   UNL     1      19.840  10.340   1.689  1.00  0.00    -0.352 N 
ATOM     13  H   UNL     1      19.204   9.669   2.176  1.00  0.00     0.163 HD
BRANCH  12  14
ATOM     14  C   UNL     1      19.259  11.528   1.069  1.00  0.00     0.151 C 
BRANCH  14  15
ATOM     15  C   UNL     1      18.966  11.269  -0.385  1.00  0.00    -0.025 A 
ATOM     16  C   UNL     1      19.735  11.894  -1.377  1.00  0.00     0.056 A 
ATOM     17  C   UNL     1      17.914  10.420  -0.759  1.00  0.00     0.009 A 
ATOM     18  C   UNL     1      19.461  11.674  -2.742  1.00  0.00     0.160 A 
ATOM     19  C   UNL     1      17.640  10.195  -2.109  1.00  0.00     0.050 A 
ATOM     20  C   UNL     1      18.406  10.815  -3.101  1.00  0.00     0.157 A 
BRANCH  18  21
ATOM     21  O   UNL     1      20.212  12.289  -3.759  1.00  0.00    -0.493 OA
ATOM     22  C   UNL     1      21.581  12.659  -3.639  1.00  0.00     0.278 C 
ENDBRANCH  18  21
BRANCH  20  23
ATOM     23  O   UNL     1      18.102  10.567  -4.440  1.00  0.00    -0.504 OA
ATOM     24  H   UNL     1      17.539  11.202  -4.992  1.00  0.00     0.293 HD
ENDBRANCH  20  23
ENDBRANCH  14  15
ENDBRANCH  12  14
ENDBRANCH   9  10
ENDBRANCH   1   9
TORSDOF 10
ENDMDL
MODEL 5
REMARK VINA RESULT:    -4.215     11.986     14.697
REMARK INTER + INTRA:          -7.228
REMARK INTER:                  -6.025
REMARK INTRA:                  -1.204
REMARK UNBOUND:                -0.672
REMARK SMILES COc1cc(CNC(=O)CCCCC=CC(C)C)ccc1O
REMARK SMILES IDX 11 1 12 2 13 3 14 4 15 5 16 6 17 7 18 8 10 9 8 10 9 11 7 12
REMARK SMILES IDX 6 14 5 15 4 16 19 17 3 18 20 19 21 20 2 21 1 22 22 23
REMARK H PARENT 7 13 22 24
REMARK Flexibility Score: inf
ROOT
ATOM      1  C   UNL     1       6.747   3.240  -7.618  1.00  0.00     0.010 C 
ENDROOT
BRANCH   1   2
ATOM      2  C   UNL     1       8.228   3.060  -7.987  1.00  0.00     0.005 C 
BRANCH   2   3
ATOM      3  C   UNL     1       8.479   3.195  -9.496  1.00  0.00     0.027 C 
BRANCH   3   4
ATOM      4  C   UNL     1       9.097   4.525  -9.829  1.00  0.00    -0.031 C 
ATOM      5  C   UNL     1       9.600   5.327  -8.877  1.00  0.00    -0.028 C 
BRANCH   5   6
ATOM      6  C   UNL     1      10.225   6.659  -9.221  1.00  0.00     0.005 C 
ATOM      7  C   UNL     1      10.254   7.572  -7.990  1.00  0.00     0.012 C 
ATOM      8  C   UNL     1       9.457   7.330 -10.365  1.00  0.00     0.012 C 
ENDBRANCH   5   6
ENDBRANCH   3   4
ENDBRANCH   2   3
ENDBRANCH   1   2
BRANCH   1   9
ATOM      9  C   UNL     1       6.558   3.901  -6.246  1.00  0.00     0.100 C 
BRANCH   9  10
ATOM     10  C   UNL     1       6.183   5.344  -6.408  1.00  0.00     0.220 C 
ATOM     11  O   UNL     1       6.233   5.873  -7.551  1.00  0.00    -0.275 OA
ATOM     12  N   UNL     1       5.809   6.123  -5.263  1.00  0.00    -0.352 N 
ATOM     13  H   UNL     1       5.823   5.675  -4.319  1.00  0.00     0.163 HD
BRANCH  12  14
ATOM     14  C   UNL     1       5.421   7.527  -5.364  1.00  0.00     0.151 C 
BRANCH  14  15
ATOM     15  C   UNL     1       6.461   8.405  -4.721  1.00  0.00    -0.025 A 
ATOM     16  C   UNL     1       7.584   8.813  -5.456  1.00  0.00     0.056 A 
ATOM     17  C   UNL     1       6.330   8.804  -3.384  1.00  0.00     0.009 A 
ATOM     18  C   UNL     1       8.575   9.620  -4.863  1.00  0.00     0.160 A 
ATOM     19  C   UNL     1       7.305   9.606  -2.791  1.00  0.00     0.050 A 
ATOM     20  C   UNL     1       8.425  10.016  -3.521  1.00  0.00     0.157 A 
BRANCH  18  21
ATOM     21  O   UNL     1       9.713  10.042  -5.571  1.00  0.00    -0.493 OA
ATOM     22  C   UNL     1       9.744  11.158  -6.455  1.00  0.00     0.278 C 
ENDBRANCH  18  21
BRANCH  20  23
ATOM     23  O   UNL     1       9.381  10.817  -2.894  1.00  0.00    -0.504 OA
ATOM     24  H   UNL     1       9.653  10.678  -1.929  1.00  0.00     0.293 HD
ENDBRANCH  20  23
ENDBRANCH  14  15
ENDBRANCH  12  14
ENDBRANCH   9  10
ENDBRANCH   1   9
TORSDOF 10
ENDMDL
MODEL 6
REMARK VINA RESULT:    -4.209     12.387     14.519
REMARK INTER + INTRA:          -7.218
REMARK INTER:                  -5.805
REMARK INTRA:                  -1.413
REMARK UNBOUND:                -0.672
REMARK SMILES COc1cc(CNC(=O)CCCCC=CC(C)C)ccc1O
REMARK SMILES IDX 11 1 12 2 13 3 14 4 15 5 16 6 17 7 18 8 10 9 8 10 9 11 7 12
REMARK SMILES IDX 6 14 5 15 4 16 19 17 3 18 20 19 21 20 2 21 1 22 22 23
REMARK H PARENT 7 13 22 24
REMARK Flexibility Score: inf
ROOT
ATOM      1  C   UNL     1       4.324   6.733  -5.967  1.00  0.00     0.010 C 
ENDROOT
BRANCH   1   2
ATOM      2  C   UNL     1       5.081   5.818  -6.944  1.00  0.00     0.005 C 
BRANCH   2   3
ATOM      3  C   UNL     1       5.667   4.577  -6.256  1.00  0.00     0.027 C 
BRANCH   3   4
ATOM      4  C   UNL     1       7.165   4.536  -6.391  1.00  0.00    -0.031 C 
ATOM      5  C   UNL     1       7.767   4.618  -7.589  1.00  0.00    -0.028 C 
BRANCH   5   6
ATOM      6  C   UNL     1       9.272   4.582  -7.714  1.00  0.00     0.005 C 
ATOM      7  C   UNL     1       9.699   4.920  -9.147  1.00  0.00     0.012 C 
ATOM      8  C   UNL     1       9.810   3.207  -7.307  1.00  0.00     0.012 C 
ENDBRANCH   5   6
ENDBRANCH   3   4
ENDBRANCH   2   3
ENDBRANCH   1   2
BRANCH   1   9
ATOM      9  C   UNL     1       4.771   6.540  -4.513  1.00  0.00     0.100 C 
BRANCH   9  10
ATOM     10  C   UNL     1       5.767   7.593  -4.129  1.00  0.00     0.220 C 
ATOM     11  O   UNL     1       6.042   7.774  -2.912  1.00  0.00    -0.275 OA
ATOM     12  N   UNL     1       6.370   8.415  -5.138  1.00  0.00    -0.352 N 
ATOM     13  H   UNL     1       6.089   8.280  -6.136  1.00  0.00     0.163 HD
BRANCH  12  14
ATOM     14  C   UNL     1       7.357   9.445  -4.825  1.00  0.00     0.151 C 
BRANCH  14  15
ATOM     15  C   UNL     1       8.503   9.385  -5.799  1.00  0.00    -0.025 A 
ATOM     16  C   UNL     1       9.506  10.365  -5.763  1.00  0.00     0.056 A 
ATOM     17  C   UNL     1       8.568   8.367  -6.761  1.00  0.00     0.009 A 
ATOM     18  C   UNL     1      10.575  10.332  -6.680  1.00  0.00     0.160 A 
ATOM     19  C   UNL     1       9.626   8.325  -7.669  1.00  0.00     0.050 A 
ATOM     20  C   UNL     1      10.628   9.299  -7.635  1.00  0.00     0.157 A 
BRANCH  18  21
ATOM     21  O   UNL     1      11.593  11.301  -6.671  1.00  0.00    -0.493 OA
ATOM     22  C   UNL     1      11.496  12.565  -6.025  1.00  0.00     0.278 C 
ENDBRANCH  18  21
BRANCH  20  23
ATOM     23  O   UNL     1      11.670   9.226  -8.560  1.00  0.00    -0.504 OA
ATOM     24  H   UNL     1      12.585   8.869  -8.315  1.00  0.00     0.293 HD
ENDBRANCH  20  23
ENDBRANCH  14  15
ENDBRANCH  12  14
ENDBRANCH   9  10
ENDBRANCH   1   9
TORSDOF 10
ENDMDL
MODEL 7
REMARK VINA RESULT:    -4.197     10.192     13.672
REMARK INTER + INTRA:          -7.200
REMARK INTER:                  -5.614
REMARK INTRA:                  -1.586
REMARK UNBOUND:                -0.672
REMARK SMILES COc1cc(CNC(=O)CCCCC=CC(C)C)ccc1O
REMARK SMILES IDX 11 1 12 2 13 3 14 4 15 5 16 6 17 7 18 8 10 9 8 10 9 11 7 12
REMARK SMILES IDX 6 14 5 15 4 16 19 17 3 18 20 19 21 20 2 21 1 22 22 23
REMARK H PARENT 7 13 22 24
REMARK Flexibility Score: inf
ROOT
ATOM      1  C   UNL     1      19.450   3.283   8.423  1.00  0.00     0.010 C 
ENDROOT
BRANCH   1   2
ATOM      2  C   UNL     1      20.573   2.939   7.431  1.00  0.00     0.005 C 
BRANCH   2   3
ATOM      3  C   UNL     1      21.009   1.470   7.521  1.00  0.00     0.027 C 
BRANCH   3   4
ATOM      4  C   UNL     1      21.231   0.882   6.155  1.00  0.00    -0.031 C 
ATOM      5  C   UNL     1      20.561   1.326   5.079  1.00  0.00    -0.028 C 
BRANCH   5   6
ATOM      6  C   UNL     1      20.795   0.734   3.709  1.00  0.00     0.005 C 
ATOM      7  C   UNL     1      19.603  -0.132   3.288  1.00  0.00     0.012 C 
ATOM      8  C   UNL     1      22.086  -0.092   3.696  1.00  0.00     0.012 C 
ENDBRANCH   5   6
ENDBRANCH   3   4
ENDBRANCH   2   3
ENDBRANCH   1   2
BRANCH   1   9
ATOM      9  C   UNL     1      18.162   3.734   7.723  1.00  0.00     0.100 C 
BRANCH   9  10
ATOM     10  C   UNL     1      17.094   2.692   7.872  1.00  0.00     0.220 C 
ATOM     11  O   UNL     1      15.960   2.886   7.356  1.00  0.00    -0.275 OA
ATOM     12  N   UNL     1      17.352   1.502   8.631  1.00  0.00    -0.352 N 
ATOM     13  H   UNL     1      18.283   1.387   9.091  1.00  0.00     0.163 HD
BRANCH  12  14
ATOM     14  C   UNL     1      16.356   0.447   8.797  1.00  0.00     0.151 C 
BRANCH  14  15
ATOM     15  C   UNL     1      16.539  -0.615   7.746  1.00  0.00    -0.025 A 
ATOM     16  C   UNL     1      15.453  -1.417   7.364  1.00  0.00     0.056 A 
ATOM     17  C   UNL     1      17.794  -0.826   7.157  1.00  0.00     0.009 A 
ATOM     18  C   UNL     1      15.614  -2.426   6.393  1.00  0.00     0.160 A 
ATOM     19  C   UNL     1      17.959  -1.820   6.193  1.00  0.00     0.050 A 
ATOM     20  C   UNL     1      16.879  -2.621   5.808  1.00  0.00     0.157 A 
BRANCH  18  21
ATOM     21  O   UNL     1      14.547  -3.248   5.992  1.00  0.00    -0.493 OA
ATOM     22  C   UNL     1      13.766  -4.045   6.877  1.00  0.00     0.278 C 
ENDBRANCH  18  21
BRANCH  20  23
ATOM     23  O   UNL     1      17.082  -3.607   4.842  1.00  0.00    -0.504 OA
ATOM     24  H   UNL     1      17.393  -4.540   5.080  1.00  0.00     0.293 HD
ENDBRANCH  20  23
ENDBRANCH  14  15
ENDBRANCH  12  14
ENDBRANCH   9  10
ENDBRANCH   1   9
TORSDOF 10
ENDMDL
MODEL 8
REMARK VINA RESULT:    -4.167     12.168     14.484
REMARK INTER + INTRA:          -7.153
REMARK INTER:                  -5.770
REMARK INTRA:                  -1.384
REMARK UNBOUND:                -0.672
REMARK SMILES COc1cc(CNC(=O)CCCCC=CC(C)C)ccc1O
REMARK SMILES IDX 11 1 12 2 13 3 14 4 15 5 16 6 17 7 18 8 10 9 8 10 9 11 7 12
REMARK SMILES IDX 6 14 5 15 4 16 19 17 3 18 20 19 21 20 2 21 1 22 22 23
REMARK H PARENT 7 13 22 24
REMARK Flexibility Score: inf
ROOT
ATOM      1  C   UNL     1       4.647   6.906  -6.244  1.00  0.00     0.010 C 
ENDROOT
BRANCH   1   2
ATOM      2  C   UNL     1       5.381   5.879  -7.121  1.00  0.00     0.005 C 
BRANCH   2   3
ATOM      3  C   UNL     1       5.966   4.717  -6.305  1.00  0.00     0.027 C 
BRANCH   3   4
ATOM      4  C   UNL     1       7.166   4.121  -6.988  1.00  0.00    -0.031 C 
ATOM      5  C   UNL     1       8.217   4.874  -7.351  1.00  0.00    -0.028 C 
BRANCH   5   6
ATOM      6  C   UNL     1       9.421   4.265  -8.031  1.00  0.00     0.005 C 
ATOM      7  C   UNL     1       9.060   3.798  -9.445  1.00  0.00     0.012 C 
ATOM      8  C   UNL     1       9.967   3.094  -7.206  1.00  0.00     0.012 C 
ENDBRANCH   5   6
ENDBRANCH   3   4
ENDBRANCH   2   3
ENDBRANCH   1   2
BRANCH   1   9
ATOM      9  C   UNL     1       4.909   6.696  -4.747  1.00  0.00     0.100 C 
BRANCH   9  10
ATOM     10  C   UNL     1       5.917   7.687  -4.249  1.00  0.00     0.220 C 
ATOM     11  O   UNL     1       6.173   7.747  -3.016  1.00  0.00    -0.275 OA
ATOM     12  N   UNL     1       6.555   8.587  -5.166  1.00  0.00    -0.352 N 
ATOM     13  H   UNL     1       6.290   8.552  -6.177  1.00  0.00     0.163 HD
BRANCH  12  14
ATOM     14  C   UNL     1       7.556   9.562  -4.741  1.00  0.00     0.151 C 
BRANCH  14  15
ATOM     15  C   UNL     1       8.681   9.626  -5.739  1.00  0.00    -0.025 A 
ATOM     16  C   UNL     1       8.815   8.622  -6.709  1.00  0.00     0.056 A 
ATOM     17  C   UNL     1       9.613  10.673  -5.696  1.00  0.00     0.009 A 
ATOM     18  C   UNL     1       9.873   8.659  -7.640  1.00  0.00     0.160 A 
ATOM     19  C   UNL     1      10.660  10.718  -6.617  1.00  0.00     0.050 A 
ATOM     20  C   UNL     1      10.796   9.720  -7.586  1.00  0.00     0.157 A 
BRANCH  18  21
ATOM     21  O   UNL     1      10.036   7.667  -8.621  1.00  0.00    -0.493 OA
ATOM     22  C   UNL     1       9.396   7.679  -9.893  1.00  0.00     0.278 C 
ENDBRANCH  18  21
BRANCH  20  23
ATOM     23  O   UNL     1      11.857   9.798  -8.489  1.00  0.00    -0.504 OA
ATOM     24  H   UNL     1      11.743  10.165  -9.426  1.00  0.00     0.293 HD
ENDBRANCH  20  23
ENDBRANCH  14  15
ENDBRANCH  12  14
ENDBRANCH   9  10
ENDBRANCH   1   9
TORSDOF 10
ENDMDL
MODEL 9
REMARK VINA RESULT:    -4.134     12.159     14.727
REMARK INTER + INTRA:          -7.102
REMARK INTER:                  -5.697
REMARK INTRA:                  -1.405
REMARK UNBOUND:                -0.672
REMARK SMILES COc1cc(CNC(=O)CCCCC=CC(C)C)ccc1O
REMARK SMILES IDX 11 1 12 2 13 3 14 4 15 5 16 6 17 7 18 8 10 9 8 10 9 11 7 12
REMARK SMILES IDX 6 14 5 15 4 16 19 17 3 18 20 19 21 20 2 21 1 22 22 23
REMARK H PARENT 7 13 22 24
REMARK Flexibility Score: inf
ROOT
ATOM      1  C   UNL     1       7.376   3.661  -7.337  1.00  0.00     0.010 C 
ENDROOT
BRANCH   1   2
ATOM      2  C   UNL     1       8.868   3.975  -7.140  1.00  0.00     0.005 C 
BRANCH   2   3
ATOM      3  C   UNL     1       9.598   4.223  -8.468  1.00  0.00     0.027 C 
BRANCH   3   4
ATOM      4  C   UNL     1       9.618   5.686  -8.815  1.00  0.00    -0.031 C 
ATOM      5  C   UNL     1       9.506   6.635  -7.872  1.00  0.00    -0.028 C 
BRANCH   5   6
ATOM      6  C   UNL     1       9.533   8.103  -8.230  1.00  0.00     0.005 C 
ATOM      7  C   UNL     1       9.270   8.295  -9.728  1.00  0.00     0.012 C 
ATOM      8  C   UNL     1      10.878   8.724  -7.840  1.00  0.00     0.012 C 
ENDBRANCH   5   6
ENDBRANCH   3   4
ENDBRANCH   2   3
ENDBRANCH   1   2
BRANCH   1   9
ATOM      9  C   UNL     1       6.526   4.049  -6.121  1.00  0.00     0.100 C 
BRANCH   9  10
ATOM     10  C   UNL     1       6.101   5.484  -6.217  1.00  0.00     0.220 C 
ATOM     11  O   UNL     1       6.073   6.049  -7.343  1.00  0.00    -0.275 OA
ATOM     12  N   UNL     1       5.766   6.216  -5.029  1.00  0.00    -0.352 N 
ATOM     13  H   UNL     1       5.844   5.740  -4.101  1.00  0.00     0.163 HD
BRANCH  12  14
ATOM     14  C   UNL     1       5.331   7.609  -5.063  1.00  0.00     0.151 C 
BRANCH  14  15
ATOM     15  C   UNL     1       6.387   8.502  -4.470  1.00  0.00    -0.025 A 
ATOM     16  C   UNL     1       6.216   9.030  -3.181  1.00  0.00     0.056 A 
ATOM     17  C   UNL     1       7.537   8.830  -5.202  1.00  0.00     0.009 A 
ATOM     18  C   UNL     1       7.189   9.881  -2.620  1.00  0.00     0.160 A 
ATOM     19  C   UNL     1       8.506   9.668  -4.651  1.00  0.00     0.050 A 
ATOM     20  C   UNL     1       8.339  10.195  -3.366  1.00  0.00     0.157 A 
BRANCH  18  21
ATOM     21  O   UNL     1       7.044  10.428  -1.333  1.00  0.00    -0.493 OA
ATOM     22  C   UNL     1       6.422  11.678  -1.054  1.00  0.00     0.278 C 
ENDBRANCH  18  21
BRANCH  20  23
ATOM     23  O   UNL     1       9.329  11.032  -2.848  1.00  0.00    -0.504 OA
ATOM     24  H   UNL     1      10.212  11.179  -3.320  1.00  0.00     0.293 HD
ENDBRANCH  20  23
ENDBRANCH  14  15
ENDBRANCH  12  14
ENDBRANCH   9  10
ENDBRANCH   1   9
TORSDOF 10
ENDMDL
