MODEL 1
REMARK VINA RESULT:    -4.324      0.000      0.000
REMARK INTER + INTRA:          -6.855
REMARK INTER:                  -6.346
REMARK INTRA:                  -0.510
REMARK UNBOUND:                -0.510
REMARK SMILES O=C([O-])CCCCCCCC(=O)[O-]
REMARK SMILES IDX 7 1 6 2 5 3 4 4 2 5 1 6 3 7 8 8 9 9 10 10 11 11 12 12 13 13
REMARK H PARENT
REMARK Flexibility Score: inf
ROOT
ATOM      1  C   UNL     1      11.882  30.781  26.184  1.00  0.00     0.000 C 
ENDROOT
BRANCH   1   2
ATOM      2  C   UNL     1      12.263  31.588  27.436  1.00  0.00     0.000 C 
BRANCH   2   3
ATOM      3  C   UNL     1      12.871  30.764  28.589  1.00  0.00     0.006 C 
BRANCH   3   4
ATOM      4  C   UNL     1      11.884  30.464  29.734  1.00  0.00     0.053 C 
BRANCH   4   5
ATOM      5  C   UNL     1      11.842  31.554  30.761  1.00  0.00     0.041 C 
ATOM      6  O   UNL     1      10.741  32.046  31.124  1.00  0.00    -0.550 OA
ATOM      7  O   UNL     1      13.024  32.058  31.291  1.00  0.00    -0.550 OA
ENDBRANCH   4   5
ENDBRANCH   3   4
ENDBRANCH   2   3
ENDBRANCH   1   2
BRANCH   1   8
ATOM      8  C   UNL     1      10.372  30.777  25.909  1.00  0.00     0.000 C 
BRANCH   8   9
ATOM      9  C   UNL     1       9.768  32.167  26.145  1.00  0.00     0.006 C 
BRANCH   9  10
ATOM     10  C   UNL     1       9.519  32.891  24.818  1.00  0.00     0.053 C 
BRANCH  10  11
ATOM     11  C   UNL     1      10.734  33.661  24.407  1.00  0.00     0.041 C 
ATOM     12  O   UNL     1      11.153  34.612  25.119  1.00  0.00    -0.550 OA
ATOM     13  O   UNL     1      11.432  33.298  23.262  1.00  0.00    -0.550 OA
ENDBRANCH  10  11
ENDBRANCH   9  10
ENDBRANCH   8   9
ENDBRANCH   1   8
TORSDOF 8
ENDMDL
MODEL 2
REMARK VINA RESULT:    -4.265      0.623      5.783
REMARK INTER + INTRA:          -6.769
REMARK INTER:                  -6.357
REMARK INTRA:                  -0.412
REMARK UNBOUND:                -0.510
REMARK SMILES O=C([O-])CCCCCCCC(=O)[O-]
REMARK SMILES IDX 7 1 6 2 5 3 4 4 2 5 1 6 3 7 8 8 9 9 10 10 11 11 12 12 13 13
REMARK H PARENT
REMARK Flexibility Score: inf
ROOT
ATOM      1  C   UNL     1      11.578  30.688  26.796  1.00  0.00     0.000 C 
ENDROOT
BRANCH   1   2
ATOM      2  C   UNL     1      11.494  30.910  25.277  1.00  0.00     0.000 C 
BRANCH   2   3
ATOM      3  C   UNL     1      10.098  31.292  24.744  1.00  0.00     0.006 C 
BRANCH   3   4
ATOM      4  C   UNL     1       9.754  32.786  24.900  1.00  0.00     0.053 C 
BRANCH   4   5
ATOM      5  C   UNL     1      10.910  33.682  24.573  1.00  0.00     0.041 C 
ATOM      6  O   UNL     1      11.443  33.644  23.432  1.00  0.00    -0.550 OA
ATOM      7  O   UNL     1      11.428  34.532  25.543  1.00  0.00    -0.550 OA
ENDBRANCH   4   5
ENDBRANCH   3   4
ENDBRANCH   2   3
ENDBRANCH   1   2
BRANCH   1   8
ATOM      8  C   UNL     1      12.559  31.644  27.489  1.00  0.00     0.000 C 
BRANCH   8   9
ATOM      9  C   UNL     1      13.234  30.964  28.687  1.00  0.00     0.006 C 
BRANCH   9  10
ATOM     10  C   UNL     1      12.195  30.507  29.716  1.00  0.00     0.053 C 
BRANCH  10  11
ATOM     11  C   UNL     1      12.034  31.537  30.789  1.00  0.00     0.041 C 
ATOM     12  O   UNL     1      13.047  32.029  31.352  1.00  0.00    -0.550 OA
ATOM     13  O   UNL     1      10.766  31.988  31.133  1.00  0.00    -0.550 OA
ENDBRANCH  10  11
ENDBRANCH   9  10
ENDBRANCH   8   9
ENDBRANCH   1   8
TORSDOF 8
ENDMDL
MODEL 3
REMARK VINA RESULT:    -4.177      1.737      2.261
REMARK INTER + INTRA:          -6.641
REMARK INTER:                  -5.984
REMARK INTRA:                  -0.656
REMARK UNBOUND:                -0.510
REMARK SMILES O=C([O-])CCCCCCCC(=O)[O-]
REMARK SMILES IDX 7 1 6 2 5 3 4 4 2 5 1 6 3 7 8 8 9 9 10 10 11 11 12 12 13 13
REMARK H PARENT
REMARK Flexibility Score: inf
ROOT
ATOM      1  C   UNL     1       9.910  29.678  27.389  1.00  0.00     0.000 C 
ENDROOT
BRANCH   1   2
ATOM      2  C   UNL     1       9.756  30.689  28.537  1.00  0.00     0.000 C 
BRANCH   2   3
ATOM      3  C   UNL     1      10.980  30.820  29.466  1.00  0.00     0.006 C 
BRANCH   3   4
ATOM      4  C   UNL     1      12.244  30.112  28.943  1.00  0.00     0.053 C 
BRANCH   4   5
ATOM      5  C   UNL     1      13.409  31.044  28.796  1.00  0.00     0.041 C 
ATOM      6  O   UNL     1      14.021  31.129  27.698  1.00  0.00    -0.550 OA
ATOM      7  O   UNL     1      13.845  31.791  29.883  1.00  0.00    -0.550 OA
ENDBRANCH   4   5
ENDBRANCH   3   4
ENDBRANCH   2   3
ENDBRANCH   1   2
BRANCH   1   8
ATOM      8  C   UNL     1       9.153  30.092  26.120  1.00  0.00     0.000 C 
BRANCH   8   9
ATOM      9  C   UNL     1       9.073  31.619  26.003  1.00  0.00     0.006 C 
BRANCH   9  10
ATOM     10  C   UNL     1      10.059  32.143  24.954  1.00  0.00     0.053 C 
BRANCH  10  11
ATOM     11  C   UNL     1      10.878  33.261  25.519  1.00  0.00     0.041 C 
ATOM     12  O   UNL     1      11.519  33.097  26.590  1.00  0.00    -0.550 OA
ATOM     13  O   UNL     1      10.971  34.468  24.837  1.00  0.00    -0.550 OA
ENDBRANCH  10  11
ENDBRANCH   9  10
ENDBRANCH   8   9
ENDBRANCH   1   8
TORSDOF 8
ENDMDL
MODEL 4
REMARK VINA RESULT:    -4.143      1.765      5.244
REMARK INTER + INTRA:          -6.591
REMARK INTER:                  -5.917
REMARK INTRA:                  -0.674
REMARK UNBOUND:                -0.510
REMARK SMILES O=C([O-])CCCCCCCC(=O)[O-]
REMARK SMILES IDX 7 1 6 2 5 3 4 4 2 5 1 6 3 7 8 8 9 9 10 10 11 11 12 12 13 13
REMARK H PARENT
REMARK Flexibility Score: inf
ROOT
ATOM      1  C   UNL     1       9.745  31.887  28.547  1.00  0.00     0.000 C 
ENDROOT
BRANCH   1   2
ATOM      2  C   UNL     1       9.339  31.156  27.257  1.00  0.00     0.000 C 
BRANCH   2   3
ATOM      3  C   UNL     1      10.377  31.205  26.118  1.00  0.00     0.006 C 
BRANCH   3   4
ATOM      4  C   UNL     1      11.205  32.503  26.079  1.00  0.00     0.053 C 
BRANCH   4   5
ATOM      5  C   UNL     1      10.657  33.509  25.112  1.00  0.00     0.041 C 
ATOM      6  O   UNL     1       9.675  33.218  24.378  1.00  0.00    -0.550 OA
ATOM      7  O   UNL     1      11.257  34.757  24.990  1.00  0.00    -0.550 OA
ENDBRANCH   4   5
ENDBRANCH   3   4
ENDBRANCH   2   3
ENDBRANCH   1   2
BRANCH   1   8
ATOM      8  C   UNL     1       9.957  30.936  29.733  1.00  0.00     0.000 C 
BRANCH   8   9
ATOM      9  C   UNL     1      11.422  30.944  30.189  1.00  0.00     0.006 C 
BRANCH   9  10
ATOM     10  C   UNL     1      12.322  30.261  29.154  1.00  0.00     0.053 C 
BRANCH  10  11
ATOM     11  C   UNL     1      13.518  31.111  28.861  1.00  0.00     0.041 C 
ATOM     12  O   UNL     1      14.036  31.812  29.771  1.00  0.00    -0.550 OA
ATOM     13  O   UNL     1      14.091  31.091  27.595  1.00  0.00    -0.550 OA
ENDBRANCH  10  11
ENDBRANCH   9  10
ENDBRANCH   8   9
ENDBRANCH   1   8
TORSDOF 8
ENDMDL
MODEL 5
REMARK VINA RESULT:    -4.140      2.053      2.877
REMARK INTER + INTRA:          -6.585
REMARK INTER:                  -5.885
REMARK INTRA:                  -0.700
REMARK UNBOUND:                -0.510
REMARK SMILES O=C([O-])CCCCCCCC(=O)[O-]
REMARK SMILES IDX 7 1 6 2 5 3 4 4 2 5 1 6 3 7 8 8 9 9 10 10 11 11 12 12 13 13
REMARK H PARENT
REMARK Flexibility Score: inf
ROOT
ATOM      1  C   UNL     1       9.291  31.253  27.871  1.00  0.00     0.000 C 
ENDROOT
BRANCH   1   2
ATOM      2  C   UNL     1      10.511  31.767  28.652  1.00  0.00     0.000 C 
BRANCH   2   3
ATOM      3  C   UNL     1      11.139  30.756  29.632  1.00  0.00     0.006 C 
BRANCH   3   4
ATOM      4  C   UNL     1      12.402  30.059  29.090  1.00  0.00     0.053 C 
BRANCH   4   5
ATOM      5  C   UNL     1      13.533  31.013  28.856  1.00  0.00     0.041 C 
ATOM      6  O   UNL     1      13.909  31.791  29.772  1.00  0.00    -0.550 OA
ATOM      7  O   UNL     1      14.148  31.073  27.611  1.00  0.00    -0.550 OA
ENDBRANCH   4   5
ENDBRANCH   3   4
ENDBRANCH   2   3
ENDBRANCH   1   2
BRANCH   1   8
ATOM      8  C   UNL     1       9.396  31.505  26.361  1.00  0.00     0.000 C 
BRANCH   8   9
ATOM      9  C   UNL     1      10.834  31.859  25.963  1.00  0.00     0.006 C 
BRANCH   9  10
ATOM     10  C   UNL     1      11.546  30.653  25.341  1.00  0.00     0.053 C 
BRANCH  10  11
ATOM     11  C   UNL     1      11.244  30.565  23.878  1.00  0.00     0.041 C 
ATOM     12  O   UNL     1      10.564  29.605  23.429  1.00  0.00    -0.550 OA
ATOM     13  O   UNL     1      11.672  31.569  23.018  1.00  0.00    -0.550 OA
ENDBRANCH  10  11
ENDBRANCH   9  10
ENDBRANCH   8   9
ENDBRANCH   1   8
TORSDOF 8
ENDMDL
MODEL 6
REMARK VINA RESULT:    -4.091      2.052      2.907
REMARK INTER + INTRA:          -6.515
REMARK INTER:                  -5.904
REMARK INTRA:                  -0.610
REMARK UNBOUND:                -0.510
REMARK SMILES O=C([O-])CCCCCCCC(=O)[O-]
REMARK SMILES IDX 7 1 6 2 5 3 4 4 2 5 1 6 3 7 8 8 9 9 10 10 11 11 12 12 13 13
REMARK H PARENT
REMARK Flexibility Score: inf
ROOT
ATOM      1  C   UNL     1       9.979  32.189  29.737  1.00  0.00     0.000 C 
ENDROOT
BRANCH   1   2
ATOM      2  C   UNL     1      11.075  31.943  30.787  1.00  0.00     0.000 C 
BRANCH   2   3
ATOM      3  C   UNL     1      12.435  32.604  30.486  1.00  0.00     0.006 C 
BRANCH   3   4
ATOM      4  C   UNL     1      13.565  31.603  30.179  1.00  0.00     0.053 C 
BRANCH   4   5
ATOM      5  C   UNL     1      13.345  30.858  28.897  1.00  0.00     0.041 C 
ATOM      6  O   UNL     1      13.880  31.257  27.829  1.00  0.00    -0.550 OA
ATOM      7  O   UNL     1      12.514  29.745  28.872  1.00  0.00    -0.550 OA
ENDBRANCH   4   5
ENDBRANCH   3   4
ENDBRANCH   2   3
ENDBRANCH   1   2
BRANCH   1   8
ATOM      8  C   UNL     1      10.401  33.191  28.653  1.00  0.00     0.000 C 
BRANCH   8   9
ATOM      9  C   UNL     1      10.339  32.552  27.260  1.00  0.00     0.006 C 
BRANCH   9  10
ATOM     10  C   UNL     1      11.385  33.166  26.326  1.00  0.00     0.053 C 
BRANCH  10  11
ATOM     11  C   UNL     1      10.762  33.544  25.019  1.00  0.00     0.041 C 
ATOM     12  O   UNL     1       9.642  33.071  24.692  1.00  0.00    -0.550 OA
ATOM     13  O   UNL     1      11.396  34.455  24.185  1.00  0.00    -0.550 OA
ENDBRANCH  10  11
ENDBRANCH   9  10
ENDBRANCH   8   9
ENDBRANCH   1   8
TORSDOF 8
ENDMDL
MODEL 7
REMARK VINA RESULT:    -4.073     10.160     11.063
REMARK INTER + INTRA:          -6.488
REMARK INTER:                  -6.150
REMARK INTRA:                  -0.337
REMARK UNBOUND:                -0.510
REMARK SMILES O=C([O-])CCCCCCCC(=O)[O-]
REMARK SMILES IDX 7 1 6 2 5 3 4 4 2 5 1 6 3 7 8 8 9 9 10 10 11 11 12 12 13 13
REMARK H PARENT
REMARK Flexibility Score: inf
ROOT
ATOM      1  C   UNL     1       4.733  30.623  18.231  1.00  0.00     0.000 C 
ENDROOT
BRANCH   1   2
ATOM      2  C   UNL     1       5.977  30.060  17.523  1.00  0.00     0.000 C 
BRANCH   2   3
ATOM      3  C   UNL     1       7.254  29.998  18.386  1.00  0.00     0.006 C 
BRANCH   3   4
ATOM      4  C   UNL     1       8.368  29.114  17.795  1.00  0.00     0.053 C 
BRANCH   4   5
ATOM      5  C   UNL     1       8.465  27.779  18.470  1.00  0.00     0.041 C 
ATOM      6  O   UNL     1       9.577  27.196  18.571  1.00  0.00    -0.550 OA
ATOM      7  O   UNL     1       7.319  27.158  18.953  1.00  0.00    -0.550 OA
ENDBRANCH   4   5
ENDBRANCH   3   4
ENDBRANCH   2   3
ENDBRANCH   1   2
BRANCH   1   8
ATOM      8  C   UNL     1       3.858  31.485  17.311  1.00  0.00     0.000 C 
BRANCH   8   9
ATOM      9  C   UNL     1       4.014  32.974  17.643  1.00  0.00     0.006 C 
BRANCH   9  10
ATOM     10  C   UNL     1       4.530  33.168  19.072  1.00  0.00     0.053 C 
BRANCH  10  11
ATOM     11  C   UNL     1       4.799  34.616  19.338  1.00  0.00     0.041 C 
ATOM     12  O   UNL     1       3.900  35.475  19.138  1.00  0.00    -0.550 OA
ATOM     13  O   UNL     1       6.028  35.010  19.853  1.00  0.00    -0.550 OA
ENDBRANCH  10  11
ENDBRANCH   9  10
ENDBRANCH   8   9
ENDBRANCH   1   8
TORSDOF 8
ENDMDL
MODEL 8
REMARK VINA RESULT:    -4.025      2.062      5.394
REMARK INTER + INTRA:          -6.417
REMARK INTER:                  -5.612
REMARK INTRA:                  -0.805
REMARK UNBOUND:                -0.510
REMARK SMILES O=C([O-])CCCCCCCC(=O)[O-]
REMARK SMILES IDX 7 1 6 2 5 3 4 4 2 5 1 6 3 7 8 8 9 9 10 10 11 11 12 12 13 13
REMARK H PARENT
REMARK Flexibility Score: inf
ROOT
ATOM      1  C   UNL     1       9.427  30.704  27.607  1.00  0.00     0.000 C 
ENDROOT
BRANCH   1   2
ATOM      2  C   UNL     1       8.913  30.843  26.164  1.00  0.00     0.000 C 
BRANCH   2   3
ATOM      3  C   UNL     1       9.293  32.159  25.455  1.00  0.00     0.006 C 
BRANCH   3   4
ATOM      4  C   UNL     1      10.805  32.328  25.216  1.00  0.00     0.053 C 
BRANCH   4   5
ATOM      5  C   UNL     1      11.421  31.137  24.546  1.00  0.00     0.041 C 
ATOM      6  O   UNL     1      12.238  30.409  25.169  1.00  0.00    -0.550 OA
ATOM      7  O   UNL     1      11.124  30.853  23.219  1.00  0.00    -0.550 OA
ENDBRANCH   4   5
ENDBRANCH   3   4
ENDBRANCH   2   3
ENDBRANCH   1   2
BRANCH   1   8
ATOM      8  C   UNL     1      10.192  29.395  27.846  1.00  0.00     0.000 C 
BRANCH   8   9
ATOM      9  C   UNL     1      11.520  29.659  28.567  1.00  0.00     0.006 C 
BRANCH   9  10
ATOM     10  C   UNL     1      11.815  31.160  28.642  1.00  0.00     0.053 C 
BRANCH  10  11
ATOM     11  C   UNL     1      13.276  31.395  28.868  1.00  0.00     0.041 C 
ATOM     12  O   UNL     1      14.117  31.032  28.003  1.00  0.00    -0.550 OA
ATOM     13  O   UNL     1      13.705  32.056  30.012  1.00  0.00    -0.550 OA
ENDBRANCH  10  11
ENDBRANCH   9  10
ENDBRANCH   8   9
ENDBRANCH   1   8
TORSDOF 8
ENDMDL
MODEL 9
REMARK VINA RESULT:    -3.999      2.308      5.521
REMARK INTER + INTRA:          -6.379
REMARK INTER:                  -5.669
REMARK INTRA:                  -0.710
REMARK UNBOUND:                -0.510
REMARK SMILES O=C([O-])CCCCCCCC(=O)[O-]
REMARK SMILES IDX 7 1 6 2 5 3 4 4 2 5 1 6 3 7 8 8 9 9 10 10 11 11 12 12 13 13
REMARK H PARENT
REMARK Flexibility Score: inf
ROOT
ATOM      1  C   UNL     1       9.934  31.092  28.520  1.00  0.00     0.000 C 
ENDROOT
BRANCH   1   2
ATOM      2  C   UNL     1      10.337  32.443  27.907  1.00  0.00     0.000 C 
BRANCH   2   3
ATOM      3  C   UNL     1      11.470  32.380  26.863  1.00  0.00     0.006 C 
BRANCH   3   4
ATOM      4  C   UNL     1      11.789  30.957  26.367  1.00  0.00     0.053 C 
BRANCH   4   5
ATOM      5  C   UNL     1      11.228  30.682  25.005  1.00  0.00     0.041 C 
ATOM      6  O   UNL     1      11.958  30.188  24.104  1.00  0.00    -0.550 OA
ATOM      7  O   UNL     1       9.909  31.007  24.715  1.00  0.00    -0.550 OA
ENDBRANCH   4   5
ENDBRANCH   3   4
ENDBRANCH   2   3
ENDBRANCH   1   2
BRANCH   1   8
ATOM      8  C   UNL     1       9.918  31.111  30.055  1.00  0.00     0.000 C 
BRANCH   8   9
ATOM      9  C   UNL     1      10.886  32.168  30.601  1.00  0.00     0.006 C 
BRANCH   9  10
ATOM     10  C   UNL     1      12.158  31.516  31.153  1.00  0.00     0.053 C 
BRANCH  10  11
ATOM     11  C   UNL     1      13.351  31.937  30.354  1.00  0.00     0.041 C 
ATOM     12  O   UNL     1      14.053  32.913  30.731  1.00  0.00    -0.550 OA
ATOM     13  O   UNL     1      13.715  31.223  29.219  1.00  0.00    -0.550 OA
ENDBRANCH  10  11
ENDBRANCH   9  10
ENDBRANCH   8   9
ENDBRANCH   1   8
TORSDOF 8
ENDMDL
