MODEL 1
REMARK VINA RESULT:    -3.699      0.000      0.000
REMARK INTER + INTRA:          -7.019
REMARK INTER:                  -5.645
REMARK INTRA:                  -1.374
REMARK UNBOUND:                -1.374
REMARK SMILES CCCCCCCCCC=CC(=O)[O-]
REMARK SMILES IDX 7 1 8 2 9 3 10 4 11 5 12 6 13 7 14 8 6 9 5 10 4 11 3 12 2 13
REMARK SMILES IDX 1 14
REMARK H PARENT
REMARK Flexibility Score: inf
ROOT
ATOM      1  C   UNL     1      77.513 -73.381  -3.462  1.00  0.00     0.000 C 
ENDROOT
BRANCH   1   2
ATOM      2  C   UNL     1      76.320 -72.470  -3.801  1.00  0.00     0.004 C 
BRANCH   2   3
ATOM      3  C   UNL     1      74.980 -73.221  -3.824  1.00  0.00     0.027 C 
BRANCH   3   4
ATOM      4  C   UNL     1      74.023 -72.652  -2.815  1.00  0.00    -0.025 C 
ATOM      5  C   UNL     1      74.458 -72.029  -1.715  1.00  0.00     0.020 C 
BRANCH   5   6
ATOM      6  C   UNL     1      73.539 -71.453  -0.720  1.00  0.00     0.064 C 
ATOM      7  O   UNL     1      72.357 -71.873  -0.605  1.00  0.00    -0.545 OA
ATOM      8  O   UNL     1      73.984 -70.429   0.106  1.00  0.00    -0.545 OA
ENDBRANCH   5   6
ENDBRANCH   3   4
ENDBRANCH   2   3
ENDBRANCH   1   2
BRANCH   1   9
ATOM      9  C   UNL     1      77.480 -74.773  -4.120  1.00  0.00     0.000 C 
BRANCH   9  10
ATOM     10  C   UNL     1      77.992 -75.887  -3.192  1.00  0.00     0.000 C 
BRANCH  10  11
ATOM     11  C   UNL     1      78.293 -75.380  -1.772  1.00  0.00    -0.000 C 
BRANCH  11  12
ATOM     12  C   UNL     1      77.347 -75.975  -0.718  1.00  0.00    -0.000 C 
BRANCH  12  13
ATOM     13  C   UNL     1      76.050 -75.164  -0.626  1.00  0.00    -0.003 C 
ATOM     14  C   UNL     1      74.865 -75.954  -1.175  1.00  0.00     0.004 C 
ENDBRANCH  12  13
ENDBRANCH  11  12
ENDBRANCH  10  11
ENDBRANCH   9  10
ENDBRANCH   1   9
TORSDOF 9
ENDMDL
MODEL 2
REMARK VINA RESULT:    -3.665      3.559      5.204
REMARK INTER + INTRA:          -6.968
REMARK INTER:                  -5.582
REMARK INTRA:                  -1.386
REMARK UNBOUND:                -1.374
REMARK SMILES CCCCCCCCCC=CC(=O)[O-]
REMARK SMILES IDX 7 1 8 2 9 3 10 4 11 5 12 6 13 7 14 8 6 9 5 10 4 11 3 12 2 13
REMARK SMILES IDX 1 14
REMARK H PARENT
REMARK Flexibility Score: inf
ROOT
ATOM      1  C   UNL     1      75.865 -72.947  -4.059  1.00  0.00     0.000 C 
ENDROOT
BRANCH   1   2
ATOM      2  C   UNL     1      77.367 -73.029  -3.736  1.00  0.00     0.004 C 
BRANCH   2   3
ATOM      3  C   UNL     1      77.652 -73.681  -2.374  1.00  0.00     0.027 C 
BRANCH   3   4
ATOM      4  C   UNL     1      77.947 -75.145  -2.526  1.00  0.00    -0.025 C 
ATOM      5  C   UNL     1      78.353 -75.887  -1.490  1.00  0.00     0.020 C 
BRANCH   5   6
ATOM      6  C   UNL     1      78.636 -77.325  -1.612  1.00  0.00     0.064 C 
ATOM      7  O   UNL     1      79.350 -77.771  -2.548  1.00  0.00    -0.545 OA
ATOM      8  O   UNL     1      78.105 -78.207  -0.679  1.00  0.00    -0.545 OA
ENDBRANCH   5   6
ENDBRANCH   3   4
ENDBRANCH   2   3
ENDBRANCH   1   2
BRANCH   1   9
ATOM      9  C   UNL     1      75.171 -71.646  -3.614  1.00  0.00     0.000 C 
BRANCH   9  10
ATOM     10  C   UNL     1      74.505 -71.764  -2.233  1.00  0.00     0.000 C 
BRANCH  10  11
ATOM     11  C   UNL     1      73.926 -73.165  -1.975  1.00  0.00    -0.000 C 
BRANCH  11  12
ATOM     12  C   UNL     1      74.469 -73.803  -0.687  1.00  0.00    -0.000 C 
BRANCH  12  13
ATOM     13  C   UNL     1      74.528 -75.329  -0.815  1.00  0.00    -0.003 C 
ATOM     14  C   UNL     1      74.290 -75.772  -2.256  1.00  0.00     0.004 C 
ENDBRANCH  12  13
ENDBRANCH  11  12
ENDBRANCH  10  11
ENDBRANCH   9  10
ENDBRANCH   1   9
TORSDOF 9
ENDMDL
MODEL 3
REMARK VINA RESULT:    -3.584      3.186      4.652
REMARK INTER + INTRA:          -6.844
REMARK INTER:                  -5.171
REMARK INTRA:                  -1.673
REMARK UNBOUND:                -1.374
REMARK SMILES CCCCCCCCCC=CC(=O)[O-]
REMARK SMILES IDX 7 1 8 2 9 3 10 4 11 5 12 6 13 7 14 8 6 9 5 10 4 11 3 12 2 13
REMARK SMILES IDX 1 14
REMARK H PARENT
REMARK Flexibility Score: inf
ROOT
ATOM      1  C   UNL     1      74.871 -71.636  -3.071  1.00  0.00     0.000 C 
ENDROOT
BRANCH   1   2
ATOM      2  C   UNL     1      75.556 -72.729  -3.911  1.00  0.00     0.004 C 
BRANCH   2   3
ATOM      3  C   UNL     1      77.075 -72.790  -3.691  1.00  0.00     0.027 C 
BRANCH   3   4
ATOM      4  C   UNL     1      77.519 -74.188  -3.366  1.00  0.00    -0.025 C 
ATOM      5  C   UNL     1      77.828 -74.550  -2.117  1.00  0.00     0.020 C 
BRANCH   5   6
ATOM      6  C   UNL     1      78.253 -75.916  -1.774  1.00  0.00     0.064 C 
ATOM      7  O   UNL     1      77.979 -76.421  -0.653  1.00  0.00    -0.545 OA
ATOM      8  O   UNL     1      78.968 -76.661  -2.702  1.00  0.00    -0.545 OA
ENDBRANCH   5   6
ENDBRANCH   3   4
ENDBRANCH   2   3
ENDBRANCH   1   2
BRANCH   1   9
ATOM      9  C   UNL     1      74.356 -72.097  -1.695  1.00  0.00     0.000 C 
BRANCH   9  10
ATOM     10  C   UNL     1      73.773 -73.519  -1.718  1.00  0.00     0.000 C 
BRANCH  10  11
ATOM     11  C   UNL     1      74.498 -74.471  -0.753  1.00  0.00    -0.000 C 
BRANCH  11  12
ATOM     12  C   UNL     1      74.500 -75.927  -1.244  1.00  0.00    -0.000 C 
BRANCH  12  13
ATOM     13  C   UNL     1      74.298 -75.992  -2.762  1.00  0.00    -0.003 C 
ATOM     14  C   UNL     1      75.148 -77.096  -3.385  1.00  0.00     0.004 C 
ENDBRANCH  12  13
ENDBRANCH  11  12
ENDBRANCH  10  11
ENDBRANCH   9  10
ENDBRANCH   1   9
TORSDOF 9
ENDMDL
MODEL 4
REMARK VINA RESULT:    -3.550      1.120      1.890
REMARK INTER + INTRA:          -6.792
REMARK INTER:                  -5.182
REMARK INTRA:                  -1.610
REMARK UNBOUND:                -1.374
REMARK SMILES CCCCCCCCCC=CC(=O)[O-]
REMARK SMILES IDX 7 1 8 2 9 3 10 4 11 5 12 6 13 7 14 8 6 9 5 10 4 11 3 12 2 13
REMARK SMILES IDX 1 14
REMARK H PARENT
REMARK Flexibility Score: inf
ROOT
ATOM      1  C   UNL     1      77.892 -74.115  -2.243  1.00  0.00     0.000 C 
ENDROOT
BRANCH   1   2
ATOM      2  C   UNL     1      77.461 -73.889  -3.702  1.00  0.00     0.004 C 
BRANCH   2   3
ATOM      3  C   UNL     1      76.148 -73.100  -3.824  1.00  0.00     0.027 C 
BRANCH   3   4
ATOM      4  C   UNL     1      75.555 -72.823  -2.472  1.00  0.00    -0.025 C 
ATOM      5  C   UNL     1      74.301 -72.379  -2.338  1.00  0.00     0.020 C 
BRANCH   5   6
ATOM      6  C   UNL     1      73.695 -72.113  -1.024  1.00  0.00     0.064 C 
ATOM      7  O   UNL     1      73.016 -72.992  -0.430  1.00  0.00    -0.545 OA
ATOM      8  O   UNL     1      73.876 -70.871  -0.428  1.00  0.00    -0.545 OA
ENDBRANCH   5   6
ENDBRANCH   3   4
ENDBRANCH   2   3
ENDBRANCH   1   2
BRANCH   1   9
ATOM      9  C   UNL     1      78.329 -75.553  -1.906  1.00  0.00     0.000 C 
BRANCH   9  10
ATOM     10  C   UNL     1      77.573 -76.143  -0.704  1.00  0.00     0.000 C 
BRANCH  10  11
ATOM     11  C   UNL     1      76.324 -76.935  -1.124  1.00  0.00    -0.000 C 
BRANCH  11  12
ATOM     12  C   UNL     1      75.023 -76.143  -0.922  1.00  0.00    -0.000 C 
BRANCH  12  13
ATOM     13  C   UNL     1      74.147 -76.199  -2.178  1.00  0.00    -0.003 C 
ATOM     14  C   UNL     1      74.955 -76.643  -3.395  1.00  0.00     0.004 C 
ENDBRANCH  12  13
ENDBRANCH  11  12
ENDBRANCH  10  11
ENDBRANCH   9  10
ENDBRANCH   1   9
TORSDOF 9
ENDMDL
MODEL 5
REMARK VINA RESULT:    -3.510      1.204      2.282
REMARK INTER + INTRA:          -6.730
REMARK INTER:                  -5.512
REMARK INTRA:                  -1.218
REMARK UNBOUND:                -1.374
REMARK SMILES CCCCCCCCCC=CC(=O)[O-]
REMARK SMILES IDX 7 1 8 2 9 3 10 4 11 5 12 6 13 7 14 8 6 9 5 10 4 11 3 12 2 13
REMARK SMILES IDX 1 14
REMARK H PARENT
REMARK Flexibility Score: inf
ROOT
ATOM      1  C   UNL     1      74.931 -71.789  -3.423  1.00  0.00     0.000 C 
ENDROOT
BRANCH   1   2
ATOM      2  C   UNL     1      73.937 -72.961  -3.351  1.00  0.00     0.004 C 
BRANCH   2   3
ATOM      3  C   UNL     1      73.330 -73.146  -1.952  1.00  0.00     0.027 C 
BRANCH   3   4
ATOM      4  C   UNL     1      73.725 -72.023  -1.037  1.00  0.00    -0.025 C 
ATOM      5  C   UNL     1      72.814 -71.346  -0.329  1.00  0.00     0.020 C 
BRANCH   5   6
ATOM      6  C   UNL     1      73.179 -70.251   0.583  1.00  0.00     0.064 C 
ATOM      7  O   UNL     1      72.667 -70.161   1.731  1.00  0.00    -0.545 OA
ATOM      8  O   UNL     1      74.104 -69.301   0.172  1.00  0.00    -0.545 OA
ENDBRANCH   5   6
ENDBRANCH   3   4
ENDBRANCH   2   3
ENDBRANCH   1   2
BRANCH   1   9
ATOM      9  C   UNL     1      76.265 -72.105  -4.125  1.00  0.00     0.000 C 
BRANCH   9  10
ATOM     10  C   UNL     1      77.225 -72.923  -3.245  1.00  0.00     0.000 C 
BRANCH  10  11
ATOM     11  C   UNL     1      77.410 -74.362  -3.753  1.00  0.00    -0.000 C 
BRANCH  11  12
ATOM     12  C   UNL     1      77.294 -75.407  -2.633  1.00  0.00    -0.000 C 
BRANCH  12  13
ATOM     13  C   UNL     1      76.653 -74.798  -1.381  1.00  0.00    -0.003 C 
ATOM     14  C   UNL     1      75.632 -75.751  -0.765  1.00  0.00     0.004 C 
ENDBRANCH  12  13
ENDBRANCH  11  12
ENDBRANCH  10  11
ENDBRANCH   9  10
ENDBRANCH   1   9
TORSDOF 9
ENDMDL
MODEL 6
REMARK VINA RESULT:    -3.494      1.430      2.685
REMARK INTER + INTRA:          -6.706
REMARK INTER:                  -5.646
REMARK INTRA:                  -1.059
REMARK UNBOUND:                -1.374
REMARK SMILES CCCCCCCCCC=CC(=O)[O-]
REMARK SMILES IDX 7 1 8 2 9 3 10 4 11 5 12 6 13 7 14 8 6 9 5 10 4 11 3 12 2 13
REMARK SMILES IDX 1 14
REMARK H PARENT
REMARK Flexibility Score: inf
ROOT
ATOM      1  C   UNL     1      73.998 -75.002  -2.881  1.00  0.00     0.000 C 
ENDROOT
BRANCH   1   2
ATOM      2  C   UNL     1      73.992 -74.273  -1.526  1.00  0.00     0.004 C 
BRANCH   2   3
ATOM      3  C   UNL     1      74.320 -72.777  -1.650  1.00  0.00     0.027 C 
BRANCH   3   4
ATOM      4  C   UNL     1      73.394 -71.948  -0.806  1.00  0.00    -0.025 C 
ATOM      5  C   UNL     1      73.812 -70.829  -0.204  1.00  0.00     0.020 C 
BRANCH   5   6
ATOM      6  C   UNL     1      72.920 -69.995   0.616  1.00  0.00     0.064 C 
ATOM      7  O   UNL     1      73.222 -68.806   0.904  1.00  0.00    -0.545 OA
ATOM      8  O   UNL     1      71.724 -70.527   1.081  1.00  0.00    -0.545 OA
ENDBRANCH   5   6
ENDBRANCH   3   4
ENDBRANCH   2   3
ENDBRANCH   1   2
BRANCH   1   9
ATOM      9  C   UNL     1      74.905 -74.376  -3.956  1.00  0.00     0.000 C 
BRANCH   9  10
ATOM     10  C   UNL     1      76.239 -75.123  -4.125  1.00  0.00     0.000 C 
BRANCH  10  11
ATOM     11  C   UNL     1      77.454 -74.245  -3.786  1.00  0.00    -0.000 C 
BRANCH  11  12
ATOM     12  C   UNL     1      77.713 -74.147  -2.275  1.00  0.00    -0.000 C 
BRANCH  12  13
ATOM     13  C   UNL     1      78.119 -75.509  -1.700  1.00  0.00    -0.003 C 
ATOM     14  C   UNL     1      77.172 -75.942  -0.584  1.00  0.00     0.004 C 
ENDBRANCH  12  13
ENDBRANCH  11  12
ENDBRANCH  10  11
ENDBRANCH   9  10
ENDBRANCH   1   9
TORSDOF 9
ENDMDL
MODEL 7
REMARK VINA RESULT:    -3.467      1.839      3.308
REMARK INTER + INTRA:          -6.665
REMARK INTER:                  -5.051
REMARK INTRA:                  -1.614
REMARK UNBOUND:                -1.374
REMARK SMILES CCCCCCCCCC=CC(=O)[O-]
REMARK SMILES IDX 7 1 8 2 9 3 10 4 11 5 12 6 13 7 14 8 6 9 5 10 4 11 3 12 2 13
REMARK SMILES IDX 1 14
REMARK H PARENT
REMARK Flexibility Score: inf
ROOT
ATOM      1  C   UNL     1      78.598 -76.485  -1.663  1.00  0.00     0.000 C 
ENDROOT
BRANCH   1   2
ATOM      2  C   UNL     1      78.243 -75.072  -2.157  1.00  0.00     0.004 C 
BRANCH   2   3
ATOM      3  C   UNL     1      77.671 -75.061  -3.582  1.00  0.00     0.027 C 
BRANCH   3   4
ATOM      4  C   UNL     1      76.752 -73.891  -3.789  1.00  0.00    -0.025 C 
ATOM      5  C   UNL     1      76.137 -73.296  -2.760  1.00  0.00     0.020 C 
BRANCH   5   6
ATOM      6  C   UNL     1      75.243 -72.142  -2.937  1.00  0.00     0.064 C 
ATOM      7  O   UNL     1      74.281 -71.936  -2.150  1.00  0.00    -0.545 OA
ATOM      8  O   UNL     1      75.463 -71.264  -3.991  1.00  0.00    -0.545 OA
ENDBRANCH   5   6
ENDBRANCH   3   4
ENDBRANCH   2   3
ENDBRANCH   1   2
BRANCH   1   9
ATOM      9  C   UNL     1      77.531 -77.155  -0.777  1.00  0.00     0.000 C 
BRANCH   9  10
ATOM     10  C   UNL     1      76.478 -76.163  -0.255  1.00  0.00     0.000 C 
BRANCH  10  11
ATOM     11  C   UNL     1      75.059 -76.497  -0.745  1.00  0.00    -0.000 C 
BRANCH  11  12
ATOM     12  C   UNL     1      75.058 -77.395  -1.991  1.00  0.00    -0.000 C 
BRANCH  12  13
ATOM     13  C   UNL     1      74.341 -76.710  -3.159  1.00  0.00    -0.003 C 
ATOM     14  C   UNL     1      73.343 -75.668  -2.660  1.00  0.00     0.004 C 
ENDBRANCH  12  13
ENDBRANCH  11  12
ENDBRANCH  10  11
ENDBRANCH   9  10
ENDBRANCH   1   9
TORSDOF 9
ENDMDL
MODEL 8
REMARK VINA RESULT:    -3.429      1.590      3.181
REMARK INTER + INTRA:          -6.607
REMARK INTER:                  -5.005
REMARK INTRA:                  -1.601
REMARK UNBOUND:                -1.374
REMARK SMILES CCCCCCCCCC=CC(=O)[O-]
REMARK SMILES IDX 7 1 8 2 9 3 10 4 11 5 12 6 13 7 14 8 6 9 5 10 4 11 3 12 2 13
REMARK SMILES IDX 1 14
REMARK H PARENT
REMARK Flexibility Score: inf
ROOT
ATOM      1  C   UNL     1      74.286 -76.545  -2.624  1.00  0.00     0.000 C 
ENDROOT
BRANCH   1   2
ATOM      2  C   UNL     1      74.847 -77.033  -1.278  1.00  0.00     0.004 C 
BRANCH   2   3
ATOM      3  C   UNL     1      74.901 -75.926  -0.214  1.00  0.00     0.027 C 
BRANCH   3   4
ATOM      4  C   UNL     1      74.279 -74.657  -0.722  1.00  0.00    -0.025 C 
ATOM      5  C   UNL     1      74.949 -73.499  -0.714  1.00  0.00     0.020 C 
BRANCH   5   6
ATOM      6  C   UNL     1      74.365 -72.246  -1.218  1.00  0.00     0.064 C 
ATOM      7  O   UNL     1      73.562 -71.574  -0.517  1.00  0.00    -0.545 OA
ATOM      8  O   UNL     1      74.704 -71.798  -2.488  1.00  0.00    -0.545 OA
ENDBRANCH   5   6
ENDBRANCH   3   4
ENDBRANCH   2   3
ENDBRANCH   1   2
BRANCH   1   9
ATOM      9  C   UNL     1      75.304 -76.499  -3.779  1.00  0.00     0.000 C 
BRANCH   9  10
ATOM     10  C   UNL     1      75.928 -75.107  -3.972  1.00  0.00     0.000 C 
BRANCH  10  11
ATOM     11  C   UNL     1      77.454 -75.113  -3.788  1.00  0.00    -0.000 C 
BRANCH  11  12
ATOM     12  C   UNL     1      77.890 -74.546  -2.428  1.00  0.00    -0.000 C 
BRANCH  12  13
ATOM     13  C   UNL     1      78.335 -75.669  -1.485  1.00  0.00    -0.003 C 
ATOM     14  C   UNL     1      78.738 -76.918  -2.264  1.00  0.00     0.004 C 
ENDBRANCH  12  13
ENDBRANCH  11  12
ENDBRANCH  10  11
ENDBRANCH   9  10
ENDBRANCH   1   9
TORSDOF 9
ENDMDL
MODEL 9
REMARK VINA RESULT:    -3.377      2.482      3.978
REMARK INTER + INTRA:          -6.527
REMARK INTER:                  -4.886
REMARK INTRA:                  -1.641
REMARK UNBOUND:                -1.374
REMARK SMILES CCCCCCCCCC=CC(=O)[O-]
REMARK SMILES IDX 7 1 8 2 9 3 10 4 11 5 12 6 13 7 14 8 6 9 5 10 4 11 3 12 2 13
REMARK SMILES IDX 1 14
REMARK H PARENT
REMARK Flexibility Score: inf
ROOT
ATOM      1  C   UNL     1      77.709 -77.424  -0.758  1.00  0.00     0.000 C 
ENDROOT
BRANCH   1   2
ATOM      2  C   UNL     1      77.605 -75.889  -0.733  1.00  0.00     0.004 C 
BRANCH   2   3
ATOM      3  C   UNL     1      78.491 -75.212  -1.791  1.00  0.00     0.027 C 
BRANCH   3   4
ATOM      4  C   UNL     1      77.674 -74.346  -2.707  1.00  0.00    -0.025 C 
ATOM      5  C   UNL     1      76.536 -73.775  -2.298  1.00  0.00     0.020 C 
BRANCH   5   6
ATOM      6  C   UNL     1      75.728 -72.913  -3.174  1.00  0.00     0.064 C 
ATOM      7  O   UNL     1      76.244 -71.942  -3.789  1.00  0.00    -0.545 OA
ATOM      8  O   UNL     1      74.372 -73.174  -3.325  1.00  0.00    -0.545 OA
ENDBRANCH   5   6
ENDBRANCH   3   4
ENDBRANCH   2   3
ENDBRANCH   1   2
BRANCH   1   9
ATOM      9  C   UNL     1      78.727 -77.994  -1.763  1.00  0.00     0.000 C 
BRANCH   9  10
ATOM     10  C   UNL     1      78.084 -78.926  -2.804  1.00  0.00     0.000 C 
BRANCH  10  11
ATOM     11  C   UNL     1      77.347 -78.154  -3.911  1.00  0.00    -0.000 C 
BRANCH  11  12
ATOM     12  C   UNL     1      75.820 -78.292  -3.814  1.00  0.00    -0.000 C 
BRANCH  12  13
ATOM     13  C   UNL     1      75.153 -76.918  -3.692  1.00  0.00    -0.003 C 
ATOM     14  C   UNL     1      74.341 -76.811  -2.404  1.00  0.00     0.004 C 
ENDBRANCH  12  13
ENDBRANCH  11  12
ENDBRANCH  10  11
ENDBRANCH   9  10
ENDBRANCH   1   9
TORSDOF 9
ENDMDL
