MODEL 1
REMARK VINA RESULT:    -6.815      0.000      0.000
REMARK INTER + INTRA:          -7.412
REMARK INTER:                  -7.412
REMARK INTRA:                   0.000
REMARK UNBOUND:                 0.000
REMARK SMILES Cc1cc(O)c2c(c1)C(=O)c1cc(O)cc(O)c1C2=O
REMARK SMILES IDX 1 1 2 2 8 3 7 4 6 5 4 6 3 7 19 8 20 9 18 10 11 11 9 12 10 13
REMARK SMILES IDX 12 14 13 15 15 16 16 17 5 18 17 20 14 22
REMARK H PARENT 5 19 17 21 14 23
REMARK Flexibility Score: inf
ROOT
ATOM      1  C   UNL     1     -33.739   4.888  79.471  1.00  0.00     0.044 C 
ATOM      2  C   UNL     1     -34.820   4.509  80.439  1.00  0.00    -0.047 A 
ATOM      3  C   UNL     1     -36.145   4.395  80.005  1.00  0.00     0.016 A 
ATOM      4  C   UNL     1     -37.159   4.000  80.894  1.00  0.00     0.038 A 
ATOM      5  C   UNL     1     -36.836   3.685  82.233  1.00  0.00     0.076 A 
ATOM      6  C   UNL     1     -35.500   3.847  82.680  1.00  0.00     0.127 A 
ATOM      7  C   UNL     1     -34.505   4.223  81.771  1.00  0.00     0.050 A 
ATOM      8  C   UNL     1     -37.907   3.130  83.101  1.00  0.00     0.201 C 
ATOM      9  O   UNL     1     -37.611   2.333  84.031  1.00  0.00    -0.288 OA
ATOM     10  C   UNL     1     -39.333   3.361  82.754  1.00  0.00     0.076 A 
ATOM     11  C   UNL     1     -39.651   3.675  81.413  1.00  0.00     0.041 A 
ATOM     12  C   UNL     1     -38.564   3.912  80.434  1.00  0.00     0.194 C 
ATOM     13  O   UNL     1     -38.839   4.065  79.211  1.00  0.00    -0.289 OA
ATOM     14  C   UNL     1     -40.996   3.765  81.017  1.00  0.00     0.059 A 
ATOM     15  C   UNL     1     -42.023   3.563  81.939  1.00  0.00     0.120 A 
ATOM     16  C   UNL     1     -41.714   3.293  83.274  1.00  0.00     0.093 A 
ATOM     17  C   UNL     1     -40.383   3.217  83.698  1.00  0.00     0.131 A 
ENDROOT
BRANCH   6  18
ATOM     18  O   UNL     1     -35.122   3.677  84.013  1.00  0.00    -0.507 OA
ATOM     19  H   UNL     1     -35.614   4.094  84.791  1.00  0.00     0.293 HD
ENDBRANCH   6  18
BRANCH  17  20
ATOM     20  O   UNL     1     -40.151   3.035  85.064  1.00  0.00    -0.507 OA
ATOM     21  H   UNL     1     -40.881   3.059  85.762  1.00  0.00     0.293 HD
ENDBRANCH  17  20
BRANCH  15  22
ATOM     22  O   UNL     1     -43.349   3.645  81.520  1.00  0.00    -0.508 OA
ATOM     23  H   UNL     1     -44.022   2.922  81.745  1.00  0.00     0.293 HD
ENDBRANCH  15  22
TORSDOF 3
ENDMDL
MODEL 2
REMARK VINA RESULT:    -6.796      2.113      3.192
REMARK INTER + INTRA:          -7.392
REMARK INTER:                  -7.392
REMARK INTRA:                   0.000
REMARK UNBOUND:                 0.000
REMARK SMILES Cc1cc(O)c2c(c1)C(=O)c1cc(O)cc(O)c1C2=O
REMARK SMILES IDX 1 1 2 2 8 3 7 4 6 5 4 6 3 7 19 8 20 9 18 10 11 11 9 12 10 13
REMARK SMILES IDX 12 14 13 15 15 16 16 17 5 18 17 20 14 22
REMARK H PARENT 5 19 17 21 14 23
REMARK Flexibility Score: inf
ROOT
ATOM      1  C   UNL     1     -34.560   4.456  81.786  1.00  0.00     0.044 C 
ATOM      2  C   UNL     1     -36.047   4.268  81.725  1.00  0.00    -0.047 A 
ATOM      3  C   UNL     1     -36.648   3.779  80.560  1.00  0.00     0.016 A 
ATOM      4  C   UNL     1     -38.035   3.559  80.506  1.00  0.00     0.038 A 
ATOM      5  C   UNL     1     -38.830   3.805  81.648  1.00  0.00     0.076 A 
ATOM      6  C   UNL     1     -38.223   4.345  82.811  1.00  0.00     0.127 A 
ATOM      7  C   UNL     1     -36.838   4.537  82.847  1.00  0.00     0.050 A 
ATOM      8  C   UNL     1     -40.264   3.421  81.600  1.00  0.00     0.201 C 
ATOM      9  O   UNL     1     -40.857   3.074  82.656  1.00  0.00    -0.288 OA
ATOM     10  C   UNL     1     -40.943   3.263  80.287  1.00  0.00     0.076 A 
ATOM     11  C   UNL     1     -40.144   3.016  79.148  1.00  0.00     0.041 A 
ATOM     12  C   UNL     1     -38.666   3.070  79.259  1.00  0.00     0.194 C 
ATOM     13  O   UNL     1     -37.947   2.726  78.279  1.00  0.00    -0.289 OA
ATOM     14  C   UNL     1     -40.752   2.724  77.917  1.00  0.00     0.059 A 
ATOM     15  C   UNL     1     -42.142   2.691  77.803  1.00  0.00     0.120 A 
ATOM     16  C   UNL     1     -42.937   2.974  78.916  1.00  0.00     0.093 A 
ATOM     17  C   UNL     1     -42.355   3.287  80.149  1.00  0.00     0.131 A 
ENDROOT
BRANCH   6  18
ATOM     18  O   UNL     1     -38.956   4.731  83.936  1.00  0.00    -0.507 OA
ATOM     19  H   UNL     1     -38.796   4.358  84.862  1.00  0.00     0.293 HD
ENDBRANCH   6  18
BRANCH  17  20
ATOM     20  O   UNL     1     -43.211   3.648  81.192  1.00  0.00    -0.507 OA
ATOM     21  H   UNL     1     -42.921   3.704  82.158  1.00  0.00     0.293 HD
ENDBRANCH  17  20
BRANCH  15  22
ATOM     22  O   UNL     1     -42.724   2.388  76.574  1.00  0.00    -0.508 OA
ATOM     23  H   UNL     1     -42.311   2.697  75.701  1.00  0.00     0.293 HD
ENDBRANCH  15  22
TORSDOF 3
ENDMDL
MODEL 3
REMARK VINA RESULT:    -6.354      3.297      4.556
REMARK INTER + INTRA:          -6.911
REMARK INTER:                  -6.911
REMARK INTRA:                   0.000
REMARK UNBOUND:                 0.000
REMARK SMILES Cc1cc(O)c2c(c1)C(=O)c1cc(O)cc(O)c1C2=O
REMARK SMILES IDX 1 1 2 2 8 3 7 4 6 5 4 6 3 7 19 8 20 9 18 10 11 11 9 12 10 13
REMARK SMILES IDX 12 14 13 15 15 16 16 17 5 18 17 20 14 22
REMARK H PARENT 5 19 17 21 14 23
REMARK Flexibility Score: inf
ROOT
ATOM      1  C   UNL     1     -34.128   9.775  76.980  1.00  0.00     0.044 C 
ATOM      2  C   UNL     1     -34.749   8.523  77.526  1.00  0.00    -0.047 A 
ATOM      3  C   UNL     1     -36.094   8.237  77.272  1.00  0.00     0.016 A 
ATOM      4  C   UNL     1     -36.675   7.046  77.742  1.00  0.00     0.038 A 
ATOM      5  C   UNL     1     -35.888   6.113  78.453  1.00  0.00     0.076 A 
ATOM      6  C   UNL     1     -34.537   6.430  78.748  1.00  0.00     0.127 A 
ATOM      7  C   UNL     1     -33.976   7.612  78.253  1.00  0.00     0.050 A 
ATOM      8  C   UNL     1     -36.497   4.804  78.803  1.00  0.00     0.201 C 
ATOM      9  O   UNL     1     -35.771   3.778  78.892  1.00  0.00    -0.288 OA
ATOM     10  C   UNL     1     -37.976   4.669  78.860  1.00  0.00     0.076 A 
ATOM     11  C   UNL     1     -38.759   5.604  78.146  1.00  0.00     0.041 A 
ATOM     12  C   UNL     1     -38.109   6.766  77.495  1.00  0.00     0.194 C 
ATOM     13  O   UNL     1     -38.783   7.531  76.751  1.00  0.00    -0.289 OA
ATOM     14  C   UNL     1     -40.150   5.430  78.062  1.00  0.00     0.059 A 
ATOM     15  C   UNL     1     -40.770   4.350  78.690  1.00  0.00     0.120 A 
ATOM     16  C   UNL     1     -40.005   3.445  79.430  1.00  0.00     0.093 A 
ATOM     17  C   UNL     1     -38.621   3.607  79.546  1.00  0.00     0.131 A 
ENDROOT
BRANCH   6  18
ATOM     18  O   UNL     1     -33.729   5.620  79.549  1.00  0.00    -0.507 OA
ATOM     19  H   UNL     1     -33.995   4.696  79.858  1.00  0.00     0.293 HD
ENDBRANCH   6  18
BRANCH  17  20
ATOM     20  O   UNL     1     -37.935   2.717  80.377  1.00  0.00    -0.507 OA
ATOM     21  H   UNL     1     -37.798   2.871  81.366  1.00  0.00     0.293 HD
ENDBRANCH  17  20
BRANCH  15  22
ATOM     22  O   UNL     1     -42.150   4.191  78.582  1.00  0.00    -0.508 OA
ATOM     23  H   UNL     1     -42.662   3.573  79.200  1.00  0.00     0.293 HD
ENDBRANCH  15  22
TORSDOF 3
ENDMDL
MODEL 4
REMARK VINA RESULT:    -6.304      1.759      5.371
REMARK INTER + INTRA:          -6.856
REMARK INTER:                  -6.856
REMARK INTRA:                   0.000
REMARK UNBOUND:                 0.000
REMARK SMILES Cc1cc(O)c2c(c1)C(=O)c1cc(O)cc(O)c1C2=O
REMARK SMILES IDX 1 1 2 2 8 3 7 4 6 5 4 6 3 7 19 8 20 9 18 10 11 11 9 12 10 13
REMARK SMILES IDX 12 14 13 15 15 16 16 17 5 18 17 20 14 22
REMARK H PARENT 5 19 17 21 14 23
REMARK Flexibility Score: inf
ROOT
ATOM      1  C   UNL     1     -42.305   2.625  77.297  1.00  0.00     0.044 C 
ATOM      2  C   UNL     1     -41.627   2.927  78.601  1.00  0.00    -0.047 A 
ATOM      3  C   UNL     1     -40.244   3.134  78.644  1.00  0.00     0.016 A 
ATOM      4  C   UNL     1     -39.605   3.460  79.853  1.00  0.00     0.038 A 
ATOM      5  C   UNL     1     -40.368   3.609  81.033  1.00  0.00     0.076 A 
ATOM      6  C   UNL     1     -41.762   3.352  80.993  1.00  0.00     0.127 A 
ATOM      7  C   UNL     1     -42.378   3.049  79.774  1.00  0.00     0.050 A 
ATOM      8  C   UNL     1     -39.680   4.098  82.256  1.00  0.00     0.201 C 
ATOM      9  O   UNL     1     -40.317   4.773  83.107  1.00  0.00    -0.288 OA
ATOM     10  C   UNL     1     -38.206   3.955  82.380  1.00  0.00     0.076 A 
ATOM     11  C   UNL     1     -37.447   3.807  81.198  1.00  0.00     0.041 A 
ATOM     12  C   UNL     1     -38.136   3.647  79.895  1.00  0.00     0.194 C 
ATOM     13  O   UNL     1     -37.468   3.644  78.823  1.00  0.00    -0.289 OA
ATOM     14  C   UNL     1     -36.044   3.808  81.262  1.00  0.00     0.059 A 
ATOM     15  C   UNL     1     -35.391   3.938  82.488  1.00  0.00     0.120 A 
ATOM     16  C   UNL     1     -36.136   4.044  83.664  1.00  0.00     0.093 A 
ATOM     17  C   UNL     1     -37.534   4.026  83.629  1.00  0.00     0.131 A 
ENDROOT
BRANCH   6  18
ATOM     18  O   UNL     1     -42.565   3.357  82.136  1.00  0.00    -0.507 OA
ATOM     19  H   UNL     1     -42.651   2.568  82.762  1.00  0.00     0.293 HD
ENDBRANCH   6  18
BRANCH  17  20
ATOM     20  O   UNL     1     -38.210   4.043  84.851  1.00  0.00    -0.507 OA
ATOM     21  H   UNL     1     -37.746   4.119  85.745  1.00  0.00     0.293 HD
ENDBRANCH  17  20
BRANCH  15  22
ATOM     22  O   UNL     1     -33.998   3.949  82.526  1.00  0.00    -0.508 OA
ATOM     23  H   UNL     1     -33.457   4.590  81.958  1.00  0.00     0.293 HD
ENDBRANCH  15  22
TORSDOF 3
ENDMDL
MODEL 5
REMARK VINA RESULT:    -6.275      1.788      3.824
REMARK INTER + INTRA:          -6.825
REMARK INTER:                  -6.825
REMARK INTRA:                   0.000
REMARK UNBOUND:                 0.000
REMARK SMILES Cc1cc(O)c2c(c1)C(=O)c1cc(O)cc(O)c1C2=O
REMARK SMILES IDX 1 1 2 2 8 3 7 4 6 5 4 6 3 7 19 8 20 9 18 10 11 11 9 12 10 13
REMARK SMILES IDX 12 14 13 15 15 16 16 17 5 18 17 20 14 22
REMARK H PARENT 5 19 17 21 14 23
REMARK Flexibility Score: inf
ROOT
ATOM      1  C   UNL     1     -34.105   4.083  83.155  1.00  0.00     0.044 C 
ATOM      2  C   UNL     1     -35.131   4.139  82.063  1.00  0.00    -0.047 A 
ATOM      3  C   UNL     1     -36.490   4.009  82.367  1.00  0.00     0.016 A 
ATOM      4  C   UNL     1     -37.463   4.103  81.357  1.00  0.00     0.038 A 
ATOM      5  C   UNL     1     -37.070   4.359  80.024  1.00  0.00     0.076 A 
ATOM      6  C   UNL     1     -35.689   4.444  79.714  1.00  0.00     0.127 A 
ATOM      7  C   UNL     1     -34.740   4.367  80.739  1.00  0.00     0.050 A 
ATOM      8  C   UNL     1     -38.132   4.598  79.013  1.00  0.00     0.201 C 
ATOM      9  O   UNL     1     -37.906   5.355  78.031  1.00  0.00    -0.288 OA
ATOM     10  C   UNL     1     -39.512   4.103  79.260  1.00  0.00     0.076 A 
ATOM     11  C   UNL     1     -39.901   3.848  80.594  1.00  0.00     0.041 A 
ATOM     12  C   UNL     1     -38.898   3.933  81.683  1.00  0.00     0.194 C 
ATOM     13  O   UNL     1     -39.265   3.833  82.887  1.00  0.00    -0.289 OA
ATOM     14  C   UNL     1     -41.234   3.512  80.882  1.00  0.00     0.059 A 
ATOM     15  C   UNL     1     -42.177   3.412  79.858  1.00  0.00     0.120 A 
ATOM     16  C   UNL     1     -41.788   3.623  78.533  1.00  0.00     0.093 A 
ATOM     17  C   UNL     1     -40.463   3.939  78.219  1.00  0.00     0.131 A 
ENDROOT
BRANCH   6  18
ATOM     18  O   UNL     1     -35.214   4.572  78.407  1.00  0.00    -0.507 OA
ATOM     19  H   UNL     1     -35.797   4.472  77.588  1.00  0.00     0.293 HD
ENDBRANCH   6  18
BRANCH  17  20
ATOM     20  O   UNL     1     -40.129   4.045  76.866  1.00  0.00    -0.507 OA
ATOM     21  H   UNL     1     -40.813   4.071  76.123  1.00  0.00     0.293 HD
ENDBRANCH  17  20
BRANCH  15  22
ATOM     22  O   UNL     1     -43.496   3.089  80.169  1.00  0.00    -0.508 OA
ATOM     23  H   UNL     1     -44.109   3.752  80.629  1.00  0.00     0.293 HD
ENDBRANCH  15  22
TORSDOF 3
ENDMDL
MODEL 6
REMARK VINA RESULT:    -6.275     10.854     12.755
REMARK INTER + INTRA:          -6.825
REMARK INTER:                  -6.825
REMARK INTRA:                   0.000
REMARK UNBOUND:                 0.000
REMARK SMILES Cc1cc(O)c2c(c1)C(=O)c1cc(O)cc(O)c1C2=O
REMARK SMILES IDX 1 1 2 2 8 3 7 4 6 5 4 6 3 7 19 8 20 9 18 10 11 11 9 12 10 13
REMARK SMILES IDX 12 14 13 15 15 16 16 17 5 18 17 20 14 22
REMARK H PARENT 5 19 17 21 14 23
REMARK Flexibility Score: inf
ROOT
ATOM      1  C   UNL     1     -47.979  -5.099  74.991  1.00  0.00     0.044 C 
ATOM      2  C   UNL     1     -47.204  -3.825  74.822  1.00  0.00    -0.047 A 
ATOM      3  C   UNL     1     -47.868  -2.632  74.518  1.00  0.00     0.016 A 
ATOM      4  C   UNL     1     -47.157  -1.426  74.399  1.00  0.00     0.038 A 
ATOM      5  C   UNL     1     -45.761  -1.409  74.618  1.00  0.00     0.076 A 
ATOM      6  C   UNL     1     -45.086  -2.628  74.880  1.00  0.00     0.127 A 
ATOM      7  C   UNL     1     -45.819  -3.813  75.013  1.00  0.00     0.050 A 
ATOM      8  C   UNL     1     -45.069  -0.094  74.630  1.00  0.00     0.201 C 
ATOM      9  O   UNL     1     -44.042   0.069  75.342  1.00  0.00    -0.288 OA
ATOM     10  C   UNL     1     -45.694   1.076  73.958  1.00  0.00     0.076 A 
ATOM     11  C   UNL     1     -47.090   1.054  73.742  1.00  0.00     0.041 A 
ATOM     12  C   UNL     1     -47.864  -0.173  74.046  1.00  0.00     0.194 C 
ATOM     13  O   UNL     1     -49.125  -0.157  73.977  1.00  0.00    -0.289 OA
ATOM     14  C   UNL     1     -47.736   2.194  73.237  1.00  0.00     0.059 A 
ATOM     15  C   UNL     1     -47.010   3.345  72.931  1.00  0.00     0.120 A 
ATOM     16  C   UNL     1     -45.624   3.357  73.104  1.00  0.00     0.093 A 
ATOM     17  C   UNL     1     -44.954   2.229  73.587  1.00  0.00     0.131 A 
ENDROOT
BRANCH   6  18
ATOM     18  O   UNL     1     -43.696  -2.716  74.986  1.00  0.00    -0.507 OA
ATOM     19  H   UNL     1     -43.183  -3.582  74.901  1.00  0.00     0.293 HD
ENDBRANCH   6  18
BRANCH  17  20
ATOM     20  O   UNL     1     -43.559   2.284  73.647  1.00  0.00    -0.507 OA
ATOM     21  H   UNL     1     -42.986   1.533  74.005  1.00  0.00     0.293 HD
ENDBRANCH  17  20
BRANCH  15  22
ATOM     22  O   UNL     1     -47.675   4.467  72.442  1.00  0.00    -0.508 OA
ATOM     23  H   UNL     1     -47.859   5.272  73.030  1.00  0.00     0.293 HD
ENDBRANCH  15  22
TORSDOF 3
ENDMDL
MODEL 7
REMARK VINA RESULT:    -6.244     12.280     14.254
REMARK INTER + INTRA:          -6.791
REMARK INTER:                  -6.791
REMARK INTRA:                   0.000
REMARK UNBOUND:                 0.000
REMARK SMILES Cc1cc(O)c2c(c1)C(=O)c1cc(O)cc(O)c1C2=O
REMARK SMILES IDX 1 1 2 2 8 3 7 4 6 5 4 6 3 7 19 8 20 9 18 10 11 11 9 12 10 13
REMARK SMILES IDX 12 14 13 15 15 16 16 17 5 18 17 20 14 22
REMARK H PARENT 5 19 17 21 14 23
REMARK Flexibility Score: inf
ROOT
ATOM      1  C   UNL     1     -48.162  -0.430  73.253  1.00  0.00     0.044 C 
ATOM      2  C   UNL     1     -47.934   1.053  73.251  1.00  0.00    -0.047 A 
ATOM      3  C   UNL     1     -47.811   1.745  72.041  1.00  0.00     0.016 A 
ATOM      4  C   UNL     1     -47.641   3.140  72.027  1.00  0.00     0.038 A 
ATOM      5  C   UNL     1     -47.620   3.858  73.244  1.00  0.00     0.076 A 
ATOM      6  C   UNL     1     -47.699   3.147  74.469  1.00  0.00     0.127 A 
ATOM      7  C   UNL     1     -47.888   1.761  74.456  1.00  0.00     0.050 A 
ATOM      8  C   UNL     1     -47.588   5.342  73.182  1.00  0.00     0.201 C 
ATOM      9  O   UNL     1     -48.123   6.021  74.098  1.00  0.00    -0.288 OA
ATOM     10  C   UNL     1     -47.095   6.019  71.954  1.00  0.00     0.076 A 
ATOM     11  C   UNL     1     -47.118   5.297  70.739  1.00  0.00     0.041 A 
ATOM     12  C   UNL     1     -47.481   3.860  70.742  1.00  0.00     0.194 C 
ATOM     13  O   UNL     1     -47.627   3.244  69.650  1.00  0.00    -0.289 OA
ATOM     14  C   UNL     1     -46.792   5.944  69.536  1.00  0.00     0.059 A 
ATOM     15  C   UNL     1     -46.430   7.291  69.530  1.00  0.00     0.120 A 
ATOM     16  C   UNL     1     -46.367   7.999  70.732  1.00  0.00     0.093 A 
ATOM     17  C   UNL     1     -46.667   7.372  71.946  1.00  0.00     0.131 A 
ENDROOT
BRANCH   6  18
ATOM     18  O   UNL     1     -47.563   3.767  75.712  1.00  0.00    -0.507 OA
ATOM     19  H   UNL     1     -48.346   4.037  76.291  1.00  0.00     0.293 HD
ENDBRANCH   6  18
BRANCH  17  20
ATOM     20  O   UNL     1     -46.494   8.117  73.116  1.00  0.00    -0.507 OA
ATOM     21  H   UNL     1     -45.830   8.874  73.202  1.00  0.00     0.293 HD
ENDBRANCH  17  20
BRANCH  15  22
ATOM     22  O   UNL     1     -46.123   7.914  68.322  1.00  0.00    -0.508 OA
ATOM     23  H   UNL     1     -45.211   7.815  67.891  1.00  0.00     0.293 HD
ENDBRANCH  15  22
TORSDOF 3
ENDMDL
MODEL 8
REMARK VINA RESULT:    -6.193      2.122      6.324
REMARK INTER + INTRA:          -6.736
REMARK INTER:                  -6.736
REMARK INTRA:                   0.000
REMARK UNBOUND:                 0.000
REMARK SMILES Cc1cc(O)c2c(c1)C(=O)c1cc(O)cc(O)c1C2=O
REMARK SMILES IDX 1 1 2 2 8 3 7 4 6 5 4 6 3 7 19 8 20 9 18 10 11 11 9 12 10 13
REMARK SMILES IDX 12 14 13 15 15 16 16 17 5 18 17 20 14 22
REMARK H PARENT 5 19 17 21 14 23
REMARK Flexibility Score: inf
ROOT
ATOM      1  C   UNL     1     -38.960   2.062  84.749  1.00  0.00     0.044 C 
ATOM      2  C   UNL     1     -38.691   2.749  83.443  1.00  0.00    -0.047 A 
ATOM      3  C   UNL     1     -37.387   3.112  83.093  1.00  0.00     0.016 A 
ATOM      4  C   UNL     1     -37.118   3.717  81.853  1.00  0.00     0.038 A 
ATOM      5  C   UNL     1     -38.170   3.937  80.937  1.00  0.00     0.076 A 
ATOM      6  C   UNL     1     -39.498   3.610  81.315  1.00  0.00     0.127 A 
ATOM      7  C   UNL     1     -39.737   2.990  82.546  1.00  0.00     0.050 A 
ATOM      8  C   UNL     1     -37.826   4.440  79.582  1.00  0.00     0.201 C 
ATOM      9  O   UNL     1     -38.544   4.127  78.594  1.00  0.00    -0.288 OA
ATOM     10  C   UNL     1     -36.538   5.149  79.363  1.00  0.00     0.076 A 
ATOM     11  C   UNL     1     -35.489   4.926  80.282  1.00  0.00     0.041 A 
ATOM     12  C   UNL     1     -35.737   4.126  81.504  1.00  0.00     0.194 C 
ATOM     13  O   UNL     1     -34.776   3.815  82.262  1.00  0.00    -0.289 OA
ATOM     14  C   UNL     1     -34.217   5.467  80.035  1.00  0.00     0.059 A 
ATOM     15  C   UNL     1     -33.982   6.237  78.896  1.00  0.00     0.120 A 
ATOM     16  C   UNL     1     -35.026   6.495  78.005  1.00  0.00     0.093 A 
ATOM     17  C   UNL     1     -36.307   5.984  78.239  1.00  0.00     0.131 A 
ENDROOT
BRANCH   6  18
ATOM     18  O   UNL     1     -40.605   3.908  80.518  1.00  0.00    -0.507 OA
ATOM     19  H   UNL     1     -41.555   3.923  80.864  1.00  0.00     0.293 HD
ENDBRANCH   6  18
BRANCH  17  20
ATOM     20  O   UNL     1     -37.322   6.359  77.354  1.00  0.00    -0.507 OA
ATOM     21  H   UNL     1     -37.157   6.880  76.504  1.00  0.00     0.293 HD
ENDBRANCH  17  20
BRANCH  15  22
ATOM     22  O   UNL     1     -32.708   6.753  78.666  1.00  0.00    -0.508 OA
ATOM     23  H   UNL     1     -32.160   6.471  77.862  1.00  0.00     0.293 HD
ENDBRANCH  15  22
TORSDOF 3
ENDMDL
MODEL 9
REMARK VINA RESULT:    -6.155      2.771      6.263
REMARK INTER + INTRA:          -6.695
REMARK INTER:                  -6.695
REMARK INTRA:                   0.000
REMARK UNBOUND:                 0.000
REMARK SMILES Cc1cc(O)c2c(c1)C(=O)c1cc(O)cc(O)c1C2=O
REMARK SMILES IDX 1 1 2 2 8 3 7 4 6 5 4 6 3 7 19 8 20 9 18 10 11 11 9 12 10 13
REMARK SMILES IDX 12 14 13 15 15 16 16 17 5 18 17 20 14 22
REMARK H PARENT 5 19 17 21 14 23
REMARK Flexibility Score: inf
ROOT
ATOM      1  C   UNL     1     -42.501   3.375  78.369  1.00  0.00     0.044 C 
ATOM      2  C   UNL     1     -41.096   3.606  78.840  1.00  0.00    -0.047 A 
ATOM      3  C   UNL     1     -40.307   4.595  78.242  1.00  0.00     0.016 A 
ATOM      4  C   UNL     1     -39.004   4.849  78.704  1.00  0.00     0.038 A 
ATOM      5  C   UNL     1     -38.492   4.119  79.800  1.00  0.00     0.076 A 
ATOM      6  C   UNL     1     -39.278   3.086  80.372  1.00  0.00     0.127 A 
ATOM      7  C   UNL     1     -40.579   2.866  79.908  1.00  0.00     0.050 A 
ATOM      8  C   UNL     1     -37.171   4.518  80.352  1.00  0.00     0.201 C 
ATOM      9  O   UNL     1     -36.925   4.348  81.576  1.00  0.00    -0.288 OA
ATOM     10  C   UNL     1     -36.219   5.285  79.507  1.00  0.00     0.076 A 
ATOM     11  C   UNL     1     -36.735   6.013  78.413  1.00  0.00     0.041 A 
ATOM     12  C   UNL     1     -38.165   5.877  78.045  1.00  0.00     0.194 C 
ATOM     13  O   UNL     1     -38.660   6.620  77.152  1.00  0.00    -0.289 OA
ATOM     14  C   UNL     1     -35.891   6.859  77.675  1.00  0.00     0.059 A 
ATOM     15  C   UNL     1     -34.540   6.975  78.004  1.00  0.00     0.120 A 
ATOM     16  C   UNL     1     -34.015   6.226  79.060  1.00  0.00     0.093 A 
ATOM     17  C   UNL     1     -34.832   5.362  79.797  1.00  0.00     0.131 A 
ENDROOT
BRANCH   6  18
ATOM     18  O   UNL     1     -38.800   2.240  81.374  1.00  0.00    -0.507 OA
ATOM     19  H   UNL     1     -37.975   2.435  81.925  1.00  0.00     0.293 HD
ENDBRANCH   6  18
BRANCH  17  20
ATOM     20  O   UNL     1     -34.219   4.578  80.778  1.00  0.00    -0.507 OA
ATOM     21  H   UNL     1     -33.229   4.380  80.796  1.00  0.00     0.293 HD
ENDBRANCH  17  20
BRANCH  15  22
ATOM     22  O   UNL     1     -33.724   7.830  77.266  1.00  0.00    -0.508 OA
ATOM     23  H   UNL     1     -33.025   7.473  76.625  1.00  0.00     0.293 HD
ENDBRANCH  15  22
TORSDOF 3
ENDMDL
