MODEL 1
REMARK VINA RESULT:    -2.524      0.000      0.000
REMARK INTER + INTRA:          -3.088
REMARK INTER:                  -2.967
REMARK INTRA:                  -0.121
REMARK UNBOUND:                -0.121
REMARK SMILES O=C([O-])CCC(=O)[O-]
REMARK SMILES IDX 4 1 2 2 1 3 3 4 5 5 6 6 7 7 8 8
REMARK H PARENT
REMARK Flexibility Score: inf
ROOT
ATOM      1  C   UNL     1       4.666   1.152  -6.879  1.00  0.00     0.059 C 
ENDROOT
BRANCH   1   2
ATOM      2  C   UNL     1       5.713   2.214  -6.735  1.00  0.00     0.042 C 
ATOM      3  O   UNL     1       6.920   1.897  -6.568  1.00  0.00    -0.550 OA
ATOM      4  O   UNL     1       5.360   3.555  -6.822  1.00  0.00    -0.550 OA
ENDBRANCH   1   2
BRANCH   1   5
ATOM      5  C   UNL     1       4.112   0.720  -5.518  1.00  0.00     0.059 C 
BRANCH   5   6
ATOM      6  C   UNL     1       3.057   1.665  -5.027  1.00  0.00     0.042 C 
ATOM      7  O   UNL     1       2.275   2.221  -5.843  1.00  0.00    -0.550 OA
ATOM      8  O   UNL     1       2.912   1.898  -3.666  1.00  0.00    -0.550 OA
ENDBRANCH   5   6
ENDBRANCH   1   5
TORSDOF 3
ENDMDL
MODEL 2
REMARK VINA RESULT:    -2.519      0.049      3.672
REMARK INTER + INTRA:          -3.082
REMARK INTER:                  -2.955
REMARK INTRA:                  -0.127
REMARK UNBOUND:                -0.121
REMARK SMILES O=C([O-])CCC(=O)[O-]
REMARK SMILES IDX 4 1 2 2 1 3 3 4 5 5 6 6 7 7 8 8
REMARK H PARENT
REMARK Flexibility Score: inf
ROOT
ATOM      1  C   UNL     1       4.169   0.727  -5.485  1.00  0.00     0.059 C 
ENDROOT
BRANCH   1   2
ATOM      2  C   UNL     1       3.083   1.636  -4.994  1.00  0.00     0.042 C 
ATOM      3  O   UNL     1       2.282   2.164  -5.808  1.00  0.00    -0.550 OA
ATOM      4  O   UNL     1       2.934   1.869  -3.632  1.00  0.00    -0.550 OA
ENDBRANCH   1   2
BRANCH   1   5
ATOM      5  C   UNL     1       4.680   1.155  -6.864  1.00  0.00     0.059 C 
BRANCH   5   6
ATOM      6  C   UNL     1       5.724   2.224  -6.757  1.00  0.00     0.042 C 
ATOM      7  O   UNL     1       6.936   1.913  -6.614  1.00  0.00    -0.550 OA
ATOM      8  O   UNL     1       5.364   3.561  -6.858  1.00  0.00    -0.550 OA
ENDBRANCH   5   6
ENDBRANCH   1   5
TORSDOF 3
ENDMDL
MODEL 3
REMARK VINA RESULT:    -2.304      2.257      3.913
REMARK INTER + INTRA:          -2.829
REMARK INTER:                  -2.795
REMARK INTRA:                  -0.034
REMARK UNBOUND:                -0.121
REMARK SMILES O=C([O-])CCC(=O)[O-]
REMARK SMILES IDX 4 1 2 2 1 3 3 4 5 5 6 6 7 7 8 8
REMARK H PARENT
REMARK Flexibility Score: inf
ROOT
ATOM      1  C   UNL     1       4.344   1.005  -5.653  1.00  0.00     0.059 C 
ENDROOT
BRANCH   1   2
ATOM      2  C   UNL     1       3.048   1.515  -5.100  1.00  0.00     0.042 C 
ATOM      3  O   UNL     1       2.039   1.622  -5.846  1.00  0.00    -0.550 OA
ATOM      4  O   UNL     1       2.945   1.838  -3.753  1.00  0.00    -0.550 OA
ENDBRANCH   1   2
BRANCH   1   5
ATOM      5  C   UNL     1       4.195  -0.410  -6.221  1.00  0.00     0.059 C 
BRANCH   5   6
ATOM      6  C   UNL     1       5.257  -1.329  -5.698  1.00  0.00     0.042 C 
ATOM      7  O   UNL     1       6.443  -1.224  -6.108  1.00  0.00    -0.550 OA
ATOM      8  O   UNL     1       4.944  -2.273  -4.730  1.00  0.00    -0.550 OA
ENDBRANCH   5   6
ENDBRANCH   1   5
TORSDOF 3
ENDMDL
MODEL 4
REMARK VINA RESULT:    -2.279      2.140      2.772
REMARK INTER + INTRA:          -2.799
REMARK INTER:                  -2.763
REMARK INTRA:                  -0.037
REMARK UNBOUND:                -0.121
REMARK SMILES O=C([O-])CCC(=O)[O-]
REMARK SMILES IDX 4 1 2 2 1 3 3 4 5 5 6 6 7 7 8 8
REMARK H PARENT
REMARK Flexibility Score: inf
ROOT
ATOM      1  C   UNL     1       4.081  -0.255  -6.182  1.00  0.00     0.059 C 
ENDROOT
BRANCH   1   2
ATOM      2  C   UNL     1       5.161  -1.166  -5.682  1.00  0.00     0.042 C 
ATOM      3  O   UNL     1       4.884  -2.103  -4.889  1.00  0.00    -0.550 OA
ATOM      4  O   UNL     1       6.468  -1.002  -6.124  1.00  0.00    -0.550 OA
ENDBRANCH   1   2
BRANCH   1   5
ATOM      5  C   UNL     1       4.319   1.193  -5.743  1.00  0.00     0.059 C 
BRANCH   5   6
ATOM      6  C   UNL     1       3.097   1.785  -5.109  1.00  0.00     0.042 C 
ATOM      7  O   UNL     1       2.165   2.234  -5.827  1.00  0.00    -0.550 OA
ATOM      8  O   UNL     1       2.971   1.805  -3.726  1.00  0.00    -0.550 OA
ENDBRANCH   5   6
ENDBRANCH   1   5
TORSDOF 3
ENDMDL
MODEL 5
REMARK VINA RESULT:    -2.276      7.602      8.104
REMARK INTER + INTRA:          -2.797
REMARK INTER:                  -2.685
REMARK INTRA:                  -0.112
REMARK UNBOUND:                -0.121
REMARK SMILES O=C([O-])CCC(=O)[O-]
REMARK SMILES IDX 4 1 2 2 1 3 3 4 5 5 6 6 7 7 8 8
REMARK H PARENT
REMARK Flexibility Score: inf
ROOT
ATOM      1  C   UNL     1       7.433   5.804   0.096  1.00  0.00     0.059 C 
ENDROOT
BRANCH   1   2
ATOM      2  C   UNL     1       8.532   4.799   0.261  1.00  0.00     0.042 C 
ATOM      3  O   UNL     1       8.846   4.041  -0.694  1.00  0.00    -0.550 OA
ATOM      4  O   UNL     1       9.235   4.727   1.457  1.00  0.00    -0.550 OA
ENDBRANCH   1   2
BRANCH   1   5
ATOM      5  C   UNL     1       6.052   5.151   0.213  1.00  0.00     0.059 C 
BRANCH   5   6
ATOM      6  C   UNL     1       5.463   5.347   1.577  1.00  0.00     0.042 C 
ATOM      7  O   UNL     1       4.335   4.862   1.856  1.00  0.00    -0.550 OA
ATOM      8  O   UNL     1       6.179   6.030   2.552  1.00  0.00    -0.550 OA
ENDBRANCH   5   6
ENDBRANCH   1   5
TORSDOF 3
ENDMDL
MODEL 6
REMARK VINA RESULT:    -2.276      2.497      3.335
REMARK INTER + INTRA:          -2.796
REMARK INTER:                  -2.626
REMARK INTRA:                  -0.171
REMARK UNBOUND:                -0.121
REMARK SMILES O=C([O-])CCC(=O)[O-]
REMARK SMILES IDX 4 1 2 2 1 3 3 4 5 5 6 6 7 7 8 8
REMARK H PARENT
REMARK Flexibility Score: inf
ROOT
ATOM      1  C   UNL     1       3.296   0.640  -6.454  1.00  0.00     0.059 C 
ENDROOT
BRANCH   1   2
ATOM      2  C   UNL     1       2.000   0.906  -7.158  1.00  0.00     0.042 C 
ATOM      3  O   UNL     1       1.968   1.663  -8.163  1.00  0.00    -0.550 OA
ATOM      4  O   UNL     1       0.833   0.287  -6.725  1.00  0.00    -0.550 OA
ENDBRANCH   1   2
BRANCH   1   5
ATOM      5  C   UNL     1       3.860   1.912  -5.814  1.00  0.00     0.059 C 
BRANCH   5   6
ATOM      6  C   UNL     1       2.957   2.435  -4.740  1.00  0.00     0.042 C 
ATOM      7  O   UNL     1       2.888   1.848  -3.628  1.00  0.00    -0.550 OA
ATOM      8  O   UNL     1       2.222   3.595  -4.952  1.00  0.00    -0.550 OA
ENDBRANCH   5   6
ENDBRANCH   1   5
TORSDOF 3
ENDMDL
MODEL 7
REMARK VINA RESULT:    -2.272      2.503      3.303
REMARK INTER + INTRA:          -2.792
REMARK INTER:                  -2.615
REMARK INTRA:                  -0.177
REMARK UNBOUND:                -0.121
REMARK SMILES O=C([O-])CCC(=O)[O-]
REMARK SMILES IDX 4 1 2 2 1 3 3 4 5 5 6 6 7 7 8 8
REMARK H PARENT
REMARK Flexibility Score: inf
ROOT
ATOM      1  C   UNL     1       3.887   1.926  -5.751  1.00  0.00     0.059 C 
ENDROOT
BRANCH   1   2
ATOM      2  C   UNL     1       2.972   2.440  -4.682  1.00  0.00     0.042 C 
ATOM      3  O   UNL     1       2.889   1.843  -3.577  1.00  0.00    -0.550 OA
ATOM      4  O   UNL     1       2.238   3.601  -4.894  1.00  0.00    -0.550 OA
ENDBRANCH   1   2
BRANCH   1   5
ATOM      5  C   UNL     1       3.361   0.625  -6.364  1.00  0.00     0.059 C 
BRANCH   5   6
ATOM      6  C   UNL     1       2.058   0.837  -7.072  1.00  0.00     0.042 C 
ATOM      7  O   UNL     1       1.012   0.270  -6.658  1.00  0.00    -0.550 OA
ATOM      8  O   UNL     1       1.990   1.692  -8.165  1.00  0.00    -0.550 OA
ENDBRANCH   5   6
ENDBRANCH   1   5
TORSDOF 3
ENDMDL
MODEL 8
REMARK VINA RESULT:    -2.268      2.710      3.828
REMARK INTER + INTRA:          -2.786
REMARK INTER:                  -2.622
REMARK INTRA:                  -0.165
REMARK UNBOUND:                -0.121
REMARK SMILES O=C([O-])CCC(=O)[O-]
REMARK SMILES IDX 4 1 2 2 1 3 3 4 5 5 6 6 7 7 8 8
REMARK H PARENT
REMARK Flexibility Score: inf
ROOT
ATOM      1  C   UNL     1       3.663   3.173  -5.617  1.00  0.00     0.059 C 
ENDROOT
BRANCH   1   2
ATOM      2  C   UNL     1       2.887   2.056  -4.986  1.00  0.00     0.042 C 
ATOM      3  O   UNL     1       2.963   1.852  -3.746  1.00  0.00    -0.550 OA
ATOM      4  O   UNL     1       2.050   1.265  -5.764  1.00  0.00    -0.550 OA
ENDBRANCH   1   2
BRANCH   1   5
ATOM      5  C   UNL     1       3.247   4.535  -5.053  1.00  0.00     0.059 C 
BRANCH   5   6
ATOM      6  C   UNL     1       1.795   4.812  -5.295  1.00  0.00     0.042 C 
ATOM      7  O   UNL     1       1.066   5.235  -4.360  1.00  0.00    -0.550 OA
ATOM      8  O   UNL     1       1.257   4.642  -6.564  1.00  0.00    -0.550 OA
ENDBRANCH   5   6
ENDBRANCH   1   5
TORSDOF 3
ENDMDL
MODEL 9
REMARK VINA RESULT:    -2.227      7.456      8.742
REMARK INTER + INTRA:          -2.739
REMARK INTER:                  -2.712
REMARK INTRA:                  -0.027
REMARK UNBOUND:                -0.121
REMARK SMILES O=C([O-])CCC(=O)[O-]
REMARK SMILES IDX 4 1 2 2 1 3 3 4 5 5 6 6 7 7 8 8
REMARK H PARENT
REMARK Flexibility Score: inf
ROOT
ATOM      1  C   UNL     1       5.911   5.568   1.651  1.00  0.00     0.059 C 
ENDROOT
BRANCH   1   2
ATOM      2  C   UNL     1       4.443   5.414   1.909  1.00  0.00     0.042 C 
ATOM      3  O   UNL     1       3.995   4.348   2.408  1.00  0.00    -0.550 OA
ATOM      4  O   UNL     1       3.574   6.463   1.634  1.00  0.00    -0.550 OA
ENDBRANCH   1   2
BRANCH   1   5
ATOM      5  C   UNL     1       6.292   5.065   0.256  1.00  0.00     0.059 C 
BRANCH   5   6
ATOM      6  C   UNL     1       7.777   5.066   0.056  1.00  0.00     0.042 C 
ATOM      7  O   UNL     1       8.360   4.035  -0.372  1.00  0.00    -0.550 OA
ATOM      8  O   UNL     1       8.512   6.219   0.304  1.00  0.00    -0.550 OA
ENDBRANCH   5   6
ENDBRANCH   1   5
TORSDOF 3
ENDMDL
