MODEL 1
REMARK VINA RESULT:    -4.953      0.000      0.000
REMARK INTER + INTRA:          -7.907
REMARK INTER:                  -7.559
REMARK INTRA:                  -0.348
REMARK UNBOUND:                -0.348
REMARK SMILES CC1=CCC[C@@H](C)C(=O)C[C@@H](C(C)C)C(=O)C1
REMARK SMILES IDX 8 1 9 2 6 3 7 4 5 5 4 6 3 7 2 8 1 9 10 11 11 12 15 13 16 14
REMARK SMILES IDX 17 15 12 17 13 18 14 19
REMARK H PARENT
REMARK Flexibility Score: 70.00
ROOT
ATOM      1  C   UNL     1     -11.369 -17.870  31.447  1.00  0.00     0.136 C 
ATOM      2  O   UNL     1     -10.307 -18.229  31.937  1.00  0.00    -0.299 OA
ENDROOT
BRANCH   1   3
ATOM      3  C   UNL     1     -12.284 -18.885  30.796  1.00  0.00     0.053 C 
ATOM      4  C   UNL     1     -12.290 -20.171  31.629  1.00  0.00     0.016 C 
BRANCH   3   5
ATOM      5  C   UNL     1     -11.889 -19.196  29.334  1.00  0.00     0.015 C 
BRANCH   5   6
ATOM      6  C   UNL     1     -11.305 -17.983  28.585  1.00  0.00     0.028 C 
BRANCH   6   7
ATOM      7  C   UNL     1     -12.340 -17.330  27.697  1.00  0.00    -0.028 C 
ATOM      8  C   UNL     1     -12.863 -16.091  27.853  1.00  0.00    -0.070 CG0
ATOM      9  C   UNL     1     -13.906 -15.635  26.864  1.00  0.00     0.039 C 
ATOM     10  G   UNL     1     -12.415 -15.120  28.925  1.00  0.00     0.000 G0
ENDBRANCH   6   7
ENDBRANCH   5   6
ENDBRANCH   3   5
ENDBRANCH   1   3
BRANCH   1  11
ATOM     11  C   UNL     1     -11.775 -16.419  31.531  1.00  0.00     0.087 C 
BRANCH  11  12
ATOM     12  C   UNL     1     -13.266 -16.197  31.175  1.00  0.00     0.066 C 
BRANCH  12  13
ATOM     13  C   UNL     1     -13.378 -15.141  30.091  1.00  0.00     0.140 C 
ATOM     14  O   UNL     1     -14.276 -14.312  30.146  1.00  0.00    -0.299 OA
BRANCH  13  15
ATOM     15  C   UNL     1     -12.418 -15.102  28.932  1.00  0.00     0.106 CG0
ATOM     16  G   UNL     1     -12.845 -16.086  27.864  1.00  0.00     0.000 G0
ENDBRANCH  13  15
ENDBRANCH  12  13
BRANCH  12  17
ATOM     17  C   UNL     1     -14.119 -15.790  32.417  1.00  0.00    -0.006 C 
ATOM     18  C   UNL     1     -13.313 -14.964  33.435  1.00  0.00     0.008 C 
ATOM     19  C   UNL     1     -14.693 -17.031  33.127  1.00  0.00     0.008 C 
ENDBRANCH  12  17
ENDBRANCH  11  12
ENDBRANCH   1  11
TORSDOF 1
ENDMDL
MODEL 2
REMARK VINA RESULT:    -4.808      1.581      2.259
REMARK INTER + INTRA:          -7.686
REMARK INTER:                  -7.778
REMARK INTRA:                   0.092
REMARK UNBOUND:                -0.348
REMARK SMILES CC1=CCC[C@@H](C)C(=O)C[C@@H](C(C)C)C(=O)C1
REMARK SMILES IDX 8 1 9 2 6 3 7 4 5 5 4 6 3 7 2 8 1 9 10 11 11 12 15 13 16 14
REMARK SMILES IDX 17 15 12 17 13 18 14 19
REMARK H PARENT
REMARK Flexibility Score: 70.00
ROOT
ATOM      1  C   UNL     1     -12.583 -17.746  31.671  1.00  0.00     0.136 C 
ATOM      2  O   UNL     1     -13.622 -17.991  32.267  1.00  0.00    -0.299 OA
ENDROOT
BRANCH   1   3
ATOM      3  C   UNL     1     -11.624 -18.866  31.329  1.00  0.00     0.053 C 
ATOM      4  C   UNL     1     -10.309 -18.270  30.817  1.00  0.00     0.016 C 
BRANCH   3   5
ATOM      5  C   UNL     1     -12.204 -19.853  30.290  1.00  0.00     0.015 C 
BRANCH   5   6
ATOM      6  C   UNL     1     -12.978 -19.162  29.152  1.00  0.00     0.028 C 
BRANCH   6   7
ATOM      7  C   UNL     1     -12.050 -18.693  28.054  1.00  0.00    -0.028 C 
ATOM      8  C   UNL     1     -12.125 -17.517  27.389  1.00  0.00    -0.070 CG0
ATOM      9  C   UNL     1     -11.108 -17.252  26.306  1.00  0.00     0.039 C 
ATOM     10  G   UNL     1     -13.131 -16.433  27.711  1.00  0.00     0.000 G0
ENDBRANCH   6   7
ENDBRANCH   5   6
ENDBRANCH   3   5
ENDBRANCH   1   3
BRANCH   1  11
ATOM     11  C   UNL     1     -12.283 -16.329  31.249  1.00  0.00     0.087 C 
BRANCH  11  12
ATOM     12  C   UNL     1     -13.324 -15.776  30.244  1.00  0.00     0.066 C 
BRANCH  12  13
ATOM     13  C   UNL     1     -12.676 -15.609  28.881  1.00  0.00     0.140 C 
ATOM     14  O   UNL     1     -11.779 -14.789  28.735  1.00  0.00    -0.299 OA
BRANCH  13  15
ATOM     15  C   UNL     1     -13.127 -16.418  27.694  1.00  0.00     0.106 CG0
ATOM     16  G   UNL     1     -12.130 -17.519  27.401  1.00  0.00     0.000 G0
ENDBRANCH  13  15
ENDBRANCH  12  13
BRANCH  12  17
ATOM     17  C   UNL     1     -13.945 -14.424  30.716  1.00  0.00    -0.006 C 
ATOM     18  C   UNL     1     -14.749 -14.573  32.019  1.00  0.00     0.008 C 
ATOM     19  C   UNL     1     -14.863 -13.826  29.632  1.00  0.00     0.008 C 
ENDBRANCH  12  17
ENDBRANCH  11  12
ENDBRANCH   1  11
TORSDOF 1
ENDMDL
MODEL 3
REMARK VINA RESULT:    -4.719      1.763      3.851
REMARK INTER + INTRA:          -7.551
REMARK INTER:                  -7.780
REMARK INTRA:                   0.229
REMARK UNBOUND:                -0.348
REMARK SMILES CC1=CCC[C@@H](C)C(=O)C[C@@H](C(C)C)C(=O)C1
REMARK SMILES IDX 8 1 9 2 6 3 7 4 5 5 4 6 3 7 2 8 1 9 10 11 11 12 15 13 16 14
REMARK SMILES IDX 17 15 12 17 13 18 14 19
REMARK H PARENT
REMARK Flexibility Score: 70.00
ROOT
ATOM      1  C   UNL     1     -12.273 -14.985  29.143  1.00  0.00     0.136 C 
ATOM      2  O   UNL     1     -11.068 -14.860  28.980  1.00  0.00    -0.299 OA
ENDROOT
BRANCH   1   3
ATOM      3  C   UNL     1     -13.240 -14.376  28.151  1.00  0.00     0.053 C 
ATOM      4  C   UNL     1     -14.406 -13.732  28.909  1.00  0.00     0.016 C 
BRANCH   3   5
ATOM      5  C   UNL     1     -13.770 -15.402  27.124  1.00  0.00     0.015 C 
BRANCH   5   6
ATOM      6  C   UNL     1     -12.848 -16.623  26.945  1.00  0.00     0.028 C 
BRANCH   6   7
ATOM      7  C   UNL     1     -13.512 -17.895  27.423  1.00  0.00    -0.028 C 
ATOM      8  C   UNL     1     -13.004 -18.778  28.314  1.00  0.00    -0.070 CG0
ATOM      9  C   UNL     1     -13.824 -20.002  28.640  1.00  0.00     0.039 C 
ATOM     10  G   UNL     1     -11.694 -18.575  29.044  1.00  0.00     0.000 G0
ENDBRANCH   6   7
ENDBRANCH   5   6
ENDBRANCH   3   5
ENDBRANCH   1   3
BRANCH   1  11
ATOM     11  C   UNL     1     -12.785 -15.782  30.318  1.00  0.00     0.087 C 
BRANCH  11  12
ATOM     12  C   UNL     1     -11.702 -16.707  30.927  1.00  0.00     0.066 C 
BRANCH  12  13
ATOM     13  C   UNL     1     -11.943 -18.136  30.475  1.00  0.00     0.140 C 
ATOM     14  O   UNL     1     -12.341 -18.966  31.282  1.00  0.00    -0.299 OA
BRANCH  13  15
ATOM     15  C   UNL     1     -11.681 -18.565  29.056  1.00  0.00     0.106 CG0
ATOM     16  G   UNL     1     -12.989 -18.769  28.321  1.00  0.00     0.000 G0
ENDBRANCH  13  15
ENDBRANCH  12  13
BRANCH  12  17
ATOM     17  C   UNL     1     -11.664 -16.632  32.486  1.00  0.00    -0.006 C 
ATOM     18  C   UNL     1     -12.833 -15.812  33.060  1.00  0.00     0.008 C 
ATOM     19  C   UNL     1     -10.339 -16.021  32.980  1.00  0.00     0.008 C 
ENDBRANCH  12  17
ENDBRANCH  11  12
ENDBRANCH   1  11
TORSDOF 1
ENDMDL
MODEL 4
REMARK VINA RESULT:    -4.660      1.899      4.136
REMARK INTER + INTRA:          -7.459
REMARK INTER:                  -7.515
REMARK INTRA:                   0.055
REMARK UNBOUND:                -0.348
REMARK SMILES CC1=CCC[C@@H](C)C(=O)C[C@@H](C(C)C)C(=O)C1
REMARK SMILES IDX 8 1 9 2 6 3 7 4 5 5 4 6 3 7 2 8 1 9 10 11 11 12 15 13 16 14
REMARK SMILES IDX 17 15 12 17 13 18 14 19
REMARK H PARENT
REMARK Flexibility Score: 70.00
ROOT
ATOM      1  C   UNL     1     -13.046 -15.518  31.057  1.00  0.00     0.136 C 
ATOM      2  O   UNL     1     -14.111 -14.918  31.085  1.00  0.00    -0.299 OA
ENDROOT
BRANCH   1   3
ATOM      3  C   UNL     1     -12.620 -16.360  32.240  1.00  0.00     0.053 C 
ATOM      4  C   UNL     1     -11.130 -16.695  32.114  1.00  0.00     0.016 C 
BRANCH   3   5
ATOM      5  C   UNL     1     -13.450 -17.657  32.381  1.00  0.00     0.015 C 
BRANCH   5   6
ATOM      6  C   UNL     1     -12.688 -18.924  31.951  1.00  0.00     0.028 C 
BRANCH   6   7
ATOM      7  C   UNL     1     -13.233 -19.486  30.657  1.00  0.00    -0.028 C 
ATOM      8  C   UNL     1     -12.714 -19.301  29.421  1.00  0.00    -0.070 CG0
ATOM      9  C   UNL     1     -13.428 -19.934  28.253  1.00  0.00     0.039 C 
ATOM     10  G   UNL     1     -11.428 -18.547  29.155  1.00  0.00     0.000 G0
ENDBRANCH   6   7
ENDBRANCH   5   6
ENDBRANCH   3   5
ENDBRANCH   1   3
BRANCH   1  11
ATOM     11  C   UNL     1     -12.182 -15.443  29.822  1.00  0.00     0.087 C 
BRANCH  11  12
ATOM     12  C   UNL     1     -12.733 -16.302  28.657  1.00  0.00     0.066 C 
BRANCH  12  13
ATOM     13  C   UNL     1     -11.703 -17.345  28.264  1.00  0.00     0.140 C 
ATOM     14  O   UNL     1     -11.093 -17.223  27.209  1.00  0.00    -0.299 OA
BRANCH  13  15
ATOM     15  C   UNL     1     -11.426 -18.542  29.133  1.00  0.00     0.106 CG0
ATOM     16  G   UNL     1     -12.710 -19.294  29.412  1.00  0.00     0.000 G0
ENDBRANCH  13  15
ENDBRANCH  12  13
BRANCH  12  17
ATOM     17  C   UNL     1     -13.130 -15.439  27.419  1.00  0.00    -0.006 C 
ATOM     18  C   UNL     1     -13.934 -14.187  27.812  1.00  0.00     0.008 C 
ATOM     19  C   UNL     1     -13.953 -16.262  26.409  1.00  0.00     0.008 C 
ENDBRANCH  12  17
ENDBRANCH  11  12
ENDBRANCH   1  11
TORSDOF 1
ENDMDL
MODEL 5
REMARK VINA RESULT:    -4.650      1.907      3.973
REMARK INTER + INTRA:          -7.445
REMARK INTER:                  -7.612
REMARK INTRA:                   0.167
REMARK UNBOUND:                -0.348
REMARK SMILES CC1=CCC[C@@H](C)C(=O)C[C@@H](C(C)C)C(=O)C1
REMARK SMILES IDX 8 1 9 2 6 3 7 4 5 5 4 6 3 7 2 8 1 9 10 11 11 12 15 13 16 14
REMARK SMILES IDX 17 15 12 17 13 18 14 19
REMARK H PARENT
REMARK Flexibility Score: 70.00
ROOT
ATOM      1  C   UNL     1     -13.039 -18.005  28.197  1.00  0.00     0.136 C 
ATOM      2  O   UNL     1     -13.919 -18.855  28.193  1.00  0.00    -0.299 OA
ENDROOT
BRANCH   1   3
ATOM      3  C   UNL     1     -12.881 -17.073  27.015  1.00  0.00     0.053 C 
ATOM      4  C   UNL     1     -11.389 -16.838  26.751  1.00  0.00     0.016 C 
BRANCH   3   5
ATOM      5  C   UNL     1     -13.609 -15.725  27.214  1.00  0.00     0.015 C 
BRANCH   5   6
ATOM      6  C   UNL     1     -12.921 -14.801  28.238  1.00  0.00     0.028 C 
BRANCH   6   7
ATOM      7  C   UNL     1     -13.855 -14.438  29.371  1.00  0.00    -0.028 C 
ATOM      8  C   UNL     1     -13.763 -14.865  30.653  1.00  0.00    -0.070 CG0
ATOM      9  C   UNL     1     -14.815 -14.400  31.628  1.00  0.00     0.039 C 
ATOM     10  G   UNL     1     -12.633 -15.729  31.171  1.00  0.00     0.000 G0
ENDBRANCH   6   7
ENDBRANCH   5   6
ENDBRANCH   3   5
ENDBRANCH   1   3
BRANCH   1  11
ATOM     11  C   UNL     1     -12.142 -17.868  29.403  1.00  0.00     0.087 C 
BRANCH  11  12
ATOM     12  C   UNL     1     -12.838 -18.310  30.715  1.00  0.00     0.066 C 
BRANCH  12  13
ATOM     13  C   UNL     1     -13.127 -17.092  31.571  1.00  0.00     0.140 C 
ATOM     14  O   UNL     1     -13.798 -17.214  32.588  1.00  0.00    -0.299 OA
BRANCH  13  15
ATOM     15  C   UNL     1     -12.625 -15.725  31.188  1.00  0.00     0.106 CG0
ATOM     16  G   UNL     1     -13.762 -14.882  30.651  1.00  0.00     0.000 G0
ENDBRANCH  13  15
ENDBRANCH  12  13
BRANCH  12  17
ATOM     17  C   UNL     1     -11.989 -19.346  31.517  1.00  0.00    -0.006 C 
ATOM     18  C   UNL     1     -10.489 -19.005  31.509  1.00  0.00     0.008 C 
ATOM     19  C   UNL     1     -12.177 -20.770  30.958  1.00  0.00     0.008 C 
ENDBRANCH  12  17
ENDBRANCH  11  12
ENDBRANCH   1  11
TORSDOF 1
ENDMDL
MODEL 6
REMARK VINA RESULT:    -4.649      1.910      4.845
REMARK INTER + INTRA:          -7.443
REMARK INTER:                  -7.789
REMARK INTRA:                   0.346
REMARK UNBOUND:                -0.348
REMARK SMILES CC1=CCC[C@@H](C)C(=O)C[C@@H](C(C)C)C(=O)C1
REMARK SMILES IDX 8 1 9 2 6 3 7 4 5 5 4 6 3 7 2 8 1 9 10 11 11 12 15 13 16 14
REMARK SMILES IDX 17 15 12 17 13 18 14 19
REMARK H PARENT
REMARK Flexibility Score: 70.00
ROOT
ATOM      1  C   UNL     1     -13.266 -15.412  30.264  1.00  0.00     0.136 C 
ATOM      2  O   UNL     1     -13.853 -14.390  29.936  1.00  0.00    -0.299 OA
ENDROOT
BRANCH   1   3
ATOM      3  C   UNL     1     -13.438 -15.969  31.661  1.00  0.00     0.053 C 
ATOM      4  C   UNL     1     -14.529 -15.179  32.392  1.00  0.00     0.016 C 
BRANCH   3   5
ATOM      5  C   UNL     1     -12.126 -15.952  32.477  1.00  0.00     0.015 C 
BRANCH   5   6
ATOM      6  C   UNL     1     -11.083 -16.974  31.985  1.00  0.00     0.028 C 
BRANCH   6   7
ATOM      7  C   UNL     1     -11.635 -18.382  32.006  1.00  0.00    -0.028 C 
ATOM      8  C   UNL     1     -11.842 -19.177  30.929  1.00  0.00    -0.070 CG0
ATOM      9  C   UNL     1     -12.425 -20.548  31.166  1.00  0.00     0.039 C 
ATOM     10  G   UNL     1     -11.466 -18.790  29.515  1.00  0.00     0.000 G0
ENDBRANCH   6   7
ENDBRANCH   5   6
ENDBRANCH   3   5
ENDBRANCH   1   3
BRANCH   1  11
ATOM     11  C   UNL     1     -12.403 -16.131  29.256  1.00  0.00     0.087 C 
BRANCH  11  12
ATOM     12  C   UNL     1     -13.203 -17.148  28.406  1.00  0.00     0.066 C 
BRANCH  12  13
ATOM     13  C   UNL     1     -12.687 -18.550  28.673  1.00  0.00     0.140 C 
ATOM     14  O   UNL     1     -13.292 -19.513  28.219  1.00  0.00    -0.299 OA
BRANCH  13  15
ATOM     15  C   UNL     1     -11.456 -18.788  29.506  1.00  0.00     0.106 CG0
ATOM     16  G   UNL     1     -11.844 -19.152  30.923  1.00  0.00     0.000 G0
ENDBRANCH  13  15
ENDBRANCH  12  13
BRANCH  12  17
ATOM     17  C   UNL     1     -13.137 -16.829  26.879  1.00  0.00    -0.006 C 
ATOM     18  C   UNL     1     -11.691 -16.795  26.352  1.00  0.00     0.008 C 
ATOM     19  C   UNL     1     -13.813 -15.482  26.564  1.00  0.00     0.008 C 
ENDBRANCH  12  17
ENDBRANCH  11  12
ENDBRANCH   1  11
TORSDOF 1
ENDMDL
MODEL 7
REMARK VINA RESULT:    -4.603      1.764      3.629
REMARK INTER + INTRA:          -7.373
REMARK INTER:                  -6.982
REMARK INTRA:                  -0.391
REMARK UNBOUND:                -0.348
REMARK SMILES CC1=CCC[C@@H](C)C(=O)C[C@@H](C(C)C)C(=O)C1
REMARK SMILES IDX 8 1 9 2 6 3 7 4 5 5 4 6 3 7 2 8 1 9 10 11 11 12 15 13 16 14
REMARK SMILES IDX 17 15 12 17 13 18 14 19
REMARK H PARENT
REMARK Flexibility Score: 70.00
ROOT
ATOM      1  C   UNL     1     -13.468 -16.730  31.988  1.00  0.00     0.136 C 
ATOM      2  O   UNL     1     -14.263 -17.355  32.677  1.00  0.00    -0.299 OA
ENDROOT
BRANCH   1   3
ATOM      3  C   UNL     1     -13.619 -15.233  31.825  1.00  0.00     0.053 C 
ATOM      4  C   UNL     1     -14.310 -14.655  33.064  1.00  0.00     0.016 C 
BRANCH   3   5
ATOM      5  C   UNL     1     -14.399 -14.846  30.548  1.00  0.00     0.015 C 
BRANCH   5   6
ATOM      6  C   UNL     1     -13.497 -14.324  29.413  1.00  0.00     0.028 C 
BRANCH   6   7
ATOM      7  C   UNL     1     -13.326 -15.356  28.321  1.00  0.00    -0.028 C 
ATOM      8  C   UNL     1     -12.163 -15.939  27.946  1.00  0.00    -0.070 CG0
ATOM      9  C   UNL     1     -12.207 -16.933  26.812  1.00  0.00     0.039 C 
ATOM     10  G   UNL     1     -10.840 -15.696  28.639  1.00  0.00     0.000 G0
ENDBRANCH   6   7
ENDBRANCH   5   6
ENDBRANCH   3   5
ENDBRANCH   1   3
BRANCH   1  11
ATOM     11  C   UNL     1     -12.318 -17.458  31.335  1.00  0.00     0.087 C 
BRANCH  11  12
ATOM     12  C   UNL     1     -11.087 -16.544  31.111  1.00  0.00     0.066 C 
BRANCH  12  13
ATOM     13  C   UNL     1     -10.569 -16.727  29.697  1.00  0.00     0.140 C 
ATOM     14  O   UNL     1      -9.912 -17.722  29.419  1.00  0.00    -0.299 OA
BRANCH  13  15
ATOM     15  C   UNL     1     -10.826 -15.700  28.627  1.00  0.00     0.106 CG0
ATOM     16  G   UNL     1     -12.161 -15.961  27.961  1.00  0.00     0.000 G0
ENDBRANCH  13  15
ENDBRANCH  12  13
BRANCH  12  17
ATOM     17  C   UNL     1      -9.949 -16.816  32.144  1.00  0.00    -0.006 C 
ATOM     18  C   UNL     1      -9.987 -18.254  32.690  1.00  0.00     0.008 C 
ATOM     19  C   UNL     1     -10.027 -15.833  33.328  1.00  0.00     0.008 C 
ENDBRANCH  12  17
ENDBRANCH  11  12
ENDBRANCH   1  11
TORSDOF 1
ENDMDL
MODEL 8
REMARK VINA RESULT:    -4.479      1.662      3.830
REMARK INTER + INTRA:          -7.184
REMARK INTER:                  -7.635
REMARK INTRA:                   0.451
REMARK UNBOUND:                -0.348
REMARK SMILES CC1=CCC[C@@H](C)C(=O)C[C@@H](C(C)C)C(=O)C1
REMARK SMILES IDX 8 1 9 2 6 3 7 4 5 5 4 6 3 7 2 8 1 9 10 11 11 12 15 13 16 14
REMARK SMILES IDX 17 15 12 17 13 18 14 19
REMARK H PARENT
REMARK Flexibility Score: 70.00
ROOT
ATOM      1  C   UNL     1     -13.615 -16.637  31.649  1.00  0.00     0.136 C 
ATOM      2  O   UNL     1     -13.662 -17.291  32.681  1.00  0.00    -0.299 OA
ENDROOT
BRANCH   1   3
ATOM      3  C   UNL     1     -13.782 -15.134  31.696  1.00  0.00     0.053 C 
ATOM      4  C   UNL     1     -14.385 -14.732  33.047  1.00  0.00     0.016 C 
BRANCH   3   5
ATOM      5  C   UNL     1     -14.653 -14.592  30.539  1.00  0.00     0.015 C 
BRANCH   5   6
ATOM      6  C   UNL     1     -13.839 -13.894  29.433  1.00  0.00     0.028 C 
BRANCH   6   7
ATOM      7  C   UNL     1     -13.728 -14.759  28.197  1.00  0.00    -0.028 C 
ATOM      8  C   UNL     1     -12.676 -15.542  27.859  1.00  0.00    -0.070 CG0
ATOM      9  C   UNL     1     -12.757 -16.312  26.565  1.00  0.00     0.039 C 
ATOM     10  G   UNL     1     -11.456 -15.733  28.735  1.00  0.00     0.000 G0
ENDBRANCH   6   7
ENDBRANCH   5   6
ENDBRANCH   3   5
ENDBRANCH   1   3
BRANCH   1  11
ATOM     11  C   UNL     1     -13.351 -17.335  30.337  1.00  0.00     0.087 C 
BRANCH  11  12
ATOM     12  C   UNL     1     -11.898 -17.863  30.226  1.00  0.00     0.066 C 
BRANCH  12  13
ATOM     13  C   UNL     1     -11.200 -17.187  29.060  1.00  0.00     0.140 C 
ATOM     14  O   UNL     1     -10.419 -17.829  28.370  1.00  0.00    -0.299 OA
BRANCH  13  15
ATOM     15  C   UNL     1     -11.431 -15.734  28.742  1.00  0.00     0.106 CG0
ATOM     16  G   UNL     1     -12.653 -15.578  27.863  1.00  0.00     0.000 G0
ENDBRANCH  13  15
ENDBRANCH  12  13
BRANCH  12  17
ATOM     17  C   UNL     1     -11.841 -19.414  30.066  1.00  0.00    -0.006 C 
ATOM     18  C   UNL     1     -12.835 -19.931  29.010  1.00  0.00     0.008 C 
ATOM     19  C   UNL     1     -12.125 -20.122  31.405  1.00  0.00     0.008 C 
ENDBRANCH  12  17
ENDBRANCH  11  12
ENDBRANCH   1  11
TORSDOF 1
ENDMDL
MODEL 9
REMARK VINA RESULT:    -4.441      2.013      4.259
REMARK INTER + INTRA:          -7.126
REMARK INTER:                  -7.301
REMARK INTRA:                   0.176
REMARK UNBOUND:                -0.348
REMARK SMILES CC1=CCC[C@@H](C)C(=O)C[C@@H](C(C)C)C(=O)C1
REMARK SMILES IDX 8 1 9 2 6 3 7 4 5 5 4 6 3 7 2 8 1 9 10 11 11 12 15 13 16 14
REMARK SMILES IDX 17 15 12 17 13 18 14 19
REMARK H PARENT
REMARK Flexibility Score: 70.00
ROOT
ATOM      1  C   UNL     1     -11.876 -17.352  28.039  1.00  0.00     0.136 C 
ATOM      2  O   UNL     1     -12.034 -18.143  27.120  1.00  0.00    -0.299 OA
ENDROOT
BRANCH   1   3
ATOM      3  C   UNL     1     -11.880 -15.863  27.769  1.00  0.00     0.053 C 
ATOM      4  C   UNL     1     -10.794 -15.190  28.615  1.00  0.00     0.016 C 
BRANCH   3   5
ATOM      5  C   UNL     1     -13.254 -15.210  28.042  1.00  0.00     0.015 C 
BRANCH   5   6
ATOM      6  C   UNL     1     -13.185 -14.024  29.023  1.00  0.00     0.028 C 
BRANCH   6   7
ATOM      7  C   UNL     1     -14.159 -14.194  30.167  1.00  0.00    -0.028 C 
ATOM      8  C   UNL     1     -14.021 -15.036  31.218  1.00  0.00    -0.070 CG0
ATOM      9  C   UNL     1     -15.125 -15.069  32.246  1.00  0.00     0.039 C 
ATOM     10  G   UNL     1     -12.797 -15.897  31.448  1.00  0.00     0.000 G0
ENDBRANCH   6   7
ENDBRANCH   5   6
ENDBRANCH   3   5
ENDBRANCH   1   3
BRANCH   1  11
ATOM     11  C   UNL     1     -11.714 -17.872  29.447  1.00  0.00     0.087 C 
BRANCH  11  12
ATOM     12  C   UNL     1     -13.073 -18.172  30.130  1.00  0.00     0.066 C 
BRANCH  12  13
ATOM     13  C   UNL     1     -13.187 -17.365  31.410  1.00  0.00     0.140 C 
ATOM     14  O   UNL     1     -13.621 -17.897  32.423  1.00  0.00    -0.299 OA
BRANCH  13  15
ATOM     15  C   UNL     1     -12.798 -15.911  31.458  1.00  0.00     0.106 CG0
ATOM     16  G   UNL     1     -14.011 -15.036  31.225  1.00  0.00     0.000 G0
ENDBRANCH  13  15
ENDBRANCH  12  13
BRANCH  12  17
ATOM     17  C   UNL     1     -13.264 -19.692  30.429  1.00  0.00    -0.006 C 
ATOM     18  C   UNL     1     -12.060 -20.297  31.173  1.00  0.00     0.008 C 
ATOM     19  C   UNL     1     -13.498 -20.489  29.132  1.00  0.00     0.008 C 
ENDBRANCH  12  17
ENDBRANCH  11  12
ENDBRANCH   1  11
TORSDOF 1
ENDMDL
