MODEL 1
REMARK VINA RESULT:    -5.556      0.000      0.000
REMARK INTER + INTRA:         -12.332
REMARK INTER:                 -10.753
REMARK INTRA:                  -1.579
REMARK UNBOUND:                -1.579
REMARK SMILES CCCCCCCCCCCCCCCCCC(=O)[O-]
REMARK SMILES IDX 10 1 11 2 12 3 13 4 14 5 15 6 16 7 17 8 18 9 19 10 20 11
REMARK SMILES IDX 9 12 8 13 7 14 6 15 5 16 4 17 3 18 2 19 1 20
REMARK H PARENT
REMARK Flexibility Score: inf
ROOT
ATOM      1  C   UNL     1       5.024  46.888   9.986  1.00  0.00     0.000 C 
ENDROOT
BRANCH   1   2
ATOM      2  C   UNL     1       6.322  47.451   9.374  1.00  0.00     0.000 C 
BRANCH   2   3
ATOM      3  C   UNL     1       6.330  48.976   9.148  1.00  0.00     0.000 C 
BRANCH   3   4
ATOM      4  C   UNL     1       5.748  49.818  10.302  1.00  0.00     0.000 C 
BRANCH   4   5
ATOM      5  C   UNL     1       4.943  51.051   9.840  1.00  0.00     0.000 C 
BRANCH   5   6
ATOM      6  C   UNL     1       4.773  51.115   8.310  1.00  0.00     0.000 C 
BRANCH   6   7
ATOM      7  C   UNL     1       3.309  50.958   7.867  1.00  0.00     0.006 C 
BRANCH   7   8
ATOM      8  C   UNL     1       3.040  49.616   7.164  1.00  0.00     0.053 C 
BRANCH   8   9
ATOM      9  C   UNL     1       2.304  48.666   8.064  1.00  0.00     0.041 C 
ATOM     10  O   UNL     1       2.157  48.926   9.287  1.00  0.00    -0.550 OA
ATOM     11  O   UNL     1       1.746  47.502   7.538  1.00  0.00    -0.550 OA
ENDBRANCH   8   9
ENDBRANCH   7   8
ENDBRANCH   6   7
ENDBRANCH   5   6
ENDBRANCH   4   5
ENDBRANCH   3   4
ENDBRANCH   2   3
ENDBRANCH   1   2
BRANCH   1  12
ATOM     12  C   UNL     1       4.394  45.773   9.140  1.00  0.00     0.000 C 
BRANCH  12  13
ATOM     13  C   UNL     1       4.182  44.504   9.979  1.00  0.00    -0.000 C 
BRANCH  13  14
ATOM     14  C   UNL     1       4.132  44.794  11.488  1.00  0.00    -0.000 C 
BRANCH  14  15
ATOM     15  C   UNL     1       3.404  43.691  12.274  1.00  0.00    -0.000 C 
BRANCH  15  16
ATOM     16  C   UNL     1       2.754  42.643  11.357  1.00  0.00    -0.000 C 
BRANCH  16  17
ATOM     17  C   UNL     1       2.893  41.207  11.894  1.00  0.00    -0.000 C 
BRANCH  17  18
ATOM     18  C   UNL     1       4.274  40.953  12.536  1.00  0.00    -0.000 C 
BRANCH  18  19
ATOM     19  C   UNL     1       4.480  39.500  12.996  1.00  0.00    -0.003 C 
ATOM     20  C   UNL     1       3.288  38.595  12.686  1.00  0.00     0.004 C 
ENDBRANCH  18  19
ENDBRANCH  17  18
ENDBRANCH  16  17
ENDBRANCH  15  16
ENDBRANCH  14  15
ENDBRANCH  13  14
ENDBRANCH  12  13
ENDBRANCH   1  12
TORSDOF 16
ENDMDL
MODEL 2
REMARK VINA RESULT:    -5.477      2.079      6.881
REMARK INTER + INTRA:         -12.179
REMARK INTER:                  -9.441
REMARK INTRA:                  -2.739
REMARK UNBOUND:                -1.579
REMARK SMILES CCCCCCCCCCCCCCCCCC(=O)[O-]
REMARK SMILES IDX 10 1 11 2 12 3 13 4 14 5 15 6 16 7 17 8 18 9 19 10 20 11
REMARK SMILES IDX 9 12 8 13 7 14 6 15 5 16 4 17 3 18 2 19 1 20
REMARK H PARENT
REMARK Flexibility Score: inf
ROOT
ATOM      1  C   UNL     1       3.791  46.370  10.487  1.00  0.00     0.000 C 
ENDROOT
BRANCH   1   2
ATOM      2  C   UNL     1       4.552  45.200  11.141  1.00  0.00     0.000 C 
BRANCH   2   3
ATOM      3  C   UNL     1       3.707  44.314  12.078  1.00  0.00     0.000 C 
BRANCH   3   4
ATOM      4  C   UNL     1       3.610  42.829  11.674  1.00  0.00     0.000 C 
BRANCH   4   5
ATOM      5  C   UNL     1       2.345  42.478  10.862  1.00  0.00     0.000 C 
BRANCH   5   6
ATOM      6  C   UNL     1       2.483  42.815   9.365  1.00  0.00     0.000 C 
BRANCH   6   7
ATOM      7  C   UNL     1       1.333  43.692   8.843  1.00  0.00     0.006 C 
BRANCH   7   8
ATOM      8  C   UNL     1       0.645  44.498   9.957  1.00  0.00     0.053 C 
BRANCH   8   9
ATOM      9  C   UNL     1      -0.206  45.597   9.390  1.00  0.00     0.041 C 
ATOM     10  O   UNL     1      -0.405  45.679   8.150  1.00  0.00    -0.550 OA
ATOM     11  O   UNL     1      -0.816  46.515  10.244  1.00  0.00    -0.550 OA
ENDBRANCH   8   9
ENDBRANCH   7   8
ENDBRANCH   6   7
ENDBRANCH   5   6
ENDBRANCH   4   5
ENDBRANCH   3   4
ENDBRANCH   2   3
ENDBRANCH   1   2
BRANCH   1  12
ATOM     12  C   UNL     1       3.823  46.326   8.953  1.00  0.00     0.000 C 
BRANCH  12  13
ATOM     13  C   UNL     1       3.222  47.608   8.357  1.00  0.00    -0.000 C 
BRANCH  13  14
ATOM     14  C   UNL     1       2.180  48.258   9.281  1.00  0.00    -0.000 C 
BRANCH  14  15
ATOM     15  C   UNL     1       2.452  49.753   9.515  1.00  0.00    -0.000 C 
BRANCH  15  16
ATOM     16  C   UNL     1       3.567  49.995  10.546  1.00  0.00    -0.000 C 
BRANCH  16  17
ATOM     17  C   UNL     1       4.822  50.640   9.931  1.00  0.00    -0.000 C 
BRANCH  17  18
ATOM     18  C   UNL     1       6.098  49.814  10.202  1.00  0.00    -0.000 C 
BRANCH  18  19
ATOM     19  C   UNL     1       6.544  48.961   9.001  1.00  0.00    -0.003 C 
ATOM     20  C   UNL     1       7.185  47.636   9.408  1.00  0.00     0.004 C 
ENDBRANCH  18  19
ENDBRANCH  17  18
ENDBRANCH  16  17
ENDBRANCH  15  16
ENDBRANCH  14  15
ENDBRANCH  13  14
ENDBRANCH  12  13
ENDBRANCH   1  12
TORSDOF 16
ENDMDL
MODEL 3
REMARK VINA RESULT:    -5.451      2.899      6.598
REMARK INTER + INTRA:         -12.129
REMARK INTER:                  -9.517
REMARK INTRA:                  -2.612
REMARK UNBOUND:                -1.579
REMARK SMILES CCCCCCCCCCCCCCCCCC(=O)[O-]
REMARK SMILES IDX 10 1 11 2 12 3 13 4 14 5 15 6 16 7 17 8 18 9 19 10 20 11
REMARK SMILES IDX 9 12 8 13 7 14 6 15 5 16 4 17 3 18 2 19 1 20
REMARK H PARENT
REMARK Flexibility Score: inf
ROOT
ATOM      1  C   UNL     1       6.408  49.193   8.827  1.00  0.00     0.000 C 
ENDROOT
BRANCH   1   2
ATOM      2  C   UNL     1       6.602  47.735   9.289  1.00  0.00     0.000 C 
BRANCH   2   3
ATOM      3  C   UNL     1       5.342  46.851   9.209  1.00  0.00     0.000 C 
BRANCH   3   4
ATOM      4  C   UNL     1       4.529  46.740  10.515  1.00  0.00     0.000 C 
BRANCH   4   5
ATOM      5  C   UNL     1       4.118  45.299  10.882  1.00  0.00     0.000 C 
BRANCH   5   6
ATOM      6  C   UNL     1       4.071  44.361   9.660  1.00  0.00     0.000 C 
BRANCH   6   7
ATOM      7  C   UNL     1       2.774  43.537   9.591  1.00  0.00     0.006 C 
BRANCH   7   8
ATOM      8  C   UNL     1       1.884  43.721  10.832  1.00  0.00     0.053 C 
BRANCH   8   9
ATOM      9  C   UNL     1       1.925  42.510  11.718  1.00  0.00     0.041 C 
ATOM     10  O   UNL     1       2.849  41.663  11.603  1.00  0.00    -0.550 OA
ATOM     11  O   UNL     1       0.955  42.337  12.703  1.00  0.00    -0.550 OA
ENDBRANCH   8   9
ENDBRANCH   7   8
ENDBRANCH   6   7
ENDBRANCH   5   6
ENDBRANCH   4   5
ENDBRANCH   3   4
ENDBRANCH   2   3
ENDBRANCH   1   2
BRANCH   1  12
ATOM     12  C   UNL     1       5.853  50.105   9.928  1.00  0.00     0.000 C 
BRANCH  12  13
ATOM     13  C   UNL     1       4.432  50.576   9.583  1.00  0.00    -0.000 C 
BRANCH  13  14
ATOM     14  C   UNL     1       4.060  50.308   8.116  1.00  0.00    -0.000 C 
BRANCH  14  15
ATOM     15  C   UNL     1       2.785  49.460   7.978  1.00  0.00    -0.000 C 
BRANCH  15  16
ATOM     16  C   UNL     1       2.113  49.180   9.332  1.00  0.00    -0.000 C 
BRANCH  16  17
ATOM     17  C   UNL     1       1.271  47.892   9.328  1.00  0.00    -0.000 C 
BRANCH  17  18
ATOM     18  C   UNL     1       1.612  46.973   8.135  1.00  0.00    -0.000 C 
BRANCH  18  19
ATOM     19  C   UNL     1       0.374  46.478   7.367  1.00  0.00    -0.003 C 
ATOM     20  C   UNL     1      -0.067  45.074   7.776  1.00  0.00     0.004 C 
ENDBRANCH  18  19
ENDBRANCH  17  18
ENDBRANCH  16  17
ENDBRANCH  15  16
ENDBRANCH  14  15
ENDBRANCH  13  14
ENDBRANCH  12  13
ENDBRANCH   1  12
TORSDOF 16
ENDMDL
MODEL 4
REMARK VINA RESULT:    -5.445      3.382      8.104
REMARK INTER + INTRA:         -12.116
REMARK INTER:                 -10.047
REMARK INTRA:                  -2.069
REMARK UNBOUND:                -1.579
REMARK SMILES CCCCCCCCCCCCCCCCCC(=O)[O-]
REMARK SMILES IDX 10 1 11 2 12 3 13 4 14 5 15 6 16 7 17 8 18 9 19 10 20 11
REMARK SMILES IDX 9 12 8 13 7 14 6 15 5 16 4 17 3 18 2 19 1 20
REMARK H PARENT
REMARK Flexibility Score: inf
ROOT
ATOM      1  C   UNL     1       4.475  46.851  10.385  1.00  0.00     0.000 C 
ENDROOT
BRANCH   1   2
ATOM      2  C   UNL     1       4.333  45.401  10.890  1.00  0.00     0.000 C 
BRANCH   2   3
ATOM      3  C   UNL     1       4.105  44.345   9.790  1.00  0.00     0.000 C 
BRANCH   3   4
ATOM      4  C   UNL     1       2.692  43.730   9.747  1.00  0.00     0.000 C 
BRANCH   4   5
ATOM      5  C   UNL     1       1.844  44.008  11.006  1.00  0.00     0.000 C 
BRANCH   5   6
ATOM      6  C   UNL     1       1.954  42.889  12.059  1.00  0.00     0.000 C 
BRANCH   6   7
ATOM      7  C   UNL     1       2.668  41.636  11.525  1.00  0.00     0.006 C 
BRANCH   7   8
ATOM      8  C   UNL     1       3.932  41.284  12.328  1.00  0.00     0.053 C 
BRANCH   8   9
ATOM      9  C   UNL     1       3.905  39.855  12.789  1.00  0.00     0.041 C 
ATOM     10  O   UNL     1       2.926  39.112  12.518  1.00  0.00    -0.550 OA
ATOM     11  O   UNL     1       4.989  39.332  13.493  1.00  0.00    -0.550 OA
ENDBRANCH   8   9
ENDBRANCH   7   8
ENDBRANCH   6   7
ENDBRANCH   5   6
ENDBRANCH   4   5
ENDBRANCH   3   4
ENDBRANCH   2   3
ENDBRANCH   1   2
BRANCH   1  12
ATOM     12  C   UNL     1       5.625  47.030   9.385  1.00  0.00     0.000 C 
BRANCH  12  13
ATOM     13  C   UNL     1       5.931  48.519   9.166  1.00  0.00    -0.000 C 
BRANCH  13  14
ATOM     14  C   UNL     1       5.210  49.426  10.175  1.00  0.00    -0.000 C 
BRANCH  14  15
ATOM     15  C   UNL     1       4.349  50.501   9.489  1.00  0.00    -0.000 C 
BRANCH  15  16
ATOM     16  C   UNL     1       4.282  50.319   7.964  1.00  0.00    -0.000 C 
BRANCH  16  17
ATOM     17  C   UNL     1       2.840  50.215   7.436  1.00  0.00    -0.000 C 
BRANCH  17  18
ATOM     18  C   UNL     1       2.013  49.156   8.195  1.00  0.00    -0.000 C 
BRANCH  18  19
ATOM     19  C   UNL     1       2.292  47.714   7.737  1.00  0.00    -0.003 C 
ATOM     20  C   UNL     1       1.187  46.734   8.126  1.00  0.00     0.004 C 
ENDBRANCH  18  19
ENDBRANCH  17  18
ENDBRANCH  16  17
ENDBRANCH  15  16
ENDBRANCH  14  15
ENDBRANCH  13  14
ENDBRANCH  12  13
ENDBRANCH   1  12
TORSDOF 16
ENDMDL
MODEL 5
REMARK VINA RESULT:    -5.353      1.686      2.799
REMARK INTER + INTRA:         -11.939
REMARK INTER:                  -9.934
REMARK INTRA:                  -2.005
REMARK UNBOUND:                -1.579
REMARK SMILES CCCCCCCCCCCCCCCCCC(=O)[O-]
REMARK SMILES IDX 10 1 11 2 12 3 13 4 14 5 15 6 16 7 17 8 18 9 19 10 20 11
REMARK SMILES IDX 9 12 8 13 7 14 6 15 5 16 4 17 3 18 2 19 1 20
REMARK H PARENT
REMARK Flexibility Score: inf
ROOT
ATOM      1  C   UNL     1       6.387  47.572   9.301  1.00  0.00     0.000 C 
ENDROOT
BRANCH   1   2
ATOM      2  C   UNL     1       6.214  49.076   9.010  1.00  0.00     0.000 C 
BRANCH   2   3
ATOM      3  C   UNL     1       4.755  49.568   8.953  1.00  0.00     0.000 C 
BRANCH   3   4
ATOM      4  C   UNL     1       4.066  49.436   7.580  1.00  0.00     0.000 C 
BRANCH   4   5
ATOM      5  C   UNL     1       2.667  48.787   7.636  1.00  0.00     0.000 C 
BRANCH   5   6
ATOM      6  C   UNL     1       2.086  48.740   9.062  1.00  0.00     0.000 C 
BRANCH   6   7
ATOM      7  C   UNL     1       1.083  47.591   9.261  1.00  0.00     0.006 C 
BRANCH   7   8
ATOM      8  C   UNL     1       1.107  46.574   8.108  1.00  0.00     0.053 C 
BRANCH   8   9
ATOM      9  C   UNL     1       0.389  45.310   8.480  1.00  0.00     0.041 C 
ATOM     10  O   UNL     1      -0.396  44.755   7.667  1.00  0.00    -0.550 OA
ATOM     11  O   UNL     1       0.619  44.720   9.722  1.00  0.00    -0.550 OA
ENDBRANCH   8   9
ENDBRANCH   7   8
ENDBRANCH   6   7
ENDBRANCH   5   6
ENDBRANCH   4   5
ENDBRANCH   3   4
ENDBRANCH   2   3
ENDBRANCH   1   2
BRANCH   1  12
ATOM     12  C   UNL     1       5.168  46.950   9.997  1.00  0.00     0.000 C 
BRANCH  12  13
ATOM     13  C   UNL     1       4.537  45.858   9.120  1.00  0.00    -0.000 C 
BRANCH  13  14
ATOM     14  C   UNL     1       4.118  44.620   9.928  1.00  0.00    -0.000 C 
BRANCH  14  15
ATOM     15  C   UNL     1       4.050  44.899  11.439  1.00  0.00    -0.000 C 
BRANCH  15  16
ATOM     16  C   UNL     1       3.618  43.665  12.248  1.00  0.00    -0.000 C 
BRANCH  16  17
ATOM     17  C   UNL     1       2.971  42.574  11.377  1.00  0.00    -0.000 C 
BRANCH  17  18
ATOM     18  C   UNL     1       3.078  41.173  12.017  1.00  0.00    -0.000 C 
BRANCH  18  19
ATOM     19  C   UNL     1       4.509  40.801  12.445  1.00  0.00    -0.003 C 
ATOM     20  C   UNL     1       4.578  39.504  13.250  1.00  0.00     0.004 C 
ENDBRANCH  18  19
ENDBRANCH  17  18
ENDBRANCH  16  17
ENDBRANCH  15  16
ENDBRANCH  14  15
ENDBRANCH  13  14
ENDBRANCH  12  13
ENDBRANCH   1  12
TORSDOF 16
ENDMDL
MODEL 6
REMARK VINA RESULT:    -5.327      2.854      6.918
REMARK INTER + INTRA:         -11.889
REMARK INTER:                  -9.207
REMARK INTRA:                  -2.682
REMARK UNBOUND:                -1.579
REMARK SMILES CCCCCCCCCCCCCCCCCC(=O)[O-]
REMARK SMILES IDX 10 1 11 2 12 3 13 4 14 5 15 6 16 7 17 8 18 9 19 10 20 11
REMARK SMILES IDX 9 12 8 13 7 14 6 15 5 16 4 17 3 18 2 19 1 20
REMARK H PARENT
REMARK Flexibility Score: inf
ROOT
ATOM      1  C   UNL     1       1.851  49.312   8.177  1.00  0.00     0.000 C 
ENDROOT
BRANCH   1   2
ATOM      2  C   UNL     1       1.876  47.854   7.676  1.00  0.00     0.000 C 
BRANCH   2   3
ATOM      3  C   UNL     1       0.652  47.006   8.070  1.00  0.00     0.000 C 
BRANCH   3   4
ATOM      4  C   UNL     1       0.475  46.763   9.583  1.00  0.00     0.000 C 
BRANCH   4   5
ATOM      5  C   UNL     1       0.444  45.272   9.983  1.00  0.00     0.000 C 
BRANCH   5   6
ATOM      6  C   UNL     1       1.125  44.361   8.945  1.00  0.00     0.000 C 
BRANCH   6   7
ATOM      7  C   UNL     1       1.979  43.256   9.591  1.00  0.00     0.006 C 
BRANCH   7   8
ATOM      8  C   UNL     1       1.795  43.176  11.116  1.00  0.00     0.053 C 
BRANCH   8   9
ATOM      9  C   UNL     1       2.873  42.349  11.753  1.00  0.00     0.041 C 
ATOM     10  O   UNL     1       2.710  41.114  11.935  1.00  0.00    -0.550 OA
ATOM     11  O   UNL     1       4.082  42.941  12.114  1.00  0.00    -0.550 OA
ENDBRANCH   8   9
ENDBRANCH   7   8
ENDBRANCH   6   7
ENDBRANCH   5   6
ENDBRANCH   4   5
ENDBRANCH   3   4
ENDBRANCH   2   3
ENDBRANCH   1   2
BRANCH   1  12
ATOM     12  C   UNL     1       2.812  50.229   7.410  1.00  0.00     0.000 C 
BRANCH  12  13
ATOM     13  C   UNL     1       4.008  50.624   8.289  1.00  0.00    -0.000 C 
BRANCH  13  14
ATOM     14  C   UNL     1       3.784  50.300   9.774  1.00  0.00    -0.000 C 
BRANCH  14  15
ATOM     15  C   UNL     1       5.073  49.844  10.478  1.00  0.00    -0.000 C 
BRANCH  15  16
ATOM     16  C   UNL     1       6.142  49.351   9.489  1.00  0.00    -0.000 C 
BRANCH  16  17
ATOM     17  C   UNL     1       6.303  47.819   9.495  1.00  0.00    -0.000 C 
BRANCH  17  18
ATOM     18  C   UNL     1       5.218  47.113   8.656  1.00  0.00    -0.000 C 
BRANCH  18  19
ATOM     19  C   UNL     1       4.574  45.911   9.369  1.00  0.00    -0.003 C 
ATOM     20  C   UNL     1       4.034  46.252  10.756  1.00  0.00     0.004 C 
ENDBRANCH  18  19
ENDBRANCH  17  18
ENDBRANCH  16  17
ENDBRANCH  15  16
ENDBRANCH  14  15
ENDBRANCH  13  14
ENDBRANCH  12  13
ENDBRANCH   1  12
TORSDOF 16
ENDMDL
MODEL 7
REMARK VINA RESULT:    -5.300      1.678      3.104
REMARK INTER + INTRA:         -11.836
REMARK INTER:                 -10.181
REMARK INTRA:                  -1.655
REMARK UNBOUND:                -1.579
REMARK SMILES CCCCCCCCCCCCCCCCCC(=O)[O-]
REMARK SMILES IDX 10 1 11 2 12 3 13 4 14 5 15 6 16 7 17 8 18 9 19 10 20 11
REMARK SMILES IDX 9 12 8 13 7 14 6 15 5 16 4 17 3 18 2 19 1 20
REMARK H PARENT
REMARK Flexibility Score: inf
ROOT
ATOM      1  C   UNL     1       4.069  46.116   9.428  1.00  0.00     0.000 C 
ENDROOT
BRANCH   1   2
ATOM      2  C   UNL     1       2.753  46.858   9.737  1.00  0.00     0.000 C 
BRANCH   2   3
ATOM      3  C   UNL     1       1.624  46.641   8.711  1.00  0.00     0.000 C 
BRANCH   3   4
ATOM      4  C   UNL     1       1.521  47.710   7.605  1.00  0.00     0.000 C 
BRANCH   4   5
ATOM      5  C   UNL     1       1.861  49.140   8.077  1.00  0.00     0.000 C 
BRANCH   5   6
ATOM      6  C   UNL     1       2.958  49.806   7.226  1.00  0.00     0.000 C 
BRANCH   6   7
ATOM      7  C   UNL     1       4.004  50.548   8.075  1.00  0.00     0.006 C 
BRANCH   7   8
ATOM      8  C   UNL     1       5.108  49.618   8.607  1.00  0.00     0.053 C 
BRANCH   8   9
ATOM      9  C   UNL     1       5.335  49.824  10.076  1.00  0.00     0.041 C 
ATOM     10  O   UNL     1       4.445  49.518  10.912  1.00  0.00    -0.550 OA
ATOM     11  O   UNL     1       6.556  50.325  10.526  1.00  0.00    -0.550 OA
ENDBRANCH   8   9
ENDBRANCH   7   8
ENDBRANCH   6   7
ENDBRANCH   5   6
ENDBRANCH   4   5
ENDBRANCH   3   4
ENDBRANCH   2   3
ENDBRANCH   1   2
BRANCH   1  12
ATOM     12  C   UNL     1       4.162  44.746  10.113  1.00  0.00     0.000 C 
BRANCH  12  13
ATOM     13  C   UNL     1       3.773  43.622   9.141  1.00  0.00    -0.000 C 
BRANCH  13  14
ATOM     14  C   UNL     1       2.529  42.847   9.601  1.00  0.00    -0.000 C 
BRANCH  14  15
ATOM     15  C   UNL     1       1.909  43.435  10.880  1.00  0.00    -0.000 C 
BRANCH  15  16
ATOM     16  C   UNL     1       2.108  42.527  12.104  1.00  0.00    -0.000 C 
BRANCH  16  17
ATOM     17  C   UNL     1       3.018  41.319  11.812  1.00  0.00    -0.000 C 
BRANCH  17  18
ATOM     18  C   UNL     1       2.608  40.069  12.620  1.00  0.00    -0.000 C 
BRANCH  18  19
ATOM     19  C   UNL     1       3.758  39.067  12.826  1.00  0.00    -0.003 C 
ATOM     20  C   UNL     1       4.995  39.693  13.467  1.00  0.00     0.004 C 
ENDBRANCH  18  19
ENDBRANCH  17  18
ENDBRANCH  16  17
ENDBRANCH  15  16
ENDBRANCH  14  15
ENDBRANCH  13  14
ENDBRANCH  12  13
ENDBRANCH   1  12
TORSDOF 16
ENDMDL
MODEL 8
REMARK VINA RESULT:    -5.296      1.666      3.107
REMARK INTER + INTRA:         -11.828
REMARK INTER:                  -9.599
REMARK INTRA:                  -2.230
REMARK UNBOUND:                -1.579
REMARK SMILES CCCCCCCCCCCCCCCCCC(=O)[O-]
REMARK SMILES IDX 10 1 11 2 12 3 13 4 14 5 15 6 16 7 17 8 18 9 19 10 20 11
REMARK SMILES IDX 9 12 8 13 7 14 6 15 5 16 4 17 3 18 2 19 1 20
REMARK H PARENT
REMARK Flexibility Score: inf
ROOT
ATOM      1  C   UNL     1       6.493  49.156   8.975  1.00  0.00     0.000 C 
ENDROOT
BRANCH   1   2
ATOM      2  C   UNL     1       5.925  50.030  10.111  1.00  0.00     0.000 C 
BRANCH   2   3
ATOM      3  C   UNL     1       4.649  50.817   9.754  1.00  0.00     0.000 C 
BRANCH   3   4
ATOM      4  C   UNL     1       4.402  51.027   8.246  1.00  0.00     0.000 C 
BRANCH   4   5
ATOM      5  C   UNL     1       2.964  50.701   7.791  1.00  0.00     0.000 C 
BRANCH   5   6
ATOM      6  C   UNL     1       2.762  49.209   7.469  1.00  0.00     0.000 C 
BRANCH   6   7
ATOM      7  C   UNL     1       1.858  48.496   8.489  1.00  0.00     0.006 C 
BRANCH   7   8
ATOM      8  C   UNL     1       1.627  47.014   8.146  1.00  0.00     0.053 C 
BRANCH   8   9
ATOM      9  C   UNL     1       0.165  46.708   8.003  1.00  0.00     0.041 C 
ATOM     10  O   UNL     1      -0.456  47.023   6.954  1.00  0.00    -0.550 OA
ATOM     11  O   UNL     1      -0.508  46.036   9.023  1.00  0.00    -0.550 OA
ENDBRANCH   8   9
ENDBRANCH   7   8
ENDBRANCH   6   7
ENDBRANCH   5   6
ENDBRANCH   4   5
ENDBRANCH   3   4
ENDBRANCH   2   3
ENDBRANCH   1   2
BRANCH   1  12
ATOM     12  C   UNL     1       6.590  47.671   9.349  1.00  0.00     0.000 C 
BRANCH  12  13
ATOM     13  C   UNL     1       5.248  46.961   9.116  1.00  0.00    -0.000 C 
BRANCH  13  14
ATOM     14  C   UNL     1       4.507  46.653  10.427  1.00  0.00    -0.000 C 
BRANCH  14  15
ATOM     15  C   UNL     1       4.372  45.143  10.686  1.00  0.00    -0.000 C 
BRANCH  15  16
ATOM     16  C   UNL     1       4.057  44.351   9.406  1.00  0.00    -0.000 C 
BRANCH  16  17
ATOM     17  C   UNL     1       2.885  43.369   9.582  1.00  0.00    -0.000 C 
BRANCH  17  18
ATOM     18  C   UNL     1       1.858  43.864  10.623  1.00  0.00    -0.000 C 
BRANCH  18  19
ATOM     19  C   UNL     1       1.818  43.009  11.902  1.00  0.00    -0.003 C 
ATOM     20  C   UNL     1       2.633  41.722  11.791  1.00  0.00     0.004 C 
ENDBRANCH  18  19
ENDBRANCH  17  18
ENDBRANCH  16  17
ENDBRANCH  15  16
ENDBRANCH  14  15
ENDBRANCH  13  14
ENDBRANCH  12  13
ENDBRANCH   1  12
TORSDOF 16
ENDMDL
MODEL 9
REMARK VINA RESULT:    -5.266      3.684      8.090
REMARK INTER + INTRA:         -11.770
REMARK INTER:                  -9.900
REMARK INTRA:                  -1.870
REMARK UNBOUND:                -1.579
REMARK SMILES CCCCCCCCCCCCCCCCCC(=O)[O-]
REMARK SMILES IDX 10 1 11 2 12 3 13 4 14 5 15 6 16 7 17 8 18 9 19 10 20 11
REMARK SMILES IDX 9 12 8 13 7 14 6 15 5 16 4 17 3 18 2 19 1 20
REMARK H PARENT
REMARK Flexibility Score: inf
ROOT
ATOM      1  C   UNL     1       0.313  46.607   8.279  1.00  0.00     0.000 C 
ENDROOT
BRANCH   1   2
ATOM      2  C   UNL     1       0.266  45.086   8.033  1.00  0.00     0.000 C 
BRANCH   2   3
ATOM      3  C   UNL     1       1.044  44.233   9.054  1.00  0.00     0.000 C 
BRANCH   3   4
ATOM      4  C   UNL     1       0.889  44.662  10.527  1.00  0.00     0.000 C 
BRANCH   4   5
ATOM      5  C   UNL     1       1.682  43.791  11.524  1.00  0.00     0.000 C 
BRANCH   5   6
ATOM      6  C   UNL     1       2.435  42.635  10.841  1.00  0.00     0.000 C 
BRANCH   6   7
ATOM      7  C   UNL     1       3.337  41.854  11.811  1.00  0.00     0.006 C 
BRANCH   7   8
ATOM      8  C   UNL     1       2.642  40.618  12.407  1.00  0.00     0.053 C 
BRANCH   8   9
ATOM      9  C   UNL     1       3.634  39.548  12.755  1.00  0.00     0.041 C 
ATOM     10  O   UNL     1       3.349  38.332  12.594  1.00  0.00    -0.550 OA
ATOM     11  O   UNL     1       4.899  39.898  13.225  1.00  0.00    -0.550 OA
ENDBRANCH   8   9
ENDBRANCH   7   8
ENDBRANCH   6   7
ENDBRANCH   5   6
ENDBRANCH   4   5
ENDBRANCH   3   4
ENDBRANCH   2   3
ENDBRANCH   1   2
BRANCH   1  12
ATOM     12  C   UNL     1       1.460  47.302   7.534  1.00  0.00     0.000 C 
BRANCH  12  13
ATOM     13  C   UNL     1       1.712  48.705   8.106  1.00  0.00    -0.000 C 
BRANCH  13  14
ATOM     14  C   UNL     1       2.983  49.356   7.538  1.00  0.00    -0.000 C 
BRANCH  14  15
ATOM     15  C   UNL     1       3.851  50.001   8.632  1.00  0.00    -0.000 C 
BRANCH  15  16
ATOM     16  C   UNL     1       5.337  49.628   8.502  1.00  0.00    -0.000 C 
BRANCH  16  17
ATOM     17  C   UNL     1       5.805  48.646   9.592  1.00  0.00    -0.000 C 
BRANCH  17  18
ATOM     18  C   UNL     1       5.977  47.210   9.052  1.00  0.00    -0.000 C 
BRANCH  18  19
ATOM     19  C   UNL     1       4.802  46.279   9.398  1.00  0.00    -0.003 C 
ATOM     20  C   UNL     1       3.923  46.813  10.527  1.00  0.00     0.004 C 
ENDBRANCH  18  19
ENDBRANCH  17  18
ENDBRANCH  16  17
ENDBRANCH  15  16
ENDBRANCH  14  15
ENDBRANCH  13  14
ENDBRANCH  12  13
ENDBRANCH   1  12
TORSDOF 16
ENDMDL
