MODEL 1
REMARK VINA RESULT:    -3.949      0.000      0.000
REMARK INTER + INTRA:          -2.218
REMARK INTER:                  -4.872
REMARK INTRA:                   2.655
REMARK UNBOUND:                 2.655
REMARK SMILES C=C1CC[C@@H]2[C@@H]([C@H]3[C@H](C)CC[C@H]13)C2(C)C
REMARK SMILES IDX 3 1 2 2 1 3 12 4 9 5 8 6 10 7 7 8 11 9 4 11 5 12 6 13 13 14
REMARK SMILES IDX 14 16 15 17
REMARK H PARENT
REMARK Flexibility Score: 80.00
ROOT
ATOM      1  C   UNL     1     137.821 141.829 135.850  1.00  0.00     0.031 C 
ENDROOT
BRANCH   1   2
ATOM      2  C   UNL     1     137.953 141.166 134.474  1.00  0.00    -0.074 C 
ATOM      3  C   UNL     1     137.028 141.419 133.533  1.00  0.00     0.008 C 
BRANCH   2   4
ATOM      4  C   UNL     1     139.280 140.475 134.152  1.00  0.00     0.018 C 
ATOM      5  C   UNL     1     142.392 141.134 132.153  1.00  0.00     0.008 C 
ATOM      6  C   UNL     1     141.474 140.512 133.210  1.00  0.00    -0.010 C 
ATOM      7  C   UNL     1     140.768 139.235 132.701  1.00  0.00     0.004 C 
ATOM      8  C   UNL     1     140.337 141.447 133.625  1.00  0.00     0.003 CG0
ATOM      9  C   UNL     1     139.301 139.325 133.151  1.00  0.00     0.008 C 
ATOM     10  G   UNL     1     140.686 142.426 134.762  1.00  0.00     0.000 G0
ENDBRANCH   2   4
ENDBRANCH   1   2
BRANCH   1  11
ATOM     11  C   UNL     1     138.641 143.148 136.033  1.00  0.00     0.009 C 
BRANCH  11  12
ATOM     12  C   UNL     1     139.518 143.465 134.812  1.00  0.00    -0.001 C 
ATOM     13  C   UNL     1     140.689 142.440 134.772  1.00  0.00     0.002 CG0
ATOM     14  C   UNL     1     140.962 143.944 134.749  1.00  0.00    -0.029 C 
ATOM     15  G   UNL     1     140.342 141.477 133.621  1.00  0.00     0.000 G0
ATOM     16  C   UNL     1     141.410 144.555 133.417  1.00  0.00     0.011 C 
ATOM     17  C   UNL     1     141.526 144.571 136.029  1.00  0.00     0.011 C 
ENDBRANCH  11  12
ENDBRANCH   1  11
TORSDOF 0
ENDMDL
MODEL 2
REMARK VINA RESULT:    -3.830      2.005      3.852
REMARK INTER + INTRA:          -2.071
REMARK INTER:                  -4.762
REMARK INTRA:                   2.690
REMARK UNBOUND:                 2.655
REMARK SMILES C=C1CC[C@@H]2[C@@H]([C@H]3[C@H](C)CC[C@H]13)C2(C)C
REMARK SMILES IDX 3 1 2 2 1 3 12 4 9 5 8 6 10 7 7 8 11 9 4 11 5 12 6 13 13 14
REMARK SMILES IDX 14 16 15 17
REMARK H PARENT
REMARK Flexibility Score: 80.00
ROOT
ATOM      1  C   UNL     1     144.274 141.970 134.269  1.00  0.00     0.031 C 
ENDROOT
BRANCH   1   2
ATOM      2  C   UNL     1     143.844 140.639 134.898  1.00  0.00    -0.074 C 
ATOM      3  C   UNL     1     144.282 140.324 136.128  1.00  0.00     0.008 C 
BRANCH   2   4
ATOM      4  C   UNL     1     142.714 139.870 134.210  1.00  0.00     0.018 C 
ATOM      5  C   UNL     1     139.038 139.248 134.668  1.00  0.00     0.008 C 
ATOM      6  C   UNL     1     140.398 139.342 133.970  1.00  0.00    -0.010 C 
ATOM      7  C   UNL     1     141.179 138.010 134.017  1.00  0.00     0.004 C 
ATOM      8  C   UNL     1     141.327 140.362 134.629  1.00  0.00     0.003 CG0
ATOM      9  C   UNL     1     142.634 138.356 134.369  1.00  0.00     0.008 C 
ATOM     10  G   UNL     1     141.166 141.807 134.120  1.00  0.00     0.000 G0
ENDBRANCH   2   4
ENDBRANCH   1   2
BRANCH   1  11
ATOM     11  C   UNL     1     143.272 143.154 134.468  1.00  0.00     0.009 C 
BRANCH  11  12
ATOM     12  C   UNL     1     141.961 142.704 135.132  1.00  0.00    -0.001 C 
ATOM     13  C   UNL     1     141.177 141.821 134.117  1.00  0.00     0.002 CG0
ATOM     14  C   UNL     1     140.521 143.039 134.768  1.00  0.00    -0.029 C 
ATOM     15  G   UNL     1     141.328 140.379 134.637  1.00  0.00     0.000 G0
ATOM     16  C   UNL     1     139.474 142.775 135.855  1.00  0.00     0.011 C 
ATOM     17  C   UNL     1     140.313 144.276 133.886  1.00  0.00     0.011 C 
ENDBRANCH  11  12
ENDBRANCH   1  11
TORSDOF 0
ENDMDL
MODEL 3
REMARK VINA RESULT:    -3.816      2.265      4.600
REMARK INTER + INTRA:          -2.053
REMARK INTER:                  -4.795
REMARK INTRA:                   2.742
REMARK UNBOUND:                 2.655
REMARK SMILES C=C1CC[C@@H]2[C@@H]([C@H]3[C@H](C)CC[C@H]13)C2(C)C
REMARK SMILES IDX 3 1 2 2 1 3 12 4 9 5 8 6 10 7 7 8 11 9 4 11 5 12 6 13 13 14
REMARK SMILES IDX 14 16 15 17
REMARK H PARENT
REMARK Flexibility Score: 80.00
ROOT
ATOM      1  C   UNL     1     141.483 137.228 133.685  1.00  0.00     0.031 C 
ENDROOT
BRANCH   1   2
ATOM      2  C   UNL     1     142.660 138.030 133.115  1.00  0.00    -0.074 C 
ATOM      3  C   UNL     1     143.257 137.607 131.988  1.00  0.00     0.008 C 
BRANCH   2   4
ATOM      4  C   UNL     1     142.911 139.421 133.702  1.00  0.00     0.018 C 
ATOM      5  C   UNL     1     142.298 143.016 132.800  1.00  0.00     0.008 C 
ATOM      6  C   UNL     1     142.588 141.786 133.667  1.00  0.00    -0.010 C 
ATOM      7  C   UNL     1     144.102 141.523 133.830  1.00  0.00     0.004 C 
ATOM      8  C   UNL     1     142.032 140.496 133.062  1.00  0.00     0.003 CG0
ATOM      9  C   UNL     1     144.316 140.011 133.652  1.00  0.00     0.008 C 
ATOM     10  G   UNL     1     140.568 140.189 133.431  1.00  0.00     0.000 G0
ENDBRANCH   2   4
ENDBRANCH   1   2
BRANCH   1  11
ATOM     11  C   UNL     1     140.067 137.728 133.250  1.00  0.00     0.009 C 
BRANCH  11  12
ATOM     12  C   UNL     1     140.128 139.046 132.462  1.00  0.00    -0.001 C 
ATOM     13  C   UNL     1     140.560 140.179 133.438  1.00  0.00     0.002 CG0
ATOM     14  C   UNL     1     139.284 140.304 132.604  1.00  0.00    -0.029 C 
ATOM     15  G   UNL     1     142.022 140.493 133.068  1.00  0.00     0.000 G0
ATOM     16  C   UNL     1     139.315 141.273 131.418  1.00  0.00     0.011 C 
ATOM     17  C   UNL     1     137.949 140.148 133.342  1.00  0.00     0.011 C 
ENDBRANCH  11  12
ENDBRANCH   1  11
TORSDOF 0
ENDMDL
MODEL 4
REMARK VINA RESULT:    -3.787      1.414      3.815
REMARK INTER + INTRA:          -2.018
REMARK INTER:                  -4.703
REMARK INTRA:                   2.685
REMARK UNBOUND:                 2.655
REMARK SMILES C=C1CC[C@@H]2[C@@H]([C@H]3[C@H](C)CC[C@H]13)C2(C)C
REMARK SMILES IDX 3 1 2 2 1 3 12 4 9 5 8 6 10 7 7 8 11 9 4 11 5 12 6 13 13 14
REMARK SMILES IDX 14 16 15 17
REMARK H PARENT
REMARK Flexibility Score: 80.00
ROOT
ATOM      1  C   UNL     1     141.434 144.486 134.131  1.00  0.00     0.031 C 
ENDROOT
BRANCH   1   2
ATOM      2  C   UNL     1     142.571 143.546 134.550  1.00  0.00    -0.074 C 
ATOM      3  C   UNL     1     143.143 143.705 135.755  1.00  0.00     0.008 C 
BRANCH   2   4
ATOM      4  C   UNL     1     142.804 142.300 133.691  1.00  0.00     0.018 C 
ATOM      5  C   UNL     1     142.094 138.614 133.820  1.00  0.00     0.008 C 
ATOM      6  C   UNL     1     142.429 139.988 133.232  1.00  0.00    -0.010 C 
ATOM      7  C   UNL     1     143.951 140.240 133.150  1.00  0.00     0.004 C 
ATOM      8  C   UNL     1     141.888 141.139 134.081  1.00  0.00     0.003 CG0
ATOM      9  C   UNL     1     144.194 141.676 133.640  1.00  0.00     0.008 C 
ATOM     10  G   UNL     1     140.439 141.553 133.761  1.00  0.00     0.000 G0
ENDBRANCH   2   4
ENDBRANCH   1   2
BRANCH   1  11
ATOM     11  C   UNL     1     139.992 143.935 134.378  1.00  0.00     0.009 C 
BRANCH  11  12
ATOM     12  C   UNL     1     140.000 142.497 134.917  1.00  0.00    -0.001 C 
ATOM     13  C   UNL     1     140.431 141.544 133.764  1.00  0.00     0.002 CG0
ATOM     14  C   UNL     1     139.131 141.308 134.532  1.00  0.00    -0.029 C 
ATOM     15  G   UNL     1     141.875 141.128 134.105  1.00  0.00     0.000 G0
ATOM     16  C   UNL     1     139.106 140.142 135.526  1.00  0.00     0.011 C 
ATOM     17  C   UNL     1     137.821 141.632 133.803  1.00  0.00     0.011 C 
ENDBRANCH  11  12
ENDBRANCH   1  11
TORSDOF 0
ENDMDL
MODEL 5
REMARK VINA RESULT:    -3.752      1.886      3.044
REMARK INTER + INTRA:          -1.974
REMARK INTER:                  -4.680
REMARK INTRA:                   2.706
REMARK UNBOUND:                 2.655
REMARK SMILES C=C1CC[C@@H]2[C@@H]([C@H]3[C@H](C)CC[C@H]13)C2(C)C
REMARK SMILES IDX 3 1 2 2 1 3 12 4 9 5 8 6 10 7 7 8 11 9 4 11 5 12 6 13 13 14
REMARK SMILES IDX 14 16 15 17
REMARK H PARENT
REMARK Flexibility Score: 80.00
ROOT
ATOM      1  C   UNL     1     138.671 138.740 134.531  1.00  0.00     0.031 C 
ENDROOT
BRANCH   1   2
ATOM      2  C   UNL     1     140.113 138.320 134.219  1.00  0.00    -0.074 C 
ATOM      3  C   UNL     1     140.349 137.521 133.165  1.00  0.00     0.008 C 
BRANCH   2   4
ATOM      4  C   UNL     1     141.234 139.058 134.953  1.00  0.00     0.018 C 
ATOM      5  C   UNL     1     143.750 141.763 134.270  1.00  0.00     0.008 C 
ATOM      6  C   UNL     1     142.846 140.815 135.065  1.00  0.00    -0.010 C 
ATOM      7  C   UNL     1     143.562 139.500 135.446  1.00  0.00     0.004 C 
ATOM      8  C   UNL     1     141.615 140.374 134.273  1.00  0.00     0.003 CG0
ATOM      9  C   UNL     1     142.569 138.357 135.179  1.00  0.00     0.008 C 
ATOM     10  G   UNL     1     140.406 141.325 134.375  1.00  0.00     0.000 G0
ENDBRANCH   2   4
ENDBRANCH   1   2
BRANCH   1  11
ATOM     11  C   UNL     1     138.239 140.121 133.939  1.00  0.00     0.009 C 
BRANCH  11  12
ATOM     12  C   UNL     1     139.408 140.863 133.273  1.00  0.00    -0.001 C 
ATOM     13  C   UNL     1     140.391 141.328 134.386  1.00  0.00     0.002 CG0
ATOM     14  C   UNL     1     139.820 142.325 133.378  1.00  0.00    -0.029 C 
ATOM     15  G   UNL     1     141.604 140.385 134.272  1.00  0.00     0.000 G0
ATOM     16  C   UNL     1     140.765 142.838 132.287  1.00  0.00     0.011 C 
ATOM     17  C   UNL     1     138.749 143.297 133.887  1.00  0.00     0.011 C 
ENDBRANCH  11  12
ENDBRANCH   1  11
TORSDOF 0
ENDMDL
MODEL 6
REMARK VINA RESULT:    -3.747      2.628      4.084
REMARK INTER + INTRA:          -1.968
REMARK INTER:                  -4.679
REMARK INTRA:                   2.711
REMARK UNBOUND:                 2.655
REMARK SMILES C=C1CC[C@@H]2[C@@H]([C@H]3[C@H](C)CC[C@H]13)C2(C)C
REMARK SMILES IDX 3 1 2 2 1 3 12 4 9 5 8 6 10 7 7 8 11 9 4 11 5 12 6 13 13 14
REMARK SMILES IDX 14 16 15 17
REMARK H PARENT
REMARK Flexibility Score: 80.00
ROOT
ATOM      1  C   UNL     1     137.173 141.261 136.843  1.00  0.00     0.031 C 
ENDROOT
BRANCH   1   2
ATOM      2  C   UNL     1     137.863 141.484 135.492  1.00  0.00    -0.074 C 
ATOM      3  C   UNL     1     138.589 142.599 135.303  1.00  0.00     0.008 C 
BRANCH   2   4
ATOM      4  C   UNL     1     137.923 140.295 134.530  1.00  0.00     0.018 C 
ATOM      5  C   UNL     1     140.405 137.721 133.377  1.00  0.00     0.008 C 
ATOM      6  C   UNL     1     139.051 138.386 133.646  1.00  0.00    -0.010 C 
ATOM      7  C   UNL     1     138.564 139.236 132.451  1.00  0.00     0.004 C 
ATOM      8  C   UNL     1     139.097 139.359 134.824  1.00  0.00     0.003 CG0
ATOM      9  C   UNL     1     138.019 140.551 133.030  1.00  0.00     0.008 C 
ATOM     10  G   UNL     1     138.855 138.717 136.203  1.00  0.00     0.000 G0
ENDBRANCH   2   4
ENDBRANCH   1   2
BRANCH   1  11
ATOM     11  C   UNL     1     137.972 140.383 137.861  1.00  0.00     0.009 C 
BRANCH  11  12
ATOM     12  C   UNL     1     139.258 139.804 137.250  1.00  0.00    -0.001 C 
ATOM     13  C   UNL     1     138.858 138.720 136.207  1.00  0.00     0.002 CG0
ATOM     14  C   UNL     1     139.830 138.397 137.341  1.00  0.00    -0.029 C 
ATOM     15  G   UNL     1     139.116 139.369 134.833  1.00  0.00     0.000 G0
ATOM     16  C   UNL     1     141.311 138.248 136.974  1.00  0.00     0.011 C 
ATOM     17  C   UNL     1     139.304 137.521 138.484  1.00  0.00     0.011 C 
ENDBRANCH  11  12
ENDBRANCH   1  11
TORSDOF 0
ENDMDL
MODEL 7
REMARK VINA RESULT:    -3.720      1.450      3.711
REMARK INTER + INTRA:          -1.935
REMARK INTER:                  -4.671
REMARK INTRA:                   2.736
REMARK UNBOUND:                 2.655
REMARK SMILES C=C1CC[C@@H]2[C@@H]([C@H]3[C@H](C)CC[C@H]13)C2(C)C
REMARK SMILES IDX 3 1 2 2 1 3 12 4 9 5 8 6 10 7 7 8 11 9 4 11 5 12 6 13 13 14
REMARK SMILES IDX 14 16 15 17
REMARK H PARENT
REMARK Flexibility Score: 80.00
ROOT
ATOM      1  C   UNL     1     137.769 141.038 134.701  1.00  0.00     0.031 C 
ENDROOT
BRANCH   1   2
ATOM      2  C   UNL     1     138.609 142.220 135.200  1.00  0.00    -0.074 C 
ATOM      3  C   UNL     1     138.478 142.626 136.474  1.00  0.00     0.008 C 
BRANCH   2   4
ATOM      4  C   UNL     1     139.756 142.693 134.304  1.00  0.00     0.018 C 
ATOM      5  C   UNL     1     143.497 142.400 134.120  1.00  0.00     0.008 C 
ATOM      6  C   UNL     1     142.056 142.642 133.663  1.00  0.00    -0.010 C 
ATOM      7  C   UNL     1     141.638 144.125 133.789  1.00  0.00     0.004 C 
ATOM      8  C   UNL     1     141.034 141.877 134.505  1.00  0.00     0.003 CG0
ATOM      9  C   UNL     1     140.224 144.142 134.391  1.00  0.00     0.008 C 
ATOM     10  G   UNL     1     140.754 140.438 134.031  1.00  0.00     0.000 G0
ENDBRANCH   2   4
ENDBRANCH   1   2
BRANCH   1  11
ATOM     11  C   UNL     1     138.477 139.645 134.765  1.00  0.00     0.009 C 
BRANCH  11  12
ATOM     12  C   UNL     1     139.952 139.758 135.179  1.00  0.00    -0.001 C 
ATOM     13  C   UNL     1     140.735 140.440 134.020  1.00  0.00     0.002 CG0
ATOM     14  C   UNL     1     141.184 139.092 134.583  1.00  0.00    -0.029 C 
ATOM     15  G   UNL     1     141.026 141.869 134.516  1.00  0.00     0.000 G0
ATOM     16  C   UNL     1     142.437 139.083 135.465  1.00  0.00     0.011 C 
ATOM     17  C   UNL     1     140.934 137.853 133.715  1.00  0.00     0.011 C 
ENDBRANCH  11  12
ENDBRANCH   1  11
TORSDOF 0
ENDMDL
MODEL 8
REMARK VINA RESULT:    -3.676      3.049      3.937
REMARK INTER + INTRA:          -1.881
REMARK INTER:                  -4.608
REMARK INTRA:                   2.727
REMARK UNBOUND:                 2.655
REMARK SMILES C=C1CC[C@@H]2[C@@H]([C@H]3[C@H](C)CC[C@H]13)C2(C)C
REMARK SMILES IDX 3 1 2 2 1 3 12 4 9 5 8 6 10 7 7 8 11 9 4 11 5 12 6 13 13 14
REMARK SMILES IDX 14 16 15 17
REMARK H PARENT
REMARK Flexibility Score: 80.00
ROOT
ATOM      1  C   UNL     1     143.037 138.757 135.496  1.00  0.00     0.031 C 
ENDROOT
BRANCH   1   2
ATOM      2  C   UNL     1     142.489 138.222 134.167  1.00  0.00    -0.074 C 
ATOM      3  C   UNL     1     141.264 137.671 134.138  1.00  0.00     0.008 C 
BRANCH   2   4
ATOM      4  C   UNL     1     143.248 138.596 132.892  1.00  0.00     0.018 C 
ATOM      5  C   UNL     1     142.933 141.003 130.026  1.00  0.00     0.008 C 
ATOM      6  C   UNL     1     143.584 140.030 131.013  1.00  0.00    -0.010 C 
ATOM      7  C   UNL     1     143.578 138.574 130.495  1.00  0.00     0.004 C 
ATOM      8  C   UNL     1     142.848 139.970 132.352  1.00  0.00     0.003 CG0
ATOM      9  C   UNL     1     143.166 137.680 131.676  1.00  0.00     0.008 C 
ATOM     10  G   UNL     1     143.290 141.029 133.380  1.00  0.00     0.000 G0
ENDBRANCH   2   4
ENDBRANCH   1   2
BRANCH   1  11
ATOM     11  C   UNL     1     142.812 140.285 135.739  1.00  0.00     0.009 C 
BRANCH  11  12
ATOM     12  C   UNL     1     142.214 140.991 134.512  1.00  0.00    -0.001 C 
ATOM     13  C   UNL     1     143.294 141.024 133.392  1.00  0.00     0.002 CG0
ATOM     14  C   UNL     1     142.608 142.308 133.859  1.00  0.00    -0.029 C 
ATOM     15  G   UNL     1     142.838 139.973 132.362  1.00  0.00     0.000 G0
ATOM     16  C   UNL     1     141.570 142.930 132.919  1.00  0.00     0.011 C 
ATOM     17  C   UNL     1     143.437 143.271 134.717  1.00  0.00     0.011 C 
ENDBRANCH  11  12
ENDBRANCH   1  11
TORSDOF 0
ENDMDL
MODEL 9
REMARK VINA RESULT:    -3.632      1.492      3.861
REMARK INTER + INTRA:          -1.827
REMARK INTER:                  -4.567
REMARK INTRA:                   2.741
REMARK UNBOUND:                 2.655
REMARK SMILES C=C1CC[C@@H]2[C@@H]([C@H]3[C@H](C)CC[C@H]13)C2(C)C
REMARK SMILES IDX 3 1 2 2 1 3 12 4 9 5 8 6 10 7 7 8 11 9 4 11 5 12 6 13 13 14
REMARK SMILES IDX 14 16 15 17
REMARK H PARENT
REMARK Flexibility Score: 80.00
ROOT
ATOM      1  C   UNL     1     142.040 144.353 134.482  1.00  0.00     0.031 C 
ENDROOT
BRANCH   1   2
ATOM      2  C   UNL     1     140.570 143.960 134.296  1.00  0.00    -0.074 C 
ATOM      3  C   UNL     1     139.912 144.381 133.203  1.00  0.00     0.008 C 
BRANCH   2   4
ATOM      4  C   UNL     1     140.010 142.877 135.221  1.00  0.00     0.018 C 
ATOM      5  C   UNL     1     139.185 139.214 135.100  1.00  0.00     0.008 C 
ATOM      6  C   UNL     1     139.517 140.588 135.690  1.00  0.00    -0.010 C 
ATOM      7  C   UNL     1     138.251 141.414 136.009  1.00  0.00     0.004 C 
ATOM      8  C   UNL     1     140.320 141.463 134.726  1.00  0.00     0.003 CG0
ATOM      9  C   UNL     1     138.515 142.847 135.519  1.00  0.00     0.008 C 
ATOM     10  G   UNL     1     141.846 141.264 134.792  1.00  0.00     0.000 G0
ENDBRANCH   2   4
ENDBRANCH   1   2
BRANCH   1  11
ATOM     11  C   UNL     1     143.079 143.298 133.977  1.00  0.00     0.009 C 
BRANCH  11  12
ATOM     12  C   UNL     1     142.411 141.990 133.526  1.00  0.00    -0.001 C 
ATOM     13  C   UNL     1     141.852 141.267 134.786  1.00  0.00     0.002 CG0
ATOM     14  C   UNL     1     142.797 140.548 133.823  1.00  0.00    -0.029 C 
ATOM     15  G   UNL     1     140.325 141.462 134.717  1.00  0.00     0.000 G0
ATOM     16  C   UNL     1     142.186 139.485 132.904  1.00  0.00     0.011 C 
ATOM     17  C   UNL     1     144.235 140.313 134.301  1.00  0.00     0.011 C 
ENDBRANCH  11  12
ENDBRANCH   1  11
TORSDOF 0
ENDMDL
