MODEL 1
REMARK VINA RESULT:    -4.334      0.000      0.000
REMARK INTER + INTRA:          -6.417
REMARK INTER:                  -6.108
REMARK INTRA:                  -0.309
REMARK UNBOUND:                -0.309
REMARK SMILES CCCCCCCCC(=O)[O-]
REMARK SMILES IDX 6 1 7 2 8 3 9 4 10 5 11 6 5 7 4 8 3 9 2 10 1 11
REMARK H PARENT
REMARK Flexibility Score: inf
ROOT
ATOM      1  C   UNL     1      -3.098  37.241  19.655  1.00  0.00     0.000 C 
ENDROOT
BRANCH   1   2
ATOM      2  C   UNL     1      -4.621  37.213  19.460  1.00  0.00     0.006 C 
BRANCH   2   3
ATOM      3  C   UNL     1      -5.341  37.029  20.799  1.00  0.00     0.053 C 
BRANCH   3   4
ATOM      4  C   UNL     1      -5.878  35.638  20.920  1.00  0.00     0.041 C 
ATOM      5  O   UNL     1      -6.070  35.129  22.055  1.00  0.00    -0.550 OA
ATOM      6  O   UNL     1      -6.120  34.883  19.779  1.00  0.00    -0.550 OA
ENDBRANCH   3   4
ENDBRANCH   2   3
ENDBRANCH   1   2
BRANCH   1   7
ATOM      7  C   UNL     1      -2.331  37.292  18.324  1.00  0.00     0.000 C 
BRANCH   7   8
ATOM      8  C   UNL     1      -3.118  36.654  17.165  1.00  0.00    -0.000 C 
BRANCH   8   9
ATOM      9  C   UNL     1      -2.208  36.215  16.007  1.00  0.00    -0.000 C 
BRANCH   9  10
ATOM     10  C   UNL     1      -2.892  36.343  14.638  1.00  0.00    -0.003 C 
ATOM     11  C   UNL     1      -3.924  37.468  14.641  1.00  0.00     0.004 C 
ENDBRANCH   9  10
ENDBRANCH   8   9
ENDBRANCH   7   8
ENDBRANCH   1   7
TORSDOF 7
ENDMDL
MODEL 2
REMARK VINA RESULT:    -4.185      0.846      1.122
REMARK INTER + INTRA:          -6.208
REMARK INTER:                  -5.857
REMARK INTRA:                  -0.350
REMARK UNBOUND:                -0.309
REMARK SMILES CCCCCCCCC(=O)[O-]
REMARK SMILES IDX 6 1 7 2 8 3 9 4 10 5 11 6 5 7 4 8 3 9 2 10 1 11
REMARK H PARENT
REMARK Flexibility Score: inf
ROOT
ATOM      1  C   UNL     1      -2.860  37.177  19.564  1.00  0.00     0.000 C 
ENDROOT
BRANCH   1   2
ATOM      2  C   UNL     1      -4.350  36.883  19.339  1.00  0.00     0.006 C 
BRANCH   2   3
ATOM      3  C   UNL     1      -4.781  35.627  20.103  1.00  0.00     0.053 C 
BRANCH   3   4
ATOM      4  C   UNL     1      -5.644  35.992  21.269  1.00  0.00     0.041 C 
ATOM      5  O   UNL     1      -5.898  37.201  21.515  1.00  0.00    -0.550 OA
ATOM      6  O   UNL     1      -6.125  35.002  22.116  1.00  0.00    -0.550 OA
ENDBRANCH   3   4
ENDBRANCH   2   3
ENDBRANCH   1   2
BRANCH   1   7
ATOM      7  C   UNL     1      -2.072  37.281  18.249  1.00  0.00     0.000 C 
BRANCH   7   8
ATOM      8  C   UNL     1      -2.968  37.106  17.009  1.00  0.00    -0.000 C 
BRANCH   8   9
ATOM      9  C   UNL     1      -2.275  36.312  15.890  1.00  0.00    -0.000 C 
BRANCH   9  10
ATOM     10  C   UNL     1      -3.086  36.301  14.586  1.00  0.00    -0.003 C 
ATOM     11  C   UNL     1      -4.003  37.518  14.498  1.00  0.00     0.004 C 
ENDBRANCH   9  10
ENDBRANCH   8   9
ENDBRANCH   7   8
ENDBRANCH   1   7
TORSDOF 7
ENDMDL
MODEL 3
REMARK VINA RESULT:    -4.105      3.096      6.048
REMARK INTER + INTRA:          -6.094
REMARK INTER:                  -5.810
REMARK INTRA:                  -0.284
REMARK UNBOUND:                -0.309
REMARK SMILES CCCCCCCCC(=O)[O-]
REMARK SMILES IDX 6 1 7 2 8 3 9 4 10 5 11 6 5 7 4 8 3 9 2 10 1 11
REMARK H PARENT
REMARK Flexibility Score: inf
ROOT
ATOM      1  C   UNL     1      -3.886  36.688  19.581  1.00  0.00     0.000 C 
ENDROOT
BRANCH   1   2
ATOM      2  C   UNL     1      -3.340  37.038  18.188  1.00  0.00     0.006 C 
BRANCH   2   3
ATOM      3  C   UNL     1      -3.676  35.938  17.177  1.00  0.00     0.053 C 
BRANCH   3   4
ATOM      4  C   UNL     1      -2.864  36.105  15.931  1.00  0.00     0.041 C 
ATOM      5  O   UNL     1      -1.613  35.966  15.968  1.00  0.00    -0.550 OA
ATOM      6  O   UNL     1      -3.481  36.463  14.740  1.00  0.00    -0.550 OA
ENDBRANCH   3   4
ENDBRANCH   2   3
ENDBRANCH   1   2
BRANCH   1   7
ATOM      7  C   UNL     1      -4.598  35.326  19.611  1.00  0.00     0.000 C 
BRANCH   7   8
ATOM      8  C   UNL     1      -5.935  35.376  20.373  1.00  0.00    -0.000 C 
BRANCH   8   9
ATOM      9  C   UNL     1      -5.801  36.033  21.756  1.00  0.00    -0.000 C 
BRANCH   9  10
ATOM     10  C   UNL     1      -5.701  35.005  22.891  1.00  0.00    -0.003 C 
ATOM     11  C   UNL     1      -6.125  35.614  24.225  1.00  0.00     0.004 C 
ENDBRANCH   9  10
ENDBRANCH   8   9
ENDBRANCH   7   8
ENDBRANCH   1   7
TORSDOF 7
ENDMDL
MODEL 4
REMARK VINA RESULT:    -4.012      3.035      6.288
REMARK INTER + INTRA:          -5.963
REMARK INTER:                  -5.789
REMARK INTRA:                  -0.174
REMARK UNBOUND:                -0.309
REMARK SMILES CCCCCCCCC(=O)[O-]
REMARK SMILES IDX 6 1 7 2 8 3 9 4 10 5 11 6 5 7 4 8 3 9 2 10 1 11
REMARK H PARENT
REMARK Flexibility Score: inf
ROOT
ATOM      1  C   UNL     1      -3.546  36.793  19.594  1.00  0.00     0.000 C 
ENDROOT
BRANCH   1   2
ATOM      2  C   UNL     1      -3.533  37.245  18.126  1.00  0.00     0.006 C 
BRANCH   2   3
ATOM      3  C   UNL     1      -3.453  36.040  17.184  1.00  0.00     0.053 C 
BRANCH   3   4
ATOM      4  C   UNL     1      -2.949  36.458  15.839  1.00  0.00     0.041 C 
ATOM      5  O   UNL     1      -3.701  37.091  15.050  1.00  0.00    -0.550 OA
ATOM      6  O   UNL     1      -1.669  36.106  15.434  1.00  0.00    -0.550 OA
ENDBRANCH   3   4
ENDBRANCH   2   3
ENDBRANCH   1   2
BRANCH   1   7
ATOM      7  C   UNL     1      -4.961  36.770  20.193  1.00  0.00     0.000 C 
BRANCH   7   8
ATOM      8  C   UNL     1      -5.272  35.451  20.924  1.00  0.00    -0.000 C 
BRANCH   8   9
ATOM      9  C   UNL     1      -6.125  35.663  22.185  1.00  0.00    -0.000 C 
BRANCH   9  10
ATOM     10  C   UNL     1      -5.581  34.899  23.400  1.00  0.00    -0.003 C 
ATOM     11  C   UNL     1      -6.026  35.554  24.706  1.00  0.00     0.004 C 
ENDBRANCH   9  10
ENDBRANCH   8   9
ENDBRANCH   7   8
ENDBRANCH   1   7
TORSDOF 7
ENDMDL
MODEL 5
REMARK VINA RESULT:    -3.590      3.162      6.417
REMARK INTER + INTRA:          -5.369
REMARK INTER:                  -5.059
REMARK INTRA:                  -0.310
REMARK UNBOUND:                -0.309
REMARK SMILES CCCCCCCCC(=O)[O-]
REMARK SMILES IDX 6 1 7 2 8 3 9 4 10 5 11 6 5 7 4 8 3 9 2 10 1 11
REMARK H PARENT
REMARK Flexibility Score: inf
ROOT
ATOM      1  C   UNL     1      -4.964  35.531  19.765  1.00  0.00     0.000 C 
ENDROOT
BRANCH   1   2
ATOM      2  C   UNL     1      -4.577  37.001  19.548  1.00  0.00     0.006 C 
BRANCH   2   3
ATOM      3  C   UNL     1      -3.122  37.250  19.957  1.00  0.00     0.053 C 
BRANCH   3   4
ATOM      4  C   UNL     1      -2.240  37.311  18.750  1.00  0.00     0.041 C 
ATOM      5  O   UNL     1      -2.692  36.992  17.619  1.00  0.00    -0.550 OA
ATOM      6  O   UNL     1      -0.906  37.670  18.881  1.00  0.00    -0.550 OA
ENDBRANCH   3   4
ENDBRANCH   2   3
ENDBRANCH   1   2
BRANCH   1   7
ATOM      7  C   UNL     1      -4.745  35.069  21.214  1.00  0.00     0.000 C 
BRANCH   7   8
ATOM      8  C   UNL     1      -6.054  35.016  22.022  1.00  0.00    -0.000 C 
BRANCH   8   9
ATOM      9  C   UNL     1      -6.125  36.107  23.101  1.00  0.00    -0.000 C 
BRANCH   9  10
ATOM     10  C   UNL     1      -6.122  35.531  24.524  1.00  0.00    -0.003 C 
ATOM     11  C   UNL     1      -5.431  36.478  25.501  1.00  0.00     0.004 C 
ENDBRANCH   9  10
ENDBRANCH   8   9
ENDBRANCH   7   8
ENDBRANCH   1   7
TORSDOF 7
ENDMDL
MODEL 6
REMARK VINA RESULT:    -3.533      1.464      1.915
REMARK INTER + INTRA:          -5.288
REMARK INTER:                  -4.950
REMARK INTRA:                  -0.338
REMARK UNBOUND:                -0.309
REMARK SMILES CCCCCCCCC(=O)[O-]
REMARK SMILES IDX 6 1 7 2 8 3 9 4 10 5 11 6 5 7 4 8 3 9 2 10 1 11
REMARK H PARENT
REMARK Flexibility Score: inf
ROOT
ATOM      1  C   UNL     1      -4.519  35.560  18.863  1.00  0.00     0.000 C 
ENDROOT
BRANCH   1   2
ATOM      2  C   UNL     1      -4.042  36.796  19.641  1.00  0.00     0.006 C 
BRANCH   2   3
ATOM      3  C   UNL     1      -5.201  37.766  19.892  1.00  0.00     0.053 C 
BRANCH   3   4
ATOM      4  C   UNL     1      -5.598  37.746  21.334  1.00  0.00     0.041 C 
ATOM      5  O   UNL     1      -5.684  38.822  21.982  1.00  0.00    -0.550 OA
ATOM      6  O   UNL     1      -5.825  36.537  21.977  1.00  0.00    -0.550 OA
ENDBRANCH   3   4
ENDBRANCH   2   3
ENDBRANCH   1   2
BRANCH   1   7
ATOM      7  C   UNL     1      -3.885  35.458  17.467  1.00  0.00     0.000 C 
BRANCH   7   8
ATOM      8  C   UNL     1      -2.974  36.656  17.144  1.00  0.00    -0.000 C 
BRANCH   8   9
ATOM      9  C   UNL     1      -2.212  36.477  15.821  1.00  0.00    -0.000 C 
BRANCH   9  10
ATOM     10  C   UNL     1      -3.149  36.232  14.629  1.00  0.00    -0.003 C 
ATOM     11  C   UNL     1      -4.025  37.452  14.358  1.00  0.00     0.004 C 
ENDBRANCH   9  10
ENDBRANCH   8   9
ENDBRANCH   7   8
ENDBRANCH   1   7
TORSDOF 7
ENDMDL
MODEL 7
REMARK VINA RESULT:    -3.411      1.862      2.440
REMARK INTER + INTRA:          -5.116
REMARK INTER:                  -4.731
REMARK INTRA:                  -0.385
REMARK UNBOUND:                -0.309
REMARK SMILES CCCCCCCCC(=O)[O-]
REMARK SMILES IDX 6 1 7 2 8 3 9 4 10 5 11 6 5 7 4 8 3 9 2 10 1 11
REMARK H PARENT
REMARK Flexibility Score: inf
ROOT
ATOM      1  C   UNL     1      -4.172  36.008  19.727  1.00  0.00     0.000 C 
ENDROOT
BRANCH   1   2
ATOM      2  C   UNL     1      -5.446  36.534  20.406  1.00  0.00     0.006 C 
BRANCH   2   3
ATOM      3  C   UNL     1      -5.508  38.063  20.342  1.00  0.00     0.053 C 
BRANCH   3   4
ATOM      4  C   UNL     1      -5.767  38.635  21.700  1.00  0.00     0.041 C 
ATOM      5  O   UNL     1      -5.912  39.877  21.848  1.00  0.00    -0.550 OA
ATOM      6  O   UNL     1      -5.797  37.803  22.812  1.00  0.00    -0.550 OA
ENDBRANCH   3   4
ENDBRANCH   2   3
ENDBRANCH   1   2
BRANCH   1   7
ATOM      7  C   UNL     1      -3.105  37.099  19.547  1.00  0.00     0.000 C 
BRANCH   7   8
ATOM      8  C   UNL     1      -2.680  37.273  18.078  1.00  0.00    -0.000 C 
BRANCH   8   9
ATOM      9  C   UNL     1      -3.292  36.204  17.158  1.00  0.00    -0.000 C 
BRANCH   9  10
ATOM     10  C   UNL     1      -2.465  35.979  15.884  1.00  0.00    -0.003 C 
ATOM     11  C   UNL     1      -3.212  36.476  14.649  1.00  0.00     0.004 C 
ENDBRANCH   9  10
ENDBRANCH   8   9
ENDBRANCH   7   8
ENDBRANCH   1   7
TORSDOF 7
ENDMDL
MODEL 8
REMARK VINA RESULT:    -3.410      1.787      2.614
REMARK INTER + INTRA:          -5.115
REMARK INTER:                  -4.842
REMARK INTRA:                  -0.273
REMARK UNBOUND:                -0.309
REMARK SMILES CCCCCCCCC(=O)[O-]
REMARK SMILES IDX 6 1 7 2 8 3 9 4 10 5 11 6 5 7 4 8 3 9 2 10 1 11
REMARK H PARENT
REMARK Flexibility Score: inf
ROOT
ATOM      1  C   UNL     1      -4.334  35.370  20.625  1.00  0.00     0.000 C 
ENDROOT
BRANCH   1   2
ATOM      2  C   UNL     1      -5.798  35.362  21.092  1.00  0.00     0.006 C 
BRANCH   2   3
ATOM      3  C   UNL     1      -6.001  36.321  22.269  1.00  0.00     0.053 C 
BRANCH   3   4
ATOM      4  C   UNL     1      -5.869  35.592  23.569  1.00  0.00     0.041 C 
ATOM      5  O   UNL     1      -6.125  36.179  24.653  1.00  0.00    -0.550 OA
ATOM      6  O   UNL     1      -5.413  34.280  23.588  1.00  0.00    -0.550 OA
ENDBRANCH   3   4
ENDBRANCH   2   3
ENDBRANCH   1   2
BRANCH   1   7
ATOM      7  C   UNL     1      -3.826  36.782  20.295  1.00  0.00     0.000 C 
BRANCH   7   8
ATOM      8  C   UNL     1      -4.176  37.215  18.859  1.00  0.00    -0.000 C 
BRANCH   8   9
ATOM      9  C   UNL     1      -3.721  36.190  17.808  1.00  0.00    -0.000 C 
BRANCH   9  10
ATOM     10  C   UNL     1      -3.114  36.853  16.563  1.00  0.00    -0.003 C 
ATOM     11  C   UNL     1      -1.888  36.086  16.075  1.00  0.00     0.004 C 
ENDBRANCH   9  10
ENDBRANCH   8   9
ENDBRANCH   7   8
ENDBRANCH   1   7
TORSDOF 7
ENDMDL
MODEL 9
REMARK VINA RESULT:    -3.125      3.207      5.580
REMARK INTER + INTRA:          -4.713
REMARK INTER:                  -4.345
REMARK INTRA:                  -0.368
REMARK UNBOUND:                -0.309
REMARK SMILES CCCCCCCCC(=O)[O-]
REMARK SMILES IDX 6 1 7 2 8 3 9 4 10 5 11 6 5 7 4 8 3 9 2 10 1 11
REMARK H PARENT
REMARK Flexibility Score: inf
ROOT
ATOM      1  C   UNL     1      -4.120  35.310  17.993  1.00  0.00     0.000 C 
ENDROOT
BRANCH   1   2
ATOM      2  C   UNL     1      -3.501  36.706  17.827  1.00  0.00     0.006 C 
BRANCH   2   3
ATOM      3  C   UNL     1      -2.504  36.726  16.664  1.00  0.00     0.053 C 
BRANCH   3   4
ATOM      4  C   UNL     1      -3.224  36.839  15.357  1.00  0.00     0.041 C 
ATOM      5  O   UNL     1      -3.222  35.875  14.548  1.00  0.00    -0.550 OA
ATOM      6  O   UNL     1      -3.854  38.027  15.010  1.00  0.00    -0.550 OA
ENDBRANCH   3   4
ENDBRANCH   2   3
ENDBRANCH   1   2
BRANCH   1   7
ATOM      7  C   UNL     1      -5.204  35.270  19.083  1.00  0.00     0.000 C 
BRANCH   7   8
ATOM      8  C   UNL     1      -4.617  35.372  20.503  1.00  0.00    -0.000 C 
BRANCH   8   9
ATOM      9  C   UNL     1      -5.298  36.464  21.344  1.00  0.00    -0.000 C 
BRANCH   9  10
ATOM     10  C   UNL     1      -5.407  37.801  20.598  1.00  0.00    -0.003 C 
ATOM     11  C   UNL     1      -5.739  38.941  21.557  1.00  0.00     0.004 C 
ENDBRANCH   9  10
ENDBRANCH   8   9
ENDBRANCH   7   8
ENDBRANCH   1   7
TORSDOF 7
ENDMDL
