MODEL 1
REMARK VINA RESULT:    -4.649      0.000      0.000
REMARK INTER + INTRA:          -5.079
REMARK INTER:                  -5.057
REMARK INTRA:                  -0.022
REMARK UNBOUND:                -0.022
REMARK SMILES CC1(C)[C@H]2CC=C(CO)[C@@H]1C2
REMARK SMILES IDX 8 1 7 2 1 3 2 4 4 5 3 6 10 7 5 8 11 9 6 10 9 11
REMARK H PARENT 9 12
REMARK Flexibility Score: inf
ROOT
ATOM      1  C   UNL     1      27.704 141.161 343.260  1.00  0.00     0.187 C 
ENDROOT
BRANCH   1   2
ATOM      2  C   UNL     1      28.996 140.762 342.606  1.00  0.00    -0.045 C 
ATOM      3  C   UNL     1      32.370 139.552 344.148  1.00  0.00     0.012 C 
ATOM      4  C   UNL     1      31.154 139.599 343.188  1.00  0.00    -0.026 C 
ATOM      5  C   UNL     1      31.540 140.120 341.776  1.00  0.00    -0.000 C 
ATOM      6  C   UNL     1      30.392 138.248 343.302  1.00  0.00     0.012 C 
ATOM      7  C   UNL     1      30.345 140.915 343.326  1.00  0.00     0.023 C 
ATOM      8  C   UNL     1      30.392 139.820 340.752  1.00  0.00     0.031 C 
ATOM      9  C   UNL     1      31.283 141.553 342.283  1.00  0.00     0.013 C 
ATOM     10  C   UNL     1      29.032 140.246 341.341  1.00  0.00    -0.025 C 
ENDBRANCH   1   2
BRANCH   1  11
ATOM     11  O   UNL     1      26.800 141.636 342.300  1.00  0.00    -0.392 OA
ATOM     12  H   UNL     1      26.434 140.840 341.832  1.00  0.00     0.211 HD
ENDBRANCH   1  11
TORSDOF 2
ENDMDL
MODEL 2
REMARK VINA RESULT:    -4.637      2.090      3.443
REMARK INTER + INTRA:          -5.066
REMARK INTER:                  -5.031
REMARK INTRA:                  -0.034
REMARK UNBOUND:                -0.022
REMARK SMILES CC1(C)[C@H]2CC=C(CO)[C@@H]1C2
REMARK SMILES IDX 8 1 7 2 1 3 2 4 4 5 3 6 10 7 5 8 11 9 6 10 9 11
REMARK H PARENT 9 12
REMARK Flexibility Score: inf
ROOT
ATOM      1  C   UNL     1      29.993 139.752 345.719  1.00  0.00     0.187 C 
ENDROOT
BRANCH   1   2
ATOM      2  C   UNL     1      30.731 139.560 344.424  1.00  0.00    -0.045 C 
ATOM      3  C   UNL     1      29.587 140.091 340.731  1.00  0.00     0.012 C 
ATOM      4  C   UNL     1      30.496 140.148 341.985  1.00  0.00    -0.026 C 
ATOM      5  C   UNL     1      31.703 139.175 341.878  1.00  0.00    -0.000 C 
ATOM      6  C   UNL     1      30.770 141.641 342.321  1.00  0.00     0.012 C 
ATOM      7  C   UNL     1      29.994 139.217 343.120  1.00  0.00     0.023 C 
ATOM      8  C   UNL     1      32.773 139.511 342.974  1.00  0.00     0.031 C 
ATOM      9  C   UNL     1      30.813 138.074 342.489  1.00  0.00     0.013 C 
ATOM     10  C   UNL     1      32.090 139.681 344.346  1.00  0.00    -0.025 C 
ENDBRANCH   1   2
BRANCH   1  11
ATOM     11  O   UNL     1      30.356 140.971 346.307  1.00  0.00    -0.392 OA
ATOM     12  H   UNL     1      31.006 140.760 347.028  1.00  0.00     0.211 HD
ENDBRANCH   1  11
TORSDOF 2
ENDMDL
MODEL 3
REMARK VINA RESULT:    -4.586     11.943     13.029
REMARK INTER + INTRA:          -5.011
REMARK INTER:                  -4.950
REMARK INTRA:                  -0.061
REMARK UNBOUND:                -0.022
REMARK SMILES CC1(C)[C@H]2CC=C(CO)[C@@H]1C2
REMARK SMILES IDX 8 1 7 2 1 3 2 4 4 5 3 6 10 7 5 8 11 9 6 10 9 11
REMARK H PARENT 9 12
REMARK Flexibility Score: inf
ROOT
ATOM      1  C   UNL     1      18.500 139.899 345.879  1.00  0.00     0.187 C 
ENDROOT
BRANCH   1   2
ATOM      2  C   UNL     1      17.552 139.726 344.725  1.00  0.00    -0.045 C 
ATOM      3  C   UNL     1      18.211 138.740 341.008  1.00  0.00     0.012 C 
ATOM      4  C   UNL     1      17.530 138.756 342.400  1.00  0.00    -0.026 C 
ATOM      5  C   UNL     1      16.152 139.473 342.370  1.00  0.00    -0.000 C 
ATOM      6  C   UNL     1      17.612 137.323 342.999  1.00  0.00     0.012 C 
ATOM      7  C   UNL     1      18.002 139.948 343.273  1.00  0.00     0.023 C 
ATOM      8  C   UNL     1      15.348 139.162 343.680  1.00  0.00     0.031 C 
ATOM      9  C   UNL     1      16.887 140.802 342.638  1.00  0.00     0.013 C 
ATOM     10  C   UNL     1      16.249 139.362 344.914  1.00  0.00    -0.025 C 
ENDBRANCH   1   2
BRANCH   1  11
ATOM     11  O   UNL     1      19.782 139.461 345.523  1.00  0.00    -0.392 OA
ATOM     12  H   UNL     1      19.684 138.535 345.178  1.00  0.00     0.211 HD
ENDBRANCH   1  11
TORSDOF 2
ENDMDL
MODEL 4
REMARK VINA RESULT:    -4.300      9.086     10.504
REMARK INTER + INTRA:          -4.699
REMARK INTER:                  -4.667
REMARK INTRA:                  -0.032
REMARK UNBOUND:                -0.022
REMARK SMILES CC1(C)[C@H]2CC=C(CO)[C@@H]1C2
REMARK SMILES IDX 8 1 7 2 1 3 2 4 4 5 3 6 10 7 5 8 11 9 6 10 9 11
REMARK H PARENT 9 12
REMARK Flexibility Score: inf
ROOT
ATOM      1  C   UNL     1      25.145 135.786 351.909  1.00  0.00     0.187 C 
ENDROOT
BRANCH   1   2
ATOM      2  C   UNL     1      25.112 135.794 350.406  1.00  0.00    -0.045 C 
ATOM      3  C   UNL     1      22.261 134.859 347.911  1.00  0.00     0.012 C 
ATOM      4  C   UNL     1      23.434 135.659 348.530  1.00  0.00    -0.026 C 
ATOM      5  C   UNL     1      24.737 135.535 347.692  1.00  0.00    -0.000 C 
ATOM      6  C   UNL     1      22.916 137.080 348.895  1.00  0.00     0.012 C 
ATOM      7  C   UNL     1      24.193 134.851 349.616  1.00  0.00     0.023 C 
ATOM      8  C   UNL     1      25.777 136.620 348.137  1.00  0.00     0.031 C 
ATOM      9  C   UNL     1      25.083 134.269 348.501  1.00  0.00     0.013 C 
ATOM     10  C   UNL     1      25.897 136.640 349.674  1.00  0.00    -0.025 C 
ENDBRANCH   1   2
BRANCH   1  11
ATOM     11  O   UNL     1      26.126 134.898 352.368  1.00  0.00    -0.392 OA
ATOM     12  H   UNL     1      26.407 134.351 351.587  1.00  0.00     0.211 HD
ENDBRANCH   1  11
TORSDOF 2
ENDMDL
MODEL 5
REMARK VINA RESULT:    -4.271      9.710     11.087
REMARK INTER + INTRA:          -4.668
REMARK INTER:                  -4.633
REMARK INTRA:                  -0.035
REMARK UNBOUND:                -0.022
REMARK SMILES CC1(C)[C@H]2CC=C(CO)[C@@H]1C2
REMARK SMILES IDX 8 1 7 2 1 3 2 4 4 5 3 6 10 7 5 8 11 9 6 10 9 11
REMARK H PARENT 9 12
REMARK Flexibility Score: inf
ROOT
ATOM      1  C   UNL     1      23.382 135.131 349.558  1.00  0.00     0.187 C 
ENDROOT
BRANCH   1   2
ATOM      2  C   UNL     1      23.911 136.431 350.097  1.00  0.00    -0.045 C 
ATOM      3  C   UNL     1      23.713 137.979 353.673  1.00  0.00     0.012 C 
ATOM      4  C   UNL     1      24.325 137.552 352.315  1.00  0.00    -0.026 C 
ATOM      5  C   UNL     1      24.590 138.767 351.383  1.00  0.00    -0.000 C 
ATOM      6  C   UNL     1      25.490 136.561 352.596  1.00  0.00     0.012 C 
ATOM      7  C   UNL     1      23.242 137.143 351.283  1.00  0.00     0.023 C 
ATOM      8  C   UNL     1      25.519 138.348 350.192  1.00  0.00     0.031 C 
ATOM      9  C   UNL     1      23.147 138.621 350.858  1.00  0.00     0.013 C 
ATOM     10  C   UNL     1      25.010 137.038 349.558  1.00  0.00    -0.025 C 
ENDBRANCH   1   2
BRANCH   1  11
ATOM     11  O   UNL     1      24.405 134.175 349.506  1.00  0.00    -0.392 OA
ATOM     12  H   UNL     1      25.035 134.468 348.796  1.00  0.00     0.211 HD
ENDBRANCH   1  11
TORSDOF 2
ENDMDL
MODEL 6
REMARK VINA RESULT:    -4.269      3.993      6.269
REMARK INTER + INTRA:          -4.666
REMARK INTER:                  -4.630
REMARK INTRA:                  -0.035
REMARK UNBOUND:                -0.022
REMARK SMILES CC1(C)[C@H]2CC=C(CO)[C@@H]1C2
REMARK SMILES IDX 8 1 7 2 1 3 2 4 4 5 3 6 10 7 5 8 11 9 6 10 9 11
REMARK H PARENT 9 12
REMARK Flexibility Score: inf
ROOT
ATOM      1  C   UNL     1      27.118 141.266 343.932  1.00  0.00     0.187 C 
ENDROOT
BRANCH   1   2
ATOM      2  C   UNL     1      27.025 141.361 345.429  1.00  0.00    -0.045 C 
ATOM      3  C   UNL     1      25.141 143.904 347.712  1.00  0.00     0.012 C 
ATOM      4  C   UNL     1      25.659 142.541 347.188  1.00  0.00    -0.026 C 
ATOM      5  C   UNL     1      26.758 141.939 348.107  1.00  0.00    -0.000 C 
ATOM      6  C   UNL     1      24.431 141.660 346.821  1.00  0.00     0.012 C 
ATOM      7  C   UNL     1      26.789 142.704 346.137  1.00  0.00     0.023 C 
ATOM      8  C   UNL     1      26.998 140.430 347.754  1.00  0.00     0.031 C 
ATOM      9  C   UNL     1      27.806 142.728 347.295  1.00  0.00     0.013 C 
ATOM     10  C   UNL     1      27.147 140.260 346.229  1.00  0.00    -0.025 C 
ENDBRANCH   1   2
BRANCH   1  11
ATOM     11  O   UNL     1      28.394 141.649 343.500  1.00  0.00    -0.392 OA
ATOM     12  H   UNL     1      29.048 141.128 344.036  1.00  0.00     0.211 HD
ENDBRANCH   1  11
TORSDOF 2
ENDMDL
MODEL 7
REMARK VINA RESULT:    -4.264      9.369     10.615
REMARK INTER + INTRA:          -4.660
REMARK INTER:                  -4.611
REMARK INTRA:                  -0.049
REMARK UNBOUND:                -0.022
REMARK SMILES CC1(C)[C@H]2CC=C(CO)[C@@H]1C2
REMARK SMILES IDX 8 1 7 2 1 3 2 4 4 5 3 6 10 7 5 8 11 9 6 10 9 11
REMARK H PARENT 9 12
REMARK Flexibility Score: inf
ROOT
ATOM      1  C   UNL     1      25.043 136.961 353.236  1.00  0.00     0.187 C 
ENDROOT
BRANCH   1   2
ATOM      2  C   UNL     1      25.224 137.085 351.749  1.00  0.00    -0.045 C 
ATOM      3  C   UNL     1      24.698 134.484 348.889  1.00  0.00     0.012 C 
ATOM      4  C   UNL     1      24.633 135.837 349.642  1.00  0.00    -0.026 C 
ATOM      5  C   UNL     1      25.590 136.896 349.028  1.00  0.00    -0.000 C 
ATOM      6  C   UNL     1      23.137 136.212 349.841  1.00  0.00     0.012 C 
ATOM      7  C   UNL     1      25.572 135.871 350.876  1.00  0.00     0.023 C 
ATOM      8  C   UNL     1      25.243 138.324 349.573  1.00  0.00     0.031 C 
ATOM      9  C   UNL     1      26.704 136.358 349.950  1.00  0.00     0.013 C 
ATOM     10  C   UNL     1      25.086 138.283 351.106  1.00  0.00    -0.025 C 
ENDBRANCH   1   2
BRANCH   1  11
ATOM     11  O   UNL     1      25.040 135.611 353.613  1.00  0.00    -0.392 OA
ATOM     12  H   UNL     1      25.623 135.535 354.413  1.00  0.00     0.211 HD
ENDBRANCH   1  11
TORSDOF 2
ENDMDL
MODEL 8
REMARK VINA RESULT:    -4.260      9.864     11.438
REMARK INTER + INTRA:          -4.656
REMARK INTER:                  -4.606
REMARK INTRA:                  -0.050
REMARK UNBOUND:                -0.022
REMARK SMILES CC1(C)[C@H]2CC=C(CO)[C@@H]1C2
REMARK SMILES IDX 8 1 7 2 1 3 2 4 4 5 3 6 10 7 5 8 11 9 6 10 9 11
REMARK H PARENT 9 12
REMARK Flexibility Score: inf
ROOT
ATOM      1  C   UNL     1      25.815 136.732 353.320  1.00  0.00     0.187 C 
ENDROOT
BRANCH   1   2
ATOM      2  C   UNL     1      24.988 137.706 352.529  1.00  0.00    -0.045 C 
ATOM      3  C   UNL     1      23.942 137.701 348.770  1.00  0.00     0.012 C 
ATOM      4  C   UNL     1      23.808 137.848 350.307  1.00  0.00    -0.026 C 
ATOM      5  C   UNL     1      23.667 139.332 350.744  1.00  0.00    -0.000 C 
ATOM      6  C   UNL     1      22.752 136.820 350.804  1.00  0.00     0.012 C 
ATOM      7  C   UNL     1      25.187 137.890 351.017  1.00  0.00     0.023 C 
ATOM      8  C   UNL     1      23.184 139.417 352.233  1.00  0.00     0.031 C 
ATOM      9  C   UNL     1      25.206 139.416 350.801  1.00  0.00     0.013 C 
ATOM     10  C   UNL     1      24.021 138.472 353.117  1.00  0.00    -0.025 C 
ENDBRANCH   1   2
BRANCH   1  11
ATOM     11  O   UNL     1      25.059 135.594 353.630  1.00  0.00    -0.392 OA
ATOM     12  H   UNL     1      25.659 134.978 354.128  1.00  0.00     0.211 HD
ENDBRANCH   1  11
TORSDOF 2
ENDMDL
MODEL 9
REMARK VINA RESULT:    -4.219      9.046     10.406
REMARK INTER + INTRA:          -4.612
REMARK INTER:                  -4.586
REMARK INTRA:                  -0.025
REMARK UNBOUND:                -0.022
REMARK SMILES CC1(C)[C@H]2CC=C(CO)[C@@H]1C2
REMARK SMILES IDX 8 1 7 2 1 3 2 4 4 5 3 6 10 7 5 8 11 9 6 10 9 11
REMARK H PARENT 9 12
REMARK Flexibility Score: inf
ROOT
ATOM      1  C   UNL     1      25.161 136.684 352.720  1.00  0.00     0.187 C 
ENDROOT
BRANCH   1   2
ATOM      2  C   UNL     1      25.494 136.136 351.360  1.00  0.00    -0.045 C 
ATOM      3  C   UNL     1      24.363 137.275 347.804  1.00  0.00     0.012 C 
ATOM      4  C   UNL     1      25.307 136.797 348.936  1.00  0.00    -0.026 C 
ATOM      5  C   UNL     1      25.751 135.320 348.745  1.00  0.00    -0.000 C 
ATOM      6  C   UNL     1      26.401 137.882 349.149  1.00  0.00     0.012 C 
ATOM      7  C   UNL     1      24.528 136.282 350.174  1.00  0.00     0.023 C 
ATOM      8  C   UNL     1      26.960 134.988 349.686  1.00  0.00     0.031 C 
ATOM      9  C   UNL     1      24.489 134.888 349.519  1.00  0.00     0.013 C 
ATOM     10  C   UNL     1      26.670 135.485 351.116  1.00  0.00    -0.025 C 
ENDBRANCH   1   2
BRANCH   1  11
ATOM     11  O   UNL     1      25.020 135.639 353.642  1.00  0.00    -0.392 OA
ATOM     12  H   UNL     1      24.930 134.801 353.116  1.00  0.00     0.211 HD
ENDBRANCH   1  11
TORSDOF 2
ENDMDL
