MODEL 1
REMARK VINA RESULT:    -5.110      0.000      0.000
REMARK INTER + INTRA:          -5.909
REMARK INTER:                  -5.857
REMARK INTRA:                  -0.053
REMARK UNBOUND:                -0.053
REMARK SMILES O=C([O-])c1cc(O)c(O)c(O)c1
REMARK SMILES IDX 4 1 5 2 12 3 6 4 10 5 8 6 2 7 1 8 3 9 7 10 11 12 9 14
REMARK H PARENT 7 11 11 13 9 15
REMARK Flexibility Score: inf
ROOT
ATOM      1  C   UNL     1      20.005  -0.772 -19.530  1.00  0.00     0.005 A 
ATOM      2  C   UNL     1      20.532   0.490 -19.217  1.00  0.00     0.060 A 
ATOM      3  C   UNL     1      20.145  -1.264 -20.836  1.00  0.00     0.060 A 
ATOM      4  C   UNL     1      21.191   1.258 -20.186  1.00  0.00     0.162 A 
ATOM      5  C   UNL     1      20.802  -0.507 -21.815  1.00  0.00     0.162 A 
ATOM      6  C   UNL     1      21.329   0.754 -21.501  1.00  0.00     0.200 A 
ENDROOT
BRANCH   1   7
ATOM      7  C   UNL     1      19.309  -1.577 -18.501  1.00  0.00     0.072 C 
ATOM      8  O   UNL     1      19.076  -1.094 -17.360  1.00  0.00    -0.545 OA
ATOM      9  O   UNL     1      18.903  -2.878 -18.777  1.00  0.00    -0.545 OA
ENDBRANCH   1   7
BRANCH   4  10
ATOM     10  O   UNL     1      21.690   2.504 -19.800  1.00  0.00    -0.504 OA
ATOM     11  H   UNL     1      22.118   2.690 -18.906  1.00  0.00     0.293 HD
ENDBRANCH   4  10
BRANCH   5  12
ATOM     12  O   UNL     1      20.937  -1.003 -23.111  1.00  0.00    -0.504 OA
ATOM     13  H   UNL     1      21.280  -0.424 -23.869  1.00  0.00     0.293 HD
ENDBRANCH   5  12
BRANCH   6  14
ATOM     14  O   UNL     1      21.974   1.467 -22.514  1.00  0.00    -0.502 OA
ATOM     15  H   UNL     1      21.676   1.474 -23.478  1.00  0.00     0.293 HD
ENDBRANCH   6  14
TORSDOF 4
ENDMDL
MODEL 2
REMARK VINA RESULT:    -5.036      0.168      2.441
REMARK INTER + INTRA:          -5.824
REMARK INTER:                  -5.772
REMARK INTRA:                  -0.053
REMARK UNBOUND:                -0.053
REMARK SMILES O=C([O-])c1cc(O)c(O)c(O)c1
REMARK SMILES IDX 4 1 5 2 12 3 6 4 10 5 8 6 2 7 1 8 3 9 7 10 11 12 9 14
REMARK H PARENT 7 11 11 13 9 15
REMARK Flexibility Score: inf
ROOT
ATOM      1  C   UNL     1      19.933  -0.876 -19.439  1.00  0.00     0.005 A 
ATOM      2  C   UNL     1      20.055  -1.334 -20.760  1.00  0.00     0.060 A 
ATOM      3  C   UNL     1      20.474   0.372 -19.098  1.00  0.00     0.060 A 
ATOM      4  C   UNL     1      20.706  -0.566 -21.733  1.00  0.00     0.162 A 
ATOM      5  C   UNL     1      21.128   1.151 -20.061  1.00  0.00     0.162 A 
ATOM      6  C   UNL     1      21.249   0.693 -21.380  1.00  0.00     0.200 A 
ENDROOT
BRANCH   1   7
ATOM      7  C   UNL     1      19.243  -1.695 -18.416  1.00  0.00     0.072 C 
ATOM      8  O   UNL     1      18.991  -1.218 -17.277  1.00  0.00    -0.545 OA
ATOM      9  O   UNL     1      18.863  -3.002 -18.698  1.00  0.00    -0.545 OA
ENDBRANCH   1   7
BRANCH   4  10
ATOM     10  O   UNL     1      20.789  -1.086 -23.026  1.00  0.00    -0.504 OA
ATOM     11  H   UNL     1      20.160  -0.841 -23.776  1.00  0.00     0.293 HD
ENDBRANCH   4  10
BRANCH   5  12
ATOM     12  O   UNL     1      21.664   2.390 -19.713  1.00  0.00    -0.504 OA
ATOM     13  H   UNL     1      22.279   2.898 -20.339  1.00  0.00     0.293 HD
ENDBRANCH   5  12
BRANCH   6  14
ATOM     14  O   UNL     1      21.911   1.510 -22.301  1.00  0.00    -0.502 OA
ATOM     15  H   UNL     1      21.756   2.503 -22.389  1.00  0.00     0.293 HD
ENDBRANCH   6  14
TORSDOF 4
ENDMDL
MODEL 3
REMARK VINA RESULT:    -4.858     16.803     18.511
REMARK INTER + INTRA:          -5.621
REMARK INTER:                  -5.575
REMARK INTRA:                  -0.046
REMARK UNBOUND:                -0.053
REMARK SMILES O=C([O-])c1cc(O)c(O)c(O)c1
REMARK SMILES IDX 4 1 5 2 12 3 6 4 10 5 8 6 2 7 1 8 3 9 7 10 11 12 9 14
REMARK H PARENT 7 11 11 13 9 15
REMARK Flexibility Score: inf
ROOT
ATOM      1  C   UNL     1       8.357  -7.656  -8.517  1.00  0.00     0.005 A 
ATOM      2  C   UNL     1       7.699  -7.083  -7.418  1.00  0.00     0.060 A 
ATOM      3  C   UNL     1       9.681  -7.281  -8.789  1.00  0.00     0.060 A 
ATOM      4  C   UNL     1       8.343  -6.149  -6.597  1.00  0.00     0.162 A 
ATOM      5  C   UNL     1      10.338  -6.348  -7.977  1.00  0.00     0.162 A 
ATOM      6  C   UNL     1       9.679  -5.776  -6.879  1.00  0.00     0.200 A 
ENDROOT
BRANCH   1   7
ATOM      7  C   UNL     1       7.669  -8.642  -9.380  1.00  0.00     0.072 C 
ATOM      8  O   UNL     1       7.298  -9.753  -8.913  1.00  0.00    -0.545 OA
ATOM      9  O   UNL     1       7.422  -8.358 -10.718  1.00  0.00    -0.545 OA
ENDBRANCH   1   7
BRANCH   4  10
ATOM     10  O   UNL     1       7.625  -5.622  -5.522  1.00  0.00    -0.504 OA
ATOM     11  H   UNL     1       6.859  -6.095  -5.067  1.00  0.00     0.293 HD
ENDBRANCH   4  10
BRANCH   5  12
ATOM     12  O   UNL     1      11.654  -5.980  -8.255  1.00  0.00    -0.504 OA
ATOM     13  H   UNL     1      11.889  -5.421  -9.067  1.00  0.00     0.293 HD
ENDBRANCH   5  12
BRANCH   6  14
ATOM     14  O   UNL     1      10.381  -4.851  -6.101  1.00  0.00    -0.502 OA
ATOM     15  H   UNL     1      10.135  -3.876  -6.023  1.00  0.00     0.293 HD
ENDBRANCH   6  14
TORSDOF 4
ENDMDL
MODEL 4
REMARK VINA RESULT:    -4.833     16.714     18.457
REMARK INTER + INTRA:          -5.592
REMARK INTER:                  -5.546
REMARK INTRA:                  -0.046
REMARK UNBOUND:                -0.053
REMARK SMILES O=C([O-])c1cc(O)c(O)c(O)c1
REMARK SMILES IDX 4 1 5 2 12 3 6 4 10 5 8 6 2 7 1 8 3 9 7 10 11 12 9 14
REMARK H PARENT 7 11 11 13 9 15
REMARK Flexibility Score: inf
ROOT
ATOM      1  C   UNL     1       8.407  -7.563  -8.634  1.00  0.00     0.005 A 
ATOM      2  C   UNL     1       9.742  -7.197  -8.866  1.00  0.00     0.060 A 
ATOM      3  C   UNL     1       7.729  -7.007  -7.538  1.00  0.00     0.060 A 
ATOM      4  C   UNL     1      10.399  -6.292  -8.023  1.00  0.00     0.162 A 
ATOM      5  C   UNL     1       8.375  -6.101  -6.687  1.00  0.00     0.162 A 
ATOM      6  C   UNL     1       9.709  -5.736  -6.920  1.00  0.00     0.200 A 
ENDROOT
BRANCH   1   7
ATOM      7  C   UNL     1       7.718  -8.520  -9.529  1.00  0.00     0.072 C 
ATOM      8  O   UNL     1       7.295  -9.621  -9.085  1.00  0.00    -0.545 OA
ATOM      9  O   UNL     1       7.529  -8.218 -10.873  1.00  0.00    -0.545 OA
ENDBRANCH   1   7
BRANCH   4  10
ATOM     10  O   UNL     1      11.727  -5.976  -8.317  1.00  0.00    -0.504 OA
ATOM     11  H   UNL     1      12.434  -6.658  -8.546  1.00  0.00     0.293 HD
ENDBRANCH   4  10
BRANCH   5  12
ATOM     12  O   UNL     1       7.694  -5.555  -5.600  1.00  0.00    -0.504 OA
ATOM     13  H   UNL     1       7.544  -4.556  -5.514  1.00  0.00     0.293 HD
ENDBRANCH   5  12
BRANCH   6  14
ATOM     14  O   UNL     1      10.304  -4.829  -6.041  1.00  0.00    -0.502 OA
ATOM     15  H   UNL     1      10.873  -5.096  -5.252  1.00  0.00     0.293 HD
ENDBRANCH   6  14
TORSDOF 4
ENDMDL
MODEL 5
REMARK VINA RESULT:    -4.819      1.487      4.225
REMARK INTER + INTRA:          -5.577
REMARK INTER:                  -5.532
REMARK INTRA:                  -0.045
REMARK UNBOUND:                -0.053
REMARK SMILES O=C([O-])c1cc(O)c(O)c(O)c1
REMARK SMILES IDX 4 1 5 2 12 3 6 4 10 5 8 6 2 7 1 8 3 9 7 10 11 12 9 14
REMARK H PARENT 7 11 11 13 9 15
REMARK Flexibility Score: inf
ROOT
ATOM      1  C   UNL     1      21.037   0.730 -20.767  1.00  0.00     0.005 A 
ATOM      2  C   UNL     1      21.752   0.775 -19.560  1.00  0.00     0.060 A 
ATOM      3  C   UNL     1      19.758   0.153 -20.779  1.00  0.00     0.060 A 
ATOM      4  C   UNL     1      21.209   0.255 -18.379  1.00  0.00     0.162 A 
ATOM      5  C   UNL     1      19.202  -0.370 -19.604  1.00  0.00     0.162 A 
ATOM      6  C   UNL     1      19.918  -0.324 -18.400  1.00  0.00     0.200 A 
ENDROOT
BRANCH   1   7
ATOM      7  C   UNL     1      21.618   1.282 -22.012  1.00  0.00     0.072 C 
ATOM      8  O   UNL     1      21.614   2.524 -22.225  1.00  0.00    -0.545 OA
ATOM      9  O   UNL     1      22.178   0.437 -22.963  1.00  0.00    -0.545 OA
ENDBRANCH   1   7
BRANCH   4  10
ATOM     10  O   UNL     1      21.980   0.336 -17.217  1.00  0.00    -0.504 OA
ATOM     11  H   UNL     1      22.473   1.165 -16.922  1.00  0.00     0.293 HD
ENDBRANCH   4  10
BRANCH   5  12
ATOM     12  O   UNL     1      17.931  -0.942 -19.626  1.00  0.00    -0.504 OA
ATOM     13  H   UNL     1      17.795  -1.939 -19.499  1.00  0.00     0.293 HD
ENDBRANCH   5  12
BRANCH   6  14
ATOM     14  O   UNL     1      19.317  -0.861 -17.258  1.00  0.00    -0.502 OA
ATOM     15  H   UNL     1      19.188  -1.848 -17.099  1.00  0.00     0.293 HD
ENDBRANCH   6  14
TORSDOF 4
ENDMDL
MODEL 6
REMARK VINA RESULT:    -4.799     16.381     17.874
REMARK INTER + INTRA:          -5.553
REMARK INTER:                  -5.507
REMARK INTRA:                  -0.047
REMARK UNBOUND:                -0.053
REMARK SMILES O=C([O-])c1cc(O)c(O)c(O)c1
REMARK SMILES IDX 4 1 5 2 12 3 6 4 10 5 8 6 2 7 1 8 3 9 7 10 11 12 9 14
REMARK H PARENT 7 11 11 13 9 15
REMARK Flexibility Score: inf
ROOT
ATOM      1  C   UNL     1       8.503  -7.174  -9.445  1.00  0.00     0.005 A 
ATOM      2  C   UNL     1       7.767  -6.671  -8.361  1.00  0.00     0.060 A 
ATOM      3  C   UNL     1       9.891  -6.974  -9.477  1.00  0.00     0.060 A 
ATOM      4  C   UNL     1       8.396  -5.976  -7.321  1.00  0.00     0.162 A 
ATOM      5  C   UNL     1      10.534  -6.281  -8.443  1.00  0.00     0.162 A 
ATOM      6  C   UNL     1       9.797  -5.778  -7.361  1.00  0.00     0.200 A 
ENDROOT
BRANCH   1   7
ATOM      7  C   UNL     1       7.830  -7.908 -10.540  1.00  0.00     0.072 C 
ATOM      8  O   UNL     1       7.919  -7.504 -11.731  1.00  0.00    -0.545 OA
ATOM      9  O   UNL     1       7.090  -9.054 -10.272  1.00  0.00    -0.545 OA
ENDBRANCH   1   7
BRANCH   4  10
ATOM     10  O   UNL     1       7.598  -5.505  -6.277  1.00  0.00    -0.504 OA
ATOM     11  H   UNL     1       7.842  -4.724  -5.686  1.00  0.00     0.293 HD
ENDBRANCH   4  10
BRANCH   5  12
ATOM     12  O   UNL     1      11.914  -6.084  -8.484  1.00  0.00    -0.504 OA
ATOM     13  H   UNL     1      12.346  -5.264  -8.074  1.00  0.00     0.293 HD
ENDBRANCH   5  12
BRANCH   6  14
ATOM     14  O   UNL     1      10.488  -5.094  -6.358  1.00  0.00    -0.502 OA
ATOM     15  H   UNL     1      11.243  -5.492  -5.819  1.00  0.00     0.293 HD
ENDBRANCH   6  14
TORSDOF 4
ENDMDL
MODEL 7
REMARK VINA RESULT:    -4.642     15.798     17.286
REMARK INTER + INTRA:          -5.373
REMARK INTER:                  -5.328
REMARK INTRA:                  -0.045
REMARK UNBOUND:                -0.053
REMARK SMILES O=C([O-])c1cc(O)c(O)c(O)c1
REMARK SMILES IDX 4 1 5 2 12 3 6 4 10 5 8 6 2 7 1 8 3 9 7 10 11 12 9 14
REMARK H PARENT 7 11 11 13 9 15
REMARK Flexibility Score: inf
ROOT
ATOM      1  C   UNL     1       8.690  -6.465 -10.232  1.00  0.00     0.005 A 
ATOM      2  C   UNL     1      10.087  -6.434 -10.099  1.00  0.00     0.060 A 
ATOM      3  C   UNL     1       7.893  -6.114  -9.133  1.00  0.00     0.060 A 
ATOM      4  C   UNL     1      10.689  -6.062  -8.891  1.00  0.00     0.162 A 
ATOM      5  C   UNL     1       8.482  -5.739  -7.918  1.00  0.00     0.162 A 
ATOM      6  C   UNL     1       9.878  -5.709  -7.786  1.00  0.00     0.200 A 
ENDROOT
BRANCH   1   7
ATOM      7  C   UNL     1       8.061  -6.860 -11.513  1.00  0.00     0.072 C 
ATOM      8  O   UNL     1       7.616  -8.028 -11.674  1.00  0.00    -0.545 OA
ATOM      9  O   UNL     1       7.953  -5.948 -12.557  1.00  0.00    -0.545 OA
ENDBRANCH   1   7
BRANCH   4  10
ATOM     10  O   UNL     1      12.084  -6.055  -8.834  1.00  0.00    -0.504 OA
ATOM     11  H   UNL     1      12.616  -6.187  -7.987  1.00  0.00     0.293 HD
ENDBRANCH   4  10
BRANCH   5  12
ATOM     12  O   UNL     1       7.682  -5.393  -6.830  1.00  0.00    -0.504 OA
ATOM     13  H   UNL     1       6.672  -5.346  -6.906  1.00  0.00     0.293 HD
ENDBRANCH   5  12
BRANCH   6  14
ATOM     14  O   UNL     1      10.412  -5.328  -6.553  1.00  0.00    -0.502 OA
ATOM     15  H   UNL     1       9.969  -4.678  -5.921  1.00  0.00     0.293 HD
ENDBRANCH   6  14
TORSDOF 4
ENDMDL
MODEL 8
REMARK VINA RESULT:    -4.552      1.118      4.962
REMARK INTER + INTRA:          -5.270
REMARK INTER:                  -5.217
REMARK INTRA:                  -0.053
REMARK UNBOUND:                -0.053
REMARK SMILES O=C([O-])c1cc(O)c(O)c(O)c1
REMARK SMILES IDX 4 1 5 2 12 3 6 4 10 5 8 6 2 7 1 8 3 9 7 10 11 12 9 14
REMARK H PARENT 7 11 11 13 9 15
REMARK Flexibility Score: inf
ROOT
ATOM      1  C   UNL     1      20.325  -0.461 -20.167  1.00  0.00     0.005 A 
ATOM      2  C   UNL     1      19.993  -1.822 -20.069  1.00  0.00     0.060 A 
ATOM      3  C   UNL     1      20.008   0.395 -19.102  1.00  0.00     0.060 A 
ATOM      4  C   UNL     1      19.353  -2.329 -18.931  1.00  0.00     0.162 A 
ATOM      5  C   UNL     1      19.368  -0.099 -17.958  1.00  0.00     0.162 A 
ATOM      6  C   UNL     1      19.037  -1.458 -17.862  1.00  0.00     0.200 A 
ENDROOT
BRANCH   1   7
ATOM      7  C   UNL     1      21.001   0.067 -21.373  1.00  0.00     0.072 C 
ATOM      8  O   UNL     1      21.281  -0.697 -22.336  1.00  0.00    -0.545 OA
ATOM      9  O   UNL     1      21.336   1.413 -21.462  1.00  0.00    -0.545 OA
ENDBRANCH   1   7
BRANCH   4  10
ATOM     10  O   UNL     1      19.054  -3.692 -18.906  1.00  0.00    -0.504 OA
ATOM     11  H   UNL     1      18.120  -4.068 -18.966  1.00  0.00     0.293 HD
ENDBRANCH   4  10
BRANCH   5  12
ATOM     12  O   UNL     1      19.056   0.760 -16.905  1.00  0.00    -0.504 OA
ATOM     13  H   UNL     1      18.349   0.523 -16.217  1.00  0.00     0.293 HD
ENDBRANCH   5  12
BRANCH   6  14
ATOM     14  O   UNL     1      18.400  -1.897 -16.698  1.00  0.00    -0.502 OA
ATOM     15  H   UNL     1      18.855  -2.427 -15.970  1.00  0.00     0.293 HD
ENDBRANCH   6  14
TORSDOF 4
ENDMDL
MODEL 9
REMARK VINA RESULT:    -4.542      1.102      4.362
REMARK INTER + INTRA:          -5.258
REMARK INTER:                  -5.205
REMARK INTRA:                  -0.053
REMARK UNBOUND:                -0.053
REMARK SMILES O=C([O-])c1cc(O)c(O)c(O)c1
REMARK SMILES IDX 4 1 5 2 12 3 6 4 10 5 8 6 2 7 1 8 3 9 7 10 11 12 9 14
REMARK H PARENT 7 11 11 13 9 15
REMARK Flexibility Score: inf
ROOT
ATOM      1  C   UNL     1      20.351  -0.396 -20.158  1.00  0.00     0.005 A 
ATOM      2  C   UNL     1      20.022   0.442 -19.080  1.00  0.00     0.060 A 
ATOM      3  C   UNL     1      20.033  -1.760 -20.081  1.00  0.00     0.060 A 
ATOM      4  C   UNL     1      19.388  -0.064 -17.940  1.00  0.00     0.162 A 
ATOM      5  C   UNL     1      19.398  -2.280 -18.946  1.00  0.00     0.162 A 
ATOM      6  C   UNL     1      19.071  -1.442 -17.870  1.00  0.00     0.200 A 
ENDROOT
BRANCH   1   7
ATOM      7  C   UNL     1      21.022   0.148 -21.360  1.00  0.00     0.072 C 
ATOM      8  O   UNL     1      21.271  -0.597 -22.346  1.00  0.00    -0.545 OA
ATOM      9  O   UNL     1      21.386   1.488 -21.420  1.00  0.00    -0.545 OA
ENDBRANCH   1   7
BRANCH   4  10
ATOM     10  O   UNL     1      19.092   0.829 -16.908  1.00  0.00    -0.504 OA
ATOM     11  H   UNL     1      19.179   1.832 -16.986  1.00  0.00     0.293 HD
ENDBRANCH   4  10
BRANCH   5  12
ATOM     12  O   UNL     1      19.088  -3.637 -18.877  1.00  0.00    -0.504 OA
ATOM     13  H   UNL     1      19.810  -4.348 -18.868  1.00  0.00     0.293 HD
ENDBRANCH   5  12
BRANCH   6  14
ATOM     14  O   UNL     1      18.438  -2.012 -16.763  1.00  0.00    -0.502 OA
ATOM     15  H   UNL     1      18.360  -3.006 -16.606  1.00  0.00     0.293 HD
ENDBRANCH   6  14
TORSDOF 4
ENDMDL
