MODEL 1
REMARK VINA RESULT:    -5.085      0.000      0.000
REMARK INTER + INTRA:          -9.842
REMARK INTER:                  -8.949
REMARK INTRA:                  -0.893
REMARK UNBOUND:                -0.893
REMARK SMILES CCCCCCCCCCCCCCC(=O)[O-]
REMARK SMILES IDX 9 1 10 2 11 3 12 4 13 5 14 6 15 7 16 8 17 9 8 10 7 11 6 12
REMARK SMILES IDX 5 13 4 14 3 15 2 16 1 17
REMARK H PARENT
REMARK Flexibility Score: inf
ROOT
ATOM      1  C   UNL     1      18.045   7.007  49.611  1.00  0.00     0.000 C 
ENDROOT
BRANCH   1   2
ATOM      2  C   UNL     1      16.547   7.250  49.853  1.00  0.00     0.000 C 
BRANCH   2   3
ATOM      3  C   UNL     1      15.655   6.225  49.130  1.00  0.00     0.000 C 
BRANCH   3   4
ATOM      4  C   UNL     1      14.219   6.735  48.920  1.00  0.00     0.000 C 
BRANCH   4   5
ATOM      5  C   UNL     1      14.041   7.460  47.575  1.00  0.00     0.006 C 
BRANCH   5   6
ATOM      6  C   UNL     1      15.228   8.375  47.250  1.00  0.00     0.053 C 
BRANCH   6   7
ATOM      7  C   UNL     1      15.899   7.983  45.969  1.00  0.00     0.041 C 
ATOM      8  O   UNL     1      16.973   7.325  45.991  1.00  0.00    -0.550 OA
ATOM      9  O   UNL     1      15.323   8.317  44.750  1.00  0.00    -0.550 OA
ENDBRANCH   6   7
ENDBRANCH   5   6
ENDBRANCH   4   5
ENDBRANCH   3   4
ENDBRANCH   2   3
ENDBRANCH   1   2
BRANCH   1  10
ATOM     10  C   UNL     1      18.668   8.052  48.669  1.00  0.00     0.000 C 
BRANCH  10  11
ATOM     11  C   UNL     1      20.009   8.604  49.186  1.00  0.00    -0.000 C 
BRANCH  11  12
ATOM     12  C   UNL     1      19.941   9.993  49.848  1.00  0.00    -0.000 C 
BRANCH  12  13
ATOM     13  C   UNL     1      18.505  10.430  50.182  1.00  0.00    -0.000 C 
BRANCH  13  14
ATOM     14  C   UNL     1      18.217  10.438  51.695  1.00  0.00    -0.000 C 
BRANCH  14  15
ATOM     15  C   UNL     1      18.432   9.091  52.415  1.00  0.00    -0.000 C 
BRANCH  15  16
ATOM     16  C   UNL     1      19.143   9.188  53.777  1.00  0.00    -0.003 C 
ATOM     17  C   UNL     1      20.282   8.180  53.926  1.00  0.00     0.004 C 
ENDBRANCH  15  16
ENDBRANCH  14  15
ENDBRANCH  13  14
ENDBRANCH  12  13
ENDBRANCH  11  12
ENDBRANCH  10  11
ENDBRANCH   1  10
TORSDOF 13
ENDMDL
MODEL 2
REMARK VINA RESULT:    -4.860      4.227      7.504
REMARK INTER + INTRA:          -9.446
REMARK INTER:                  -8.647
REMARK INTRA:                  -0.799
REMARK UNBOUND:                -0.893
REMARK SMILES CCCCCCCCCCCCCCC(=O)[O-]
REMARK SMILES IDX 9 1 10 2 11 3 12 4 13 5 14 6 15 7 16 8 17 9 8 10 7 11 6 12
REMARK SMILES IDX 5 13 4 14 3 15 2 16 1 17
REMARK H PARENT
REMARK Flexibility Score: inf
ROOT
ATOM      1  C   UNL     1      18.436   9.885  51.311  1.00  0.00     0.000 C 
ENDROOT
BRANCH   1   2
ATOM      2  C   UNL     1      18.941  10.315  49.925  1.00  0.00     0.000 C 
BRANCH   2   3
ATOM      3  C   UNL     1      20.446  10.052  49.733  1.00  0.00     0.000 C 
BRANCH   3   4
ATOM      4  C   UNL     1      21.143  11.161  48.929  1.00  0.00     0.000 C 
BRANCH   4   5
ATOM      5  C   UNL     1      21.877  12.170  49.829  1.00  0.00     0.006 C 
BRANCH   5   6
ATOM      6  C   UNL     1      22.958  12.946  49.066  1.00  0.00     0.053 C 
BRANCH   6   7
ATOM      7  C   UNL     1      24.064  13.396  49.971  1.00  0.00     0.041 C 
ATOM      8  O   UNL     1      23.960  13.256  51.218  1.00  0.00    -0.550 OA
ATOM      9  O   UNL     1      25.223  13.943  49.435  1.00  0.00    -0.550 OA
ENDBRANCH   6   7
ENDBRANCH   5   6
ENDBRANCH   4   5
ENDBRANCH   3   4
ENDBRANCH   2   3
ENDBRANCH   1   2
BRANCH   1  10
ATOM     10  C   UNL     1      17.986   8.414  51.345  1.00  0.00     0.000 C 
BRANCH  10  11
ATOM     11  C   UNL     1      17.344   7.951  50.025  1.00  0.00    -0.000 C 
BRANCH  11  12
ATOM     12  C   UNL     1      16.243   6.883  50.165  1.00  0.00    -0.000 C 
BRANCH  12  13
ATOM     13  C   UNL     1      14.896   7.327  49.571  1.00  0.00    -0.000 C 
BRANCH  13  14
ATOM     14  C   UNL     1      14.652   6.770  48.156  1.00  0.00    -0.000 C 
BRANCH  14  15
ATOM     15  C   UNL     1      14.561   7.828  47.037  1.00  0.00    -0.000 C 
BRANCH  15  16
ATOM     16  C   UNL     1      15.912   8.269  46.447  1.00  0.00    -0.003 C 
ATOM     17  C   UNL     1      16.988   7.189  46.553  1.00  0.00     0.004 C 
ENDBRANCH  15  16
ENDBRANCH  14  15
ENDBRANCH  13  14
ENDBRANCH  12  13
ENDBRANCH  11  12
ENDBRANCH  10  11
ENDBRANCH   1  10
TORSDOF 13
ENDMDL
MODEL 3
REMARK VINA RESULT:    -4.709      4.098      5.796
REMARK INTER + INTRA:          -9.180
REMARK INTER:                  -8.601
REMARK INTRA:                  -0.579
REMARK UNBOUND:                -0.893
REMARK SMILES CCCCCCCCCCCCCCC(=O)[O-]
REMARK SMILES IDX 9 1 10 2 11 3 12 4 13 5 14 6 15 7 16 8 17 9 8 10 7 11 6 12
REMARK SMILES IDX 5 13 4 14 3 15 2 16 1 17
REMARK H PARENT
REMARK Flexibility Score: inf
ROOT
ATOM      1  C   UNL     1      20.234   9.256  49.424  1.00  0.00     0.000 C 
ENDROOT
BRANCH   1   2
ATOM      2  C   UNL     1      19.662   8.444  50.597  1.00  0.00     0.000 C 
BRANCH   2   3
ATOM      3  C   UNL     1      18.357   9.041  51.153  1.00  0.00     0.000 C 
BRANCH   3   4
ATOM      4  C   UNL     1      17.246   9.125  50.094  1.00  0.00     0.000 C 
BRANCH   4   5
ATOM      5  C   UNL     1      16.669   7.746  49.733  1.00  0.00     0.006 C 
BRANCH   5   6
ATOM      6  C   UNL     1      16.922   7.379  48.265  1.00  0.00     0.053 C 
BRANCH   6   7
ATOM      7  C   UNL     1      15.686   7.526  47.433  1.00  0.00     0.041 C 
ATOM      8  O   UNL     1      15.739   8.105  46.315  1.00  0.00    -0.550 OA
ATOM      9  O   UNL     1      14.480   6.998  47.876  1.00  0.00    -0.550 OA
ENDBRANCH   6   7
ENDBRANCH   5   6
ENDBRANCH   4   5
ENDBRANCH   3   4
ENDBRANCH   2   3
ENDBRANCH   1   2
BRANCH   1  10
ATOM     10  C   UNL     1      20.396  10.748  49.763  1.00  0.00     0.000 C 
BRANCH  10  11
ATOM     11  C   UNL     1      21.554  11.415  48.999  1.00  0.00    -0.000 C 
BRANCH  11  12
ATOM     12  C   UNL     1      22.239  12.587  49.728  1.00  0.00    -0.000 C 
BRANCH  12  13
ATOM     13  C   UNL     1      22.884  13.599  48.766  1.00  0.00    -0.000 C 
BRANCH  13  14
ATOM     14  C   UNL     1      23.890  12.948  47.798  1.00  0.00    -0.000 C 
BRANCH  14  15
ATOM     15  C   UNL     1      25.249  13.668  47.675  1.00  0.00    -0.000 C 
BRANCH  15  16
ATOM     16  C   UNL     1      25.799  13.779  46.242  1.00  0.00    -0.003 C 
ATOM     17  C   UNL     1      26.540  15.091  45.989  1.00  0.00     0.004 C 
ENDBRANCH  15  16
ENDBRANCH  14  15
ENDBRANCH  13  14
ENDBRANCH  12  13
ENDBRANCH  11  12
ENDBRANCH  10  11
ENDBRANCH   1  10
TORSDOF 13
ENDMDL
MODEL 4
REMARK VINA RESULT:    -4.705      7.935      9.146
REMARK INTER + INTRA:          -9.174
REMARK INTER:                  -8.257
REMARK INTRA:                  -0.917
REMARK UNBOUND:                -0.893
REMARK SMILES CCCCCCCCCCCCCCC(=O)[O-]
REMARK SMILES IDX 9 1 10 2 11 3 12 4 13 5 14 6 15 7 16 8 17 9 8 10 7 11 6 12
REMARK SMILES IDX 5 13 4 14 3 15 2 16 1 17
REMARK H PARENT
REMARK Flexibility Score: inf
ROOT
ATOM      1  C   UNL     1      15.556   1.430  47.977  1.00  0.00     0.000 C 
ENDROOT
BRANCH   1   2
ATOM      2  C   UNL     1      14.387   0.608  48.542  1.00  0.00     0.000 C 
BRANCH   2   3
ATOM      3  C   UNL     1      13.061   0.875  47.808  1.00  0.00     0.000 C 
BRANCH   3   4
ATOM      4  C   UNL     1      13.239   1.777  46.575  1.00  0.00     0.000 C 
BRANCH   4   5
ATOM      5  C   UNL     1      13.014   1.022  45.254  1.00  0.00     0.006 C 
BRANCH   5   6
ATOM      6  C   UNL     1      12.199   1.846  44.249  1.00  0.00     0.053 C 
BRANCH   6   7
ATOM      7  C   UNL     1      10.738   1.521  44.317  1.00  0.00     0.041 C 
ATOM      8  O   UNL     1      10.329   0.371  44.009  1.00  0.00    -0.550 OA
ATOM      9  O   UNL     1       9.831   2.480  44.750  1.00  0.00    -0.550 OA
ENDBRANCH   6   7
ENDBRANCH   5   6
ENDBRANCH   4   5
ENDBRANCH   3   4
ENDBRANCH   2   3
ENDBRANCH   1   2
BRANCH   1  10
ATOM     10  C   UNL     1      16.569   0.565  47.207  1.00  0.00     0.000 C 
BRANCH  10  11
ATOM     11  C   UNL     1      16.581  -0.903  47.670  1.00  0.00    -0.000 C 
BRANCH  11  12
ATOM     12  C   UNL     1      17.977  -1.536  47.823  1.00  0.00    -0.000 C 
BRANCH  12  13
ATOM     13  C   UNL     1      18.807  -1.478  46.530  1.00  0.00    -0.000 C 
BRANCH  13  14
ATOM     14  C   UNL     1      20.197  -0.848  46.738  1.00  0.00    -0.000 C 
BRANCH  14  15
ATOM     15  C   UNL     1      20.225   0.412  47.627  1.00  0.00    -0.000 C 
BRANCH  15  16
ATOM     16  C   UNL     1      21.625   1.003  47.876  1.00  0.00    -0.003 C 
ATOM     17  C   UNL     1      22.107   1.893  46.731  1.00  0.00     0.004 C 
ENDBRANCH  15  16
ENDBRANCH  14  15
ENDBRANCH  13  14
ENDBRANCH  12  13
ENDBRANCH  11  12
ENDBRANCH  10  11
ENDBRANCH   1  10
TORSDOF 13
ENDMDL
MODEL 5
REMARK VINA RESULT:    -4.604      8.146      9.053
REMARK INTER + INTRA:          -8.996
REMARK INTER:                  -8.544
REMARK INTRA:                  -0.452
REMARK UNBOUND:                -0.893
REMARK SMILES CCCCCCCCCCCCCCC(=O)[O-]
REMARK SMILES IDX 9 1 10 2 11 3 12 4 13 5 14 6 15 7 16 8 17 9 8 10 7 11 6 12
REMARK SMILES IDX 5 13 4 14 3 15 2 16 1 17
REMARK H PARENT
REMARK Flexibility Score: inf
ROOT
ATOM      1  C   UNL     1      16.788  -0.045  47.508  1.00  0.00     0.000 C 
ENDROOT
BRANCH   1   2
ATOM      2  C   UNL     1      15.334  -0.406  47.852  1.00  0.00     0.000 C 
BRANCH   2   3
ATOM      3  C   UNL     1      14.499   0.819  48.264  1.00  0.00     0.000 C 
BRANCH   3   4
ATOM      4  C   UNL     1      13.969   1.609  47.057  1.00  0.00     0.000 C 
BRANCH   4   5
ATOM      5  C   UNL     1      12.946   0.810  46.232  1.00  0.00     0.006 C 
BRANCH   5   6
ATOM      6  C   UNL     1      12.138   1.707  45.285  1.00  0.00     0.053 C 
BRANCH   6   7
ATOM      7  C   UNL     1      11.857   1.030  43.980  1.00  0.00     0.041 C 
ATOM      8  O   UNL     1      10.805   0.353  43.830  1.00  0.00    -0.550 OA
ATOM      9  O   UNL     1      12.741   1.169  42.917  1.00  0.00    -0.550 OA
ENDBRANCH   6   7
ENDBRANCH   5   6
ENDBRANCH   4   5
ENDBRANCH   3   4
ENDBRANCH   2   3
ENDBRANCH   1   2
BRANCH   1  10
ATOM     10  C   UNL     1      17.695  -1.283  47.404  1.00  0.00     0.000 C 
BRANCH  10  11
ATOM     11  C   UNL     1      19.167  -0.928  47.124  1.00  0.00    -0.000 C 
BRANCH  11  12
ATOM     12  C   UNL     1      19.727   0.254  47.936  1.00  0.00    -0.000 C 
BRANCH  12  13
ATOM     13  C   UNL     1      20.996   0.862  47.314  1.00  0.00    -0.000 C 
BRANCH  13  14
ATOM     14  C   UNL     1      22.148   1.011  48.326  1.00  0.00    -0.000 C 
BRANCH  14  15
ATOM     15  C   UNL     1      23.293  -0.012  48.179  1.00  0.00    -0.000 C 
BRANCH  15  16
ATOM     16  C   UNL     1      24.488   0.209  49.123  1.00  0.00    -0.003 C 
ATOM     17  C   UNL     1      24.976  -1.083  49.777  1.00  0.00     0.004 C 
ENDBRANCH  15  16
ENDBRANCH  14  15
ENDBRANCH  13  14
ENDBRANCH  12  13
ENDBRANCH  11  12
ENDBRANCH  10  11
ENDBRANCH   1  10
TORSDOF 13
ENDMDL
MODEL 6
REMARK VINA RESULT:    -4.602      4.963      8.044
REMARK INTER + INTRA:          -8.992
REMARK INTER:                  -8.392
REMARK INTRA:                  -0.600
REMARK UNBOUND:                -0.893
REMARK SMILES CCCCCCCCCCCCCCC(=O)[O-]
REMARK SMILES IDX 9 1 10 2 11 3 12 4 13 5 14 6 15 7 16 8 17 9 8 10 7 11 6 12
REMARK SMILES IDX 5 13 4 14 3 15 2 16 1 17
REMARK H PARENT
REMARK Flexibility Score: inf
ROOT
ATOM      1  C   UNL     1      20.477  10.674  49.907  1.00  0.00     0.000 C 
ENDROOT
BRANCH   1   2
ATOM      2  C   UNL     1      21.412  11.507  49.015  1.00  0.00     0.000 C 
BRANCH   2   3
ATOM      3  C   UNL     1      22.124  12.631  49.788  1.00  0.00     0.000 C 
BRANCH   3   4
ATOM      4  C   UNL     1      22.915  13.574  48.866  1.00  0.00     0.000 C 
BRANCH   4   5
ATOM      5  C   UNL     1      23.762  12.814  47.832  1.00  0.00     0.006 C 
BRANCH   5   6
ATOM      6  C   UNL     1      25.266  12.950  48.103  1.00  0.00     0.053 C 
BRANCH   6   7
ATOM      7  C   UNL     1      26.064  12.944  46.836  1.00  0.00     0.041 C 
ATOM      8  O   UNL     1      25.503  12.704  45.734  1.00  0.00    -0.550 OA
ATOM      9  O   UNL     1      27.423  13.235  46.866  1.00  0.00    -0.550 OA
ENDBRANCH   6   7
ENDBRANCH   5   6
ENDBRANCH   4   5
ENDBRANCH   3   4
ENDBRANCH   2   3
ENDBRANCH   1   2
BRANCH   1  10
ATOM     10  C   UNL     1      20.241   9.258  49.354  1.00  0.00     0.000 C 
BRANCH  10  11
ATOM     11  C   UNL     1      19.621   8.303  50.391  1.00  0.00    -0.000 C 
BRANCH  11  12
ATOM     12  C   UNL     1      18.351   8.823  51.091  1.00  0.00    -0.000 C 
BRANCH  12  13
ATOM     13  C   UNL     1      17.152   8.958  50.136  1.00  0.00    -0.000 C 
BRANCH  13  14
ATOM     14  C   UNL     1      16.819   7.645  49.402  1.00  0.00    -0.000 C 
BRANCH  14  15
ATOM     15  C   UNL     1      15.373   7.137  49.580  1.00  0.00    -0.000 C 
BRANCH  15  16
ATOM     16  C   UNL     1      14.572   6.983  48.275  1.00  0.00    -0.003 C 
ATOM     17  C   UNL     1      14.963   8.010  47.213  1.00  0.00     0.004 C 
ENDBRANCH  15  16
ENDBRANCH  14  15
ENDBRANCH  13  14
ENDBRANCH  12  13
ENDBRANCH  11  12
ENDBRANCH  10  11
ENDBRANCH   1  10
TORSDOF 13
ENDMDL
MODEL 7
REMARK VINA RESULT:    -4.595      8.746      9.938
REMARK INTER + INTRA:          -8.979
REMARK INTER:                  -8.332
REMARK INTRA:                  -0.647
REMARK UNBOUND:                -0.893
REMARK SMILES CCCCCCCCCCCCCCC(=O)[O-]
REMARK SMILES IDX 9 1 10 2 11 3 12 4 13 5 14 6 15 7 16 8 17 9 8 10 7 11 6 12
REMARK SMILES IDX 5 13 4 14 3 15 2 16 1 17
REMARK H PARENT
REMARK Flexibility Score: inf
ROOT
ATOM      1  C   UNL     1      20.256   0.359  47.955  1.00  0.00     0.000 C 
ENDROOT
BRANCH   1   2
ATOM      2  C   UNL     1      19.186  -0.315  47.081  1.00  0.00     0.000 C 
BRANCH   2   3
ATOM      3  C   UNL     1      18.207  -1.177  47.899  1.00  0.00     0.000 C 
BRANCH   3   4
ATOM      4  C   UNL     1      16.736  -0.825  47.623  1.00  0.00     0.000 C 
BRANCH   4   5
ATOM      5  C   UNL     1      16.539   0.659  47.273  1.00  0.00     0.006 C 
BRANCH   5   6
ATOM      6  C   UNL     1      15.491   1.331  48.170  1.00  0.00     0.053 C 
BRANCH   6   7
ATOM      7  C   UNL     1      14.127   1.299  47.552  1.00  0.00     0.041 C 
ATOM      8  O   UNL     1      13.997   1.326  46.300  1.00  0.00    -0.550 OA
ATOM      9  O   UNL     1      12.999   1.207  48.359  1.00  0.00    -0.550 OA
ENDBRANCH   6   7
ENDBRANCH   5   6
ENDBRANCH   4   5
ENDBRANCH   3   4
ENDBRANCH   2   3
ENDBRANCH   1   2
BRANCH   1  10
ATOM     10  C   UNL     1      21.656   0.305  47.321  1.00  0.00     0.000 C 
BRANCH  10  11
ATOM     11  C   UNL     1      22.600   1.400  47.850  1.00  0.00    -0.000 C 
BRANCH  11  12
ATOM     12  C   UNL     1      23.922   0.896  48.457  1.00  0.00    -0.000 C 
BRANCH  12  13
ATOM     13  C   UNL     1      23.985  -0.637  48.573  1.00  0.00    -0.000 C 
BRANCH  13  14
ATOM     14  C   UNL     1      25.009  -1.117  49.619  1.00  0.00    -0.000 C 
BRANCH  14  15
ATOM     15  C   UNL     1      25.567  -2.538  49.393  1.00  0.00    -0.000 C 
BRANCH  15  16
ATOM     16  C   UNL     1      27.089  -2.613  49.181  1.00  0.00    -0.003 C 
ATOM     17  C   UNL     1      27.705  -1.265  48.809  1.00  0.00     0.004 C 
ENDBRANCH  15  16
ENDBRANCH  14  15
ENDBRANCH  13  14
ENDBRANCH  12  13
ENDBRANCH  11  12
ENDBRANCH  10  11
ENDBRANCH   1  10
TORSDOF 13
ENDMDL
MODEL 8
REMARK VINA RESULT:    -4.564      8.448      9.860
REMARK INTER + INTRA:          -8.925
REMARK INTER:                  -7.379
REMARK INTRA:                  -1.546
REMARK UNBOUND:                -0.893
REMARK SMILES CCCCCCCCCCCCCCC(=O)[O-]
REMARK SMILES IDX 9 1 10 2 11 3 12 4 13 5 14 6 15 7 16 8 17 9 8 10 7 11 6 12
REMARK SMILES IDX 5 13 4 14 3 15 2 16 1 17
REMARK H PARENT
REMARK Flexibility Score: inf
ROOT
ATOM      1  C   UNL     1      23.545  -0.890  47.852  1.00  0.00     0.000 C 
ENDROOT
BRANCH   1   2
ATOM      2  C   UNL     1      22.375  -0.125  47.213  1.00  0.00     0.000 C 
BRANCH   2   3
ATOM      3  C   UNL     1      21.746   0.905  48.169  1.00  0.00     0.000 C 
BRANCH   3   4
ATOM      4  C   UNL     1      20.243   0.667  48.389  1.00  0.00     0.000 C 
BRANCH   4   5
ATOM      5  C   UNL     1      19.606  -0.167  47.264  1.00  0.00     0.006 C 
BRANCH   5   6
ATOM      6  C   UNL     1      18.474  -1.065  47.779  1.00  0.00     0.053 C 
BRANCH   6   7
ATOM      7  C   UNL     1      17.133  -0.603  47.298  1.00  0.00     0.041 C 
ATOM      8  O   UNL     1      16.186  -1.424  47.175  1.00  0.00    -0.550 OA
ATOM      9  O   UNL     1      16.920   0.741  47.015  1.00  0.00    -0.550 OA
ENDBRANCH   6   7
ENDBRANCH   5   6
ENDBRANCH   4   5
ENDBRANCH   3   4
ENDBRANCH   2   3
ENDBRANCH   1   2
BRANCH   1  10
ATOM     10  C   UNL     1      24.234  -0.089  48.970  1.00  0.00     0.000 C 
BRANCH  10  11
ATOM     11  C   UNL     1      25.708   0.228  48.662  1.00  0.00    -0.000 C 
BRANCH  11  12
ATOM     12  C   UNL     1      25.964   0.945  47.322  1.00  0.00    -0.000 C 
BRANCH  12  13
ATOM     13  C   UNL     1      26.172   2.460  47.482  1.00  0.00    -0.000 C 
BRANCH  13  14
ATOM     14  C   UNL     1      24.847   3.241  47.567  1.00  0.00    -0.000 C 
BRANCH  14  15
ATOM     15  C   UNL     1      24.317   3.791  46.227  1.00  0.00    -0.000 C 
BRANCH  15  16
ATOM     16  C   UNL     1      22.956   3.223  45.783  1.00  0.00    -0.003 C 
ATOM     17  C   UNL     1      23.039   2.429  44.480  1.00  0.00     0.004 C 
ENDBRANCH  15  16
ENDBRANCH  14  15
ENDBRANCH  13  14
ENDBRANCH  12  13
ENDBRANCH  11  12
ENDBRANCH  10  11
ENDBRANCH   1  10
TORSDOF 13
ENDMDL
MODEL 9
REMARK VINA RESULT:    -4.548      8.452      9.760
REMARK INTER + INTRA:          -8.897
REMARK INTER:                  -8.139
REMARK INTRA:                  -0.758
REMARK UNBOUND:                -0.893
REMARK SMILES CCCCCCCCCCCCCCC(=O)[O-]
REMARK SMILES IDX 9 1 10 2 11 3 12 4 13 5 14 6 15 7 16 8 17 9 8 10 7 11 6 12
REMARK SMILES IDX 5 13 4 14 3 15 2 16 1 17
REMARK H PARENT
REMARK Flexibility Score: inf
ROOT
ATOM      1  C   UNL     1      19.501  -0.933  46.578  1.00  0.00     0.000 C 
ENDROOT
BRANCH   1   2
ATOM      2  C   UNL     1      18.530  -2.124  46.547  1.00  0.00     0.000 C 
BRANCH   2   3
ATOM      3  C   UNL     1      17.710  -2.256  47.843  1.00  0.00     0.000 C 
BRANCH   3   4
ATOM      4  C   UNL     1      16.281  -2.764  47.591  1.00  0.00     0.000 C 
BRANCH   4   5
ATOM      5  C   UNL     1      15.212  -1.712  47.933  1.00  0.00     0.006 C 
BRANCH   5   6
ATOM      6  C   UNL     1      15.746  -0.280  47.803  1.00  0.00     0.053 C 
BRANCH   6   7
ATOM      7  C   UNL     1      14.638   0.719  47.675  1.00  0.00     0.041 C 
ATOM      8  O   UNL     1      14.346   1.202  46.549  1.00  0.00    -0.550 OA
ATOM      9  O   UNL     1      13.904   1.093  48.794  1.00  0.00    -0.550 OA
ENDBRANCH   6   7
ENDBRANCH   5   6
ENDBRANCH   4   5
ENDBRANCH   3   4
ENDBRANCH   2   3
ENDBRANCH   1   2
BRANCH   1  10
ATOM     10  C   UNL     1      19.219   0.028  47.746  1.00  0.00     0.000 C 
BRANCH  10  11
ATOM     11  C   UNL     1      20.477   0.772  48.230  1.00  0.00    -0.000 C 
BRANCH  11  12
ATOM     12  C   UNL     1      21.557   1.011  47.158  1.00  0.00    -0.000 C 
BRANCH  12  13
ATOM     13  C   UNL     1      22.851   0.223  47.423  1.00  0.00    -0.000 C 
BRANCH  13  14
ATOM     14  C   UNL     1      23.555   0.649  48.726  1.00  0.00    -0.000 C 
BRANCH  14  15
ATOM     15  C   UNL     1      24.958   0.045  48.946  1.00  0.00    -0.000 C 
BRANCH  15  16
ATOM     16  C   UNL     1      25.011  -1.132  49.936  1.00  0.00    -0.003 C 
ATOM     17  C   UNL     1      25.242  -2.477  49.249  1.00  0.00     0.004 C 
ENDBRANCH  15  16
ENDBRANCH  14  15
ENDBRANCH  13  14
ENDBRANCH  12  13
ENDBRANCH  11  12
ENDBRANCH  10  11
ENDBRANCH   1  10
TORSDOF 13
ENDMDL
