MODEL 1
REMARK VINA RESULT:    -7.579      0.000      0.000
REMARK INTER + INTRA:         -19.916
REMARK INTER:                 -16.439
REMARK INTRA:                  -3.476
REMARK UNBOUND:                -3.476
REMARK SMILES C[C@H]1O[C@H](OC[C@@H]2O[C@@H](Oc3c(-c4ccc(OCCO)c(OCCO)c4)oc4cc(OCCO)cc(O)c4c3=O)[C@H](O)[C@@H](O)[C@H]2O)[C@H](O)[C@@H](O)[C@@H]1O
REMARK SMILES IDX 11 1 12 2 27 3 28 4 29 5 30 6 35 7 36 8 38 9 39 10 40 11
REMARK SMILES IDX 10 12 9 13 7 14 45 15 8 16 43 17 41 18 6 19 5 20 4 21 1 22
REMARK SMILES IDX 2 23 51 24 3 25 49 26 47 27 52 28 50 30 48 32 46 34 44 36
REMARK SMILES IDX 42 38 13 40 26 41 14 42 21 43 15 44 16 45 22 46 23 47 24 48
REMARK SMILES IDX 25 49 17 51 18 52 19 53 20 54 37 56 31 58 32 59 33 60 34 61
REMARK H PARENT 52 29 50 31 48 33 46 35 44 37 42 39 25 50 20 55 37 57 34 62
REMARK Flexibility Score: inf
ROOT
ATOM      1  C   UNL     1      -2.923 -13.926  29.070  1.00  0.00     0.214 A 
ATOM      2  C   UNL     1      -3.099 -14.129  30.459  1.00  0.00     0.180 A 
ATOM      3  O   UNL     1      -4.298 -14.449  30.938  1.00  0.00    -0.452 OA
ATOM      4  C   UNL     1      -5.375 -14.569  30.181  1.00  0.00     0.146 A 
ATOM      5  C   UNL     1      -6.592 -14.894  30.793  1.00  0.00     0.094 A 
ATOM      6  C   UNL     1      -7.759 -15.042  30.026  1.00  0.00     0.126 A 
ATOM      7  C   UNL     1      -7.694 -14.871  28.642  1.00  0.00     0.093 A 
ATOM      8  C   UNL     1      -6.487 -14.538  28.012  1.00  0.00     0.134 A 
ATOM      9  C   UNL     1      -5.303 -14.381  28.782  1.00  0.00     0.111 A 
ATOM     10  C   UNL     1      -4.049 -14.056  28.222  1.00  0.00     0.239 A 
ATOM     11  O   UNL     1      -3.936 -13.891  26.980  1.00  0.00    -0.285 OA
ENDROOT
BRANCH   1  12
ATOM     12  O   UNL     1      -1.615 -13.632  28.628  1.00  0.00    -0.454 OA
BRANCH  12  13
ATOM     13  C   UNL     1      -1.018 -13.738  27.334  1.00  0.00     0.339 C 
ATOM     14  C   UNL     1       0.572 -14.949  26.063  1.00  0.00     0.180 C 
ATOM     15  C   UNL     1       0.313 -13.859  24.968  1.00  0.00     0.177 C 
ATOM     16  O   UNL     1       0.123 -14.579  27.366  1.00  0.00    -0.332 OA
ATOM     17  C   UNL     1       0.348 -12.451  25.598  1.00  0.00     0.180 C 
ATOM     18  C   UNL     1      -0.690 -12.345  26.751  1.00  0.00     0.214 C 
BRANCH  14  19
ATOM     19  C   UNL     1      -0.027 -16.319  25.693  1.00  0.00     0.198 C 
BRANCH  19  20
ATOM     20  O   UNL     1      -0.635 -16.972  26.798  1.00  0.00    -0.347 OA
BRANCH  20  21
ATOM     21  C   UNL     1      -0.357 -18.364  26.822  1.00  0.00     0.281 C 
ATOM     22  C   UNL     1       1.767 -20.224  28.551  1.00  0.00     0.041 C 
ATOM     23  C   UNL     1       0.272 -20.168  28.219  1.00  0.00     0.150 C 
ATOM     24  C   UNL     1      -0.049 -21.038  26.958  1.00  0.00     0.174 C 
ATOM     25  O   UNL     1      -0.137 -18.802  28.150  1.00  0.00    -0.344 OA
ATOM     26  C   UNL     1      -1.411 -20.649  26.365  1.00  0.00     0.179 C 
ATOM     27  C   UNL     1      -1.579 -19.111  26.255  1.00  0.00     0.202 C 
BRANCH  24  28
ATOM     28  O   UNL     1      -0.061 -22.404  27.300  1.00  0.00    -0.388 OA
ATOM     29  H   UNL     1       0.405 -22.909  26.594  1.00  0.00     0.211 HD
ENDBRANCH  24  28
BRANCH  26  30
ATOM     30  O   UNL     1      -1.543 -21.245  25.101  1.00  0.00    -0.387 OA
ATOM     31  H   UNL     1      -1.231 -20.581  24.432  1.00  0.00     0.211 HD
ENDBRANCH  26  30
BRANCH  27  32
ATOM     32  O   UNL     1      -2.724 -18.730  26.978  1.00  0.00    -0.385 OA
ATOM     33  H   UNL     1      -3.460 -18.636  26.325  1.00  0.00     0.211 HD
ENDBRANCH  27  32
ENDBRANCH  20  21
ENDBRANCH  19  20
ENDBRANCH  14  19
BRANCH  15  34
ATOM     34  O   UNL     1       1.218 -13.974  23.896  1.00  0.00    -0.387 OA
ATOM     35  H   UNL     1       1.841 -14.721  24.089  1.00  0.00     0.211 HD
ENDBRANCH  15  34
BRANCH  17  36
ATOM     36  O   UNL     1       1.632 -12.191  26.112  1.00  0.00    -0.387 OA
ATOM     37  H   UNL     1       2.112 -13.054  26.207  1.00  0.00     0.211 HD
ENDBRANCH  17  36
BRANCH  18  38
ATOM     38  O   UNL     1      -1.873 -11.715  26.322  1.00  0.00    -0.384 OA
ATOM     39  H   UNL     1      -2.468 -12.418  25.952  1.00  0.00     0.211 HD
ENDBRANCH  18  38
ENDBRANCH  12  13
ENDBRANCH   1  12
BRANCH   2  40
ATOM     40  C   UNL     1      -1.960 -14.052  31.407  1.00  0.00     0.025 A 
ATOM     41  C   UNL     1      -1.013 -15.083  31.420  1.00  0.00     0.062 A 
ATOM     42  C   UNL     1      -1.823 -12.993  32.321  1.00  0.00     0.016 A 
ATOM     43  C   UNL     1       0.108 -15.021  32.272  1.00  0.00     0.162 A 
ATOM     44  C   UNL     1      -0.715 -12.925  33.170  1.00  0.00     0.051 A 
ATOM     45  C   UNL     1       0.273 -13.921  33.125  1.00  0.00     0.161 A 
BRANCH  43  46
ATOM     46  O   UNL     1       1.085 -16.029  32.301  1.00  0.00    -0.487 OA
BRANCH  46  47
ATOM     47  C   UNL     1       1.134 -17.164  31.435  1.00  0.00     0.258 C 
BRANCH  47  48
ATOM     48  C   UNL     1       2.070 -16.908  30.252  1.00  0.00     0.197 C 
BRANCH  48  49
ATOM     49  O   UNL     1       1.341 -16.497  29.130  1.00  0.00    -0.393 OA
ATOM     50  H   UNL     1       1.056 -17.325  28.657  1.00  0.00     0.210 HD
ENDBRANCH  48  49
ENDBRANCH  47  48
ENDBRANCH  46  47
ENDBRANCH  43  46
BRANCH  45  51
ATOM     51  O   UNL     1       1.436 -13.844  33.914  1.00  0.00    -0.487 OA
BRANCH  51  52
ATOM     52  C   UNL     1       1.463 -13.909  35.337  1.00  0.00     0.258 C 
BRANCH  52  53
ATOM     53  C   UNL     1       0.996 -15.280  35.807  1.00  0.00     0.197 C 
BRANCH  53  54
ATOM     54  O   UNL     1       0.686 -15.224  37.170  1.00  0.00    -0.393 OA
ATOM     55  H   UNL     1      -0.109 -15.816  37.302  1.00  0.00     0.210 HD
ENDBRANCH  53  54
ENDBRANCH  52  53
ENDBRANCH  51  52
ENDBRANCH  45  51
ENDBRANCH   2  40
BRANCH   8  56
ATOM     56  O   UNL     1      -6.467 -14.379  26.627  1.00  0.00    -0.507 OA
ATOM     57  H   UNL     1      -7.104 -14.882  26.018  1.00  0.00     0.293 HD
ENDBRANCH   8  56
BRANCH   6  58
ATOM     58  O   UNL     1      -8.997 -15.356  30.603  1.00  0.00    -0.491 OA
BRANCH  58  59
ATOM     59  C   UNL     1      -9.655 -16.613  30.467  1.00  0.00     0.257 C 
BRANCH  59  60
ATOM     60  C   UNL     1     -11.143 -16.398  30.207  1.00  0.00     0.197 C 
BRANCH  60  61
ATOM     61  O   UNL     1     -11.357 -15.990  28.881  1.00  0.00    -0.393 OA
ATOM     62  H   UNL     1     -12.301 -15.696  28.834  1.00  0.00     0.210 HD
ENDBRANCH  60  61
ENDBRANCH  59  60
ENDBRANCH  58  59
ENDBRANCH   6  58
TORSDOF 25
ENDMDL
MODEL 2
REMARK VINA RESULT:    -7.526      1.893      5.268
REMARK INTER + INTRA:         -19.803
REMARK INTER:                 -15.567
REMARK INTRA:                  -4.236
REMARK UNBOUND:                -3.476
REMARK SMILES C[C@H]1O[C@H](OC[C@@H]2O[C@@H](Oc3c(-c4ccc(OCCO)c(OCCO)c4)oc4cc(OCCO)cc(O)c4c3=O)[C@H](O)[C@@H](O)[C@H]2O)[C@H](O)[C@@H](O)[C@@H]1O
REMARK SMILES IDX 11 1 12 2 27 3 28 4 29 5 30 6 35 7 36 8 38 9 39 10 40 11
REMARK SMILES IDX 10 12 9 13 7 14 45 15 8 16 43 17 41 18 6 19 5 20 4 21 1 22
REMARK SMILES IDX 2 23 51 24 3 25 49 26 47 27 52 28 50 30 48 32 46 34 44 36
REMARK SMILES IDX 42 38 13 40 26 41 14 42 21 43 15 44 16 45 22 46 23 47 24 48
REMARK SMILES IDX 25 49 17 51 18 52 19 53 20 54 37 56 31 58 32 59 33 60 34 61
REMARK H PARENT 52 29 50 31 48 33 46 35 44 37 42 39 25 50 20 55 37 57 34 62
REMARK Flexibility Score: inf
ROOT
ATOM      1  C   UNL     1      -2.803 -13.858  29.366  1.00  0.00     0.214 A 
ATOM      2  C   UNL     1      -2.904 -14.049  27.968  1.00  0.00     0.180 A 
ATOM      3  O   UNL     1      -4.090 -14.275  27.411  1.00  0.00    -0.452 OA
ATOM      4  C   UNL     1      -5.214 -14.361  28.102  1.00  0.00     0.146 A 
ATOM      5  C   UNL     1      -6.406 -14.619  27.414  1.00  0.00     0.094 A 
ATOM      6  C   UNL     1      -7.624 -14.707  28.107  1.00  0.00     0.126 A 
ATOM      7  C   UNL     1      -7.639 -14.525  29.492  1.00  0.00     0.093 A 
ATOM      8  C   UNL     1      -6.455 -14.275  30.198  1.00  0.00     0.134 A 
ATOM      9  C   UNL     1      -5.218 -14.190  29.505  1.00  0.00     0.111 A 
ATOM     10  C   UNL     1      -3.986 -13.931  30.142  1.00  0.00     0.239 A 
ATOM     11  O   UNL     1      -3.943 -13.760  31.388  1.00  0.00    -0.285 OA
ENDROOT
BRANCH   1  12
ATOM     12  O   UNL     1      -1.520 -13.580  29.883  1.00  0.00    -0.454 OA
BRANCH  12  13
ATOM     13  C   UNL     1      -0.516 -14.446  30.415  1.00  0.00     0.339 C 
ATOM     14  C   UNL     1      -0.084 -16.678  31.083  1.00  0.00     0.180 C 
ATOM     15  C   UNL     1       1.269 -16.101  31.622  1.00  0.00     0.177 C 
ATOM     16  O   UNL     1      -1.075 -15.684  30.825  1.00  0.00    -0.332 OA
ATOM     17  C   UNL     1       1.017 -14.810  32.428  1.00  0.00     0.180 C 
ATOM     18  C   UNL     1       0.270 -13.763  31.556  1.00  0.00     0.214 C 
BRANCH  14  19
ATOM     19  C   UNL     1       0.098 -17.547  29.824  1.00  0.00     0.198 C 
BRANCH  19  20
ATOM     20  O   UNL     1      -0.723 -18.707  29.833  1.00  0.00    -0.347 OA
BRANCH  20  21
ATOM     21  C   UNL     1      -0.747 -19.359  28.571  1.00  0.00     0.281 C 
ATOM     22  C   UNL     1      -0.139 -22.468  27.611  1.00  0.00     0.041 C 
ATOM     23  C   UNL     1      -1.232 -21.402  27.480  1.00  0.00     0.150 C 
ATOM     24  C   UNL     1      -1.033 -20.560  26.175  1.00  0.00     0.174 C 
ATOM     25  O   UNL     1      -1.300 -20.656  28.694  1.00  0.00    -0.344 OA
ATOM     26  C   UNL     1      -1.823 -19.246  26.254  1.00  0.00     0.179 C 
ATOM     27  C   UNL     1      -1.636 -18.535  27.619  1.00  0.00     0.202 C 
BRANCH  24  28
ATOM     28  O   UNL     1      -1.457 -21.295  25.052  1.00  0.00    -0.388 OA
ATOM     29  H   UNL     1      -1.566 -20.676  24.293  1.00  0.00     0.211 HD
ENDBRANCH  24  28
BRANCH  26  30
ATOM     30  O   UNL     1      -1.413 -18.406  25.207  1.00  0.00    -0.387 OA
ATOM     31  H   UNL     1      -1.071 -18.992  24.481  1.00  0.00     0.211 HD
ENDBRANCH  26  30
BRANCH  27  32
ATOM     32  O   UNL     1      -2.899 -18.358  28.213  1.00  0.00    -0.385 OA
ATOM     33  H   UNL     1      -2.984 -17.396  28.428  1.00  0.00     0.211 HD
ENDBRANCH  27  32
ENDBRANCH  20  21
ENDBRANCH  19  20
ENDBRANCH  14  19
BRANCH  15  34
ATOM     34  O   UNL     1       1.978 -17.057  32.374  1.00  0.00    -0.387 OA
ATOM     35  H   UNL     1       1.726 -17.960  32.053  1.00  0.00     0.211 HD
ENDBRANCH  15  34
BRANCH  17  36
ATOM     36  O   UNL     1       0.238 -15.102  33.562  1.00  0.00    -0.387 OA
ATOM     37  H   UNL     1       0.813 -15.566  34.225  1.00  0.00     0.211 HD
ENDBRANCH  17  36
BRANCH  18  38
ATOM     38  O   UNL     1       1.157 -12.810  31.022  1.00  0.00    -0.384 OA
ATOM     39  H   UNL     1       1.633 -12.387  31.782  1.00  0.00     0.211 HD
ENDBRANCH  18  38
ENDBRANCH  12  13
ENDBRANCH   1  12
BRANCH   2  40
ATOM     40  C   UNL     1      -1.718 -13.947  27.081  1.00  0.00     0.025 A 
ATOM     41  C   UNL     1      -0.984 -15.101  26.789  1.00  0.00     0.062 A 
ATOM     42  C   UNL     1      -1.286 -12.717  26.556  1.00  0.00     0.016 A 
ATOM     43  C   UNL     1       0.119 -15.053  25.913  1.00  0.00     0.162 A 
ATOM     44  C   UNL     1      -0.193 -12.659  25.688  1.00  0.00     0.051 A 
ATOM     45  C   UNL     1       0.493 -13.832  25.335  1.00  0.00     0.161 A 
BRANCH  43  46
ATOM     46  O   UNL     1       0.868 -16.193  25.585  1.00  0.00    -0.487 OA
BRANCH  46  47
ATOM     47  C   UNL     1       1.514 -17.061  26.519  1.00  0.00     0.258 C 
BRANCH  47  48
ATOM     48  C   UNL     1       2.028 -18.324  25.825  1.00  0.00     0.197 C 
BRANCH  48  49
ATOM     49  O   UNL     1       1.374 -18.511  24.601  1.00  0.00    -0.393 OA
ATOM     50  H   UNL     1       1.612 -19.426  24.289  1.00  0.00     0.210 HD
ENDBRANCH  48  49
ENDBRANCH  47  48
ENDBRANCH  46  47
ENDBRANCH  43  46
BRANCH  45  51
ATOM     51  O   UNL     1       1.552 -13.818  24.408  1.00  0.00    -0.487 OA
BRANCH  51  52
ATOM     52  C   UNL     1       2.805 -13.171  24.609  1.00  0.00     0.258 C 
BRANCH  52  53
ATOM     53  C   UNL     1       3.582 -13.870  25.716  1.00  0.00     0.197 C 
BRANCH  53  54
ATOM     54  O   UNL     1       3.904 -15.169  25.311  1.00  0.00    -0.393 OA
ATOM     55  H   UNL     1       4.234 -15.097  24.369  1.00  0.00     0.210 HD
ENDBRANCH  53  54
ENDBRANCH  52  53
ENDBRANCH  51  52
ENDBRANCH  45  51
ENDBRANCH   2  40
BRANCH   8  56
ATOM     56  O   UNL     1      -6.515 -14.098  31.579  1.00  0.00    -0.507 OA
ATOM     57  H   UNL     1      -6.951 -14.780  32.192  1.00  0.00     0.293 HD
ENDBRANCH   8  56
BRANCH   6  58
ATOM     58  O   UNL     1      -8.837 -14.975  27.456  1.00  0.00    -0.491 OA
BRANCH  58  59
ATOM     59  C   UNL     1      -9.005 -14.993  26.041  1.00  0.00     0.257 C 
BRANCH  59  60
ATOM     60  C   UNL     1      -9.791 -13.766  25.592  1.00  0.00     0.197 C 
BRANCH  60  61
ATOM     61  O   UNL     1      -8.938 -12.661  25.445  1.00  0.00    -0.393 OA
ATOM     62  H   UNL     1      -9.510 -11.858  25.533  1.00  0.00     0.210 HD
ENDBRANCH  60  61
ENDBRANCH  59  60
ENDBRANCH  58  59
ENDBRANCH   6  58
TORSDOF 25
ENDMDL
MODEL 3
REMARK VINA RESULT:    -7.470      1.292      1.650
REMARK INTER + INTRA:         -19.681
REMARK INTER:                 -16.499
REMARK INTRA:                  -3.182
REMARK UNBOUND:                -3.476
REMARK SMILES C[C@H]1O[C@H](OC[C@@H]2O[C@@H](Oc3c(-c4ccc(OCCO)c(OCCO)c4)oc4cc(OCCO)cc(O)c4c3=O)[C@H](O)[C@@H](O)[C@H]2O)[C@H](O)[C@@H](O)[C@@H]1O
REMARK SMILES IDX 11 1 12 2 27 3 28 4 29 5 30 6 35 7 36 8 38 9 39 10 40 11
REMARK SMILES IDX 10 12 9 13 7 14 45 15 8 16 43 17 41 18 6 19 5 20 4 21 1 22
REMARK SMILES IDX 2 23 51 24 3 25 49 26 47 27 52 28 50 30 48 32 46 34 44 36
REMARK SMILES IDX 42 38 13 40 26 41 14 42 21 43 15 44 16 45 22 46 23 47 24 48
REMARK SMILES IDX 25 49 17 51 18 52 19 53 20 54 37 56 31 58 32 59 33 60 34 61
REMARK H PARENT 52 29 50 31 48 33 46 35 44 37 42 39 25 50 20 55 37 57 34 62
REMARK Flexibility Score: inf
ROOT
ATOM      1  C   UNL     1      -3.294 -13.633  29.334  1.00  0.00     0.214 A 
ATOM      2  C   UNL     1      -3.362 -14.028  30.691  1.00  0.00     0.180 A 
ATOM      3  O   UNL     1      -4.501 -14.497  31.191  1.00  0.00    -0.452 OA
ATOM      4  C   UNL     1      -5.617 -14.598  30.489  1.00  0.00     0.146 A 
ATOM      5  C   UNL     1      -6.765 -15.091  31.121  1.00  0.00     0.094 A 
ATOM      6  C   UNL     1      -7.968 -15.225  30.411  1.00  0.00     0.126 A 
ATOM      7  C   UNL     1      -8.009 -14.872  29.060  1.00  0.00     0.093 A 
ATOM      8  C   UNL     1      -6.873 -14.370  28.412  1.00  0.00     0.134 A 
ATOM      9  C   UNL     1      -5.653 -14.225  29.126  1.00  0.00     0.111 A 
ATOM     10  C   UNL     1      -4.464 -13.737  28.543  1.00  0.00     0.239 A 
ATOM     11  O   UNL     1      -4.447 -13.405  27.330  1.00  0.00    -0.285 OA
ENDROOT
BRANCH   1  12
ATOM     12  O   UNL     1      -2.042 -13.187  28.859  1.00  0.00    -0.454 OA
BRANCH  12  13
ATOM     13  C   UNL     1      -1.210 -13.677  27.807  1.00  0.00     0.339 C 
ATOM     14  C   UNL     1       0.598 -15.131  27.328  1.00  0.00     0.180 C 
ATOM     15  C   UNL     1       0.547 -14.489  25.900  1.00  0.00     0.177 C 
ATOM     16  O   UNL     1      -0.092 -14.379  28.326  1.00  0.00    -0.332 OA
ATOM     17  C   UNL     1       0.456 -12.953  26.008  1.00  0.00     0.180 C 
ATOM     18  C   UNL     1      -0.783 -12.540  26.852  1.00  0.00     0.214 C 
BRANCH  14  19
ATOM     19  C   UNL     1       0.086 -16.584  27.347  1.00  0.00     0.198 C 
BRANCH  19  20
ATOM     20  O   UNL     1      -0.718 -16.900  26.219  1.00  0.00    -0.347 OA
BRANCH  20  21
ATOM     21  C   UNL     1      -0.407 -18.174  25.675  1.00  0.00     0.281 C 
ATOM     22  C   UNL     1      -1.112 -21.272  26.606  1.00  0.00     0.041 C 
ATOM     23  C   UNL     1      -1.219 -20.376  25.368  1.00  0.00     0.150 C 
ATOM     24  C   UNL     1       0.044 -20.536  24.456  1.00  0.00     0.174 C 
ATOM     25  O   UNL     1      -1.519 -19.044  25.784  1.00  0.00    -0.344 OA
ATOM     26  C   UNL     1       0.158 -19.357  23.479  1.00  0.00     0.179 C 
ATOM     27  C   UNL     1      -0.069 -17.994  24.183  1.00  0.00     0.202 C 
BRANCH  24  28
ATOM     28  O   UNL     1      -0.030 -21.740  23.731  1.00  0.00    -0.388 OA
ATOM     29  H   UNL     1      -0.562 -21.585  22.916  1.00  0.00     0.211 HD
ENDBRANCH  24  28
BRANCH  26  30
ATOM     30  O   UNL     1       1.424 -19.389  22.875  1.00  0.00    -0.387 OA
ATOM     31  H   UNL     1       1.294 -19.706  21.943  1.00  0.00     0.211 HD
ENDBRANCH  26  30
BRANCH  27  32
ATOM     32  O   UNL     1      -1.136 -17.331  23.550  1.00  0.00    -0.385 OA
ATOM     33  H   UNL     1      -1.248 -17.749  22.660  1.00  0.00     0.211 HD
ENDBRANCH  27  32
ENDBRANCH  20  21
ENDBRANCH  19  20
ENDBRANCH  14  19
BRANCH  15  34
ATOM     34  O   UNL     1       1.640 -14.894  25.109  1.00  0.00    -0.387 OA
ATOM     35  H   UNL     1       1.689 -14.303  24.315  1.00  0.00     0.211 HD
ENDBRANCH  15  34
BRANCH  17  36
ATOM     36  O   UNL     1       1.618 -12.449  26.621  1.00  0.00    -0.387 OA
ATOM     37  H   UNL     1       1.637 -12.764  27.562  1.00  0.00     0.211 HD
ENDBRANCH  17  36
BRANCH  18  38
ATOM     38  O   UNL     1      -1.865 -12.172  26.032  1.00  0.00    -0.384 OA
ATOM     39  H   UNL     1      -2.039 -12.926  25.411  1.00  0.00     0.211 HD
ENDBRANCH  18  38
ENDBRANCH  12  13
ENDBRANCH   1  12
BRANCH   2  40
ATOM     40  C   UNL     1      -2.169 -13.989  31.573  1.00  0.00     0.025 A 
ATOM     41  C   UNL     1      -1.210 -15.002  31.466  1.00  0.00     0.062 A 
ATOM     42  C   UNL     1      -1.992 -12.985  32.540  1.00  0.00     0.016 A 
ATOM     43  C   UNL     1      -0.040 -14.973  32.252  1.00  0.00     0.162 A 
ATOM     44  C   UNL     1      -0.836 -12.949  33.324  1.00  0.00     0.051 A 
ATOM     45  C   UNL     1       0.161 -13.924  33.160  1.00  0.00     0.161 A 
BRANCH  43  46
ATOM     46  O   UNL     1       0.951 -15.963  32.161  1.00  0.00    -0.487 OA
BRANCH  46  47
ATOM     47  C   UNL     1       1.194 -16.794  31.024  1.00  0.00     0.258 C 
BRANCH  47  48
ATOM     48  C   UNL     1       0.946 -18.265  31.361  1.00  0.00     0.197 C 
BRANCH  48  49
ATOM     49  O   UNL     1      -0.398 -18.471  31.697  1.00  0.00    -0.393 OA
ATOM     50  H   UNL     1      -0.560 -19.451  31.629  1.00  0.00     0.210 HD
ENDBRANCH  48  49
ENDBRANCH  47  48
ENDBRANCH  46  47
ENDBRANCH  43  46
BRANCH  45  51
ATOM     51  O   UNL     1       1.368 -13.875  33.882  1.00  0.00    -0.487 OA
BRANCH  51  52
ATOM     52  C   UNL     1       1.468 -13.837  35.303  1.00  0.00     0.258 C 
BRANCH  52  53
ATOM     53  C   UNL     1       0.972 -15.149  35.897  1.00  0.00     0.197 C 
BRANCH  53  54
ATOM     54  O   UNL     1       0.359 -14.899  37.129  1.00  0.00    -0.393 OA
ATOM     55  H   UNL     1       0.761 -15.543  37.779  1.00  0.00     0.210 HD
ENDBRANCH  53  54
ENDBRANCH  52  53
ENDBRANCH  51  52
ENDBRANCH  45  51
ENDBRANCH   2  40
BRANCH   8  56
ATOM     56  O   UNL     1      -6.957 -14.031  27.062  1.00  0.00    -0.507 OA
ATOM     57  H   UNL     1      -6.818 -14.716  26.326  1.00  0.00     0.293 HD
ENDBRANCH   8  56
BRANCH   6  58
ATOM     58  O   UNL     1      -9.142 -15.704  31.011  1.00  0.00    -0.491 OA
BRANCH  58  59
ATOM     59  C   UNL     1      -9.738 -16.966  30.723  1.00  0.00     0.257 C 
BRANCH  59  60
ATOM     60  C   UNL     1     -11.246 -16.805  30.562  1.00  0.00     0.197 C 
BRANCH  60  61
ATOM     61  O   UNL     1     -11.547 -15.592  29.923  1.00  0.00    -0.393 OA
ATOM     62  H   UNL     1     -12.464 -15.350  30.209  1.00  0.00     0.210 HD
ENDBRANCH  60  61
ENDBRANCH  59  60
ENDBRANCH  58  59
ENDBRANCH   6  58
TORSDOF 25
ENDMDL
MODEL 4
REMARK VINA RESULT:    -7.469      1.948      7.229
REMARK INTER + INTRA:         -19.678
REMARK INTER:                 -17.055
REMARK INTRA:                  -2.623
REMARK UNBOUND:                -3.476
REMARK SMILES C[C@H]1O[C@H](OC[C@@H]2O[C@@H](Oc3c(-c4ccc(OCCO)c(OCCO)c4)oc4cc(OCCO)cc(O)c4c3=O)[C@H](O)[C@@H](O)[C@H]2O)[C@H](O)[C@@H](O)[C@@H]1O
REMARK SMILES IDX 11 1 12 2 27 3 28 4 29 5 30 6 35 7 36 8 38 9 39 10 40 11
REMARK SMILES IDX 10 12 9 13 7 14 45 15 8 16 43 17 41 18 6 19 5 20 4 21 1 22
REMARK SMILES IDX 2 23 51 24 3 25 49 26 47 27 52 28 50 30 48 32 46 34 44 36
REMARK SMILES IDX 42 38 13 40 26 41 14 42 21 43 15 44 16 45 22 46 23 47 24 48
REMARK SMILES IDX 25 49 17 51 18 52 19 53 20 54 37 56 31 58 32 59 33 60 34 61
REMARK H PARENT 52 29 50 31 48 33 46 35 44 37 42 39 25 50 20 55 37 57 34 62
REMARK Flexibility Score: inf
ROOT
ATOM      1  C   UNL     1      -0.755 -12.477  30.270  1.00  0.00     0.214 A 
ATOM      2  C   UNL     1      -1.629 -13.417  30.865  1.00  0.00     0.180 A 
ATOM      3  O   UNL     1      -1.328 -13.952  32.045  1.00  0.00    -0.452 OA
ATOM      4  C   UNL     1      -0.219 -13.674  32.708  1.00  0.00     0.146 A 
ATOM      5  C   UNL     1       0.005 -14.308  33.936  1.00  0.00     0.094 A 
ATOM      6  C   UNL     1       1.165 -14.035  34.679  1.00  0.00     0.126 A 
ATOM      7  C   UNL     1       2.092 -13.114  34.186  1.00  0.00     0.093 A 
ATOM      8  C   UNL     1       1.889 -12.475  32.956  1.00  0.00     0.134 A 
ATOM      9  C   UNL     1       0.721 -12.751  32.195  1.00  0.00     0.111 A 
ATOM     10  C   UNL     1       0.440 -12.143  30.954  1.00  0.00     0.239 A 
ATOM     11  O   UNL     1       1.242 -11.306  30.465  1.00  0.00    -0.285 OA
ENDROOT
BRANCH   1  12
ATOM     12  O   UNL     1      -1.158 -11.918  29.039  1.00  0.00    -0.454 OA
BRANCH  12  13
ATOM     13  C   UNL     1      -0.800 -12.251  27.697  1.00  0.00     0.339 C 
ATOM     14  C   UNL     1       0.527 -13.710  26.384  1.00  0.00     0.180 C 
ATOM     15  C   UNL     1       0.092 -12.797  25.189  1.00  0.00     0.177 C 
ATOM     16  O   UNL     1       0.319 -13.122  27.668  1.00  0.00    -0.332 OA
ATOM     17  C   UNL     1       0.254 -11.310  25.566  1.00  0.00     0.180 C 
ATOM     18  C   UNL     1      -0.564 -10.982  26.847  1.00  0.00     0.214 C 
BRANCH  14  19
ATOM     19  C   UNL     1      -0.145 -15.097  26.350  1.00  0.00     0.198 C 
BRANCH  19  20
ATOM     20  O   UNL     1      -0.020 -15.739  25.089  1.00  0.00    -0.347 OA
BRANCH  20  21
ATOM     21  C   UNL     1      -0.301 -17.129  25.162  1.00  0.00     0.281 C 
ATOM     22  C   UNL     1      -1.142 -19.146  27.649  1.00  0.00     0.041 C 
ATOM     23  C   UNL     1      -1.628 -18.760  26.248  1.00  0.00     0.150 C 
ATOM     24  C   UNL     1      -1.031 -19.724  25.168  1.00  0.00     0.174 C 
ATOM     25  O   UNL     1      -1.386 -17.369  26.040  1.00  0.00    -0.344 OA
ATOM     26  C   UNL     1      -1.141 -19.102  23.769  1.00  0.00     0.179 C 
ATOM     27  C   UNL     1      -0.692 -17.618  23.754  1.00  0.00     0.202 C 
BRANCH  24  28
ATOM     28  O   UNL     1      -1.710 -20.956  25.188  1.00  0.00    -0.388 OA
ATOM     29  H   UNL     1      -1.059 -21.672  25.369  1.00  0.00     0.211 HD
ENDBRANCH  24  28
BRANCH  26  30
ATOM     30  O   UNL     1      -0.365 -19.855  22.875  1.00  0.00    -0.387 OA
ATOM     31  H   UNL     1       0.453 -19.326  22.682  1.00  0.00     0.211 HD
ENDBRANCH  26  30
BRANCH  27  32
ATOM     32  O   UNL     1      -1.753 -16.829  23.275  1.00  0.00    -0.385 OA
ATOM     33  H   UNL     1      -2.578 -17.368  23.368  1.00  0.00     0.211 HD
ENDBRANCH  27  32
ENDBRANCH  20  21
ENDBRANCH  19  20
ENDBRANCH  14  19
BRANCH  15  34
ATOM     34  O   UNL     1       0.792 -13.117  24.010  1.00  0.00    -0.387 OA
ATOM     35  H   UNL     1       0.386 -12.614  23.258  1.00  0.00     0.211 HD
ENDBRANCH  15  34
BRANCH  17  36
ATOM     36  O   UNL     1       1.611 -11.024  25.802  1.00  0.00    -0.387 OA
ATOM     37  H   UNL     1       2.156 -11.770  25.439  1.00  0.00     0.211 HD
ENDBRANCH  17  36
BRANCH  18  38
ATOM     38  O   UNL     1      -1.796 -10.381  26.532  1.00  0.00    -0.384 OA
ATOM     39  H   UNL     1      -1.617  -9.429  26.317  1.00  0.00     0.211 HD
ENDBRANCH  18  38
ENDBRANCH  12  13
ENDBRANCH   1  12
BRANCH   2  40
ATOM     40  C   UNL     1      -2.920 -13.787  30.232  1.00  0.00     0.025 A 
ATOM     41  C   UNL     1      -4.099 -13.685  30.979  1.00  0.00     0.062 A 
ATOM     42  C   UNL     1      -2.990 -14.276  28.916  1.00  0.00     0.016 A 
ATOM     43  C   UNL     1      -5.348 -13.981  30.398  1.00  0.00     0.162 A 
ATOM     44  C   UNL     1      -4.224 -14.573  28.333  1.00  0.00     0.051 A 
ATOM     45  C   UNL     1      -5.411 -14.395  29.060  1.00  0.00     0.161 A 
BRANCH  43  46
ATOM     46  O   UNL     1      -6.552 -13.874  31.111  1.00  0.00    -0.487 OA
BRANCH  46  47
ATOM     47  C   UNL     1      -7.074 -14.852  32.013  1.00  0.00     0.258 C 
BRANCH  47  48
ATOM     48  C   UNL     1      -7.914 -15.889  31.266  1.00  0.00     0.197 C 
BRANCH  48  49
ATOM     49  O   UNL     1      -8.851 -15.258  30.438  1.00  0.00    -0.393 OA
ATOM     50  H   UNL     1      -8.399 -14.457  30.058  1.00  0.00     0.210 HD
ENDBRANCH  48  49
ENDBRANCH  47  48
ENDBRANCH  46  47
ENDBRANCH  43  46
BRANCH  45  51
ATOM     51  O   UNL     1      -6.674 -14.616  28.478  1.00  0.00    -0.487 OA
BRANCH  51  52
ATOM     52  C   UNL     1      -6.913 -14.773  27.083  1.00  0.00     0.258 C 
BRANCH  52  53
ATOM     53  C   UNL     1      -8.358 -14.417  26.757  1.00  0.00     0.197 C 
BRANCH  53  54
ATOM     54  O   UNL     1      -9.217 -15.202  27.532  1.00  0.00    -0.393 OA
ATOM     55  H   UNL     1      -9.499 -15.967  26.952  1.00  0.00     0.210 HD
ENDBRANCH  53  54
ENDBRANCH  52  53
ENDBRANCH  51  52
ENDBRANCH  45  51
ENDBRANCH   2  40
BRANCH   8  56
ATOM     56  O   UNL     1       2.839 -11.561  32.502  1.00  0.00    -0.507 OA
ATOM     57  H   UNL     1       2.677 -10.974  31.690  1.00  0.00     0.293 HD
ENDBRANCH   8  56
BRANCH   6  58
ATOM     58  O   UNL     1       1.430 -14.657  35.907  1.00  0.00    -0.491 OA
BRANCH  58  59
ATOM     59  C   UNL     1       0.758 -14.354  37.127  1.00  0.00     0.257 C 
BRANCH  59  60
ATOM     60  C   UNL     1       1.676 -13.550  38.042  1.00  0.00     0.197 C 
BRANCH  60  61
ATOM     61  O   UNL     1       1.642 -14.062  39.348  1.00  0.00    -0.393 OA
ATOM     62  H   UNL     1       1.419 -15.024  39.260  1.00  0.00     0.210 HD
ENDBRANCH  60  61
ENDBRANCH  59  60
ENDBRANCH  58  59
ENDBRANCH   6  58
TORSDOF 25
ENDMDL
MODEL 5
REMARK VINA RESULT:    -7.434      2.542      7.910
REMARK INTER + INTRA:         -19.602
REMARK INTER:                 -16.501
REMARK INTRA:                  -3.101
REMARK UNBOUND:                -3.476
REMARK SMILES C[C@H]1O[C@H](OC[C@@H]2O[C@@H](Oc3c(-c4ccc(OCCO)c(OCCO)c4)oc4cc(OCCO)cc(O)c4c3=O)[C@H](O)[C@@H](O)[C@H]2O)[C@H](O)[C@@H](O)[C@@H]1O
REMARK SMILES IDX 11 1 12 2 27 3 28 4 29 5 30 6 35 7 36 8 38 9 39 10 40 11
REMARK SMILES IDX 10 12 9 13 7 14 45 15 8 16 43 17 41 18 6 19 5 20 4 21 1 22
REMARK SMILES IDX 2 23 51 24 3 25 49 26 47 27 52 28 50 30 48 32 46 34 44 36
REMARK SMILES IDX 42 38 13 40 26 41 14 42 21 43 15 44 16 45 22 46 23 47 24 48
REMARK SMILES IDX 25 49 17 51 18 52 19 53 20 54 37 56 31 58 32 59 33 60 34 61
REMARK H PARENT 52 29 50 31 48 33 46 35 44 37 42 39 25 50 20 55 37 57 34 62
REMARK Flexibility Score: inf
ROOT
ATOM      1  C   UNL     1       0.040 -16.898  29.591  1.00  0.00     0.214 A 
ATOM      2  C   UNL     1      -0.851 -16.045  30.283  1.00  0.00     0.180 A 
ATOM      3  O   UNL     1      -0.602 -15.704  31.544  1.00  0.00    -0.452 OA
ATOM      4  C   UNL     1       0.442 -16.145  32.224  1.00  0.00     0.146 A 
ATOM      5  C   UNL     1       0.598 -15.735  33.554  1.00  0.00     0.094 A 
ATOM      6  C   UNL     1       1.699 -16.169  34.310  1.00  0.00     0.126 A 
ATOM      7  C   UNL     1       2.646 -17.009  33.719  1.00  0.00     0.093 A 
ATOM      8  C   UNL     1       2.503 -17.437  32.393  1.00  0.00     0.134 A 
ATOM      9  C   UNL     1       1.389 -17.006  31.623  1.00  0.00     0.111 A 
ATOM     10  C   UNL     1       1.179 -17.383  30.280  1.00  0.00     0.239 A 
ATOM     11  O   UNL     1       2.002 -18.139  29.701  1.00  0.00    -0.285 OA
ENDROOT
BRANCH   1  12
ATOM     12  O   UNL     1      -0.263 -17.183  28.243  1.00  0.00    -0.454 OA
BRANCH  12  13
ATOM     13  C   UNL     1      -0.448 -18.428  27.566  1.00  0.00     0.339 C 
ATOM     14  C   UNL     1       0.655 -20.069  26.261  1.00  0.00     0.180 C 
ATOM     15  C   UNL     1      -0.777 -20.679  26.081  1.00  0.00     0.177 C 
ATOM     16  O   UNL     1       0.655 -18.718  26.722  1.00  0.00    -0.332 OA
ATOM     17  C   UNL     1      -1.787 -19.573  25.714  1.00  0.00     0.180 C 
ATOM     18  C   UNL     1      -1.786 -18.456  26.795  1.00  0.00     0.214 C 
BRANCH  14  19
ATOM     19  C   UNL     1       1.552 -20.917  27.183  1.00  0.00     0.198 C 
BRANCH  19  20
ATOM     20  O   UNL     1       0.914 -22.103  27.635  1.00  0.00    -0.347 OA
BRANCH  20  21
ATOM     21  C   UNL     1       0.757 -22.127  29.046  1.00  0.00     0.281 C 
ATOM     22  C   UNL     1      -1.472 -20.803  31.105  1.00  0.00     0.041 C 
ATOM     23  C   UNL     1      -0.835 -22.162  30.797  1.00  0.00     0.150 C 
ATOM     24  C   UNL     1       0.416 -22.407  31.706  1.00  0.00     0.174 C 
ATOM     25  O   UNL     1      -0.609 -22.260  29.391  1.00  0.00    -0.344 OA
ATOM     26  C   UNL     1       1.299 -23.520  31.122  1.00  0.00     0.179 C 
ATOM     27  C   UNL     1       1.524 -23.344  29.598  1.00  0.00     0.202 C 
BRANCH  24  28
ATOM     28  O   UNL     1       0.011 -22.765  33.005  1.00  0.00    -0.388 OA
ATOM     29  H   UNL     1      -0.920 -23.086  32.968  1.00  0.00     0.211 HD
ENDBRANCH  24  28
BRANCH  26  30
ATOM     30  O   UNL     1       2.528 -23.526  31.799  1.00  0.00    -0.387 OA
ATOM     31  H   UNL     1       2.379 -23.088  32.677  1.00  0.00     0.211 HD
ENDBRANCH  26  30
BRANCH  27  32
ATOM     32  O   UNL     1       1.075 -24.503  28.938  1.00  0.00    -0.385 OA
ATOM     33  H   UNL     1       1.438 -25.277  29.436  1.00  0.00     0.211 HD
ENDBRANCH  27  32
ENDBRANCH  20  21
ENDBRANCH  19  20
ENDBRANCH  14  19
BRANCH  15  34
ATOM     34  O   UNL     1      -0.781 -21.725  25.138  1.00  0.00    -0.387 OA
ATOM     35  H   UNL     1      -1.631 -22.226  25.228  1.00  0.00     0.211 HD
ENDBRANCH  15  34
BRANCH  17  36
ATOM     36  O   UNL     1      -1.443 -19.008  24.471  1.00  0.00    -0.387 OA
ATOM     37  H   UNL     1      -1.618 -18.032  24.512  1.00  0.00     0.211 HD
ENDBRANCH  17  36
BRANCH  18  38
ATOM     38  O   UNL     1      -2.855 -18.612  27.697  1.00  0.00    -0.384 OA
ATOM     39  H   UNL     1      -3.203 -19.534  27.590  1.00  0.00     0.211 HD
ENDBRANCH  18  38
ENDBRANCH  12  13
ENDBRANCH   1  12
BRANCH   2  40
ATOM     40  C   UNL     1      -2.043 -15.462  29.618  1.00  0.00     0.025 A 
ATOM     41  C   UNL     1      -3.170 -15.154  30.388  1.00  0.00     0.062 A 
ATOM     42  C   UNL     1      -2.089 -15.245  28.230  1.00  0.00     0.016 A 
ATOM     43  C   UNL     1      -4.302 -14.554  29.801  1.00  0.00     0.162 A 
ATOM     44  C   UNL     1      -3.208 -14.652  27.639  1.00  0.00     0.051 A 
ATOM     45  C   UNL     1      -4.306 -14.273  28.427  1.00  0.00     0.161 A 
BRANCH  43  46
ATOM     46  O   UNL     1      -5.444 -14.217  30.544  1.00  0.00    -0.487 OA
BRANCH  46  47
ATOM     47  C   UNL     1      -5.477 -13.321  31.657  1.00  0.00     0.258 C 
BRANCH  47  48
ATOM     48  C   UNL     1      -6.313 -12.081  31.334  1.00  0.00     0.197 C 
BRANCH  48  49
ATOM     49  O   UNL     1      -6.108 -11.683  30.007  1.00  0.00    -0.393 OA
ATOM     50  H   UNL     1      -6.974 -11.313  29.684  1.00  0.00     0.210 HD
ENDBRANCH  48  49
ENDBRANCH  47  48
ENDBRANCH  46  47
ENDBRANCH  43  46
BRANCH  45  51
ATOM     51  O   UNL     1      -5.417 -13.609  27.875  1.00  0.00    -0.487 OA
BRANCH  51  52
ATOM     52  C   UNL     1      -6.352 -14.193  26.973  1.00  0.00     0.258 C 
BRANCH  52  53
ATOM     53  C   UNL     1      -7.579 -14.677  27.733  1.00  0.00     0.197 C 
BRANCH  53  54
ATOM     54  O   UNL     1      -7.765 -13.885  28.870  1.00  0.00    -0.393 OA
ATOM     55  H   UNL     1      -7.468 -14.438  29.649  1.00  0.00     0.210 HD
ENDBRANCH  53  54
ENDBRANCH  52  53
ENDBRANCH  51  52
ENDBRANCH  45  51
ENDBRANCH   2  40
BRANCH   8  56
ATOM     56  O   UNL     1       3.472 -18.273  31.842  1.00  0.00    -0.507 OA
ATOM     57  H   UNL     1       4.211 -18.684  32.404  1.00  0.00     0.293 HD
ENDBRANCH   8  56
BRANCH   6  58
ATOM     58  O   UNL     1       1.884 -15.789  35.647  1.00  0.00    -0.491 OA
BRANCH  58  59
ATOM     59  C   UNL     1       0.891 -15.157  36.450  1.00  0.00     0.257 C 
BRANCH  59  60
ATOM     60  C   UNL     1       1.513 -14.008  37.239  1.00  0.00     0.197 C 
BRANCH  60  61
ATOM     61  O   UNL     1       1.167 -14.099  38.596  1.00  0.00    -0.393 OA
ATOM     62  H   UNL     1       1.265 -13.186  38.967  1.00  0.00     0.210 HD
ENDBRANCH  60  61
ENDBRANCH  59  60
ENDBRANCH  58  59
ENDBRANCH   6  58
TORSDOF 25
ENDMDL
MODEL 6
REMARK VINA RESULT:    -7.385      2.165      5.486
REMARK INTER + INTRA:         -19.496
REMARK INTER:                 -16.428
REMARK INTRA:                  -3.068
REMARK UNBOUND:                -3.476
REMARK SMILES C[C@H]1O[C@H](OC[C@@H]2O[C@@H](Oc3c(-c4ccc(OCCO)c(OCCO)c4)oc4cc(OCCO)cc(O)c4c3=O)[C@H](O)[C@@H](O)[C@H]2O)[C@H](O)[C@@H](O)[C@@H]1O
REMARK SMILES IDX 11 1 12 2 27 3 28 4 29 5 30 6 35 7 36 8 38 9 39 10 40 11
REMARK SMILES IDX 10 12 9 13 7 14 45 15 8 16 43 17 41 18 6 19 5 20 4 21 1 22
REMARK SMILES IDX 2 23 51 24 3 25 49 26 47 27 52 28 50 30 48 32 46 34 44 36
REMARK SMILES IDX 42 38 13 40 26 41 14 42 21 43 15 44 16 45 22 46 23 47 24 48
REMARK SMILES IDX 25 49 17 51 18 52 19 53 20 54 37 56 31 58 32 59 33 60 34 61
REMARK H PARENT 52 29 50 31 48 33 46 35 44 37 42 39 25 50 20 55 37 57 34 62
REMARK Flexibility Score: inf
ROOT
ATOM      1  C   UNL     1      -3.146 -13.798  29.551  1.00  0.00     0.214 A 
ATOM      2  C   UNL     1      -3.253 -14.069  28.167  1.00  0.00     0.180 A 
ATOM      3  O   UNL     1      -4.430 -14.399  27.642  1.00  0.00    -0.452 OA
ATOM      4  C   UNL     1      -5.537 -14.519  28.355  1.00  0.00     0.146 A 
ATOM      5  C   UNL     1      -6.719 -14.888  27.702  1.00  0.00     0.094 A 
ATOM      6  C   UNL     1      -7.919 -15.017  28.419  1.00  0.00     0.126 A 
ATOM      7  C   UNL     1      -7.927 -14.763  29.792  1.00  0.00     0.093 A 
ATOM      8  C   UNL     1      -6.753 -14.400  30.465  1.00  0.00     0.134 A 
ATOM      9  C   UNL     1      -5.532 -14.274  29.748  1.00  0.00     0.111 A 
ATOM     10  C   UNL     1      -4.311 -13.903  30.350  1.00  0.00     0.239 A 
ATOM     11  O   UNL     1      -4.264 -13.664  31.584  1.00  0.00    -0.285 OA
ENDROOT
BRANCH   1  12
ATOM     12  O   UNL     1      -1.877 -13.411  30.031  1.00  0.00    -0.454 OA
BRANCH  12  13
ATOM     13  C   UNL     1      -0.761 -14.192  30.464  1.00  0.00     0.339 C 
ATOM     14  C   UNL     1      -0.081 -16.387  31.041  1.00  0.00     0.180 C 
ATOM     15  C   UNL     1       1.253 -15.699  31.491  1.00  0.00     0.177 C 
ATOM     16  O   UNL     1      -1.174 -15.483  30.884  1.00  0.00    -0.332 OA
ATOM     17  C   UNL     1       0.950 -14.452  32.345  1.00  0.00     0.180 C 
ATOM     18  C   UNL     1       0.046 -13.461  31.559  1.00  0.00     0.214 C 
BRANCH  14  19
ATOM     19  C   UNL     1       0.080 -17.213  29.751  1.00  0.00     0.198 C 
BRANCH  19  20
ATOM     20  O   UNL     1       0.665 -18.487  29.981  1.00  0.00    -0.347 OA
BRANCH  20  21
ATOM     21  C   UNL     1      -0.268 -19.545  29.821  1.00  0.00     0.281 C 
ATOM     22  C   UNL     1      -0.910 -21.649  27.346  1.00  0.00     0.041 C 
ATOM     23  C   UNL     1      -0.598 -21.676  28.846  1.00  0.00     0.150 C 
ATOM     24  C   UNL     1      -1.918 -21.673  29.688  1.00  0.00     0.174 C 
ATOM     25  O   UNL     1       0.331 -20.636  29.145  1.00  0.00    -0.344 OA
ATOM     26  C   UNL     1      -1.632 -21.261  31.139  1.00  0.00     0.179 C 
ATOM     27  C   UNL     1      -0.710 -20.017  31.220  1.00  0.00     0.202 C 
BRANCH  24  28
ATOM     28  O   UNL     1      -2.509 -22.950  29.671  1.00  0.00    -0.388 OA
ATOM     29  H   UNL     1      -3.488 -22.846  29.703  1.00  0.00     0.211 HD
ENDBRANCH  24  28
BRANCH  26  30
ATOM     30  O   UNL     1      -2.851 -21.006  31.786  1.00  0.00    -0.387 OA
ATOM     31  H   UNL     1      -3.560 -21.021  31.090  1.00  0.00     0.211 HD
ENDBRANCH  26  30
BRANCH  27  32
ATOM     32  O   UNL     1       0.433 -20.351  31.970  1.00  0.00    -0.385 OA
ATOM     33  H   UNL     1       0.288 -21.263  32.325  1.00  0.00     0.211 HD
ENDBRANCH  27  32
ENDBRANCH  20  21
ENDBRANCH  19  20
ENDBRANCH  14  19
BRANCH  15  34
ATOM     34  O   UNL     1       2.101 -16.600  32.162  1.00  0.00    -0.387 OA
ATOM     35  H   UNL     1       2.955 -16.138  32.363  1.00  0.00     0.211 HD
ENDBRANCH  15  34
BRANCH  17  36
ATOM     36  O   UNL     1       0.290 -14.834  33.528  1.00  0.00    -0.387 OA
ATOM     37  H   UNL     1      -0.299 -15.606  33.322  1.00  0.00     0.211 HD
ENDBRANCH  17  36
BRANCH  18  38
ATOM     38  O   UNL     1       0.801 -12.422  30.984  1.00  0.00    -0.384 OA
ATOM     39  H   UNL     1       1.266 -11.948  31.721  1.00  0.00     0.211 HD
ENDBRANCH  18  38
ENDBRANCH  12  13
ENDBRANCH   1  12
BRANCH   2  40
ATOM     40  C   UNL     1      -2.088 -13.938  27.257  1.00  0.00     0.025 A 
ATOM     41  C   UNL     1      -1.525 -15.093  26.702  1.00  0.00     0.062 A 
ATOM     42  C   UNL     1      -1.508 -12.692  26.964  1.00  0.00     0.016 A 
ATOM     43  C   UNL     1      -0.448 -15.006  25.796  1.00  0.00     0.162 A 
ATOM     44  C   UNL     1      -0.441 -12.597  26.068  1.00  0.00     0.051 A 
ATOM     45  C   UNL     1       0.072 -13.750  25.454  1.00  0.00     0.161 A 
BRANCH  43  46
ATOM     46  O   UNL     1       0.132 -16.142  25.208  1.00  0.00    -0.487 OA
BRANCH  46  47
ATOM     47  C   UNL     1      -0.533 -17.383  24.965  1.00  0.00     0.258 C 
BRANCH  47  48
ATOM     48  C   UNL     1      -0.854 -17.546  23.478  1.00  0.00     0.197 C 
BRANCH  48  49
ATOM     49  O   UNL     1      -1.897 -16.691  23.104  1.00  0.00    -0.393 OA
ATOM     50  H   UNL     1      -1.537 -16.097  22.390  1.00  0.00     0.210 HD
ENDBRANCH  48  49
ENDBRANCH  47  48
ENDBRANCH  46  47
ENDBRANCH  43  46
BRANCH  45  51
ATOM     51  O   UNL     1       1.098 -13.682  24.492  1.00  0.00    -0.487 OA
BRANCH  51  52
ATOM     52  C   UNL     1       2.439 -13.284  24.757  1.00  0.00     0.258 C 
BRANCH  52  53
ATOM     53  C   UNL     1       3.000 -14.082  25.927  1.00  0.00     0.197 C 
BRANCH  53  54
ATOM     54  O   UNL     1       3.106 -15.428  25.563  1.00  0.00    -0.393 OA
ATOM     55  H   UNL     1       2.215 -15.691  25.192  1.00  0.00     0.210 HD
ENDBRANCH  53  54
ENDBRANCH  52  53
ENDBRANCH  51  52
ENDBRANCH  45  51
ENDBRANCH   2  40
BRANCH   8  56
ATOM     56  O   UNL     1      -6.806 -14.154  31.836  1.00  0.00    -0.507 OA
ATOM     57  H   UNL     1      -6.614 -13.237  32.226  1.00  0.00     0.293 HD
ENDBRANCH   8  56
BRANCH   6  58
ATOM     58  O   UNL     1      -9.121 -15.395  27.803  1.00  0.00    -0.491 OA
BRANCH  58  59
ATOM     59  C   UNL     1      -9.534 -14.963  26.509  1.00  0.00     0.257 C 
BRANCH  59  60
ATOM     60  C   UNL     1     -11.017 -15.257  26.310  1.00  0.00     0.197 C 
BRANCH  60  61
ATOM     61  O   UNL     1     -11.484 -16.131  27.305  1.00  0.00    -0.393 OA
ATOM     62  H   UNL     1     -12.173 -16.696  26.874  1.00  0.00     0.210 HD
ENDBRANCH  60  61
ENDBRANCH  59  60
ENDBRANCH  58  59
ENDBRANCH   6  58
TORSDOF 25
ENDMDL
MODEL 7
REMARK VINA RESULT:    -7.358      1.806      5.501
REMARK INTER + INTRA:         -19.437
REMARK INTER:                 -15.532
REMARK INTRA:                  -3.906
REMARK UNBOUND:                -3.476
REMARK SMILES C[C@H]1O[C@H](OC[C@@H]2O[C@@H](Oc3c(-c4ccc(OCCO)c(OCCO)c4)oc4cc(OCCO)cc(O)c4c3=O)[C@H](O)[C@@H](O)[C@H]2O)[C@H](O)[C@@H](O)[C@@H]1O
REMARK SMILES IDX 11 1 12 2 27 3 28 4 29 5 30 6 35 7 36 8 38 9 39 10 40 11
REMARK SMILES IDX 10 12 9 13 7 14 45 15 8 16 43 17 41 18 6 19 5 20 4 21 1 22
REMARK SMILES IDX 2 23 51 24 3 25 49 26 47 27 52 28 50 30 48 32 46 34 44 36
REMARK SMILES IDX 42 38 13 40 26 41 14 42 21 43 15 44 16 45 22 46 23 47 24 48
REMARK SMILES IDX 25 49 17 51 18 52 19 53 20 54 37 56 31 58 32 59 33 60 34 61
REMARK H PARENT 52 29 50 31 48 33 46 35 44 37 42 39 25 50 20 55 37 57 34 62
REMARK Flexibility Score: inf
ROOT
ATOM      1  C   UNL     1      -3.011 -13.142  30.620  1.00  0.00     0.214 A 
ATOM      2  C   UNL     1      -3.263 -13.322  29.240  1.00  0.00     0.180 A 
ATOM      3  O   UNL     1      -4.438 -13.793  28.834  1.00  0.00    -0.452 OA
ATOM      4  C   UNL     1      -5.408 -14.140  29.663  1.00  0.00     0.146 A 
ATOM      5  C   UNL     1      -6.601 -14.641  29.127  1.00  0.00     0.094 A 
ATOM      6  C   UNL     1      -7.661 -15.011  29.970  1.00  0.00     0.126 A 
ATOM      7  C   UNL     1      -7.520 -14.865  31.351  1.00  0.00     0.093 A 
ATOM      8  C   UNL     1      -6.332 -14.373  31.907  1.00  0.00     0.134 A 
ATOM      9  C   UNL     1      -5.252 -14.002  31.061  1.00  0.00     0.111 A 
ATOM     10  C   UNL     1      -4.028 -13.490  31.542  1.00  0.00     0.239 A 
ATOM     11  O   UNL     1      -3.850 -13.339  32.778  1.00  0.00    -0.285 OA
ENDROOT
BRANCH   1  12
ATOM     12  O   UNL     1      -1.759 -12.597  30.976  1.00  0.00    -0.454 OA
BRANCH  12  13
ATOM     13  C   UNL     1      -0.625 -13.190  31.613  1.00  0.00     0.339 C 
ATOM     14  C   UNL     1       0.417 -15.260  32.105  1.00  0.00     0.180 C 
ATOM     15  C   UNL     1       1.385 -14.398  32.985  1.00  0.00     0.177 C 
ATOM     16  O   UNL     1      -0.794 -14.592  31.751  1.00  0.00    -0.332 OA
ATOM     17  C   UNL     1       0.579 -13.413  33.857  1.00  0.00     0.180 C 
ATOM     18  C   UNL     1      -0.321 -12.511  32.966  1.00  0.00     0.214 C 
BRANCH  14  19
ATOM     19  C   UNL     1       1.091 -15.793  30.826  1.00  0.00     0.198 C 
BRANCH  19  20
ATOM     20  O   UNL     1       0.213 -15.819  29.710  1.00  0.00    -0.347 OA
BRANCH  20  21
ATOM     21  C   UNL     1      -0.207 -17.136  29.385  1.00  0.00     0.281 C 
ATOM     22  C   UNL     1       0.990 -20.139  30.096  1.00  0.00     0.041 C 
ATOM     23  C   UNL     1      -0.326 -19.360  30.184  1.00  0.00     0.150 C 
ATOM     24  C   UNL     1      -1.198 -19.597  28.906  1.00  0.00     0.174 C 
ATOM     25  O   UNL     1      -0.038 -17.998  30.496  1.00  0.00    -0.344 OA
ATOM     26  C   UNL     1      -2.276 -18.511  28.779  1.00  0.00     0.179 C 
ATOM     27  C   UNL     1      -1.704 -17.091  29.022  1.00  0.00     0.202 C 
BRANCH  24  28
ATOM     28  O   UNL     1      -1.812 -20.862  28.963  1.00  0.00    -0.388 OA
ATOM     29  H   UNL     1      -1.702 -21.305  28.090  1.00  0.00     0.211 HD
ENDBRANCH  24  28
BRANCH  26  30
ATOM     30  O   UNL     1      -2.853 -18.592  27.502  1.00  0.00    -0.387 OA
ATOM     31  H   UNL     1      -3.212 -17.692  27.286  1.00  0.00     0.211 HD
ENDBRANCH  26  30
BRANCH  27  32
ATOM     32  O   UNL     1      -2.412 -16.494  30.080  1.00  0.00    -0.385 OA
ATOM     33  H   UNL     1      -3.364 -16.468  29.812  1.00  0.00     0.211 HD
ENDBRANCH  27  32
ENDBRANCH  20  21
ENDBRANCH  19  20
ENDBRANCH  14  19
BRANCH  15  34
ATOM     34  O   UNL     1       2.238 -15.205  33.761  1.00  0.00    -0.387 OA
ATOM     35  H   UNL     1       1.918 -15.190  34.699  1.00  0.00     0.211 HD
ENDBRANCH  15  34
BRANCH  17  36
ATOM     36  O   UNL     1      -0.234 -14.127  34.756  1.00  0.00    -0.387 OA
ATOM     37  H   UNL     1      -1.183 -13.981  34.503  1.00  0.00     0.211 HD
ENDBRANCH  17  36
BRANCH  18  38
ATOM     38  O   UNL     1       0.268 -11.251  32.748  1.00  0.00    -0.384 OA
ATOM     39  H   UNL     1       0.918 -11.095  33.481  1.00  0.00     0.211 HD
ENDBRANCH  18  38
ENDBRANCH  12  13
ENDBRANCH   1  12
BRANCH   2  40
ATOM     40  C   UNL     1      -2.263 -12.942  28.211  1.00  0.00     0.025 A 
ATOM     41  C   UNL     1      -1.759 -13.926  27.355  1.00  0.00     0.062 A 
ATOM     42  C   UNL     1      -1.778 -11.627  28.095  1.00  0.00     0.016 A 
ATOM     43  C   UNL     1      -0.845 -13.595  26.333  1.00  0.00     0.162 A 
ATOM     44  C   UNL     1      -0.872 -11.290  27.086  1.00  0.00     0.051 A 
ATOM     45  C   UNL     1      -0.428 -12.266  26.180  1.00  0.00     0.161 A 
BRANCH  43  46
ATOM     46  O   UNL     1      -0.330 -14.554  25.447  1.00  0.00    -0.487 OA
BRANCH  46  47
ATOM     47  C   UNL     1      -0.150 -15.942  25.736  1.00  0.00     0.258 C 
BRANCH  47  48
ATOM     48  C   UNL     1      -0.858 -16.811  24.694  1.00  0.00     0.197 C 
BRANCH  48  49
ATOM     49  O   UNL     1      -1.837 -16.071  24.021  1.00  0.00    -0.393 OA
ATOM     50  H   UNL     1      -2.307 -16.706  23.415  1.00  0.00     0.210 HD
ENDBRANCH  48  49
ENDBRANCH  47  48
ENDBRANCH  46  47
ENDBRANCH  43  46
BRANCH  45  51
ATOM     51  O   UNL     1       0.428 -11.945  25.109  1.00  0.00    -0.487 OA
BRANCH  51  52
ATOM     52  C   UNL     1       1.807 -11.613  25.238  1.00  0.00     0.258 C 
BRANCH  52  53
ATOM     53  C   UNL     1       2.660 -12.870  25.127  1.00  0.00     0.197 C 
BRANCH  53  54
ATOM     54  O   UNL     1       2.126 -13.708  24.143  1.00  0.00    -0.393 OA
ATOM     55  H   UNL     1       2.823 -13.783  23.429  1.00  0.00     0.210 HD
ENDBRANCH  53  54
ENDBRANCH  52  53
ENDBRANCH  51  52
ENDBRANCH  45  51
ENDBRANCH   2  40
BRANCH   8  56
ATOM     56  O   UNL     1      -6.235 -14.241  33.291  1.00  0.00    -0.507 OA
ATOM     57  H   UNL     1      -6.971 -13.815  33.845  1.00  0.00     0.293 HD
ENDBRANCH   8  56
BRANCH   6  58
ATOM     58  O   UNL     1      -8.867 -15.527  29.472  1.00  0.00    -0.491 OA
BRANCH  58  59
ATOM     59  C   UNL     1      -9.742 -16.381  30.204  1.00  0.00     0.257 C 
BRANCH  59  60
ATOM     60  C   UNL     1     -10.961 -16.728  29.356  1.00  0.00     0.197 C 
BRANCH  60  61
ATOM     61  O   UNL     1     -11.005 -15.928  28.204  1.00  0.00    -0.393 OA
ATOM     62  H   UNL     1     -11.055 -16.552  27.437  1.00  0.00     0.210 HD
ENDBRANCH  60  61
ENDBRANCH  59  60
ENDBRANCH  58  59
ENDBRANCH   6  58
TORSDOF 25
ENDMDL
MODEL 8
REMARK VINA RESULT:    -7.354      2.282      6.811
REMARK INTER + INTRA:         -19.429
REMARK INTER:                 -16.368
REMARK INTRA:                  -3.061
REMARK UNBOUND:                -3.476
REMARK SMILES C[C@H]1O[C@H](OC[C@@H]2O[C@@H](Oc3c(-c4ccc(OCCO)c(OCCO)c4)oc4cc(OCCO)cc(O)c4c3=O)[C@H](O)[C@@H](O)[C@H]2O)[C@H](O)[C@@H](O)[C@@H]1O
REMARK SMILES IDX 11 1 12 2 27 3 28 4 29 5 30 6 35 7 36 8 38 9 39 10 40 11
REMARK SMILES IDX 10 12 9 13 7 14 45 15 8 16 43 17 41 18 6 19 5 20 4 21 1 22
REMARK SMILES IDX 2 23 51 24 3 25 49 26 47 27 52 28 50 30 48 32 46 34 44 36
REMARK SMILES IDX 42 38 13 40 26 41 14 42 21 43 15 44 16 45 22 46 23 47 24 48
REMARK SMILES IDX 25 49 17 51 18 52 19 53 20 54 37 56 31 58 32 59 33 60 34 61
REMARK H PARENT 52 29 50 31 48 33 46 35 44 37 42 39 25 50 20 55 37 57 34 62
REMARK Flexibility Score: inf
ROOT
ATOM      1  C   UNL     1       0.089 -17.382  28.831  1.00  0.00     0.214 A 
ATOM      2  C   UNL     1      -0.164 -17.670  30.193  1.00  0.00     0.180 A 
ATOM      3  O   UNL     1      -0.624 -18.867  30.545  1.00  0.00    -0.452 OA
ATOM      4  C   UNL     1      -0.893 -19.828  29.678  1.00  0.00     0.146 A 
ATOM      5  C   UNL     1      -1.390 -21.046  30.157  1.00  0.00     0.094 A 
ATOM      6  C   UNL     1      -1.679 -22.096  29.272  1.00  0.00     0.126 A 
ATOM      7  C   UNL     1      -1.456 -21.920  27.905  1.00  0.00     0.093 A 
ATOM      8  C   UNL     1      -0.967 -20.706  27.405  1.00  0.00     0.134 A 
ATOM      9  C   UNL     1      -0.678 -19.636  28.293  1.00  0.00     0.111 A 
ATOM     10  C   UNL     1      -0.174 -18.388  27.870  1.00  0.00     0.239 A 
ATOM     11  O   UNL     1       0.043 -18.177  26.649  1.00  0.00    -0.285 OA
ENDROOT
BRANCH   1  12
ATOM     12  O   UNL     1       0.617 -16.107  28.535  1.00  0.00    -0.454 OA
BRANCH  12  13
ATOM     13  C   UNL     1       0.050 -14.997  27.838  1.00  0.00     0.339 C 
ATOM     14  C   UNL     1      -1.977 -13.845  27.418  1.00  0.00     0.180 C 
ATOM     15  C   UNL     1      -1.134 -13.038  26.373  1.00  0.00     0.177 C 
ATOM     16  O   UNL     1      -1.367 -15.065  27.837  1.00  0.00    -0.332 OA
ATOM     17  C   UNL     1      -0.293 -14.000  25.509  1.00  0.00     0.180 C 
ATOM     18  C   UNL     1       0.621 -14.879  26.407  1.00  0.00     0.214 C 
BRANCH  14  19
ATOM     19  C   UNL     1      -2.342 -13.011  28.661  1.00  0.00     0.198 C 
BRANCH  19  20
ATOM     20  O   UNL     1      -3.729 -12.716  28.740  1.00  0.00    -0.347 OA
BRANCH  20  21
ATOM     21  C   UNL     1      -4.276 -13.032  30.012  1.00  0.00     0.281 C 
ATOM     22  C   UNL     1      -4.021 -11.635  33.002  1.00  0.00     0.041 C 
ATOM     23  C   UNL     1      -5.104 -12.104  32.025  1.00  0.00     0.150 C 
ATOM     24  C   UNL     1      -5.530 -13.579  32.335  1.00  0.00     0.174 C 
ATOM     25  O   UNL     1      -4.665 -11.852  30.691  1.00  0.00    -0.344 OA
ATOM     26  C   UNL     1      -6.260 -14.194  31.132  1.00  0.00     0.179 C 
ATOM     27  C   UNL     1      -5.524 -13.909  29.797  1.00  0.00     0.202 C 
BRANCH  24  28
ATOM     28  O   UNL     1      -6.371 -13.615  33.462  1.00  0.00    -0.388 OA
ATOM     29  H   UNL     1      -7.265 -13.295  33.199  1.00  0.00     0.211 HD
ENDBRANCH  24  28
BRANCH  26  30
ATOM     30  O   UNL     1      -6.383 -15.577  31.336  1.00  0.00    -0.387 OA
ATOM     31  H   UNL     1      -5.576 -15.871  31.834  1.00  0.00     0.211 HD
ENDBRANCH  26  30
BRANCH  27  32
ATOM     32  O   UNL     1      -6.407 -13.242  28.929  1.00  0.00    -0.385 OA
ATOM     33  H   UNL     1      -7.271 -13.721  28.971  1.00  0.00     0.211 HD
ENDBRANCH  27  32
ENDBRANCH  20  21
ENDBRANCH  19  20
ENDBRANCH  14  19
BRANCH  15  34
ATOM     34  O   UNL     1      -1.947 -12.202  25.585  1.00  0.00    -0.387 OA
ATOM     35  H   UNL     1      -1.673 -11.262  25.738  1.00  0.00     0.211 HD
ENDBRANCH  15  34
BRANCH  17  36
ATOM     36  O   UNL     1      -1.143 -14.836  24.762  1.00  0.00    -0.387 OA
ATOM     37  H   UNL     1      -1.164 -14.507  23.826  1.00  0.00     0.211 HD
ENDBRANCH  17  36
BRANCH  18  38
ATOM     38  O   UNL     1       1.934 -14.374  26.457  1.00  0.00    -0.384 OA
ATOM     39  H   UNL     1       2.072 -13.991  27.361  1.00  0.00     0.211 HD
ENDBRANCH  18  38
ENDBRANCH  12  13
ENDBRANCH   1  12
BRANCH   2  40
ATOM     40  C   UNL     1       0.126 -16.684  31.264  1.00  0.00     0.025 A 
ATOM     41  C   UNL     1      -0.560 -15.465  31.271  1.00  0.00     0.062 A 
ATOM     42  C   UNL     1       1.098 -16.922  32.251  1.00  0.00     0.016 A 
ATOM     43  C   UNL     1      -0.347 -14.523  32.298  1.00  0.00     0.162 A 
ATOM     44  C   UNL     1       1.316 -15.995  33.273  1.00  0.00     0.051 A 
ATOM     45  C   UNL     1       0.570 -14.806  33.320  1.00  0.00     0.161 A 
BRANCH  43  46
ATOM     46  O   UNL     1      -1.028 -13.297  32.346  1.00  0.00    -0.487 OA
BRANCH  46  47
ATOM     47  C   UNL     1      -0.591 -12.079  31.739  1.00  0.00     0.258 C 
BRANCH  47  48
ATOM     48  C   UNL     1      -0.360 -10.997  32.795  1.00  0.00     0.197 C 
BRANCH  48  49
ATOM     49  O   UNL     1       0.883 -11.172  33.414  1.00  0.00    -0.393 OA
ATOM     50  H   UNL     1       0.721 -11.124  34.395  1.00  0.00     0.210 HD
ENDBRANCH  48  49
ENDBRANCH  47  48
ENDBRANCH  46  47
ENDBRANCH  43  46
BRANCH  45  51
ATOM     51  O   UNL     1       0.714 -13.886  34.375  1.00  0.00    -0.487 OA
BRANCH  51  52
ATOM     52  C   UNL     1       1.476 -14.111  35.557  1.00  0.00     0.258 C 
BRANCH  52  53
ATOM     53  C   UNL     1       0.603 -14.755  36.626  1.00  0.00     0.197 C 
BRANCH  53  54
ATOM     54  O   UNL     1       1.114 -14.447  37.891  1.00  0.00    -0.393 OA
ATOM     55  H   UNL     1       0.396 -14.678  38.548  1.00  0.00     0.210 HD
ENDBRANCH  53  54
ENDBRANCH  52  53
ENDBRANCH  51  52
ENDBRANCH  45  51
ENDBRANCH   2  40
BRANCH   8  56
ATOM     56  O   UNL     1      -0.758 -20.574  26.033  1.00  0.00    -0.507 OA
ATOM     57  H   UNL     1      -1.440 -20.891  25.351  1.00  0.00     0.293 HD
ENDBRANCH   8  56
BRANCH   6  58
ATOM     58  O   UNL     1      -2.188 -23.326  29.713  1.00  0.00    -0.491 OA
BRANCH  58  59
ATOM     59  C   UNL     1      -1.457 -24.269  30.493  1.00  0.00     0.257 C 
BRANCH  59  60
ATOM     60  C   UNL     1      -2.220 -24.589  31.774  1.00  0.00     0.197 C 
BRANCH  60  61
ATOM     61  O   UNL     1      -2.686 -23.411  32.378  1.00  0.00    -0.393 OA
ATOM     62  H   UNL     1      -2.415 -23.463  33.329  1.00  0.00     0.210 HD
ENDBRANCH  60  61
ENDBRANCH  59  60
ENDBRANCH  58  59
ENDBRANCH   6  58
TORSDOF 25
ENDMDL
MODEL 9
REMARK VINA RESULT:    -7.329      3.275      8.014
REMARK INTER + INTRA:         -19.374
REMARK INTER:                 -15.015
REMARK INTRA:                  -4.359
REMARK UNBOUND:                -3.476
REMARK SMILES C[C@H]1O[C@H](OC[C@@H]2O[C@@H](Oc3c(-c4ccc(OCCO)c(OCCO)c4)oc4cc(OCCO)cc(O)c4c3=O)[C@H](O)[C@@H](O)[C@H]2O)[C@H](O)[C@@H](O)[C@@H]1O
REMARK SMILES IDX 11 1 12 2 27 3 28 4 29 5 30 6 35 7 36 8 38 9 39 10 40 11
REMARK SMILES IDX 10 12 9 13 7 14 45 15 8 16 43 17 41 18 6 19 5 20 4 21 1 22
REMARK SMILES IDX 2 23 51 24 3 25 49 26 47 27 52 28 50 30 48 32 46 34 44 36
REMARK SMILES IDX 42 38 13 40 26 41 14 42 21 43 15 44 16 45 22 46 23 47 24 48
REMARK SMILES IDX 25 49 17 51 18 52 19 53 20 54 37 56 31 58 32 59 33 60 34 61
REMARK H PARENT 52 29 50 31 48 33 46 35 44 37 42 39 25 50 20 55 37 57 34 62
REMARK Flexibility Score: inf
ROOT
ATOM      1  C   UNL     1      -0.526 -18.309  30.053  1.00  0.00     0.214 A 
ATOM      2  C   UNL     1       0.362 -18.699  31.084  1.00  0.00     0.180 A 
ATOM      3  O   UNL     1       0.681 -17.839  32.047  1.00  0.00    -0.452 OA
ATOM      4  C   UNL     1       0.230 -16.597  32.093  1.00  0.00     0.146 A 
ATOM      5  C   UNL     1       0.644 -15.771  33.145  1.00  0.00     0.094 A 
ATOM      6  C   UNL     1       0.180 -14.450  33.239  1.00  0.00     0.126 A 
ATOM      7  C   UNL     1      -0.709 -13.966  32.277  1.00  0.00     0.093 A 
ATOM      8  C   UNL     1      -1.129 -14.775  31.212  1.00  0.00     0.134 A 
ATOM      9  C   UNL     1      -0.659 -16.112  31.107  1.00  0.00     0.111 A 
ATOM     10  C   UNL     1      -1.042 -16.991  30.072  1.00  0.00     0.239 A 
ATOM     11  O   UNL     1      -1.841 -16.605  29.179  1.00  0.00    -0.285 OA
ENDROOT
BRANCH   1  12
ATOM     12  O   UNL     1      -0.854 -19.286  29.089  1.00  0.00    -0.454 OA
BRANCH  12  13
ATOM     13  C   UNL     1      -0.347 -19.509  27.771  1.00  0.00     0.339 C 
ATOM     14  C   UNL     1      -0.302 -18.627  25.573  1.00  0.00     0.180 C 
ATOM     15  C   UNL     1       0.397 -19.978  25.201  1.00  0.00     0.177 C 
ATOM     16  O   UNL     1      -0.974 -18.651  26.832  1.00  0.00    -0.332 OA
ATOM     17  C   UNL     1      -0.366 -21.165  25.824  1.00  0.00     0.180 C 
ATOM     18  C   UNL     1      -0.471 -20.994  27.366  1.00  0.00     0.214 C 
BRANCH  14  19
ATOM     19  C   UNL     1       0.663 -17.427  25.539  1.00  0.00     0.198 C 
BRANCH  19  20
ATOM     20  O   UNL     1       0.169 -16.345  24.762  1.00  0.00    -0.347 OA
BRANCH  20  21
ATOM     21  C   UNL     1      -0.297 -15.272  25.567  1.00  0.00     0.281 C 
ATOM     22  C   UNL     1       1.004 -12.353  26.432  1.00  0.00     0.041 C 
ATOM     23  C   UNL     1      -0.282 -12.919  25.819  1.00  0.00     0.150 C 
ATOM     24  C   UNL     1      -1.350 -13.197  26.929  1.00  0.00     0.174 C 
ATOM     25  O   UNL     1       0.051 -14.029  24.986  1.00  0.00    -0.344 OA
ATOM     26  C   UNL     1      -2.436 -14.149  26.407  1.00  0.00     0.179 C 
ATOM     27  C   UNL     1      -1.833 -15.361  25.651  1.00  0.00     0.202 C 
BRANCH  24  28
ATOM     28  O   UNL     1      -1.945 -11.992  27.345  1.00  0.00    -0.388 OA
ATOM     29  H   UNL     1      -2.368 -11.564  26.565  1.00  0.00     0.211 HD
ENDBRANCH  24  28
BRANCH  26  30
ATOM     30  O   UNL     1      -3.213 -14.588  27.491  1.00  0.00    -0.387 OA
ATOM     31  H   UNL     1      -2.637 -15.181  28.041  1.00  0.00     0.211 HD
ENDBRANCH  26  30
BRANCH  27  32
ATOM     32  O   UNL     1      -2.360 -15.388  24.347  1.00  0.00    -0.385 OA
ATOM     33  H   UNL     1      -3.245 -14.947  24.385  1.00  0.00     0.211 HD
ENDBRANCH  27  32
ENDBRANCH  20  21
ENDBRANCH  19  20
ENDBRANCH  14  19
BRANCH  15  34
ATOM     34  O   UNL     1       0.541 -20.122  23.808  1.00  0.00    -0.387 OA
ATOM     35  H   UNL     1       1.490 -20.329  23.609  1.00  0.00     0.211 HD
ENDBRANCH  15  34
BRANCH  17  36
ATOM     36  O   UNL     1      -1.663 -21.234  25.281  1.00  0.00    -0.387 OA
ATOM     37  H   UNL     1      -1.705 -22.017  24.673  1.00  0.00     0.211 HD
ENDBRANCH  17  36
BRANCH  18  38
ATOM     38  O   UNL     1       0.505 -21.756  28.035  1.00  0.00    -0.384 OA
ATOM     39  H   UNL     1       0.492 -21.485  28.989  1.00  0.00     0.211 HD
ENDBRANCH  18  38
ENDBRANCH  12  13
ENDBRANCH   1  12
BRANCH   2  40
ATOM     40  C   UNL     1       0.913 -20.075  31.158  1.00  0.00     0.025 A 
ATOM     41  C   UNL     1       0.095 -21.111  31.621  1.00  0.00     0.062 A 
ATOM     42  C   UNL     1       2.244 -20.363  30.812  1.00  0.00     0.016 A 
ATOM     43  C   UNL     1       0.566 -22.440  31.659  1.00  0.00     0.162 A 
ATOM     44  C   UNL     1       2.720 -21.676  30.848  1.00  0.00     0.051 A 
ATOM     45  C   UNL     1       1.873 -22.725  31.239  1.00  0.00     0.161 A 
BRANCH  43  46
ATOM     46  O   UNL     1      -0.230 -23.506  32.103  1.00  0.00    -0.487 OA
BRANCH  46  47
ATOM     47  C   UNL     1      -1.657 -23.505  32.175  1.00  0.00     0.258 C 
BRANCH  47  48
ATOM     48  C   UNL     1      -2.254 -24.492  31.170  1.00  0.00     0.197 C 
BRANCH  48  49
ATOM     49  O   UNL     1      -2.346 -23.906  29.902  1.00  0.00    -0.393 OA
ATOM     50  H   UNL     1      -1.818 -23.063  29.939  1.00  0.00     0.210 HD
ENDBRANCH  48  49
ENDBRANCH  47  48
ENDBRANCH  46  47
ENDBRANCH  43  46
BRANCH  45  51
ATOM     51  O   UNL     1       2.300 -24.066  31.217  1.00  0.00    -0.487 OA
BRANCH  51  52
ATOM     52  C   UNL     1       2.466 -24.850  30.040  1.00  0.00     0.258 C 
BRANCH  52  53
ATOM     53  C   UNL     1       1.149 -25.514  29.663  1.00  0.00     0.197 C 
BRANCH  53  54
ATOM     54  O   UNL     1       0.418 -24.659  28.833  1.00  0.00    -0.393 OA
ATOM     55  H   UNL     1       0.210 -25.181  28.005  1.00  0.00     0.210 HD
ENDBRANCH  53  54
ENDBRANCH  52  53
ENDBRANCH  51  52
ENDBRANCH  45  51
ENDBRANCH   2  40
BRANCH   8  56
ATOM     56  O   UNL     1      -2.019 -14.253  30.275  1.00  0.00    -0.507 OA
ATOM     57  H   UNL     1      -2.994 -14.533  30.244  1.00  0.00     0.293 HD
ENDBRANCH   8  56
BRANCH   6  58
ATOM     58  O   UNL     1       0.580 -13.589  34.271  1.00  0.00    -0.491 OA
BRANCH  58  59
ATOM     59  C   UNL     1       1.479 -13.947  35.318  1.00  0.00     0.257 C 
BRANCH  59  60
ATOM     60  C   UNL     1       0.696 -14.375  36.555  1.00  0.00     0.197 C 
BRANCH  60  61
ATOM     61  O   UNL     1       0.755 -15.768  36.718  1.00  0.00    -0.393 OA
ATOM     62  H   UNL     1       0.169 -15.980  37.488  1.00  0.00     0.210 HD
ENDBRANCH  60  61
ENDBRANCH  59  60
ENDBRANCH  58  59
ENDBRANCH   6  58
TORSDOF 25
ENDMDL
