MODEL 1
REMARK VINA RESULT:     0.286      0.000      0.000
REMARK INTER + INTRA:           0.286
REMARK INTER:                   0.286
REMARK INTRA:                   0.000
REMARK UNBOUND:                 0.000
REMARK SMILES C=C1CC[C@H]2C[C@@H]1C2(C)C
REMARK SMILES IDX 9 1 8 2 5 3 4 4 3 5 2 6 1 7 7 8 6 9 10 10
REMARK H PARENT
REMARK Flexibility Score: inf
ROOT
ATOM      1  C   UNL     1     -16.363  -1.790  15.388  1.00  0.00     0.012 C 
ATOM      2  C   UNL     1     -15.703  -1.699  16.790  1.00  0.00    -0.026 C 
ATOM      3  C   UNL     1     -15.590  -2.989  17.644  1.00  0.00    -0.004 C 
ATOM      4  C   UNL     1     -15.297  -4.233  16.746  1.00  0.00     0.008 C 
ATOM      5  C   UNL     1     -14.073  -4.006  15.780  1.00  0.00     0.031 C 
ATOM      6  C   UNL     1     -13.557  -2.559  15.820  1.00  0.00    -0.074 C 
ATOM      7  C   UNL     1     -12.617  -2.132  14.971  1.00  0.00     0.008 C 
ATOM      8  C   UNL     1     -14.160  -1.636  16.875  1.00  0.00     0.021 C 
ATOM      9  C   UNL     1     -14.229  -2.485  18.154  1.00  0.00     0.012 C 
ATOM     10  C   UNL     1     -16.375  -0.544  17.572  1.00  0.00     0.012 C 
ENDROOT
TORSDOF 0
ENDMDL
MODEL 2
REMARK VINA RESULT:     0.329      1.211      3.013
REMARK INTER + INTRA:           0.329
REMARK INTER:                   0.329
REMARK INTRA:                   0.000
REMARK UNBOUND:                 0.000
REMARK SMILES C=C1CC[C@H]2C[C@@H]1C2(C)C
REMARK SMILES IDX 9 1 8 2 5 3 4 4 3 5 2 6 1 7 7 8 6 9 10 10
REMARK H PARENT
REMARK Flexibility Score: inf
ROOT
ATOM      1  C   UNL     1     -16.088  -2.846  19.089  1.00  0.00     0.012 C 
ATOM      2  C   UNL     1     -14.791  -2.334  18.405  1.00  0.00    -0.026 C 
ATOM      3  C   UNL     1     -14.370  -2.957  17.049  1.00  0.00    -0.004 C 
ATOM      4  C   UNL     1     -15.618  -3.277  16.166  1.00  0.00     0.008 C 
ATOM      5  C   UNL     1     -16.588  -2.044  16.020  1.00  0.00     0.031 C 
ATOM      6  C   UNL     1     -16.174  -0.866  16.916  1.00  0.00    -0.074 C 
ATOM      7  C   UNL     1     -16.946   0.219  17.040  1.00  0.00     0.008 C 
ATOM      8  C   UNL     1     -14.841  -0.986  17.649  1.00  0.00     0.021 C 
ATOM      9  C   UNL     1     -13.868  -1.569  16.612  1.00  0.00     0.012 C 
ATOM     10  C   UNL     1     -13.643  -2.375  19.443  1.00  0.00     0.012 C 
ENDROOT
TORSDOF 0
ENDMDL
MODEL 3
REMARK VINA RESULT:     0.939      1.053      2.918
REMARK INTER + INTRA:           0.939
REMARK INTER:                   0.939
REMARK INTRA:                   0.000
REMARK UNBOUND:                 0.000
REMARK SMILES C=C1CC[C@H]2C[C@@H]1C2(C)C
REMARK SMILES IDX 9 1 8 2 5 3 4 4 3 5 2 6 1 7 7 8 6 9 10 10
REMARK H PARENT
REMARK Flexibility Score: inf
ROOT
ATOM      1  C   UNL     1     -15.393  -0.266  16.998  1.00  0.00     0.012 C 
ATOM      2  C   UNL     1     -15.737  -1.719  16.571  1.00  0.00    -0.026 C 
ATOM      3  C   UNL     1     -14.604  -2.617  16.010  1.00  0.00    -0.004 C 
ATOM      4  C   UNL     1     -13.254  -2.342  16.746  1.00  0.00     0.008 C 
ATOM      5  C   UNL     1     -13.395  -2.406  18.313  1.00  0.00     0.031 C 
ATOM      6  C   UNL     1     -14.856  -2.556  18.763  1.00  0.00    -0.074 C 
ATOM      7  C   UNL     1     -15.198  -2.489  20.054  1.00  0.00     0.008 C 
ATOM      8  C   UNL     1     -15.898  -2.791  17.673  1.00  0.00     0.021 C 
ATOM      9  C   UNL     1     -15.255  -3.815  16.724  1.00  0.00     0.012 C 
ATOM     10  C   UNL     1     -16.962  -1.672  15.623  1.00  0.00     0.012 C 
ENDROOT
TORSDOF 0
ENDMDL
MODEL 4
REMARK VINA RESULT:     0.998      6.955      7.901
REMARK INTER + INTRA:           0.998
REMARK INTER:                   0.998
REMARK INTRA:                   0.000
REMARK UNBOUND:                 0.000
REMARK SMILES C=C1CC[C@H]2C[C@@H]1C2(C)C
REMARK SMILES IDX 9 1 8 2 5 3 4 4 3 5 2 6 1 7 7 8 6 9 10 10
REMARK H PARENT
REMARK Flexibility Score: inf
ROOT
ATOM      1  C   UNL     1     -12.002  -7.967  20.314  1.00  0.00     0.012 C 
ATOM      2  C   UNL     1     -10.864  -7.040  20.820  1.00  0.00    -0.026 C 
ATOM      3  C   UNL     1      -9.629  -7.682  21.503  1.00  0.00    -0.004 C 
ATOM      4  C   UNL     1      -9.257  -9.041  20.828  1.00  0.00     0.008 C 
ATOM      5  C   UNL     1      -9.122  -8.922  19.263  1.00  0.00     0.031 C 
ATOM      6  C   UNL     1      -9.552  -7.541  18.743  1.00  0.00    -0.074 C 
ATOM      7  C   UNL     1      -9.643  -7.288  17.433  1.00  0.00     0.008 C 
ATOM      8  C   UNL     1      -9.863  -6.472  19.786  1.00  0.00     0.021 C 
ATOM      9  C   UNL     1      -8.751  -6.608  20.838  1.00  0.00     0.012 C 
ATOM     10  C   UNL     1     -11.493  -5.925  21.691  1.00  0.00     0.012 C 
ENDROOT
TORSDOF 0
ENDMDL
MODEL 5
REMARK VINA RESULT:     1.180      7.306      8.670
REMARK INTER + INTRA:           1.180
REMARK INTER:                   1.180
REMARK INTRA:                   0.000
REMARK UNBOUND:                 0.000
REMARK SMILES C=C1CC[C@H]2C[C@@H]1C2(C)C
REMARK SMILES IDX 9 1 8 2 5 3 4 4 3 5 2 6 1 7 7 8 6 9 10 10
REMARK H PARENT
REMARK Flexibility Score: inf
ROOT
ATOM      1  C   UNL     1      -8.350  -9.191  20.459  1.00  0.00     0.012 C 
ATOM      2  C   UNL     1      -9.706  -8.618  20.953  1.00  0.00    -0.026 C 
ATOM      3  C   UNL     1      -9.709  -7.269  21.718  1.00  0.00    -0.004 C 
ATOM      4  C   UNL     1      -8.638  -6.292  21.136  1.00  0.00     0.008 C 
ATOM      5  C   UNL     1      -8.751  -6.132  19.573  1.00  0.00     0.031 C 
ATOM      6  C   UNL     1      -9.774  -7.100  18.959  1.00  0.00    -0.074 C 
ATOM      7  C   UNL     1      -9.914  -7.217  17.634  1.00  0.00     0.008 C 
ATOM      8  C   UNL     1     -10.626  -7.917  19.927  1.00  0.00     0.021 C 
ATOM      9  C   UNL     1     -11.039  -6.925  21.026  1.00  0.00     0.012 C 
ATOM     10  C   UNL     1     -10.450  -9.729  21.735  1.00  0.00     0.012 C 
ENDROOT
TORSDOF 0
ENDMDL
MODEL 6
REMARK VINA RESULT:     1.329      0.966      3.208
REMARK INTER + INTRA:           1.329
REMARK INTER:                   1.329
REMARK INTRA:                   0.000
REMARK UNBOUND:                 0.000
REMARK SMILES C=C1CC[C@H]2C[C@@H]1C2(C)C
REMARK SMILES IDX 9 1 8 2 5 3 4 4 3 5 2 6 1 7 7 8 6 9 10 10
REMARK H PARENT
REMARK Flexibility Score: inf
ROOT
ATOM      1  C   UNL     1     -13.441  -1.449  15.618  1.00  0.00     0.012 C 
ATOM      2  C   UNL     1     -13.911  -2.618  16.526  1.00  0.00    -0.026 C 
ATOM      3  C   UNL     1     -14.325  -2.304  17.987  1.00  0.00    -0.004 C 
ATOM      4  C   UNL     1     -15.058  -0.928  18.080  1.00  0.00     0.008 C 
ATOM      5  C   UNL     1     -16.241  -0.802  17.048  1.00  0.00     0.031 C 
ATOM      6  C   UNL     1     -16.295  -1.989  16.074  1.00  0.00    -0.074 C 
ATOM      7  C   UNL     1     -17.140  -2.001  15.036  1.00  0.00     0.008 C 
ATOM      8  C   UNL     1     -15.350  -3.155  16.346  1.00  0.00     0.021 C 
ATOM      9  C   UNL     1     -15.420  -3.377  17.866  1.00  0.00     0.012 C 
ATOM     10  C   UNL     1     -12.855  -3.748  16.452  1.00  0.00     0.012 C 
ENDROOT
TORSDOF 0
ENDMDL
MODEL 7
REMARK VINA RESULT:     1.492      6.847      8.300
REMARK INTER + INTRA:           1.492
REMARK INTER:                   1.492
REMARK INTRA:                   0.000
REMARK UNBOUND:                 0.000
REMARK SMILES C=C1CC[C@H]2C[C@@H]1C2(C)C
REMARK SMILES IDX 9 1 8 2 5 3 4 4 3 5 2 6 1 7 7 8 6 9 10 10
REMARK H PARENT
REMARK Flexibility Score: inf
ROOT
ATOM      1  C   UNL     1      -8.218  -6.105  19.674  1.00  0.00     0.012 C 
ATOM      2  C   UNL     1      -9.366  -6.896  18.991  1.00  0.00    -0.026 C 
ATOM      3  C   UNL     1      -9.435  -8.432  19.195  1.00  0.00    -0.004 C 
ATOM      4  C   UNL     1      -8.998  -8.826  20.643  1.00  0.00     0.008 C 
ATOM      5  C   UNL     1      -9.762  -8.006  21.749  1.00  0.00     0.031 C 
ATOM      6  C   UNL     1     -10.636  -6.892  21.153  1.00  0.00    -0.074 C 
ATOM      7  C   UNL     1     -11.253  -5.998  21.933  1.00  0.00     0.008 C 
ATOM      8  C   UNL     1     -10.772  -6.855  19.633  1.00  0.00     0.021 C 
ATOM      9  C   UNL     1     -10.969  -8.321  19.217  1.00  0.00     0.012 C 
ATOM     10  C   UNL     1      -9.402  -6.509  17.492  1.00  0.00     0.012 C 
ENDROOT
TORSDOF 0
ENDMDL
MODEL 8
REMARK VINA RESULT:     1.560      1.023      2.541
REMARK INTER + INTRA:           1.560
REMARK INTER:                   1.560
REMARK INTRA:                   0.000
REMARK UNBOUND:                 0.000
REMARK SMILES C=C1CC[C@H]2C[C@@H]1C2(C)C
REMARK SMILES IDX 9 1 8 2 5 3 4 4 3 5 2 6 1 7 7 8 6 9 10 10
REMARK H PARENT
REMARK Flexibility Score: inf
ROOT
ATOM      1  C   UNL     1     -15.255  -2.799  18.511  1.00  0.00     0.012 C 
ATOM      2  C   UNL     1     -15.365  -2.009  17.179  1.00  0.00    -0.026 C 
ATOM      3  C   UNL     1     -14.060  -1.542  16.482  1.00  0.00    -0.004 C 
ATOM      4  C   UNL     1     -12.926  -2.603  16.644  1.00  0.00     0.008 C 
ATOM      5  C   UNL     1     -13.385  -4.049  16.221  1.00  0.00     0.031 C 
ATOM      6  C   UNL     1     -14.888  -4.116  15.908  1.00  0.00    -0.074 C 
ATOM      7  C   UNL     1     -15.497  -5.282  15.666  1.00  0.00     0.008 C 
ATOM      8  C   UNL     1     -15.652  -2.795  15.879  1.00  0.00     0.021 C 
ATOM      9  C   UNL     1     -14.731  -1.821  15.126  1.00  0.00     0.012 C 
ATOM     10  C   UNL     1     -16.362  -0.842  17.383  1.00  0.00     0.012 C 
ENDROOT
TORSDOF 0
ENDMDL
MODEL 9
REMARK VINA RESULT:     1.680      1.002      3.290
REMARK INTER + INTRA:           1.680
REMARK INTER:                   1.680
REMARK INTRA:                   0.000
REMARK UNBOUND:                 0.000
REMARK SMILES C=C1CC[C@H]2C[C@@H]1C2(C)C
REMARK SMILES IDX 9 1 8 2 5 3 4 4 3 5 2 6 1 7 7 8 6 9 10 10
REMARK H PARENT
REMARK Flexibility Score: inf
ROOT
ATOM      1  C   UNL     1     -15.773  -4.377  16.732  1.00  0.00     0.012 C 
ATOM      2  C   UNL     1     -14.594  -3.526  16.186  1.00  0.00    -0.026 C 
ATOM      3  C   UNL     1     -14.907  -2.158  15.527  1.00  0.00    -0.004 C 
ATOM      4  C   UNL     1     -16.086  -1.439  16.258  1.00  0.00     0.008 C 
ATOM      5  C   UNL     1     -15.871  -1.356  17.816  1.00  0.00     0.031 C 
ATOM      6  C   UNL     1     -14.638  -2.147  18.279  1.00  0.00    -0.074 C 
ATOM      7  C   UNL     1     -14.365  -2.315  19.577  1.00  0.00     0.008 C 
ATOM      8  C   UNL     1     -13.736  -2.726  17.192  1.00  0.00     0.021 C 
ATOM      9  C   UNL     1     -13.610  -1.608  16.145  1.00  0.00     0.012 C 
ATOM     10  C   UNL     1     -13.727  -4.425  15.270  1.00  0.00     0.012 C 
ENDROOT
TORSDOF 0
ENDMDL
