MODEL 1
REMARK VINA RESULT:    -5.445      0.000      0.000
REMARK INTER + INTRA:          -5.951
REMARK INTER:                  -5.922
REMARK INTRA:                  -0.028
REMARK UNBOUND:                -0.028
REMARK SMILES COc1ccccc1O
REMARK SMILES IDX 3 1 4 2 5 3 6 4 7 5 8 6 2 7 1 8 9 9
REMARK H PARENT 9 10
REMARK Flexibility Score: inf
ROOT
ATOM      1  C   UNL     1      12.832 -11.913  28.751  1.00  0.00     0.160 A 
ATOM      2  C   UNL     1      14.228 -11.718  28.796  1.00  0.00     0.050 A 
ATOM      3  C   UNL     1      15.079 -12.547  28.059  1.00  0.00     0.004 A 
ATOM      4  C   UNL     1      14.550 -13.573  27.274  1.00  0.00     0.004 A 
ATOM      5  C   UNL     1      13.168 -13.774  27.223  1.00  0.00     0.050 A 
ATOM      6  C   UNL     1      12.309 -12.947  27.959  1.00  0.00     0.157 A 
ENDROOT
BRANCH   1   7
ATOM      7  O   UNL     1      11.941 -11.105  29.475  1.00  0.00    -0.493 OA
ATOM      8  C   UNL     1      12.220  -9.773  29.893  1.00  0.00     0.278 C 
ENDBRANCH   1   7
BRANCH   6   9
ATOM      9  O   UNL     1      10.930 -13.146  27.910  1.00  0.00    -0.504 OA
ATOM     10  H   UNL     1      10.326 -12.544  27.362  1.00  0.00     0.293 HD
ENDBRANCH   6   9
TORSDOF 2
ENDMDL
MODEL 2
REMARK VINA RESULT:    -5.416     11.027     12.405
REMARK INTER + INTRA:          -5.920
REMARK INTER:                  -5.877
REMARK INTRA:                  -0.042
REMARK UNBOUND:                -0.028
REMARK SMILES COc1ccccc1O
REMARK SMILES IDX 3 1 4 2 5 3 6 4 7 5 8 6 2 7 1 8 9 9
REMARK H PARENT 9 10
REMARK Flexibility Score: inf
ROOT
ATOM      1  C   UNL     1      18.377  -2.205  26.762  1.00  0.00     0.160 A 
ATOM      2  C   UNL     1      17.089  -2.586  27.190  1.00  0.00     0.050 A 
ATOM      3  C   UNL     1      15.980  -1.793  26.878  1.00  0.00     0.004 A 
ATOM      4  C   UNL     1      16.144  -0.619  26.140  1.00  0.00     0.004 A 
ATOM      5  C   UNL     1      17.417  -0.234  25.711  1.00  0.00     0.050 A 
ATOM      6  C   UNL     1      18.533  -1.024  26.020  1.00  0.00     0.157 A 
ENDROOT
BRANCH   1   7
ATOM      7  O   UNL     1      19.517  -2.971  27.052  1.00  0.00    -0.493 OA
ATOM      8  C   UNL     1      20.242  -2.904  28.276  1.00  0.00     0.278 C 
ENDBRANCH   1   7
BRANCH   6   9
ATOM      9  O   UNL     1      19.804  -0.641  25.594  1.00  0.00    -0.504 OA
ATOM     10  H   UNL     1      20.429  -1.295  25.136  1.00  0.00     0.293 HD
ENDBRANCH   6   9
TORSDOF 2
ENDMDL
MODEL 3
REMARK VINA RESULT:    -5.299     11.176     12.084
REMARK INTER + INTRA:          -5.792
REMARK INTER:                  -5.750
REMARK INTRA:                  -0.042
REMARK UNBOUND:                -0.028
REMARK SMILES COc1ccccc1O
REMARK SMILES IDX 3 1 4 2 5 3 6 4 7 5 8 6 2 7 1 8 9 9
REMARK H PARENT 9 10
REMARK Flexibility Score: inf
ROOT
ATOM      1  C   UNL     1      18.419  -2.199  26.756  1.00  0.00     0.160 A 
ATOM      2  C   UNL     1      18.979  -1.524  25.652  1.00  0.00     0.050 A 
ATOM      3  C   UNL     1      18.231  -0.570  24.957  1.00  0.00     0.004 A 
ATOM      4  C   UNL     1      16.924  -0.279  25.353  1.00  0.00     0.004 A 
ATOM      5  C   UNL     1      16.361  -0.943  26.446  1.00  0.00     0.050 A 
ATOM      6  C   UNL     1      17.105  -1.902  27.148  1.00  0.00     0.157 A 
ENDROOT
BRANCH   1   7
ATOM      7  O   UNL     1      19.133  -3.165  27.483  1.00  0.00    -0.493 OA
ATOM      8  C   UNL     1      20.336  -2.906  28.199  1.00  0.00     0.278 C 
ENDBRANCH   1   7
BRANCH   6   9
ATOM      9  O   UNL     1      16.544  -2.565  28.238  1.00  0.00    -0.504 OA
ATOM     10  H   UNL     1      16.968  -3.400  28.626  1.00  0.00     0.293 HD
ENDBRANCH   6   9
TORSDOF 2
ENDMDL
MODEL 4
REMARK VINA RESULT:    -5.243     10.477     11.783
REMARK INTER + INTRA:          -5.732
REMARK INTER:                  -5.692
REMARK INTRA:                  -0.040
REMARK UNBOUND:                -0.028
REMARK SMILES COc1ccccc1O
REMARK SMILES IDX 3 1 4 2 5 3 6 4 7 5 8 6 2 7 1 8 9 9
REMARK H PARENT 9 10
REMARK Flexibility Score: inf
ROOT
ATOM      1  C   UNL     1      17.365  -2.260  27.355  1.00  0.00     0.160 A 
ATOM      2  C   UNL     1      16.367  -1.350  26.951  1.00  0.00     0.050 A 
ATOM      3  C   UNL     1      16.600  -0.475  25.886  1.00  0.00     0.004 A 
ATOM      4  C   UNL     1      17.824  -0.500  25.215  1.00  0.00     0.004 A 
ATOM      5  C   UNL     1      18.819  -1.399  25.608  1.00  0.00     0.050 A 
ATOM      6  C   UNL     1      18.592  -2.278  26.675  1.00  0.00     0.157 A 
ENDROOT
BRANCH   1   7
ATOM      7  O   UNL     1      17.173  -3.155  28.419  1.00  0.00    -0.493 OA
ATOM      8  C   UNL     1      16.841  -2.767  29.748  1.00  0.00     0.278 C 
ENDBRANCH   1   7
BRANCH   6   9
ATOM      9  O   UNL     1      19.584  -3.175  27.069  1.00  0.00    -0.504 OA
ATOM     10  H   UNL     1      20.327  -2.901  27.702  1.00  0.00     0.293 HD
ENDBRANCH   6   9
TORSDOF 2
ENDMDL
MODEL 5
REMARK VINA RESULT:    -5.217      1.460      3.201
REMARK INTER + INTRA:          -5.703
REMARK INTER:                  -5.676
REMARK INTRA:                  -0.027
REMARK UNBOUND:                -0.028
REMARK SMILES COc1ccccc1O
REMARK SMILES IDX 3 1 4 2 5 3 6 4 7 5 8 6 2 7 1 8 9 9
REMARK H PARENT 9 10
REMARK Flexibility Score: inf
ROOT
ATOM      1  C   UNL     1      12.792 -12.634  28.093  1.00  0.00     0.160 A 
ATOM      2  C   UNL     1      13.665 -11.666  28.630  1.00  0.00     0.050 A 
ATOM      3  C   UNL     1      13.157 -10.474  29.154  1.00  0.00     0.004 A 
ATOM      4  C   UNL     1      11.781 -10.236  29.149  1.00  0.00     0.004 A 
ATOM      5  C   UNL     1      10.909 -11.190  28.619  1.00  0.00     0.050 A 
ATOM      6  C   UNL     1      11.411 -12.388  28.091  1.00  0.00     0.157 A 
ENDROOT
BRANCH   1   7
ATOM      7  O   UNL     1      13.258 -13.845  27.556  1.00  0.00    -0.493 OA
ATOM      8  C   UNL     1      14.623 -14.249  27.548  1.00  0.00     0.278 C 
ENDBRANCH   1   7
BRANCH   6   9
ATOM      9  O   UNL     1      10.542 -13.340  27.562  1.00  0.00    -0.504 OA
ATOM     10  H   UNL     1       9.535 -13.231  27.619  1.00  0.00     0.293 HD
ENDBRANCH   6   9
TORSDOF 2
ENDMDL
MODEL 6
REMARK VINA RESULT:    -5.092      1.434      2.315
REMARK INTER + INTRA:          -5.567
REMARK INTER:                  -5.525
REMARK INTRA:                  -0.042
REMARK UNBOUND:                -0.028
REMARK SMILES COc1ccccc1O
REMARK SMILES IDX 3 1 4 2 5 3 6 4 7 5 8 6 2 7 1 8 9 9
REMARK H PARENT 9 10
REMARK Flexibility Score: inf
ROOT
ATOM      1  C   UNL     1      12.736 -11.919  29.210  1.00  0.00     0.160 A 
ATOM      2  C   UNL     1      11.723 -12.157  28.260  1.00  0.00     0.050 A 
ATOM      3  C   UNL     1      11.926 -13.078  27.228  1.00  0.00     0.004 A 
ATOM      4  C   UNL     1      13.135 -13.769  27.134  1.00  0.00     0.004 A 
ATOM      5  C   UNL     1      14.146 -13.540  28.072  1.00  0.00     0.050 A 
ATOM      6  C   UNL     1      13.949 -12.618  29.109  1.00  0.00     0.157 A 
ENDROOT
BRANCH   1   7
ATOM      7  O   UNL     1      12.575 -11.004  30.262  1.00  0.00    -0.493 OA
ATOM      8  C   UNL     1      12.348  -9.609  30.087  1.00  0.00     0.278 C 
ENDBRANCH   1   7
BRANCH   6   9
ATOM      9  O   UNL     1      14.957 -12.388  30.044  1.00  0.00    -0.504 OA
ATOM     10  H   UNL     1      14.843 -12.641  31.020  1.00  0.00     0.293 HD
ENDBRANCH   6   9
TORSDOF 2
ENDMDL
MODEL 7
REMARK VINA RESULT:    -5.065     11.225     12.380
REMARK INTER + INTRA:          -5.537
REMARK INTER:                  -5.508
REMARK INTRA:                  -0.029
REMARK UNBOUND:                -0.028
REMARK SMILES COc1ccccc1O
REMARK SMILES IDX 3 1 4 2 5 3 6 4 7 5 8 6 2 7 1 8 9 9
REMARK H PARENT 9 10
REMARK Flexibility Score: inf
ROOT
ATOM      1  C   UNL     1      17.375  -0.901  26.219  1.00  0.00     0.160 A 
ATOM      2  C   UNL     1      16.540  -1.696  27.031  1.00  0.00     0.050 A 
ATOM      3  C   UNL     1      17.042  -2.847  27.644  1.00  0.00     0.004 A 
ATOM      4  C   UNL     1      18.376  -3.215  27.457  1.00  0.00     0.004 A 
ATOM      5  C   UNL     1      19.211  -2.434  26.654  1.00  0.00     0.050 A 
ATOM      6  C   UNL     1      18.714  -1.279  26.035  1.00  0.00     0.157 A 
ENDROOT
BRANCH   1   7
ATOM      7  O   UNL     1      16.913   0.262  25.583  1.00  0.00    -0.493 OA
ATOM      8  C   UNL     1      15.847   1.074  26.066  1.00  0.00     0.278 C 
ENDBRANCH   1   7
BRANCH   6   9
ATOM      9  O   UNL     1      19.546  -0.498  25.234  1.00  0.00    -0.504 OA
ATOM     10  H   UNL     1      20.380  -0.058  25.605  1.00  0.00     0.293 HD
ENDBRANCH   6   9
TORSDOF 2
ENDMDL
MODEL 8
REMARK VINA RESULT:    -5.064      1.943      3.753
REMARK INTER + INTRA:          -5.536
REMARK INTER:                  -5.503
REMARK INTRA:                  -0.034
REMARK UNBOUND:                -0.028
REMARK SMILES COc1ccccc1O
REMARK SMILES IDX 3 1 4 2 5 3 6 4 7 5 8 6 2 7 1 8 9 9
REMARK H PARENT 9 10
REMARK Flexibility Score: inf
ROOT
ATOM      1  C   UNL     1      13.692 -13.010  28.183  1.00  0.00     0.160 A 
ATOM      2  C   UNL     1      12.705 -13.461  27.283  1.00  0.00     0.050 A 
ATOM      3  C   UNL     1      11.478 -12.797  27.193  1.00  0.00     0.004 A 
ATOM      4  C   UNL     1      11.224 -11.682  27.994  1.00  0.00     0.004 A 
ATOM      5  C   UNL     1      12.197 -11.228  28.889  1.00  0.00     0.050 A 
ATOM      6  C   UNL     1      13.429 -11.889  28.985  1.00  0.00     0.157 A 
ENDROOT
BRANCH   1   7
ATOM      7  O   UNL     1      14.937 -13.646  28.307  1.00  0.00    -0.493 OA
ATOM      8  C   UNL     1      15.118 -15.057  28.371  1.00  0.00     0.278 C 
ENDBRANCH   1   7
BRANCH   6   9
ATOM      9  O   UNL     1      14.400 -11.437  29.878  1.00  0.00    -0.504 OA
ATOM     10  H   UNL     1      14.244 -11.442  30.879  1.00  0.00     0.293 HD
ENDBRANCH   6   9
TORSDOF 2
ENDMDL
MODEL 9
REMARK VINA RESULT:    -5.056     10.782     11.980
REMARK INTER + INTRA:          -5.528
REMARK INTER:                  -5.490
REMARK INTRA:                  -0.038
REMARK UNBOUND:                -0.028
REMARK SMILES COc1ccccc1O
REMARK SMILES IDX 3 1 4 2 5 3 6 4 7 5 8 6 2 7 1 8 9 9
REMARK H PARENT 9 10
REMARK Flexibility Score: inf
ROOT
ATOM      1  C   UNL     1      16.634  -0.853  26.335  1.00  0.00     0.160 A 
ATOM      2  C   UNL     1      17.810  -0.575  25.609  1.00  0.00     0.050 A 
ATOM      3  C   UNL     1      18.945  -1.374  25.774  1.00  0.00     0.004 A 
ATOM      4  C   UNL     1      18.919  -2.454  26.659  1.00  0.00     0.004 A 
ATOM      5  C   UNL     1      17.757  -2.737  27.383  1.00  0.00     0.050 A 
ATOM      6  C   UNL     1      16.616  -1.940  27.222  1.00  0.00     0.157 A 
ENDROOT
BRANCH   1   7
ATOM      7  O   UNL     1      15.472  -0.077  26.200  1.00  0.00    -0.493 OA
ATOM      8  C   UNL     1      15.422   1.335  26.377  1.00  0.00     0.278 C 
ENDBRANCH   1   7
BRANCH   6   9
ATOM      9  O   UNL     1      15.456  -2.221  27.943  1.00  0.00    -0.504 OA
ATOM     10  H   UNL     1      14.577  -1.761  27.735  1.00  0.00     0.293 HD
ENDBRANCH   6   9
TORSDOF 2
ENDMDL
