MODEL 1
REMARK VINA RESULT:    -5.584      0.000      0.000
REMARK INTER + INTRA:          -6.109
REMARK INTER:                  -6.074
REMARK INTRA:                  -0.035
REMARK UNBOUND:                -0.035
REMARK SMILES O=C([O-])c1ccc(O)cc1
REMARK SMILES IDX 7 1 6 2 9 3 5 4 10 5 4 6 8 7 2 9 1 10 3 11
REMARK H PARENT 8 8
REMARK Flexibility Score: inf
ROOT
ATOM      1  C   UNL     1      42.012  44.880  39.406  1.00  0.00     0.115 A 
ATOM      2  C   UNL     1      43.387  45.046  39.591  1.00  0.00     0.047 A 
ATOM      3  C   UNL     1      41.151  44.930  40.509  1.00  0.00     0.047 A 
ATOM      4  C   UNL     1      43.903  45.259  40.873  1.00  0.00     0.014 A 
ATOM      5  C   UNL     1      41.663  45.144  41.793  1.00  0.00     0.014 A 
ATOM      6  C   UNL     1      43.047  45.311  41.988  1.00  0.00    -0.003 A 
ENDROOT
BRANCH   1   7
ATOM      7  O   UNL     1      41.511  44.668  38.123  1.00  0.00    -0.508 OA
ATOM      8  H   UNL     1      40.787  45.260  37.732  1.00  0.00     0.293 HD
ENDBRANCH   1   7
BRANCH   6   9
ATOM      9  C   UNL     1      43.596  45.538  43.343  1.00  0.00     0.071 C 
ATOM     10  O   UNL     1      42.847  45.916  44.283  1.00  0.00    -0.545 OA
ATOM     11  O   UNL     1      44.947  45.337  43.598  1.00  0.00    -0.545 OA
ENDBRANCH   6   9
TORSDOF 2
ENDMDL
MODEL 2
REMARK VINA RESULT:    -5.574      0.088      1.534
REMARK INTER + INTRA:          -6.098
REMARK INTER:                  -6.063
REMARK INTRA:                  -0.035
REMARK UNBOUND:                -0.035
REMARK SMILES O=C([O-])c1ccc(O)cc1
REMARK SMILES IDX 7 1 6 2 9 3 5 4 10 5 4 6 8 7 2 9 1 10 3 11
REMARK H PARENT 8 8
REMARK Flexibility Score: inf
ROOT
ATOM      1  C   UNL     1      42.051  44.794  39.380  1.00  0.00     0.115 A 
ATOM      2  C   UNL     1      41.191  44.893  40.478  1.00  0.00     0.047 A 
ATOM      3  C   UNL     1      43.431  44.947  39.562  1.00  0.00     0.047 A 
ATOM      4  C   UNL     1      41.706  45.146  41.754  1.00  0.00     0.014 A 
ATOM      5  C   UNL     1      43.949  45.200  40.836  1.00  0.00     0.014 A 
ATOM      6  C   UNL     1      43.090  45.302  41.947  1.00  0.00    -0.003 A 
ENDROOT
BRANCH   1   7
ATOM      7  O   UNL     1      41.524  44.541  38.116  1.00  0.00    -0.508 OA
ATOM      8  H   UNL     1      42.077  44.670  37.276  1.00  0.00     0.293 HD
ENDBRANCH   1   7
BRANCH   6   9
ATOM      9  C   UNL     1      43.632  45.569  43.297  1.00  0.00     0.071 C 
ATOM     10  O   UNL     1      42.869  45.916  44.237  1.00  0.00    -0.545 OA
ATOM     11  O   UNL     1      44.993  45.438  43.548  1.00  0.00    -0.545 OA
ENDBRANCH   6   9
TORSDOF 2
ENDMDL
MODEL 3
REMARK VINA RESULT:    -5.241      1.056      4.399
REMARK INTER + INTRA:          -5.735
REMARK INTER:                  -5.702
REMARK INTRA:                  -0.033
REMARK UNBOUND:                -0.035
REMARK SMILES O=C([O-])c1ccc(O)cc1
REMARK SMILES IDX 7 1 6 2 9 3 5 4 10 5 4 6 8 7 2 9 1 10 3 11
REMARK H PARENT 8 8
REMARK Flexibility Score: inf
ROOT
ATOM      1  C   UNL     1      43.425  45.495  42.949  1.00  0.00     0.115 A 
ATOM      2  C   UNL     1      42.122  45.458  42.444  1.00  0.00     0.047 A 
ATOM      3  C   UNL     1      44.513  45.343  42.080  1.00  0.00     0.047 A 
ATOM      4  C   UNL     1      41.904  45.267  41.076  1.00  0.00     0.014 A 
ATOM      5  C   UNL     1      44.298  45.151  40.711  1.00  0.00     0.014 A 
ATOM      6  C   UNL     1      42.989  45.112  40.195  1.00  0.00    -0.003 A 
ENDROOT
BRANCH   1   7
ATOM      7  O   UNL     1      43.628  45.686  44.314  1.00  0.00    -0.508 OA
ATOM      8  H   UNL     1      43.032  46.301  44.858  1.00  0.00     0.293 HD
ENDBRANCH   1   7
BRANCH   6   9
ATOM      9  C   UNL     1      42.756  44.912  38.748  1.00  0.00     0.071 C 
ATOM     10  O   UNL     1      41.791  45.478  38.169  1.00  0.00    -0.545 OA
ATOM     11  O   UNL     1      43.600  44.094  38.005  1.00  0.00    -0.545 OA
ENDBRANCH   6   9
TORSDOF 2
ENDMDL
MODEL 4
REMARK VINA RESULT:    -5.183      8.922     10.702
REMARK INTER + INTRA:          -5.673
REMARK INTER:                  -5.645
REMARK INTRA:                  -0.028
REMARK UNBOUND:                -0.035
REMARK SMILES O=C([O-])c1ccc(O)cc1
REMARK SMILES IDX 7 1 6 2 9 3 5 4 10 5 4 6 8 7 2 9 1 10 3 11
REMARK H PARENT 8 8
REMARK Flexibility Score: inf
ROOT
ATOM      1  C   UNL     1      49.339  43.381  31.013  1.00  0.00     0.115 A 
ATOM      2  C   UNL     1      48.498  44.378  31.514  1.00  0.00     0.047 A 
ATOM      3  C   UNL     1      49.361  42.119  31.621  1.00  0.00     0.047 A 
ATOM      4  C   UNL     1      47.681  44.120  32.620  1.00  0.00     0.014 A 
ATOM      5  C   UNL     1      48.545  41.858  32.727  1.00  0.00     0.014 A 
ATOM      6  C   UNL     1      47.696  42.857  33.238  1.00  0.00    -0.003 A 
ENDROOT
BRANCH   1   7
ATOM      7  O   UNL     1      50.147  43.652  29.911  1.00  0.00    -0.508 OA
ATOM      8  H   UNL     1      50.852  42.995  29.596  1.00  0.00     0.293 HD
ENDBRANCH   1   7
BRANCH   6   9
ATOM      9  C   UNL     1      46.830  42.586  34.406  1.00  0.00     0.071 C 
ATOM     10  O   UNL     1      47.063  43.131  35.517  1.00  0.00    -0.545 OA
ATOM     11  O   UNL     1      45.745  41.724  34.293  1.00  0.00    -0.545 OA
ENDBRANCH   6   9
TORSDOF 2
ENDMDL
MODEL 5
REMARK VINA RESULT:    -4.885      2.865      5.604
REMARK INTER + INTRA:          -5.348
REMARK INTER:                  -5.314
REMARK INTRA:                  -0.034
REMARK UNBOUND:                -0.035
REMARK SMILES O=C([O-])c1ccc(O)cc1
REMARK SMILES IDX 7 1 6 2 9 3 5 4 10 5 4 6 8 7 2 9 1 10 3 11
REMARK H PARENT 8 8
REMARK Flexibility Score: inf
ROOT
ATOM      1  C   UNL     1      44.568  47.156  46.502  1.00  0.00     0.115 A 
ATOM      2  C   UNL     1      45.724  46.811  45.796  1.00  0.00     0.047 A 
ATOM      3  C   UNL     1      43.310  46.834  45.976  1.00  0.00     0.047 A 
ATOM      4  C   UNL     1      45.627  46.148  44.569  1.00  0.00     0.014 A 
ATOM      5  C   UNL     1      43.209  46.171  44.749  1.00  0.00     0.014 A 
ATOM      6  C   UNL     1      44.368  45.821  44.032  1.00  0.00    -0.003 A 
ENDROOT
BRANCH   1   7
ATOM      7  O   UNL     1      44.679  47.816  47.724  1.00  0.00    -0.508 OA
ATOM      8  H   UNL     1      45.557  47.848  48.231  1.00  0.00     0.293 HD
ENDBRANCH   1   7
BRANCH   6   9
ATOM      9  C   UNL     1      44.269  45.119  42.734  1.00  0.00     0.071 C 
ATOM     10  O   UNL     1      45.224  44.416  42.309  1.00  0.00    -0.545 OA
ATOM     11  O   UNL     1      43.116  45.225  41.963  1.00  0.00    -0.545 OA
ENDBRANCH   6   9
TORSDOF 2
ENDMDL
MODEL 6
REMARK VINA RESULT:    -4.718      9.217     11.344
REMARK INTER + INTRA:          -5.166
REMARK INTER:                  -5.131
REMARK INTRA:                  -0.035
REMARK UNBOUND:                -0.035
REMARK SMILES O=C([O-])c1ccc(O)cc1
REMARK SMILES IDX 7 1 6 2 9 3 5 4 10 5 4 6 8 7 2 9 1 10 3 11
REMARK H PARENT 8 8
REMARK Flexibility Score: inf
ROOT
ATOM      1  C   UNL     1      46.500  42.302  33.576  1.00  0.00     0.115 A 
ATOM      2  C   UNL     1      47.806  41.810  33.503  1.00  0.00     0.047 A 
ATOM      3  C   UNL     1      46.071  43.274  32.663  1.00  0.00     0.047 A 
ATOM      4  C   UNL     1      48.683  42.286  32.523  1.00  0.00     0.014 A 
ATOM      5  C   UNL     1      46.945  43.752  31.683  1.00  0.00     0.014 A 
ATOM      6  C   UNL     1      48.262  43.263  31.602  1.00  0.00    -0.003 A 
ENDROOT
BRANCH   1   7
ATOM      7  O   UNL     1      45.637  41.818  34.557  1.00  0.00    -0.508 OA
ATOM      8  H   UNL     1      44.894  42.392  34.939  1.00  0.00     0.293 HD
ENDBRANCH   1   7
BRANCH   6   9
ATOM      9  C   UNL     1      49.192  43.764  30.567  1.00  0.00     0.071 C 
ATOM     10  O   UNL     1      50.250  43.137  30.297  1.00  0.00    -0.545 OA
ATOM     11  O   UNL     1      48.909  44.936  29.875  1.00  0.00    -0.545 OA
ENDBRANCH   6   9
TORSDOF 2
ENDMDL
MODEL 7
REMARK VINA RESULT:    -4.666      5.605      7.247
REMARK INTER + INTRA:          -5.110
REMARK INTER:                  -5.075
REMARK INTRA:                  -0.035
REMARK UNBOUND:                -0.035
REMARK SMILES O=C([O-])c1ccc(O)cc1
REMARK SMILES IDX 7 1 6 2 9 3 5 4 10 5 4 6 8 7 2 9 1 10 3 11
REMARK H PARENT 8 8
REMARK Flexibility Score: inf
ROOT
ATOM      1  C   UNL     1      44.487  47.183  46.379  1.00  0.00     0.115 A 
ATOM      2  C   UNL     1      44.606  47.367  47.760  1.00  0.00     0.047 A 
ATOM      3  C   UNL     1      45.108  46.086  45.769  1.00  0.00     0.047 A 
ATOM      4  C   UNL     1      45.343  46.462  48.530  1.00  0.00     0.014 A 
ATOM      5  C   UNL     1      45.846  45.178  46.536  1.00  0.00     0.014 A 
ATOM      6  C   UNL     1      45.971  45.358  47.926  1.00  0.00    -0.003 A 
ENDROOT
BRANCH   1   7
ATOM      7  O   UNL     1      43.750  48.092  45.625  1.00  0.00    -0.508 OA
ATOM      8  H   UNL     1      43.810  48.114  44.613  1.00  0.00     0.293 HD
ENDBRANCH   1   7
BRANCH   6   9
ATOM      9  C   UNL     1      46.748  44.401  48.743  1.00  0.00     0.071 C 
ATOM     10  O   UNL     1      47.080  43.280  48.276  1.00  0.00    -0.545 OA
ATOM     11  O   UNL     1      47.125  44.727  50.041  1.00  0.00    -0.545 OA
ENDBRANCH   6   9
TORSDOF 2
ENDMDL
MODEL 8
REMARK VINA RESULT:    -4.612      3.935      5.799
REMARK INTER + INTRA:          -5.052
REMARK INTER:                  -5.020
REMARK INTRA:                  -0.032
REMARK UNBOUND:                -0.035
REMARK SMILES O=C([O-])c1ccc(O)cc1
REMARK SMILES IDX 7 1 6 2 9 3 5 4 10 5 4 6 8 7 2 9 1 10 3 11
REMARK H PARENT 8 8
REMARK Flexibility Score: inf
ROOT
ATOM      1  C   UNL     1      44.136  45.970  44.472  1.00  0.00     0.115 A 
ATOM      2  C   UNL     1      43.582  46.821  45.434  1.00  0.00     0.047 A 
ATOM      3  C   UNL     1      45.301  45.253  44.768  1.00  0.00     0.047 A 
ATOM      4  C   UNL     1      44.189  46.957  46.686  1.00  0.00     0.014 A 
ATOM      5  C   UNL     1      45.911  45.387  46.019  1.00  0.00     0.014 A 
ATOM      6  C   UNL     1      45.360  46.241  46.992  1.00  0.00    -0.003 A 
ENDROOT
BRANCH   1   7
ATOM      7  O   UNL     1      43.520  45.845  43.229  1.00  0.00    -0.508 OA
ATOM      8  H   UNL     1      42.995  46.608  42.818  1.00  0.00     0.293 HD
ENDBRANCH   1   7
BRANCH   6   9
ATOM      9  C   UNL     1      46.000  46.386  48.318  1.00  0.00     0.071 C 
ATOM     10  O   UNL     1      46.072  47.513  48.876  1.00  0.00    -0.545 OA
ATOM     11  O   UNL     1      46.530  45.278  48.969  1.00  0.00    -0.545 OA
ENDBRANCH   6   9
TORSDOF 2
ENDMDL
MODEL 9
REMARK VINA RESULT:    -4.610      4.736      7.119
REMARK INTER + INTRA:          -5.049
REMARK INTER:                  -5.021
REMARK INTRA:                  -0.028
REMARK UNBOUND:                -0.035
REMARK SMILES O=C([O-])c1ccc(O)cc1
REMARK SMILES IDX 7 1 6 2 9 3 5 4 10 5 4 6 8 7 2 9 1 10 3 11
REMARK H PARENT 8 8
REMARK Flexibility Score: inf
ROOT
ATOM      1  C   UNL     1      46.626  44.377  48.071  1.00  0.00     0.115 A 
ATOM      2  C   UNL     1      47.019  44.669  46.762  1.00  0.00     0.047 A 
ATOM      3  C   UNL     1      45.364  44.779  48.524  1.00  0.00     0.047 A 
ATOM      4  C   UNL     1      46.156  45.360  45.906  1.00  0.00     0.014 A 
ATOM      5  C   UNL     1      44.498  45.471  47.671  1.00  0.00     0.014 A 
ATOM      6  C   UNL     1      44.886  45.769  46.352  1.00  0.00    -0.003 A 
ENDROOT
BRANCH   1   7
ATOM      7  O   UNL     1      47.496  43.687  48.912  1.00  0.00    -0.508 OA
ATOM      8  H   UNL     1      47.809  44.083  49.791  1.00  0.00     0.293 HD
ENDBRANCH   1   7
BRANCH   6   9
ATOM      9  C   UNL     1      43.975  46.500  45.444  1.00  0.00     0.071 C 
ATOM     10  O   UNL     1      43.689  47.708  45.658  1.00  0.00    -0.545 OA
ATOM     11  O   UNL     1      43.420  45.862  44.340  1.00  0.00    -0.545 OA
ENDBRANCH   6   9
TORSDOF 2
ENDMDL
