MODEL 1
REMARK VINA RESULT:    -3.420      0.000      0.000
REMARK INTER + INTRA:          -3.720
REMARK INTER:                  -3.720
REMARK INTRA:                   0.000
REMARK UNBOUND:                 0.000
REMARK SMILES Oc1cccc(O)c1O
REMARK SMILES IDX 4 1 5 2 6 3 8 4 2 5 3 6 7 7 1 9 9 11
REMARK H PARENT 7 8 1 10 9 12
REMARK Flexibility Score: inf
ROOT
ATOM      1  C   UNL     1     131.215 116.451 108.455  1.00  0.00     0.008 A 
ATOM      2  C   UNL     1     131.206 117.844 108.510  1.00  0.00     0.050 A 
ATOM      3  C   UNL     1     130.940 118.593 107.359  1.00  0.00     0.161 A 
ATOM      4  C   UNL     1     130.677 117.943 106.136  1.00  0.00     0.200 A 
ATOM      5  C   UNL     1     130.687 116.525 106.086  1.00  0.00     0.161 A 
ATOM      6  C   UNL     1     130.957 115.796 107.251  1.00  0.00     0.050 A 
ENDROOT
BRANCH   3   7
ATOM      7  O   UNL     1     130.939 119.984 107.450  1.00  0.00    -0.504 OA
ATOM      8  H   UNL     1     130.473 120.477 108.203  1.00  0.00     0.293 HD
ENDBRANCH   3   7
BRANCH   5   9
ATOM      9  O   UNL     1     130.437 115.808 104.915  1.00  0.00    -0.504 OA
ATOM     10  H   UNL     1     129.514 115.636 104.542  1.00  0.00     0.293 HD
ENDBRANCH   5   9
BRANCH   4  11
ATOM     11  O   UNL     1     130.415 118.726 105.010  1.00  0.00    -0.502 OA
ATOM     12  H   UNL     1     130.973 118.713 104.168  1.00  0.00     0.293 HD
ENDBRANCH   4  11
TORSDOF 3
ENDMDL
MODEL 2
REMARK VINA RESULT:    -3.417     13.214     13.450
REMARK INTER + INTRA:          -3.717
REMARK INTER:                  -3.717
REMARK INTRA:                   0.000
REMARK UNBOUND:                 0.000
REMARK SMILES Oc1cccc(O)c1O
REMARK SMILES IDX 4 1 5 2 6 3 8 4 2 5 3 6 7 7 1 9 9 11
REMARK H PARENT 7 8 1 10 9 12
REMARK Flexibility Score: inf
ROOT
ATOM      1  C   UNL     1     116.467 117.736 108.444  1.00  0.00     0.008 A 
ATOM      2  C   UNL     1     117.859 117.776 108.510  1.00  0.00     0.050 A 
ATOM      3  C   UNL     1     118.611 118.073 107.369  1.00  0.00     0.161 A 
ATOM      4  C   UNL     1     117.966 118.336 106.144  1.00  0.00     0.200 A 
ATOM      5  C   UNL     1     116.550 118.295 106.082  1.00  0.00     0.161 A 
ATOM      6  C   UNL     1     115.816 117.994 107.236  1.00  0.00     0.050 A 
ENDROOT
BRANCH   3   7
ATOM      7  O   UNL     1     120.002 118.104 107.472  1.00  0.00    -0.504 OA
ATOM      8  H   UNL     1     120.606 117.674 106.781  1.00  0.00     0.293 HD
ENDBRANCH   3   7
BRANCH   5   9
ATOM      9  O   UNL     1     115.836 118.542 104.907  1.00  0.00    -0.504 OA
ATOM     10  H   UNL     1     114.965 118.089 104.668  1.00  0.00     0.293 HD
ENDBRANCH   5   9
BRANCH   4  11
ATOM     11  O   UNL     1     118.752 118.629 105.027  1.00  0.00    -0.502 OA
ATOM     12  H   UNL     1     118.413 119.104 104.204  1.00  0.00     0.293 HD
ENDBRANCH   4  11
TORSDOF 3
ENDMDL
MODEL 3
REMARK VINA RESULT:    -3.416     17.982     19.080
REMARK INTER + INTRA:          -3.715
REMARK INTER:                  -3.715
REMARK INTRA:                   0.000
REMARK UNBOUND:                 0.000
REMARK SMILES Oc1cccc(O)c1O
REMARK SMILES IDX 4 1 5 2 6 3 8 4 2 5 3 6 7 7 1 9 9 11
REMARK H PARENT 7 8 1 10 9 12
REMARK Flexibility Score: inf
ROOT
ATOM      1  C   UNL     1     117.756 132.578 108.435  1.00  0.00     0.008 A 
ATOM      2  C   UNL     1     117.800 131.186 108.501  1.00  0.00     0.050 A 
ATOM      3  C   UNL     1     118.079 130.435 107.354  1.00  0.00     0.161 A 
ATOM      4  C   UNL     1     118.319 131.081 106.125  1.00  0.00     0.200 A 
ATOM      5  C   UNL     1     118.275 132.497 106.064  1.00  0.00     0.161 A 
ATOM      6  C   UNL     1     117.992 133.229 107.224  1.00  0.00     0.050 A 
ENDROOT
BRANCH   3   7
ATOM      7  O   UNL     1     118.115 129.044 107.457  1.00  0.00    -0.504 OA
ATOM      8  H   UNL     1     118.577 128.462 106.768  1.00  0.00     0.293 HD
ENDBRANCH   3   7
BRANCH   5   9
ATOM      9  O   UNL     1     118.500 133.211 104.886  1.00  0.00    -0.504 OA
ATOM     10  H   UNL     1     117.902 133.953 104.550  1.00  0.00     0.293 HD
ENDBRANCH   5   9
BRANCH   4  11
ATOM     11  O   UNL     1     118.595 130.296 105.004  1.00  0.00    -0.502 OA
ATOM     12  H   UNL     1     119.029 130.643 104.161  1.00  0.00     0.293 HD
ENDBRANCH   4  11
TORSDOF 3
ENDMDL
MODEL 4
REMARK VINA RESULT:    -3.412      0.129      2.828
REMARK INTER + INTRA:          -3.712
REMARK INTER:                  -3.712
REMARK INTRA:                   0.000
REMARK UNBOUND:                 0.000
REMARK SMILES Oc1cccc(O)c1O
REMARK SMILES IDX 4 1 5 2 6 3 8 4 2 5 3 6 7 7 1 9 9 11
REMARK H PARENT 7 8 1 10 9 12
REMARK Flexibility Score: inf
ROOT
ATOM      1  C   UNL     1     131.220 116.543 108.531  1.00  0.00     0.008 A 
ATOM      2  C   UNL     1     130.992 115.891 107.320  1.00  0.00     0.050 A 
ATOM      3  C   UNL     1     130.724 116.628 106.162  1.00  0.00     0.161 A 
ATOM      4  C   UNL     1     130.685 118.036 106.211  1.00  0.00     0.200 A 
ATOM      5  C   UNL     1     130.918 118.695 107.445  1.00  0.00     0.161 A 
ATOM      6  C   UNL     1     131.184 117.937 108.593  1.00  0.00     0.050 A 
ENDROOT
BRANCH   3   7
ATOM      7  O   UNL     1     130.501 115.942 104.968  1.00  0.00    -0.504 OA
ATOM      8  H   UNL     1     131.055 116.109 104.136  1.00  0.00     0.293 HD
ENDBRANCH   3   7
BRANCH   5   9
ATOM      9  O   UNL     1     130.896 120.085 107.577  1.00  0.00    -0.504 OA
ATOM     10  H   UNL     1     131.531 120.709 107.100  1.00  0.00     0.293 HD
ENDBRANCH   5   9
BRANCH   4  11
ATOM     11  O   UNL     1     130.415 118.736 105.033  1.00  0.00    -0.502 OA
ATOM     12  H   UNL     1     130.340 119.741 104.975  1.00  0.00     0.293 HD
ENDBRANCH   4  11
TORSDOF 3
ENDMDL
MODEL 5
REMARK VINA RESULT:    -3.407     13.166     13.485
REMARK INTER + INTRA:          -3.706
REMARK INTER:                  -3.706
REMARK INTRA:                   0.000
REMARK UNBOUND:                 0.000
REMARK SMILES Oc1cccc(O)c1O
REMARK SMILES IDX 4 1 5 2 6 3 8 4 2 5 3 6 7 7 1 9 9 11
REMARK H PARENT 7 8 1 10 9 12
REMARK Flexibility Score: inf
ROOT
ATOM      1  C   UNL     1     116.522 117.769 108.481  1.00  0.00     0.008 A 
ATOM      2  C   UNL     1     115.871 118.012 107.273  1.00  0.00     0.050 A 
ATOM      3  C   UNL     1     116.608 118.287 106.117  1.00  0.00     0.161 A 
ATOM      4  C   UNL     1     118.016 118.320 106.166  1.00  0.00     0.200 A 
ATOM      5  C   UNL     1     118.674 118.071 107.397  1.00  0.00     0.161 A 
ATOM      6  C   UNL     1     117.916 117.799 108.542  1.00  0.00     0.050 A 
ENDROOT
BRANCH   3   7
ATOM      7  O   UNL     1     115.922 118.525 104.926  1.00  0.00    -0.504 OA
ATOM      8  H   UNL     1     115.569 117.773 104.345  1.00  0.00     0.293 HD
ENDBRANCH   3   7
BRANCH   5   9
ATOM      9  O   UNL     1     120.065 118.086 107.528  1.00  0.00    -0.504 OA
ATOM     10  H   UNL     1     120.703 118.254 106.763  1.00  0.00     0.293 HD
ENDBRANCH   5   9
BRANCH   4  11
ATOM     11  O   UNL     1     118.716 118.598 104.990  1.00  0.00    -0.502 OA
ATOM     12  H   UNL     1     119.693 118.389 104.849  1.00  0.00     0.293 HD
ENDBRANCH   4  11
TORSDOF 3
ENDMDL
MODEL 6
REMARK VINA RESULT:    -3.325     13.136     13.406
REMARK INTER + INTRA:          -3.617
REMARK INTER:                  -3.617
REMARK INTRA:                   0.000
REMARK UNBOUND:                 0.000
REMARK SMILES Oc1cccc(O)c1O
REMARK SMILES IDX 4 1 5 2 6 3 8 4 2 5 3 6 7 7 1 9 9 11
REMARK H PARENT 7 8 1 10 9 12
REMARK Flexibility Score: inf
ROOT
ATOM      1  C   UNL     1     115.714 117.956 106.850  1.00  0.00     0.008 A 
ATOM      2  C   UNL     1     116.232 117.765 108.130  1.00  0.00     0.050 A 
ATOM      3  C   UNL     1     117.610 117.856 108.353  1.00  0.00     0.161 A 
ATOM      4  C   UNL     1     118.483 118.142 107.285  1.00  0.00     0.200 A 
ATOM      5  C   UNL     1     117.951 118.336 105.985  1.00  0.00     0.161 A 
ATOM      6  C   UNL     1     116.568 118.240 105.784  1.00  0.00     0.050 A 
ENDROOT
BRANCH   3   7
ATOM      7  O   UNL     1     118.094 117.659 109.647  1.00  0.00    -0.504 OA
ATOM      8  H   UNL     1     117.655 118.079 110.458  1.00  0.00     0.293 HD
ENDBRANCH   3   7
BRANCH   5   9
ATOM      9  O   UNL     1     118.749 118.622 104.875  1.00  0.00    -0.504 OA
ATOM     10  H   UNL     1     118.691 119.479 104.342  1.00  0.00     0.293 HD
ENDBRANCH   5   9
BRANCH   4  11
ATOM     11  O   UNL     1     119.852 118.225 107.548  1.00  0.00    -0.502 OA
ATOM     12  H   UNL     1     120.490 118.830 107.053  1.00  0.00     0.293 HD
ENDBRANCH   4  11
TORSDOF 3
ENDMDL
MODEL 7
REMARK VINA RESULT:    -3.302     13.161     13.585
REMARK INTER + INTRA:          -3.591
REMARK INTER:                  -3.591
REMARK INTRA:                   0.000
REMARK UNBOUND:                 0.000
REMARK SMILES Oc1cccc(O)c1O
REMARK SMILES IDX 4 1 5 2 6 3 8 4 2 5 3 6 7 7 1 9 9 11
REMARK H PARENT 7 8 1 10 9 12
REMARK Flexibility Score: inf
ROOT
ATOM      1  C   UNL     1     132.630 131.369 108.366  1.00  0.00     0.008 A 
ATOM      2  C   UNL     1     133.243 131.013 107.166  1.00  0.00     0.050 A 
ATOM      3  C   UNL     1     132.469 130.648 106.060  1.00  0.00     0.161 A 
ATOM      4  C   UNL     1     131.063 130.638 106.152  1.00  0.00     0.200 A 
ATOM      5  C   UNL     1     130.444 131.002 107.375  1.00  0.00     0.161 A 
ATOM      6  C   UNL     1     131.238 131.363 108.470  1.00  0.00     0.050 A 
ENDROOT
BRANCH   3   7
ATOM      7  O   UNL     1     133.117 130.298 104.875  1.00  0.00    -0.504 OA
ATOM      8  H   UNL     1     133.048 129.369 104.475  1.00  0.00     0.293 HD
ENDBRANCH   3   7
BRANCH   5   9
ATOM      9  O   UNL     1     129.058 131.016 107.546  1.00  0.00    -0.504 OA
ATOM     10  H   UNL     1     128.399 131.220 106.808  1.00  0.00     0.293 HD
ENDBRANCH   5   9
BRANCH   4  11
ATOM     11  O   UNL     1     130.326 130.268 105.025  1.00  0.00    -0.502 OA
ATOM     12  H   UNL     1     130.637 130.403 104.074  1.00  0.00     0.293 HD
ENDBRANCH   4  11
TORSDOF 3
ENDMDL
MODEL 8
REMARK VINA RESULT:    -3.273     13.154     13.491
REMARK INTER + INTRA:          -3.560
REMARK INTER:                  -3.560
REMARK INTRA:                   0.000
REMARK UNBOUND:                 0.000
REMARK SMILES Oc1cccc(O)c1O
REMARK SMILES IDX 4 1 5 2 6 3 8 4 2 5 3 6 7 7 1 9 9 11
REMARK H PARENT 7 8 1 10 9 12
REMARK Flexibility Score: inf
ROOT
ATOM      1  C   UNL     1     132.757 131.369 108.351  1.00  0.00     0.008 A 
ATOM      2  C   UNL     1     131.366 131.367 108.451  1.00  0.00     0.050 A 
ATOM      3  C   UNL     1     130.580 130.999 107.354  1.00  0.00     0.161 A 
ATOM      4  C   UNL     1     131.191 130.627 106.139  1.00  0.00     0.200 A 
ATOM      5  C   UNL     1     132.605 130.630 106.043  1.00  0.00     0.161 A 
ATOM      6  C   UNL     1     133.372 131.003 107.153  1.00  0.00     0.050 A 
ENDROOT
BRANCH   3   7
ATOM      7  O   UNL     1     129.192 131.009 107.490  1.00  0.00    -0.504 OA
ATOM      8  H   UNL     1     128.731 131.419 108.294  1.00  0.00     0.293 HD
ENDBRANCH   3   7
BRANCH   5   9
ATOM      9  O   UNL     1     133.284 130.275 104.875  1.00  0.00    -0.504 OA
ATOM     10  H   UNL     1     133.950 130.872 104.404  1.00  0.00     0.293 HD
ENDBRANCH   5   9
BRANCH   4  11
ATOM     11  O   UNL     1     130.371 130.266 105.067  1.00  0.00    -0.502 OA
ATOM     12  H   UNL     1     130.506 129.439 104.504  1.00  0.00     0.293 HD
ENDBRANCH   4  11
TORSDOF 3
ENDMDL
MODEL 9
REMARK VINA RESULT:    -3.272     18.068     19.042
REMARK INTER + INTRA:          -3.559
REMARK INTER:                  -3.559
REMARK INTRA:                   0.000
REMARK UNBOUND:                 0.000
REMARK SMILES Oc1cccc(O)c1O
REMARK SMILES IDX 4 1 5 2 6 3 8 4 2 5 3 6 7 7 1 9 9 11
REMARK H PARENT 7 8 1 10 9 12
REMARK Flexibility Score: inf
ROOT
ATOM      1  C   UNL     1     117.628 132.682 108.358  1.00  0.00     0.008 A 
ATOM      2  C   UNL     1     117.984 133.309 107.165  1.00  0.00     0.050 A 
ATOM      3  C   UNL     1     118.357 132.549 106.052  1.00  0.00     0.161 A 
ATOM      4  C   UNL     1     118.373 131.142 106.129  1.00  0.00     0.200 A 
ATOM      5  C   UNL     1     118.009 130.508 107.344  1.00  0.00     0.161 A 
ATOM      6  C   UNL     1     117.640 131.289 108.446  1.00  0.00     0.050 A 
ENDROOT
BRANCH   3   7
ATOM      7  O   UNL     1     118.708 133.211 104.875  1.00  0.00    -0.504 OA
ATOM      8  H   UNL     1     119.664 133.473 104.666  1.00  0.00     0.293 HD
ENDBRANCH   3   7
BRANCH   5   9
ATOM      9  O   UNL     1     118.000 129.120 107.500  1.00  0.00    -0.504 OA
ATOM     10  H   UNL     1     117.165 128.553 107.469  1.00  0.00     0.293 HD
ENDBRANCH   5   9
BRANCH   4  11
ATOM     11  O   UNL     1     118.751 130.419 104.995  1.00  0.00    -0.502 OA
ATOM     12  H   UNL     1     118.583 129.431 104.871  1.00  0.00     0.293 HD
ENDBRANCH   4  11
TORSDOF 3
ENDMDL
