MODEL 1
REMARK VINA RESULT:    -3.920      0.000      0.000
REMARK INTER + INTRA:          -5.593
REMARK INTER:                  -5.296
REMARK INTRA:                  -0.298
REMARK UNBOUND:                -0.298
REMARK SMILES CCCCCCCC(=O)[O-]
REMARK SMILES IDX 5 1 6 2 7 3 8 4 9 5 10 6 4 7 3 8 2 9 1 10
REMARK H PARENT
REMARK Flexibility Score: inf
ROOT
ATOM      1  C   UNL     1       3.985  31.301  19.502  1.00  0.00     0.000 C 
ENDROOT
BRANCH   1   2
ATOM      2  C   UNL     1       4.944  30.116  19.308  1.00  0.00     0.006 C 
BRANCH   2   3
ATOM      3  C   UNL     1       6.157  30.485  18.442  1.00  0.00     0.053 C 
BRANCH   3   4
ATOM      4  C   UNL     1       7.287  29.519  18.626  1.00  0.00     0.041 C 
ATOM      5  O   UNL     1       8.348  29.653  17.963  1.00  0.00    -0.550 OA
ATOM      6  O   UNL     1       7.155  28.453  19.506  1.00  0.00    -0.550 OA
ENDBRANCH   3   4
ENDBRANCH   2   3
ENDBRANCH   1   2
BRANCH   1   7
ATOM      7  C   UNL     1       4.355  32.464  18.569  1.00  0.00     0.000 C 
BRANCH   7   8
ATOM      8  C   UNL     1       3.428  33.678  18.740  1.00  0.00    -0.000 C 
BRANCH   8   9
ATOM      9  C   UNL     1       4.194  34.963  19.091  1.00  0.00    -0.003 C 
ATOM     10  C   UNL     1       5.553  34.642  19.704  1.00  0.00     0.004 C 
ENDBRANCH   8   9
ENDBRANCH   7   8
ENDBRANCH   1   7
TORSDOF 6
ENDMDL
MODEL 2
REMARK VINA RESULT:    -3.832     12.501     13.601
REMARK INTER + INTRA:          -5.473
REMARK INTER:                  -5.214
REMARK INTRA:                  -0.260
REMARK UNBOUND:                -0.298
REMARK SMILES CCCCCCCC(=O)[O-]
REMARK SMILES IDX 5 1 6 2 7 3 8 4 9 5 10 6 4 7 3 8 2 9 1 10
REMARK H PARENT
REMARK Flexibility Score: inf
ROOT
ATOM      1  C   UNL     1      16.544  38.458  21.472  1.00  0.00     0.000 C 
ENDROOT
BRANCH   1   2
ATOM      2  C   UNL     1      18.020  38.390  21.051  1.00  0.00     0.006 C 
BRANCH   2   3
ATOM      3  C   UNL     1      18.792  37.303  21.812  1.00  0.00     0.053 C 
BRANCH   3   4
ATOM      4  C   UNL     1      19.034  36.094  20.961  1.00  0.00     0.041 C 
ATOM      5  O   UNL     1      19.579  36.212  19.833  1.00  0.00    -0.550 OA
ATOM      6  O   UNL     1      18.628  34.840  21.402  1.00  0.00    -0.550 OA
ENDBRANCH   3   4
ENDBRANCH   2   3
ENDBRANCH   1   2
BRANCH   1   7
ATOM      7  C   UNL     1      15.696  39.143  20.391  1.00  0.00     0.000 C 
BRANCH   7   8
ATOM      8  C   UNL     1      16.345  39.079  18.999  1.00  0.00    -0.000 C 
BRANCH   8   9
ATOM      9  C   UNL     1      15.417  38.463  17.941  1.00  0.00    -0.003 C 
ATOM     10  C   UNL     1      16.202  37.600  16.958  1.00  0.00     0.004 C 
ENDBRANCH   8   9
ENDBRANCH   7   8
ENDBRANCH   1   7
TORSDOF 6
ENDMDL
MODEL 3
REMARK VINA RESULT:    -3.821      1.980      2.807
REMARK INTER + INTRA:          -5.459
REMARK INTER:                  -5.189
REMARK INTRA:                  -0.270
REMARK UNBOUND:                -0.298
REMARK SMILES CCCCCCCC(=O)[O-]
REMARK SMILES IDX 5 1 6 2 7 3 8 4 9 5 10 6 4 7 3 8 2 9 1 10
REMARK H PARENT
REMARK Flexibility Score: inf
ROOT
ATOM      1  C   UNL     1       4.798  31.349  18.390  1.00  0.00     0.000 C 
ENDROOT
BRANCH   1   2
ATOM      2  C   UNL     1       4.818  30.025  19.169  1.00  0.00     0.006 C 
BRANCH   2   3
ATOM      3  C   UNL     1       3.822  30.022  20.337  1.00  0.00     0.053 C 
BRANCH   3   4
ATOM      4  C   UNL     1       4.361  29.289  21.526  1.00  0.00     0.041 C 
ATOM      5  O   UNL     1       3.693  29.233  22.592  1.00  0.00    -0.550 OA
ATOM      6  O   UNL     1       5.616  28.696  21.469  1.00  0.00    -0.550 OA
ENDBRANCH   3   4
ENDBRANCH   2   3
ENDBRANCH   1   2
BRANCH   1   7
ATOM      7  C   UNL     1       4.124  32.458  19.210  1.00  0.00     0.000 C 
BRANCH   7   8
ATOM      8  C   UNL     1       3.935  33.756  18.409  1.00  0.00    -0.000 C 
BRANCH   8   9
ATOM      9  C   UNL     1       4.486  34.989  19.140  1.00  0.00    -0.003 C 
ATOM     10  C   UNL     1       5.833  34.686  19.789  1.00  0.00     0.004 C 
ENDBRANCH   8   9
ENDBRANCH   7   8
ENDBRANCH   1   7
TORSDOF 6
ENDMDL
MODEL 4
REMARK VINA RESULT:    -3.801      9.700     10.407
REMARK INTER + INTRA:          -5.432
REMARK INTER:                  -5.001
REMARK INTRA:                  -0.431
REMARK UNBOUND:                -0.298
REMARK SMILES CCCCCCCC(=O)[O-]
REMARK SMILES IDX 5 1 6 2 7 3 8 4 9 5 10 6 4 7 3 8 2 9 1 10
REMARK H PARENT
REMARK Flexibility Score: inf
ROOT
ATOM      1  C   UNL     1      11.389  30.745  25.963  1.00  0.00     0.000 C 
ENDROOT
BRANCH   1   2
ATOM      2  C   UNL     1      11.219  30.690  27.489  1.00  0.00     0.006 C 
BRANCH   2   3
ATOM      3  C   UNL     1      11.812  31.923  28.184  1.00  0.00     0.053 C 
BRANCH   3   4
ATOM      4  C   UNL     1      12.964  31.562  29.070  1.00  0.00     0.041 C 
ATOM      5  O   UNL     1      12.927  31.833  30.299  1.00  0.00    -0.550 OA
ATOM      6  O   UNL     1      14.093  30.955  28.533  1.00  0.00    -0.550 OA
ENDBRANCH   3   4
ENDBRANCH   2   3
ENDBRANCH   1   2
BRANCH   1   7
ATOM      7  C   UNL     1      10.034  30.937  25.266  1.00  0.00     0.000 C 
BRANCH   7   8
ATOM      8  C   UNL     1       9.611  32.412  25.188  1.00  0.00    -0.000 C 
BRANCH   8   9
ATOM      9  C   UNL     1      10.532  33.245  24.284  1.00  0.00    -0.003 C 
ATOM     10  C   UNL     1      11.173  34.392  25.059  1.00  0.00     0.004 C 
ENDBRANCH   8   9
ENDBRANCH   7   8
ENDBRANCH   1   7
TORSDOF 6
ENDMDL
MODEL 5
REMARK VINA RESULT:    -3.799      3.224      4.832
REMARK INTER + INTRA:          -5.429
REMARK INTER:                  -4.982
REMARK INTRA:                  -0.447
REMARK UNBOUND:                -0.298
REMARK SMILES CCCCCCCC(=O)[O-]
REMARK SMILES IDX 5 1 6 2 7 3 8 4 9 5 10 6 4 7 3 8 2 9 1 10
REMARK H PARENT
REMARK Flexibility Score: inf
ROOT
ATOM      1  C   UNL     1       3.292  31.777  17.422  1.00  0.00     0.000 C 
ENDROOT
BRANCH   1   2
ATOM      2  C   UNL     1       3.306  32.712  18.640  1.00  0.00     0.006 C 
BRANCH   2   3
ATOM      3  C   UNL     1       4.732  33.035  19.108  1.00  0.00     0.053 C 
BRANCH   3   4
ATOM      4  C   UNL     1       4.922  34.502  19.343  1.00  0.00     0.041 C 
ATOM      5  O   UNL     1       4.022  35.318  19.014  1.00  0.00    -0.550 OA
ATOM      6  O   UNL     1       6.107  34.971  19.896  1.00  0.00    -0.550 OA
ENDBRANCH   3   4
ENDBRANCH   2   3
ENDBRANCH   1   2
BRANCH   1   7
ATOM      7  C   UNL     1       4.691  31.204  17.152  1.00  0.00     0.000 C 
BRANCH   7   8
ATOM      8  C   UNL     1       4.751  29.678  17.328  1.00  0.00    -0.000 C 
BRANCH   8   9
ATOM      9  C   UNL     1       5.747  29.246  18.415  1.00  0.00    -0.003 C 
ATOM     10  C   UNL     1       6.985  30.138  18.411  1.00  0.00     0.004 C 
ENDBRANCH   8   9
ENDBRANCH   7   8
ENDBRANCH   1   7
TORSDOF 6
ENDMDL
MODEL 6
REMARK VINA RESULT:    -3.791     10.439     11.140
REMARK INTER + INTRA:          -5.418
REMARK INTER:                  -5.083
REMARK INTRA:                  -0.336
REMARK UNBOUND:                -0.298
REMARK SMILES CCCCCCCC(=O)[O-]
REMARK SMILES IDX 5 1 6 2 7 3 8 4 9 5 10 6 4 7 3 8 2 9 1 10
REMARK H PARENT
REMARK Flexibility Score: inf
ROOT
ATOM      1  C   UNL     1      11.463  31.109  26.841  1.00  0.00     0.000 C 
ENDROOT
BRANCH   1   2
ATOM      2  C   UNL     1      12.799  31.490  27.498  1.00  0.00     0.006 C 
BRANCH   2   3
ATOM      3  C   UNL     1      12.954  30.878  28.897  1.00  0.00     0.053 C 
BRANCH   3   4
ATOM      4  C   UNL     1      12.958  31.928  29.966  1.00  0.00     0.041 C 
ATOM      5  O   UNL     1      11.905  32.564  30.233  1.00  0.00    -0.550 OA
ATOM      6  O   UNL     1      14.133  32.226  30.645  1.00  0.00    -0.550 OA
ENDBRANCH   3   4
ENDBRANCH   2   3
ENDBRANCH   1   2
BRANCH   1   7
ATOM      7  C   UNL     1      10.510  32.313  26.797  1.00  0.00     0.000 C 
BRANCH   7   8
ATOM      8  C   UNL     1       9.655  32.345  25.520  1.00  0.00    -0.000 C 
BRANCH   8   9
ATOM      9  C   UNL     1      10.263  33.233  24.424  1.00  0.00    -0.003 C 
ATOM     10  C   UNL     1      11.100  34.356  25.027  1.00  0.00     0.004 C 
ENDBRANCH   8   9
ENDBRANCH   7   8
ENDBRANCH   1   7
TORSDOF 6
ENDMDL
MODEL 7
REMARK VINA RESULT:    -3.784     10.605     11.550
REMARK INTER + INTRA:          -5.409
REMARK INTER:                  -5.040
REMARK INTRA:                  -0.369
REMARK UNBOUND:                -0.298
REMARK SMILES CCCCCCCC(=O)[O-]
REMARK SMILES IDX 5 1 6 2 7 3 8 4 9 5 10 6 4 7 3 8 2 9 1 10
REMARK H PARENT
REMARK Flexibility Score: inf
ROOT
ATOM      1  C   UNL     1      11.174  30.211  27.805  1.00  0.00     0.000 C 
ENDROOT
BRANCH   1   2
ATOM      2  C   UNL     1      11.650  31.295  26.826  1.00  0.00     0.006 C 
BRANCH   2   3
ATOM      3  C   UNL     1      10.681  32.484  26.760  1.00  0.00     0.053 C 
BRANCH   3   4
ATOM      4  C   UNL     1      11.003  33.402  25.621  1.00  0.00     0.041 C 
ATOM      5  O   UNL     1      11.387  34.579  25.845  1.00  0.00    -0.550 OA
ATOM      6  O   UNL     1      10.847  32.966  24.311  1.00  0.00    -0.550 OA
ENDBRANCH   3   4
ENDBRANCH   2   3
ENDBRANCH   1   2
BRANCH   1   7
ATOM      7  C   UNL     1      12.152  30.066  28.981  1.00  0.00     0.000 C 
BRANCH   7   8
ATOM      8  C   UNL     1      13.360  31.010  28.868  1.00  0.00    -0.000 C 
BRANCH   8   9
ATOM      9  C   UNL     1      13.529  31.906  30.103  1.00  0.00    -0.003 C 
ATOM     10  C   UNL     1      12.363  31.731  31.072  1.00  0.00     0.004 C 
ENDBRANCH   8   9
ENDBRANCH   7   8
ENDBRANCH   1   7
TORSDOF 6
ENDMDL
MODEL 8
REMARK VINA RESULT:    -3.738      9.712     10.749
REMARK INTER + INTRA:          -5.347
REMARK INTER:                  -4.972
REMARK INTRA:                  -0.375
REMARK UNBOUND:                -0.298
REMARK SMILES CCCCCCCC(=O)[O-]
REMARK SMILES IDX 5 1 6 2 7 3 8 4 9 5 10 6 4 7 3 8 2 9 1 10
REMARK H PARENT
REMARK Flexibility Score: inf
ROOT
ATOM      1  C   UNL     1      11.411  31.174  26.746  1.00  0.00     0.000 C 
ENDROOT
BRANCH   1   2
ATOM      2  C   UNL     1      10.271  32.202  26.676  1.00  0.00     0.006 C 
BRANCH   2   3
ATOM      3  C   UNL     1       9.806  32.456  25.235  1.00  0.00     0.053 C 
BRANCH   3   4
ATOM      4  C   UNL     1      10.721  33.396  24.512  1.00  0.00     0.041 C 
ATOM      5  O   UNL     1      11.130  33.116  23.355  1.00  0.00    -0.550 OA
ATOM      6  O   UNL     1      11.147  34.565  25.129  1.00  0.00    -0.550 OA
ENDBRANCH   3   4
ENDBRANCH   2   3
ENDBRANCH   1   2
BRANCH   1   7
ATOM      7  C   UNL     1      12.684  31.805  27.330  1.00  0.00     0.000 C 
BRANCH   7   8
ATOM      8  C   UNL     1      13.285  30.973  28.475  1.00  0.00    -0.000 C 
BRANCH   8   9
ATOM      9  C   UNL     1      12.223  30.186  29.256  1.00  0.00    -0.003 C 
ATOM     10  C   UNL     1      11.684  31.002  30.426  1.00  0.00     0.004 C 
ENDBRANCH   8   9
ENDBRANCH   7   8
ENDBRANCH   1   7
TORSDOF 6
ENDMDL
MODEL 9
REMARK VINA RESULT:    -3.708      9.983     10.805
REMARK INTER + INTRA:          -5.307
REMARK INTER:                  -4.824
REMARK INTRA:                  -0.482
REMARK UNBOUND:                -0.298
REMARK SMILES CCCCCCCC(=O)[O-]
REMARK SMILES IDX 5 1 6 2 7 3 8 4 9 5 10 6 4 7 3 8 2 9 1 10
REMARK H PARENT
REMARK Flexibility Score: inf
ROOT
ATOM      1  C   UNL     1      11.164  31.034  27.310  1.00  0.00     0.000 C 
ENDROOT
BRANCH   1   2
ATOM      2  C   UNL     1      10.031  31.870  27.924  1.00  0.00     0.006 C 
BRANCH   2   3
ATOM      3  C   UNL     1      10.559  32.967  28.858  1.00  0.00     0.053 C 
BRANCH   3   4
ATOM      4  C   UNL     1      11.049  32.404  30.157  1.00  0.00     0.041 C 
ATOM      5  O   UNL     1      10.247  31.840  30.946  1.00  0.00    -0.550 OA
ATOM      6  O   UNL     1      12.387  32.531  30.510  1.00  0.00    -0.550 OA
ENDBRANCH   3   4
ENDBRANCH   2   3
ENDBRANCH   1   2
BRANCH   1   7
ATOM      7  C   UNL     1      11.244  31.248  25.791  1.00  0.00     0.000 C 
BRANCH   7   8
ATOM      8  C   UNL     1      10.060  32.061  25.244  1.00  0.00    -0.000 C 
BRANCH   8   9
ATOM      9  C   UNL     1      10.502  33.188  24.299  1.00  0.00    -0.003 C 
ATOM     10  C   UNL     1      11.143  34.335  25.074  1.00  0.00     0.004 C 
ENDBRANCH   8   9
ENDBRANCH   7   8
ENDBRANCH   1   7
TORSDOF 6
ENDMDL
