MODEL 1
REMARK VINA RESULT:     0.986      0.000      0.000
REMARK INTER + INTRA:           1.730
REMARK INTER:                   1.187
REMARK INTRA:                   0.543
REMARK UNBOUND:                 0.543
REMARK SMILES O=c1c(O)c(-c2ccc(O)c(O)c2)oc2cc(O)cc(O)c12
REMARK SMILES IDX 5 1 3 2 2 3 1 4 22 5 20 6 19 7 17 8 16 9 15 10 14 11 6 12
REMARK SMILES IDX 7 13 8 14 9 15 13 16 11 17 10 18 12 20 4 22 21 24 18 26
REMARK H PARENT 10 19 12 21 4 23 21 25 18 27
REMARK Flexibility Score: inf
ROOT
ATOM      1  C   UNL     1      11.186 -17.949   5.031  1.00  0.00     0.180 A 
ATOM      2  C   UNL     1      12.386 -18.680   5.047  1.00  0.00     0.208 A 
ATOM      3  C   UNL     1      12.329 -20.083   5.024  1.00  0.00     0.238 A 
ATOM      4  O   UNL     1      13.405 -20.732   5.094  1.00  0.00    -0.285 OA
ATOM      5  C   UNL     1      11.074 -20.736   4.968  1.00  0.00     0.111 A 
ATOM      6  C   UNL     1      10.900 -22.151   4.900  1.00  0.00     0.134 A 
ATOM      7  C   UNL     1       9.611 -22.692   4.980  1.00  0.00     0.093 A 
ATOM      8  C   UNL     1       8.487 -21.867   5.060  1.00  0.00     0.123 A 
ATOM      9  C   UNL     1       8.644 -20.484   5.068  1.00  0.00     0.094 A 
ATOM     10  C   UNL     1       9.919 -19.915   5.025  1.00  0.00     0.146 A 
ATOM     11  O   UNL     1      10.024 -18.592   5.045  1.00  0.00    -0.452 OA
ENDROOT
BRANCH   1  12
ATOM     12  C   UNL     1      11.165 -16.468   5.029  1.00  0.00     0.025 A 
ATOM     13  C   UNL     1       9.953 -15.754   5.046  1.00  0.00     0.016 A 
ATOM     14  C   UNL     1       9.957 -14.357   5.068  1.00  0.00     0.051 A 
ATOM     15  C   UNL     1      11.167 -13.653   5.085  1.00  0.00     0.157 A 
ATOM     16  C   UNL     1      12.376 -15.758   5.068  1.00  0.00     0.062 A 
ATOM     17  C   UNL     1      12.382 -14.358   5.088  1.00  0.00     0.158 A 
BRANCH  15  18
ATOM     18  O   UNL     1      11.168 -12.260   5.104  1.00  0.00    -0.504 OA
ATOM     19  H   UNL     1      12.000 -11.732   5.341  1.00  0.00     0.293 HD
ENDBRANCH  15  18
BRANCH  17  20
ATOM     20  O   UNL     1      13.605 -13.688   5.113  1.00  0.00    -0.504 OA
ATOM     21  H   UNL     1      14.485 -14.179   5.213  1.00  0.00     0.293 HD
ENDBRANCH  17  20
ENDBRANCH   1  12
BRANCH   2  22
ATOM     22  O   UNL     1      13.613 -18.016   5.125  1.00  0.00    -0.502 OA
ATOM     23  H   UNL     1      14.132 -17.733   4.302  1.00  0.00     0.293 HD
ENDBRANCH   2  22
BRANCH   6  24
ATOM     24  O   UNL     1      11.949 -23.059   4.726  1.00  0.00    -0.507 OA
ATOM     25  H   UNL     1      12.889 -22.924   5.066  1.00  0.00     0.293 HD
ENDBRANCH   6  24
BRANCH   8  26
ATOM     26  O   UNL     1       7.207 -22.415   5.124  1.00  0.00    -0.508 OA
ATOM     27  H   UNL     1       6.383 -21.829   5.177  1.00  0.00     0.293 HD
ENDBRANCH   8  26
TORSDOF 6
ENDMDL
MODEL 2
REMARK VINA RESULT:     1.453      1.951      3.937
REMARK INTER + INTRA:           2.293
REMARK INTER:                   1.749
REMARK INTRA:                   0.544
REMARK UNBOUND:                 0.543
REMARK SMILES O=c1c(O)c(-c2ccc(O)c(O)c2)oc2cc(O)cc(O)c12
REMARK SMILES IDX 5 1 3 2 2 3 1 4 22 5 20 6 19 7 17 8 16 9 15 10 14 11 6 12
REMARK SMILES IDX 7 13 8 14 9 15 13 16 11 17 10 18 12 20 4 22 21 24 18 26
REMARK H PARENT 10 19 12 21 4 23 21 25 18 27
REMARK Flexibility Score: inf
ROOT
ATOM      1  C   UNL     1      11.679 -15.757   5.018  1.00  0.00     0.180 A 
ATOM      2  C   UNL     1      10.405 -16.335   4.887  1.00  0.00     0.208 A 
ATOM      3  C   UNL     1      10.290 -17.735   4.876  1.00  0.00     0.238 A 
ATOM      4  O   UNL     1       9.153 -18.245   4.704  1.00  0.00    -0.285 OA
ATOM      5  C   UNL     1      11.448 -18.538   5.014  1.00  0.00     0.111 A 
ATOM      6  C   UNL     1      11.443 -19.965   5.057  1.00  0.00     0.134 A 
ATOM      7  C   UNL     1      12.659 -20.659   5.064  1.00  0.00     0.093 A 
ATOM      8  C   UNL     1      13.877 -19.977   5.095  1.00  0.00     0.123 A 
ATOM      9  C   UNL     1      13.891 -18.585   5.113  1.00  0.00     0.094 A 
ATOM     10  C   UNL     1      12.695 -17.864   5.070  1.00  0.00     0.146 A 
ATOM     11  O   UNL     1      12.753 -16.538   5.078  1.00  0.00    -0.452 OA
ENDROOT
BRANCH   1  12
ATOM     12  C   UNL     1      11.880 -14.291   5.063  1.00  0.00     0.025 A 
ATOM     13  C   UNL     1      13.169 -13.728   5.054  1.00  0.00     0.016 A 
ATOM     14  C   UNL     1      13.334 -12.341   5.072  1.00  0.00     0.051 A 
ATOM     15  C   UNL     1      12.218 -11.496   5.087  1.00  0.00     0.157 A 
ATOM     16  C   UNL     1      10.764 -13.439   5.057  1.00  0.00     0.062 A 
ATOM     17  C   UNL     1      10.926 -12.049   5.077  1.00  0.00     0.158 A 
BRANCH  15  18
ATOM     18  O   UNL     1      12.386 -10.112   5.109  1.00  0.00    -0.504 OA
ATOM     19  H   UNL     1      12.355  -9.587   5.975  1.00  0.00     0.293 HD
ENDBRANCH  15  18
BRANCH  17  20
ATOM     20  O   UNL     1       9.794 -11.236   5.084  1.00  0.00    -0.504 OA
ATOM     21  H   UNL     1       8.996 -11.420   4.488  1.00  0.00     0.293 HD
ENDBRANCH  17  20
ENDBRANCH   1  12
BRANCH   2  22
ATOM     22  O   UNL     1       9.278 -15.524   4.732  1.00  0.00    -0.502 OA
ATOM     23  H   UNL     1       9.293 -14.530   4.927  1.00  0.00     0.293 HD
ENDBRANCH   2  22
BRANCH   6  24
ATOM     24  O   UNL     1      10.281 -20.740   5.122  1.00  0.00    -0.507 OA
ATOM     25  H   UNL     1       9.835 -21.037   5.977  1.00  0.00     0.293 HD
ENDBRANCH   6  24
BRANCH   8  26
ATOM     26  O   UNL     1      15.082 -20.676   5.117  1.00  0.00    -0.508 OA
ATOM     27  H   UNL     1      15.136 -21.630   5.454  1.00  0.00     0.293 HD
ENDBRANCH   8  26
TORSDOF 6
ENDMDL
MODEL 3
REMARK VINA RESULT:     2.814      2.348      5.044
REMARK INTER + INTRA:           3.933
REMARK INTER:                   3.399
REMARK INTRA:                   0.534
REMARK UNBOUND:                 0.543
REMARK SMILES O=c1c(O)c(-c2ccc(O)c(O)c2)oc2cc(O)cc(O)c12
REMARK SMILES IDX 5 1 3 2 2 3 1 4 22 5 20 6 19 7 17 8 16 9 15 10 14 11 6 12
REMARK SMILES IDX 7 13 8 14 9 15 13 16 11 17 10 18 12 20 4 22 21 24 18 26
REMARK H PARENT 10 19 12 21 4 23 21 25 18 27
REMARK Flexibility Score: inf
ROOT
ATOM      1  C   UNL     1      12.500 -14.163   4.989  1.00  0.00     0.180 A 
ATOM      2  C   UNL     1      11.103 -14.235   4.860  1.00  0.00     0.208 A 
ATOM      3  C   UNL     1      10.483 -15.495   4.858  1.00  0.00     0.238 A 
ATOM      4  O   UNL     1       9.238 -15.555   4.687  1.00  0.00    -0.285 OA
ATOM      5  C   UNL     1      11.266 -16.665   5.002  1.00  0.00     0.111 A 
ATOM      6  C   UNL     1      10.739 -17.991   5.054  1.00  0.00     0.134 A 
ATOM      7  C   UNL     1      11.617 -19.082   5.067  1.00  0.00     0.093 A 
ATOM      8  C   UNL     1      13.000 -18.894   5.096  1.00  0.00     0.123 A 
ATOM      9  C   UNL     1      13.522 -17.603   5.105  1.00  0.00     0.094 A 
ATOM     10  C   UNL     1      12.673 -16.495   5.056  1.00  0.00     0.146 A 
ATOM     11  O   UNL     1      13.213 -15.282   5.056  1.00  0.00    -0.452 OA
ENDROOT
BRANCH   1  12
ATOM     12  C   UNL     1      13.224 -12.872   5.025  1.00  0.00     0.025 A 
ATOM     13  C   UNL     1      14.629 -12.819   4.968  1.00  0.00     0.016 A 
ATOM     14  C   UNL     1      15.289 -11.588   4.979  1.00  0.00     0.051 A 
ATOM     15  C   UNL     1      14.560 -10.393   5.035  1.00  0.00     0.157 A 
ATOM     16  C   UNL     1      12.496 -11.671   5.060  1.00  0.00     0.062 A 
ATOM     17  C   UNL     1      13.156 -10.436   5.073  1.00  0.00     0.158 A 
BRANCH  15  18
ATOM     18  O   UNL     1      15.222  -9.167   5.049  1.00  0.00    -0.504 OA
ATOM     19  H   UNL     1      15.684  -8.804   4.224  1.00  0.00     0.293 HD
ENDBRANCH  15  18
BRANCH  17  20
ATOM     20  O   UNL     1      12.400  -9.266   5.121  1.00  0.00    -0.504 OA
ATOM     21  H   UNL     1      12.826  -8.348   5.085  1.00  0.00     0.293 HD
ENDBRANCH  17  20
ENDBRANCH   1  12
BRANCH   2  22
ATOM     22  O   UNL     1      10.351 -13.068   4.698  1.00  0.00    -0.502 OA
ATOM     23  H   UNL     1      10.170 -12.660   3.788  1.00  0.00     0.293 HD
ENDBRANCH   2  22
BRANCH   6  24
ATOM     24  O   UNL     1       9.374 -18.286   5.122  1.00  0.00    -0.507 OA
ATOM     25  H   UNL     1       8.969 -19.185   4.907  1.00  0.00     0.293 HD
ENDBRANCH   6  24
BRANCH   8  26
ATOM     26  O   UNL     1      13.865 -19.986   5.125  1.00  0.00    -0.508 OA
ATOM     27  H   UNL     1      13.526 -20.934   5.022  1.00  0.00     0.293 HD
ENDBRANCH   8  26
TORSDOF 6
ENDMDL
