MODEL 1
REMARK VINA RESULT:    -6.611      0.000      0.000
REMARK INTER + INTRA:         -10.582
REMARK INTER:                 -10.089
REMARK INTRA:                  -0.492
REMARK UNBOUND:                -0.492
REMARK SMILES CC(=O)CCC=C(C)CCC=C(C)CCC=C(C)C
REMARK SMILES IDX 10 1 11 2 12 3 13 4 14 5 15 6 16 7 18 8 17 9 19 10 9 11 7 12
REMARK SMILES IDX 6 13 8 14 5 15 4 16 2 17 3 18 1 19
REMARK H PARENT
REMARK Flexibility Score: inf
ROOT
ATOM      1  C   UNL     1      14.337  21.156  27.843  1.00  0.00     0.032 C 
ENDROOT
BRANCH   1   2
ATOM      2  C   UNL     1      14.753  22.609  27.910  1.00  0.00    -0.028 C 
ATOM      3  C   UNL     1      15.385  23.271  26.914  1.00  0.00    -0.077 C 
ATOM      4  C   UNL     1      15.772  22.587  25.623  1.00  0.00     0.039 C 
BRANCH   3   5
ATOM      5  C   UNL     1      15.625  24.763  27.048  1.00  0.00     0.034 C 
BRANCH   5   6
ATOM      6  C   UNL     1      16.292  25.133  28.382  1.00  0.00     0.032 C 
BRANCH   6   7
ATOM      7  C   UNL     1      17.007  26.459  28.318  1.00  0.00    -0.028 C 
ATOM      8  C   UNL     1      19.157  25.465  27.498  1.00  0.00     0.039 C 
ATOM      9  C   UNL     1      18.279  26.629  27.896  1.00  0.00    -0.080 C 
ATOM     10  C   UNL     1      18.840  28.027  27.860  1.00  0.00     0.039 C 
ENDBRANCH   6   7
ENDBRANCH   5   6
ENDBRANCH   3   5
ENDBRANCH   1   2
BRANCH   1  11
ATOM     11  C   UNL     1      15.449  20.200  28.302  1.00  0.00     0.034 C 
BRANCH  11  12
ATOM     12  C   UNL     1      15.475  20.038  29.811  1.00  0.00    -0.077 C 
ATOM     13  C   UNL     1      15.762  18.863  30.416  1.00  0.00    -0.028 C 
ATOM     14  C   UNL     1      15.189  21.234  30.679  1.00  0.00     0.039 C 
BRANCH  13  15
ATOM     15  C   UNL     1      16.160  17.605  29.678  1.00  0.00     0.035 C 
BRANCH  15  16
ATOM     16  C   UNL     1      17.282  16.847  30.399  1.00  0.00     0.079 C 
BRANCH  16  17
ATOM     17  C   UNL     1      17.108  15.353  30.292  1.00  0.00     0.130 C 
ATOM     18  O   UNL     1      16.053  14.899  29.879  1.00  0.00    -0.300 OA
ATOM     19  C   UNL     1      18.204  14.409  30.690  1.00  0.00     0.087 C 
ENDBRANCH  16  17
ENDBRANCH  15  16
ENDBRANCH  13  15
ENDBRANCH  11  12
ENDBRANCH   1  11
TORSDOF 9
ENDMDL
MODEL 2
REMARK VINA RESULT:    -6.229      2.873      8.464
REMARK INTER + INTRA:          -9.999
REMARK INTER:                  -9.179
REMARK INTRA:                  -0.819
REMARK UNBOUND:                -0.492
REMARK SMILES CC(=O)CCC=C(C)CCC=C(C)CCC=C(C)C
REMARK SMILES IDX 10 1 11 2 12 3 13 4 14 5 15 6 16 7 18 8 17 9 19 10 9 11 7 12
REMARK SMILES IDX 6 13 8 14 5 15 4 16 2 17 3 18 1 19
REMARK H PARENT
REMARK Flexibility Score: inf
ROOT
ATOM      1  C   UNL     1      14.407  22.410  29.686  1.00  0.00     0.032 C 
ENDROOT
BRANCH   1   2
ATOM      2  C   UNL     1      15.047  21.221  30.367  1.00  0.00    -0.028 C 
ATOM      3  C   UNL     1      15.379  20.068  29.742  1.00  0.00    -0.077 C 
ATOM      4  C   UNL     1      15.100  19.850  28.272  1.00  0.00     0.039 C 
BRANCH   3   5
ATOM      5  C   UNL     1      16.143  19.002  30.504  1.00  0.00     0.034 C 
BRANCH   5   6
ATOM      6  C   UNL     1      16.098  17.634  29.805  1.00  0.00     0.032 C 
BRANCH   6   7
ATOM      7  C   UNL     1      17.220  16.727  30.244  1.00  0.00    -0.028 C 
ATOM      8  C   UNL     1      15.911  14.624  29.864  1.00  0.00     0.039 C 
ATOM      9  C   UNL     1      17.163  15.377  30.248  1.00  0.00    -0.080 C 
ATOM     10  C   UNL     1      18.385  14.612  30.685  1.00  0.00     0.039 C 
ENDBRANCH   6   7
ENDBRANCH   5   6
ENDBRANCH   3   5
ENDBRANCH   1   2
BRANCH   1  11
ATOM     11  C   UNL     1      15.399  23.559  29.445  1.00  0.00     0.034 C 
BRANCH  11  12
ATOM     12  C   UNL     1      15.532  23.897  27.971  1.00  0.00    -0.077 C 
ATOM     13  C   UNL     1      16.124  25.031  27.531  1.00  0.00    -0.028 C 
ATOM     14  C   UNL     1      15.002  22.928  26.949  1.00  0.00     0.039 C 
BRANCH  13  15
ATOM     15  C   UNL     1      16.784  26.048  28.435  1.00  0.00     0.035 C 
BRANCH  15  16
ATOM     16  C   UNL     1      18.018  26.682  27.780  1.00  0.00     0.079 C 
BRANCH  16  17
ATOM     17  C   UNL     1      19.272  25.896  28.071  1.00  0.00     0.130 C 
ATOM     18  O   UNL     1      19.949  26.182  29.046  1.00  0.00    -0.300 OA
ATOM     19  C   UNL     1      19.712  24.770  27.182  1.00  0.00     0.087 C 
ENDBRANCH  16  17
ENDBRANCH  15  16
ENDBRANCH  13  15
ENDBRANCH  11  12
ENDBRANCH   1  11
TORSDOF 9
ENDMDL
MODEL 3
REMARK VINA RESULT:    -6.076      6.508      9.740
REMARK INTER + INTRA:          -9.766
REMARK INTER:                  -7.648
REMARK INTRA:                  -2.118
REMARK UNBOUND:                -0.492
REMARK SMILES CC(=O)CCC=C(C)CCC=C(C)CCC=C(C)C
REMARK SMILES IDX 10 1 11 2 12 3 13 4 14 5 15 6 16 7 18 8 17 9 19 10 9 11 7 12
REMARK SMILES IDX 6 13 8 14 5 15 4 16 2 17 3 18 1 19
REMARK H PARENT
REMARK Flexibility Score: inf
ROOT
ATOM      1  C   UNL     1      19.180  30.742  29.389  1.00  0.00     0.032 C 
ENDROOT
BRANCH   1   2
ATOM      2  C   UNL     1      18.701  29.650  28.459  1.00  0.00    -0.028 C 
ATOM      3  C   UNL     1      18.979  28.334  28.615  1.00  0.00    -0.077 C 
ATOM      4  C   UNL     1      19.845  27.832  29.748  1.00  0.00     0.039 C 
BRANCH   3   5
ATOM      5  C   UNL     1      18.325  27.322  27.694  1.00  0.00     0.034 C 
BRANCH   5   6
ATOM      6  C   UNL     1      18.493  25.879  28.194  1.00  0.00     0.032 C 
BRANCH   6   7
ATOM      7  C   UNL     1      19.037  24.962  27.128  1.00  0.00    -0.028 C 
ATOM      8  C   UNL     1      21.384  25.040  28.003  1.00  0.00     0.039 C 
ATOM      9  C   UNL     1      20.322  24.552  27.046  1.00  0.00    -0.080 C 
ATOM     10  C   UNL     1      20.701  23.605  25.937  1.00  0.00     0.039 C 
ENDBRANCH   6   7
ENDBRANCH   5   6
ENDBRANCH   3   5
ENDBRANCH   1   2
BRANCH   1  11
ATOM     11  C   UNL     1      18.107  31.168  30.403  1.00  0.00     0.034 C 
BRANCH  11  12
ATOM     12  C   UNL     1      17.078  32.099  29.787  1.00  0.00    -0.077 C 
ATOM     13  C   UNL     1      15.754  31.822  29.775  1.00  0.00    -0.028 C 
ATOM     14  C   UNL     1      17.539  33.396  29.179  1.00  0.00     0.039 C 
BRANCH  13  15
ATOM     15  C   UNL     1      15.137  30.606  30.431  1.00  0.00     0.035 C 
BRANCH  15  16
ATOM     16  C   UNL     1      14.951  29.453  29.436  1.00  0.00     0.079 C 
BRANCH  16  17
ATOM     17  C   UNL     1      15.489  28.153  29.981  1.00  0.00     0.130 C 
ATOM     18  O   UNL     1      15.246  27.109  29.395  1.00  0.00    -0.300 OA
ATOM     19  C   UNL     1      16.313  28.112  31.234  1.00  0.00     0.087 C 
ENDBRANCH  16  17
ENDBRANCH  15  16
ENDBRANCH  13  15
ENDBRANCH  11  12
ENDBRANCH   1  11
TORSDOF 9
ENDMDL
MODEL 4
REMARK VINA RESULT:    -6.021      6.530      9.274
REMARK INTER + INTRA:          -9.681
REMARK INTER:                  -7.516
REMARK INTRA:                  -2.165
REMARK UNBOUND:                -0.492
REMARK SMILES CC(=O)CCC=C(C)CCC=C(C)CCC=C(C)C
REMARK SMILES IDX 10 1 11 2 12 3 13 4 14 5 15 6 16 7 18 8 17 9 19 10 9 11 7 12
REMARK SMILES IDX 6 13 8 14 5 15 4 16 2 17 3 18 1 19
REMARK H PARENT
REMARK Flexibility Score: inf
ROOT
ATOM      1  C   UNL     1      20.402  30.207  30.168  1.00  0.00     0.032 C 
ENDROOT
BRANCH   1   2
ATOM      2  C   UNL     1      19.428  31.074  29.402  1.00  0.00    -0.028 C 
ATOM      3  C   UNL     1      18.717  32.091  29.944  1.00  0.00    -0.077 C 
ATOM      4  C   UNL     1      18.813  32.434  31.413  1.00  0.00     0.039 C 
BRANCH   3   5
ATOM      5  C   UNL     1      17.878  32.976  29.041  1.00  0.00     0.034 C 
BRANCH   5   6
ATOM      6  C   UNL     1      16.382  32.914  29.385  1.00  0.00     0.032 C 
BRANCH   6   7
ATOM      7  C   UNL     1      15.798  31.541  29.163  1.00  0.00    -0.028 C 
ATOM      8  C   UNL     1      14.842  31.376  31.474  1.00  0.00     0.039 C 
ATOM      9  C   UNL     1      15.080  30.852  30.077  1.00  0.00    -0.080 C 
ATOM     10  C   UNL     1      14.536  29.502  29.687  1.00  0.00     0.039 C 
ENDBRANCH   6   7
ENDBRANCH   5   6
ENDBRANCH   3   5
ENDBRANCH   1   2
BRANCH   1  11
ATOM     11  C   UNL     1      20.052  28.713  30.089  1.00  0.00     0.034 C 
BRANCH  11  12
ATOM     12  C   UNL     1      18.555  28.472  30.175  1.00  0.00    -0.077 C 
ATOM     13  C   UNL     1      17.841  27.935  29.160  1.00  0.00    -0.028 C 
ATOM     14  C   UNL     1      17.831  28.824  31.446  1.00  0.00     0.039 C 
BRANCH  13  15
ATOM     15  C   UNL     1      18.448  27.447  27.863  1.00  0.00     0.035 C 
BRANCH  15  16
ATOM     16  C   UNL     1      18.321  25.925  27.709  1.00  0.00     0.079 C 
BRANCH  16  17
ATOM     17  C   UNL     1      19.651  25.233  27.880  1.00  0.00     0.130 C 
ATOM     18  O   UNL     1      20.270  25.371  28.924  1.00  0.00    -0.300 OA
ATOM     19  C   UNL     1      20.235  24.383  26.791  1.00  0.00     0.087 C 
ENDBRANCH  16  17
ENDBRANCH  15  16
ENDBRANCH  13  15
ENDBRANCH  11  12
ENDBRANCH   1  11
TORSDOF 9
ENDMDL
MODEL 5
REMARK VINA RESULT:    -5.961      6.713      9.186
REMARK INTER + INTRA:          -9.590
REMARK INTER:                  -6.952
REMARK INTRA:                  -2.638
REMARK UNBOUND:                -0.492
REMARK SMILES CC(=O)CCC=C(C)CCC=C(C)CCC=C(C)C
REMARK SMILES IDX 10 1 11 2 12 3 13 4 14 5 15 6 16 7 18 8 17 9 19 10 9 11 7 12
REMARK SMILES IDX 6 13 8 14 5 15 4 16 2 17 3 18 1 19
REMARK H PARENT
REMARK Flexibility Score: inf
ROOT
ATOM      1  C   UNL     1      14.780  29.405  30.194  1.00  0.00     0.032 C 
ENDROOT
BRANCH   1   2
ATOM      2  C   UNL     1      15.349  30.554  29.393  1.00  0.00    -0.028 C 
ATOM      3  C   UNL     1      15.741  31.737  29.923  1.00  0.00    -0.077 C 
ATOM      4  C   UNL     1      15.607  32.031  31.399  1.00  0.00     0.039 C 
BRANCH   3   5
ATOM      5  C   UNL     1      16.425  32.759  29.035  1.00  0.00     0.034 C 
BRANCH   5   6
ATOM      6  C   UNL     1      17.647  33.399  29.712  1.00  0.00     0.032 C 
BRANCH   6   7
ATOM      7  C   UNL     1      18.923  32.652  29.419  1.00  0.00    -0.028 C 
ATOM      8  C   UNL     1      19.227  31.879  31.784  1.00  0.00     0.039 C 
ATOM      9  C   UNL     1      19.627  31.941  30.328  1.00  0.00    -0.080 C 
ATOM     10  C   UNL     1      20.867  31.221  29.868  1.00  0.00     0.039 C 
ENDBRANCH   6   7
ENDBRANCH   5   6
ENDBRANCH   3   5
ENDBRANCH   1   2
BRANCH   1  11
ATOM     11  C   UNL     1      15.712  28.183  30.219  1.00  0.00     0.034 C 
BRANCH  11  12
ATOM     12  C   UNL     1      16.977  28.446  31.016  1.00  0.00    -0.077 C 
ATOM     13  C   UNL     1      18.195  28.555  30.440  1.00  0.00    -0.028 C 
ATOM     14  C   UNL     1      16.878  28.614  32.508  1.00  0.00     0.039 C 
BRANCH  13  15
ATOM     15  C   UNL     1      18.434  28.503  28.947  1.00  0.00     0.035 C 
BRANCH  15  16
ATOM     16  C   UNL     1      19.800  27.892  28.606  1.00  0.00     0.079 C 
BRANCH  16  17
ATOM     17  C   UNL     1      19.766  26.385  28.655  1.00  0.00     0.130 C 
ATOM     18  O   UNL     1      20.625  25.784  29.282  1.00  0.00    -0.300 OA
ATOM     19  C   UNL     1      18.703  25.604  27.941  1.00  0.00     0.087 C 
ENDBRANCH  16  17
ENDBRANCH  15  16
ENDBRANCH  13  15
ENDBRANCH  11  12
ENDBRANCH   1  11
TORSDOF 9
ENDMDL
MODEL 6
REMARK VINA RESULT:    -5.958      5.975      9.800
REMARK INTER + INTRA:          -9.586
REMARK INTER:                  -7.258
REMARK INTRA:                  -2.328
REMARK UNBOUND:                -0.492
REMARK SMILES CC(=O)CCC=C(C)CCC=C(C)CCC=C(C)C
REMARK SMILES IDX 10 1 11 2 12 3 13 4 14 5 15 6 16 7 18 8 17 9 19 10 9 11 7 12
REMARK SMILES IDX 6 13 8 14 5 15 4 16 2 17 3 18 1 19
REMARK H PARENT
REMARK Flexibility Score: inf
ROOT
ATOM      1  C   UNL     1      17.801  32.074  29.322  1.00  0.00     0.032 C 
ENDROOT
BRANCH   1   2
ATOM      2  C   UNL     1      18.216  30.643  29.064  1.00  0.00    -0.028 C 
ATOM      3  C   UNL     1      18.712  29.807  30.006  1.00  0.00    -0.077 C 
ATOM      4  C   UNL     1      18.932  30.257  31.432  1.00  0.00     0.039 C 
BRANCH   3   5
ATOM      5  C   UNL     1      18.960  28.353  29.654  1.00  0.00     0.034 C 
BRANCH   5   6
ATOM      6  C   UNL     1      18.746  28.067  28.159  1.00  0.00     0.032 C 
BRANCH   6   7
ATOM      7  C   UNL     1      17.657  27.050  27.920  1.00  0.00    -0.028 C 
ATOM      8  C   UNL     1      19.252  25.132  27.682  1.00  0.00     0.039 C 
ATOM      9  C   UNL     1      17.865  25.728  27.735  1.00  0.00    -0.080 C 
ATOM     10  C   UNL     1      16.666  24.837  27.541  1.00  0.00     0.039 C 
ENDBRANCH   6   7
ENDBRANCH   5   6
ENDBRANCH   3   5
ENDBRANCH   1   2
BRANCH   1  11
ATOM     11  C   UNL     1      16.276  32.258  29.319  1.00  0.00     0.034 C 
BRANCH  11  12
ATOM     12  C   UNL     1      15.656  31.911  30.661  1.00  0.00    -0.077 C 
ATOM     13  C   UNL     1      14.748  30.921  30.814  1.00  0.00    -0.028 C 
ATOM     14  C   UNL     1      16.080  32.683  31.882  1.00  0.00     0.039 C 
BRANCH  13  15
ATOM     15  C   UNL     1      14.300  30.002  29.699  1.00  0.00     0.035 C 
BRANCH  15  16
ATOM     16  C   UNL     1      15.086  28.684  29.692  1.00  0.00     0.079 C 
BRANCH  16  17
ATOM     17  C   UNL     1      14.932  27.934  30.992  1.00  0.00     0.130 C 
ATOM     18  O   UNL     1      13.890  27.341  31.223  1.00  0.00    -0.300 OA
ATOM     19  C   UNL     1      16.030  27.907  32.013  1.00  0.00     0.087 C 
ENDBRANCH  16  17
ENDBRANCH  15  16
ENDBRANCH  13  15
ENDBRANCH  11  12
ENDBRANCH   1  11
TORSDOF 9
ENDMDL
MODEL 7
REMARK VINA RESULT:    -5.946      4.691      7.844
REMARK INTER + INTRA:          -9.567
REMARK INTER:                  -8.222
REMARK INTRA:                  -1.346
REMARK UNBOUND:                -0.492
REMARK SMILES CC(=O)CCC=C(C)CCC=C(C)CCC=C(C)C
REMARK SMILES IDX 10 1 11 2 12 3 13 4 14 5 15 6 16 7 18 8 17 9 19 10 9 11 7 12
REMARK SMILES IDX 6 13 8 14 5 15 4 16 2 17 3 18 1 19
REMARK H PARENT
REMARK Flexibility Score: inf
ROOT
ATOM      1  C   UNL     1      18.953  28.248  28.651  1.00  0.00     0.032 C 
ENDROOT
BRANCH   1   2
ATOM      2  C   UNL     1      18.549  29.704  28.592  1.00  0.00    -0.028 C 
ATOM      3  C   UNL     1      18.542  30.540  29.657  1.00  0.00    -0.077 C 
ATOM      4  C   UNL     1      18.914  30.067  31.043  1.00  0.00     0.039 C 
BRANCH   3   5
ATOM      5  C   UNL     1      18.251  32.013  29.443  1.00  0.00     0.034 C 
BRANCH   5   6
ATOM      6  C   UNL     1      16.791  32.270  29.039  1.00  0.00     0.032 C 
BRANCH   6   7
ATOM      7  C   UNL     1      15.848  32.196  30.214  1.00  0.00    -0.028 C 
ATOM      8  C   UNL     1      14.906  29.971  29.550  1.00  0.00     0.039 C 
ATOM      9  C   UNL     1      15.020  31.161  30.474  1.00  0.00    -0.080 C 
ATOM     10  C   UNL     1      14.163  31.224  31.711  1.00  0.00     0.039 C 
ENDBRANCH   6   7
ENDBRANCH   5   6
ENDBRANCH   3   5
ENDBRANCH   1   2
BRANCH   1  11
ATOM     11  C   UNL     1      18.282  27.403  27.557  1.00  0.00     0.034 C 
BRANCH  11  12
ATOM     12  C   UNL     1      18.476  25.914  27.785  1.00  0.00    -0.077 C 
ATOM     13  C   UNL     1      17.453  25.078  28.071  1.00  0.00    -0.028 C 
ATOM     14  C   UNL     1      19.860  25.334  27.670  1.00  0.00     0.039 C 
BRANCH  13  15
ATOM     15  C   UNL     1      16.002  25.501  28.125  1.00  0.00     0.035 C 
BRANCH  15  16
ATOM     16  C   UNL     1      15.165  24.816  27.036  1.00  0.00     0.079 C 
BRANCH  16  17
ATOM     17  C   UNL     1      15.348  23.319  27.049  1.00  0.00     0.130 C 
ATOM     18  O   UNL     1      14.960  22.674  28.011  1.00  0.00    -0.300 OA
ATOM     19  C   UNL     1      16.004  22.602  25.906  1.00  0.00     0.087 C 
ENDBRANCH  16  17
ENDBRANCH  15  16
ENDBRANCH  13  15
ENDBRANCH  11  12
ENDBRANCH   1  11
TORSDOF 9
ENDMDL
MODEL 8
REMARK VINA RESULT:    -5.896      7.063     11.506
REMARK INTER + INTRA:          -9.490
REMARK INTER:                  -7.471
REMARK INTRA:                  -2.019
REMARK UNBOUND:                -0.492
REMARK SMILES CC(=O)CCC=C(C)CCC=C(C)CCC=C(C)C
REMARK SMILES IDX 10 1 11 2 12 3 13 4 14 5 15 6 16 7 18 8 17 9 19 10 9 11 7 12
REMARK SMILES IDX 6 13 8 14 5 15 4 16 2 17 3 18 1 19
REMARK H PARENT
REMARK Flexibility Score: inf
ROOT
ATOM      1  C   UNL     1      19.882  30.579  31.269  1.00  0.00     0.032 C 
ENDROOT
BRANCH   1   2
ATOM      2  C   UNL     1      19.101  29.910  30.160  1.00  0.00    -0.028 C 
ATOM      3  C   UNL     1      19.660  29.213  29.143  1.00  0.00    -0.077 C 
ATOM      4  C   UNL     1      21.158  29.069  29.005  1.00  0.00     0.039 C 
BRANCH   3   5
ATOM      5  C   UNL     1      18.763  28.470  28.170  1.00  0.00     0.034 C 
BRANCH   5   6
ATOM      6  C   UNL     1      18.429  27.049  28.649  1.00  0.00     0.032 C 
BRANCH   6   7
ATOM      7  C   UNL     1      18.887  25.992  27.676  1.00  0.00    -0.028 C 
ATOM      8  C   UNL     1      20.873  25.328  29.053  1.00  0.00     0.039 C 
ATOM      9  C   UNL     1      19.962  25.193  27.856  1.00  0.00    -0.080 C 
ATOM     10  C   UNL     1      20.269  24.160  26.802  1.00  0.00     0.039 C 
ENDBRANCH   6   7
ENDBRANCH   5   6
ENDBRANCH   3   5
ENDBRANCH   1   2
BRANCH   1  11
ATOM     11  C   UNL     1      19.589  32.084  31.374  1.00  0.00     0.034 C 
BRANCH  11  12
ATOM     12  C   UNL     1      19.976  32.831  30.110  1.00  0.00    -0.077 C 
ATOM     13  C   UNL     1      19.074  33.469  29.331  1.00  0.00    -0.028 C 
ATOM     14  C   UNL     1      21.426  32.885  29.710  1.00  0.00     0.039 C 
BRANCH  13  15
ATOM     15  C   UNL     1      17.601  33.580  29.657  1.00  0.00     0.035 C 
BRANCH  15  16
ATOM     16  C   UNL     1      16.771  32.517  28.924  1.00  0.00     0.079 C 
BRANCH  16  17
ATOM     17  C   UNL     1      15.908  31.727  29.877  1.00  0.00     0.130 C 
ATOM     18  O   UNL     1      15.310  30.743  29.470  1.00  0.00    -0.300 OA
ATOM     19  C   UNL     1      15.762  32.128  31.315  1.00  0.00     0.087 C 
ENDBRANCH  16  17
ENDBRANCH  15  16
ENDBRANCH  13  15
ENDBRANCH  11  12
ENDBRANCH   1  11
TORSDOF 9
ENDMDL
