MODEL 1
REMARK VINA RESULT:    -3.274      0.000      0.000
REMARK INTER + INTRA:          -4.375
REMARK INTER:                  -4.614
REMARK INTRA:                   0.240
REMARK UNBOUND:                 0.240
REMARK SMILES CC1=CCC(=C(C)C)C(=O)CC(C)=CCC1
REMARK SMILES IDX 12 1 14 2 13 3 15 4 16 5 2 6 1 7 3 8 11 10 9 11 10 12 5 13
REMARK SMILES IDX 6 14 7 15 8 16 4 17
REMARK H PARENT
REMARK Flexibility Score: 60.00
ROOT
ATOM      1  C   UNL     1      -6.361  30.776  58.392  1.00  0.00    -0.070 C 
ATOM      2  C   UNL     1      -5.988  29.475  58.359  1.00  0.00    -0.027 C 
ATOM      3  C   UNL     1      -6.094  31.559  59.651  1.00  0.00     0.039 C 
ENDROOT
BRANCH   2   4
ATOM      4  C   UNL     1      -6.123  28.560  57.164  1.00  0.00     0.032 C 
BRANCH   4   5
ATOM      5  C   UNL     1      -7.519  27.923  57.094  1.00  0.00     0.034 C 
BRANCH   5   6
ATOM      6  C   UNL     1      -8.125  27.940  55.698  1.00  0.00    -0.077 C 
ATOM      7  C   UNL     1      -7.493  27.093  54.621  1.00  0.00     0.039 C 
ATOM      8  C   UNL     1      -9.220  28.663  55.370  1.00  0.00    -0.023 CG0
ATOM      9  G   UNL     1      -9.946  29.618  56.289  1.00  0.00     0.000 G0
ENDBRANCH   5   6
ENDBRANCH   4   5
ENDBRANCH   2   4
BRANCH   1  10
ATOM     10  C   UNL     1      -7.031  31.472  57.223  1.00  0.00     0.111 C 
BRANCH  10  11
ATOM     11  C   UNL     1      -8.526  31.481  57.381  1.00  0.00     0.163 C 
ATOM     12  O   UNL     1      -9.029  31.881  58.465  1.00  0.00    -0.294 OA
BRANCH  11  13
ATOM     13  C   UNL     1      -9.421  31.052  56.277  1.00  0.00    -0.002 C 
ATOM     14  C   UNL     1      -9.745  31.919  55.280  1.00  0.00    -0.069 C 
ATOM     15  C   UNL     1     -10.696  31.517  54.176  1.00  0.00     0.039 C 
ATOM     16  C   UNL     1      -9.136  33.302  55.216  1.00  0.00     0.039 C 
BRANCH  13  17
ATOM     17  C   UNL     1      -9.969  29.628  56.275  1.00  0.00     0.066 CG0
ATOM     18  G   UNL     1      -9.202  28.683  55.378  1.00  0.00     0.000 G0
ENDBRANCH  13  17
ENDBRANCH  11  13
ENDBRANCH  10  11
ENDBRANCH   1  10
TORSDOF 0
ENDMDL
MODEL 2
REMARK VINA RESULT:    -3.204     13.424     15.254
REMARK INTER + INTRA:          -4.275
REMARK INTER:                  -4.636
REMARK INTRA:                   0.361
REMARK UNBOUND:                 0.240
REMARK SMILES CC1=CCC(=C(C)C)C(=O)CC(C)=CCC1
REMARK SMILES IDX 12 1 14 2 13 3 15 4 16 5 2 6 1 7 3 8 11 10 9 11 10 12 5 13
REMARK SMILES IDX 6 14 7 15 8 16 4 17
REMARK H PARENT
REMARK Flexibility Score: 60.00
ROOT
ATOM      1  C   UNL     1      -5.694  33.633  43.488  1.00  0.00    -0.070 C 
ATOM      2  C   UNL     1      -4.707  33.459  42.578  1.00  0.00    -0.027 C 
ATOM      3  C   UNL     1      -5.899  32.560  44.525  1.00  0.00     0.039 C 
ENDROOT
BRANCH   2   4
ATOM      4  C   UNL     1      -4.322  34.455  41.508  1.00  0.00     0.032 C 
BRANCH   4   5
ATOM      5  C   UNL     1      -3.467  35.597  42.080  1.00  0.00     0.034 C 
BRANCH   5   6
ATOM      6  C   UNL     1      -3.930  36.980  41.643  1.00  0.00    -0.077 C 
ATOM      7  C   UNL     1      -3.793  37.367  40.191  1.00  0.00     0.039 C 
ATOM      8  C   UNL     1      -4.478  37.883  42.487  1.00  0.00    -0.023 CG0
ATOM      9  G   UNL     1      -4.633  37.705  43.980  1.00  0.00     0.000 G0
ENDBRANCH   5   6
ENDBRANCH   4   5
ENDBRANCH   2   4
BRANCH   1  10
ATOM     10  C   UNL     1      -6.595  34.853  43.504  1.00  0.00     0.111 C 
BRANCH  10  11
ATOM     11  C   UNL     1      -6.238  35.775  44.635  1.00  0.00     0.163 C 
ATOM     12  O   UNL     1      -6.100  35.305  45.796  1.00  0.00    -0.294 OA
BRANCH  11  13
ATOM     13  C   UNL     1      -6.022  37.227  44.408  1.00  0.00    -0.002 C 
ATOM     14  C   UNL     1      -7.041  38.109  44.590  1.00  0.00    -0.069 C 
ATOM     15  C   UNL     1      -6.854  39.584  44.314  1.00  0.00     0.039 C 
ATOM     16  C   UNL     1      -8.385  37.656  45.116  1.00  0.00     0.039 C 
BRANCH  13  17
ATOM     17  C   UNL     1      -4.643  37.713  43.969  1.00  0.00     0.066 CG0
ATOM     18  G   UNL     1      -4.513  37.902  42.475  1.00  0.00     0.000 G0
ENDBRANCH  13  17
ENDBRANCH  11  13
ENDBRANCH  10  11
ENDBRANCH   1  10
TORSDOF 0
ENDMDL
MODEL 3
REMARK VINA RESULT:    -3.028     14.714     16.534
REMARK INTER + INTRA:          -4.028
REMARK INTER:                  -4.543
REMARK INTRA:                   0.515
REMARK UNBOUND:                 0.240
REMARK SMILES CC1=CCC(=C(C)C)C(=O)CC(C)=CCC1
REMARK SMILES IDX 12 1 14 2 13 3 15 4 16 5 2 6 1 7 3 8 11 10 9 11 10 12 5 13
REMARK SMILES IDX 6 14 7 15 8 16 4 17
REMARK H PARENT
REMARK Flexibility Score: 60.00
ROOT
ATOM      1  C   UNL     1      -3.631  34.514  41.426  1.00  0.00    -0.070 C 
ATOM      2  C   UNL     1      -3.077  35.372  40.537  1.00  0.00    -0.027 C 
ATOM      3  C   UNL     1      -2.829  33.308  41.840  1.00  0.00     0.039 C 
ENDROOT
BRANCH   2   4
ATOM      4  C   UNL     1      -3.710  36.659  40.058  1.00  0.00     0.032 C 
BRANCH   4   5
ATOM      5  C   UNL     1      -2.802  37.869  40.325  1.00  0.00     0.034 C 
BRANCH   5   6
ATOM      6  C   UNL     1      -2.491  38.081  41.800  1.00  0.00    -0.077 C 
ATOM      7  C   UNL     1      -1.048  38.189  42.229  1.00  0.00     0.039 C 
ATOM      8  C   UNL     1      -3.442  38.198  42.753  1.00  0.00    -0.023 CG0
ATOM      9  G   UNL     1      -4.930  38.050  42.528  1.00  0.00     0.000 G0
ENDBRANCH   5   6
ENDBRANCH   4   5
ENDBRANCH   2   4
BRANCH   1  10
ATOM     10  C   UNL     1      -5.014  34.716  42.016  1.00  0.00     0.111 C 
BRANCH  10  11
ATOM     11  C   UNL     1      -4.958  35.571  43.251  1.00  0.00     0.163 C 
ATOM     12  O   UNL     1      -4.337  35.152  44.264  1.00  0.00    -0.294 OA
BRANCH  11  13
ATOM     13  C   UNL     1      -5.598  36.910  43.291  1.00  0.00    -0.002 C 
ATOM     14  C   UNL     1      -6.745  37.101  43.997  1.00  0.00    -0.069 C 
ATOM     15  C   UNL     1      -7.440  38.443  44.008  1.00  0.00     0.039 C 
ATOM     16  C   UNL     1      -7.346  35.989  44.830  1.00  0.00     0.039 C 
BRANCH  13  17
ATOM     17  C   UNL     1      -4.952  38.066  42.534  1.00  0.00     0.066 CG0
ATOM     18  G   UNL     1      -3.461  38.180  42.755  1.00  0.00     0.000 G0
ENDBRANCH  13  17
ENDBRANCH  11  13
ENDBRANCH  10  11
ENDBRANCH   1  10
TORSDOF 0
ENDMDL
MODEL 4
REMARK VINA RESULT:    -3.021      2.073      5.219
REMARK INTER + INTRA:          -4.017
REMARK INTER:                  -4.567
REMARK INTRA:                   0.550
REMARK UNBOUND:                 0.240
REMARK SMILES CC1=CCC(=C(C)C)C(=O)CC(C)=CCC1
REMARK SMILES IDX 12 1 14 2 13 3 15 4 16 5 2 6 1 7 3 8 11 10 9 11 10 12 5 13
REMARK SMILES IDX 6 14 7 15 8 16 4 17
REMARK H PARENT
REMARK Flexibility Score: 60.00
ROOT
ATOM      1  C   UNL     1      -9.198  29.668  55.170  1.00  0.00    -0.070 C 
ATOM      2  C   UNL     1      -9.968  30.734  54.849  1.00  0.00    -0.027 C 
ATOM      3  C   UNL     1      -9.834  28.303  55.151  1.00  0.00     0.039 C 
ENDROOT
BRANCH   2   4
ATOM      4  C   UNL     1      -9.483  32.163  54.758  1.00  0.00     0.032 C 
BRANCH   4   5
ATOM      5  C   UNL     1      -9.472  32.846  56.134  1.00  0.00     0.034 C 
BRANCH   5   6
ATOM      6  C   UNL     1      -8.097  33.342  56.555  1.00  0.00    -0.077 C 
ATOM      7  C   UNL     1      -7.502  34.530  55.839  1.00  0.00     0.039 C 
ATOM      8  C   UNL     1      -7.378  32.786  57.556  1.00  0.00    -0.023 CG0
ATOM      9  G   UNL     1      -7.775  31.555  58.339  1.00  0.00     0.000 G0
ENDBRANCH   5   6
ENDBRANCH   4   5
ENDBRANCH   2   4
BRANCH   1  10
ATOM     10  C   UNL     1      -7.734  29.792  55.546  1.00  0.00     0.111 C 
BRANCH  10  11
ATOM     11  C   UNL     1      -7.498  29.352  56.963  1.00  0.00     0.163 C 
ATOM     12  O   UNL     1      -7.743  28.160  57.289  1.00  0.00    -0.294 OA
BRANCH  11  13
ATOM     13  C   UNL     1      -6.960  30.289  57.982  1.00  0.00    -0.002 C 
ATOM     14  C   UNL     1      -5.766  30.037  58.583  1.00  0.00    -0.069 C 
ATOM     15  C   UNL     1      -5.226  30.951  59.659  1.00  0.00     0.039 C 
ATOM     16  C   UNL     1      -4.915  28.857  58.169  1.00  0.00     0.039 C 
BRANCH  13  17
ATOM     17  C   UNL     1      -7.762  31.536  58.343  1.00  0.00     0.066 CG0
ATOM     18  G   UNL     1      -7.387  32.755  57.530  1.00  0.00     0.000 G0
ENDBRANCH  13  17
ENDBRANCH  11  13
ENDBRANCH  10  11
ENDBRANCH   1  10
TORSDOF 0
ENDMDL
MODEL 5
REMARK VINA RESULT:    -2.848     13.910     15.560
REMARK INTER + INTRA:          -3.773
REMARK INTER:                  -4.234
REMARK INTRA:                   0.461
REMARK UNBOUND:                 0.240
REMARK SMILES CC1=CCC(=C(C)C)C(=O)CC(C)=CCC1
REMARK SMILES IDX 12 1 14 2 13 3 15 4 16 5 2 6 1 7 3 8 11 10 9 11 10 12 5 13
REMARK SMILES IDX 6 14 7 15 8 16 4 17
REMARK H PARENT
REMARK Flexibility Score: 60.00
ROOT
ATOM      1  C   UNL     1       0.198  28.534  41.746  1.00  0.00    -0.070 C 
ATOM      2  C   UNL     1       1.399  29.159  41.748  1.00  0.00    -0.027 C 
ATOM      3  C   UNL     1       0.118  27.157  41.140  1.00  0.00     0.039 C 
ENDROOT
BRANCH   2   4
ATOM      4  C   UNL     1       1.675  30.511  42.365  1.00  0.00     0.032 C 
BRANCH   4   5
ATOM      5  C   UNL     1       2.307  30.380  43.759  1.00  0.00     0.034 C 
BRANCH   5   6
ATOM      6  C   UNL     1       1.819  31.427  44.749  1.00  0.00    -0.077 C 
ATOM      7  C   UNL     1       2.515  32.765  44.794  1.00  0.00     0.039 C 
ATOM      8  C   UNL     1       0.776  31.232  45.587  1.00  0.00    -0.023 CG0
ATOM      9  G   UNL     1       0.002  29.941  45.735  1.00  0.00     0.000 G0
ENDBRANCH   5   6
ENDBRANCH   4   5
ENDBRANCH   2   4
BRANCH   1  10
ATOM     10  C   UNL     1      -1.058  29.158  42.321  1.00  0.00     0.111 C 
BRANCH  10  11
ATOM     11  C   UNL     1      -1.239  28.783  43.765  1.00  0.00     0.163 C 
ATOM     12  O   UNL     1      -1.379  27.570  44.075  1.00  0.00    -0.294 OA
BRANCH  11  13
ATOM     13  C   UNL     1      -1.231  29.812  44.836  1.00  0.00    -0.002 C 
ATOM     14  C   UNL     1      -2.302  30.634  45.006  1.00  0.00    -0.069 C 
ATOM     15  C   UNL     1      -2.291  31.720  46.056  1.00  0.00     0.039 C 
ATOM     16  C   UNL     1      -3.557  30.465  44.179  1.00  0.00     0.039 C 
BRANCH  13  17
ATOM     17  C   UNL     1      -0.009  29.932  45.742  1.00  0.00     0.066 CG0
ATOM     18  G   UNL     1       0.759  31.221  45.557  1.00  0.00     0.000 G0
ENDBRANCH  13  17
ENDBRANCH  11  13
ENDBRANCH  10  11
ENDBRANCH   1  10
TORSDOF 0
ENDMDL
MODEL 6
REMARK VINA RESULT:    -2.833     12.976     15.157
REMARK INTER + INTRA:          -3.752
REMARK INTER:                  -4.304
REMARK INTRA:                   0.551
REMARK UNBOUND:                 0.240
REMARK SMILES CC1=CCC(=C(C)C)C(=O)CC(C)=CCC1
REMARK SMILES IDX 12 1 14 2 13 3 15 4 16 5 2 6 1 7 3 8 11 10 9 11 10 12 5 13
REMARK SMILES IDX 6 14 7 15 8 16 4 17
REMARK H PARENT
REMARK Flexibility Score: 60.00
ROOT
ATOM      1  C   UNL     1      -7.533  35.628  44.979  1.00  0.00    -0.070 C 
ATOM      2  C   UNL     1      -7.921  36.898  45.240  1.00  0.00    -0.027 C 
ATOM      3  C   UNL     1      -7.700  34.598  46.067  1.00  0.00     0.039 C 
ENDROOT
BRANCH   2   4
ATOM      4  C   UNL     1      -7.883  38.041  44.251  1.00  0.00     0.032 C 
BRANCH   4   5
ATOM      5  C   UNL     1      -6.897  39.135  44.688  1.00  0.00     0.034 C 
BRANCH   5   6
ATOM      6  C   UNL     1      -5.648  38.592  45.368  1.00  0.00    -0.077 C 
ATOM      7  C   UNL     1      -5.485  38.791  46.854  1.00  0.00     0.039 C 
ATOM      8  C   UNL     1      -4.675  37.920  44.711  1.00  0.00    -0.023 CG0
ATOM      9  G   UNL     1      -4.629  37.684  43.219  1.00  0.00     0.000 G0
ENDBRANCH   5   6
ENDBRANCH   4   5
ENDBRANCH   2   4
BRANCH   1  10
ATOM     10  C   UNL     1      -6.943  35.202  43.649  1.00  0.00     0.111 C 
BRANCH  10  11
ATOM     11  C   UNL     1      -5.441  35.230  43.688  1.00  0.00     0.163 C 
ATOM     12  O   UNL     1      -4.827  34.421  44.434  1.00  0.00    -0.294 OA
BRANCH  11  13
ATOM     13  C   UNL     1      -4.665  36.176  42.846  1.00  0.00    -0.002 C 
ATOM     14  C   UNL     1      -3.992  35.727  41.752  1.00  0.00    -0.069 C 
ATOM     15  C   UNL     1      -3.155  36.665  40.912  1.00  0.00     0.039 C 
ATOM     16  C   UNL     1      -4.089  34.283  41.311  1.00  0.00     0.039 C 
BRANCH  13  17
ATOM     17  C   UNL     1      -4.634  37.654  43.222  1.00  0.00     0.066 CG0
ATOM     18  G   UNL     1      -4.698  37.903  44.712  1.00  0.00     0.000 G0
ENDBRANCH  13  17
ENDBRANCH  11  13
ENDBRANCH  10  11
ENDBRANCH   1  10
TORSDOF 0
ENDMDL
MODEL 7
REMARK VINA RESULT:    -2.826     14.224     15.525
REMARK INTER + INTRA:          -3.743
REMARK INTER:                  -4.181
REMARK INTRA:                   0.438
REMARK UNBOUND:                 0.240
REMARK SMILES CC1=CCC(=C(C)C)C(=O)CC(C)=CCC1
REMARK SMILES IDX 12 1 14 2 13 3 15 4 16 5 2 6 1 7 3 8 11 10 9 11 10 12 5 13
REMARK SMILES IDX 6 14 7 15 8 16 4 17
REMARK H PARENT
REMARK Flexibility Score: 60.00
ROOT
ATOM      1  C   UNL     1       1.779  31.566  44.330  1.00  0.00    -0.070 C 
ATOM      2  C   UNL     1       2.494  31.190  43.244  1.00  0.00    -0.027 C 
ATOM      3  C   UNL     1       2.197  32.820  45.054  1.00  0.00     0.039 C 
ENDROOT
BRANCH   2   4
ATOM      4  C   UNL     1       2.181  30.000  42.365  1.00  0.00     0.032 C 
BRANCH   4   5
ATOM      5  C   UNL     1       0.907  30.226  41.539  1.00  0.00     0.034 C 
BRANCH   5   6
ATOM      6  C   UNL     1      -0.012  29.013  41.494  1.00  0.00    -0.077 C 
ATOM      7  C   UNL     1       0.528  27.712  40.953  1.00  0.00     0.039 C 
ATOM      8  C   UNL     1      -1.291  29.030  41.932  1.00  0.00    -0.023 CG0
ATOM      9  G   UNL     1      -2.025  30.249  42.441  1.00  0.00     0.000 G0
ENDBRANCH   5   6
ENDBRANCH   4   5
ENDBRANCH   2   4
BRANCH   1  10
ATOM     10  C   UNL     1       0.586  30.784  44.844  1.00  0.00     0.111 C 
BRANCH  10  11
ATOM     11  C   UNL     1      -0.705  31.389  44.370  1.00  0.00     0.163 C 
ATOM     12  O   UNL     1      -0.821  32.643  44.328  1.00  0.00    -0.294 OA
BRANCH  11  13
ATOM     13  C   UNL     1      -1.839  30.538  43.927  1.00  0.00    -0.002 C 
ATOM     14  C   UNL     1      -2.698  30.010  44.840  1.00  0.00    -0.069 C 
ATOM     15  C   UNL     1      -3.827  29.100  44.412  1.00  0.00     0.039 C 
ATOM     16  C   UNL     1      -2.583  30.347  46.310  1.00  0.00     0.039 C 
BRANCH  13  17
ATOM     17  C   UNL     1      -2.026  30.267  42.437  1.00  0.00     0.066 CG0
ATOM     18  G   UNL     1      -1.292  29.040  41.946  1.00  0.00     0.000 G0
ENDBRANCH  13  17
ENDBRANCH  11  13
ENDBRANCH  10  11
ENDBRANCH   1  10
TORSDOF 0
ENDMDL
MODEL 8
REMARK VINA RESULT:    -2.798     12.466     14.507
REMARK INTER + INTRA:          -3.703
REMARK INTER:                  -4.124
REMARK INTRA:                   0.421
REMARK UNBOUND:                 0.240
REMARK SMILES CC1=CCC(=C(C)C)C(=O)CC(C)=CCC1
REMARK SMILES IDX 12 1 14 2 13 3 15 4 16 5 2 6 1 7 3 8 11 10 9 11 10 12 5 13
REMARK SMILES IDX 6 14 7 15 8 16 4 17
REMARK H PARENT
REMARK Flexibility Score: 60.00
ROOT
ATOM      1  C   UNL     1      -7.357  38.696  44.995  1.00  0.00    -0.070 C 
ATOM      2  C   UNL     1      -7.976  37.737  45.722  1.00  0.00    -0.027 C 
ATOM      3  C   UNL     1      -7.279  40.085  45.573  1.00  0.00     0.039 C 
ENDROOT
BRANCH   2   4
ATOM      4  C   UNL     1      -8.093  36.283  45.326  1.00  0.00     0.032 C 
BRANCH   4   5
ATOM      5  C   UNL     1      -7.331  35.369  46.297  1.00  0.00     0.034 C 
BRANCH   5   6
ATOM      6  C   UNL     1      -5.939  35.877  46.645  1.00  0.00    -0.077 C 
ATOM      7  C   UNL     1      -5.673  36.365  48.047  1.00  0.00     0.039 C 
ATOM      8  C   UNL     1      -4.912  35.900  45.765  1.00  0.00    -0.023 CG0
ATOM      9  G   UNL     1      -5.002  35.518  44.305  1.00  0.00     0.000 G0
ENDBRANCH   5   6
ENDBRANCH   4   5
ENDBRANCH   2   4
BRANCH   1  10
ATOM     10  C   UNL     1      -6.745  38.432  43.632  1.00  0.00     0.111 C 
BRANCH  10  11
ATOM     11  C   UNL     1      -5.299  38.041  43.753  1.00  0.00     0.163 C 
ATOM     12  O   UNL     1      -4.476  38.861  44.242  1.00  0.00    -0.294 OA
BRANCH  11  13
ATOM     13  C   UNL     1      -4.825  36.699  43.330  1.00  0.00    -0.002 C 
ATOM     14  C   UNL     1      -4.261  36.526  42.104  1.00  0.00    -0.069 C 
ATOM     15  C   UNL     1      -3.820  35.158  41.635  1.00  0.00     0.039 C 
ATOM     16  C   UNL     1      -4.017  37.700  41.181  1.00  0.00     0.039 C 
BRANCH  13  17
ATOM     17  C   UNL     1      -4.977  35.521  44.288  1.00  0.00     0.066 CG0
ATOM     18  G   UNL     1      -4.913  35.912  45.746  1.00  0.00     0.000 G0
ENDBRANCH  13  17
ENDBRANCH  11  13
ENDBRANCH  10  11
ENDBRANCH   1  10
TORSDOF 0
ENDMDL
MODEL 9
REMARK VINA RESULT:    -2.691     13.429     15.197
REMARK INTER + INTRA:          -3.553
REMARK INTER:                  -4.202
REMARK INTRA:                   0.650
REMARK UNBOUND:                 0.240
REMARK SMILES CC1=CCC(=C(C)C)C(=O)CC(C)=CCC1
REMARK SMILES IDX 12 1 14 2 13 3 15 4 16 5 2 6 1 7 3 8 11 10 9 11 10 12 5 13
REMARK SMILES IDX 6 14 7 15 8 16 4 17
REMARK H PARENT
REMARK Flexibility Score: 60.00
ROOT
ATOM      1  C   UNL     1      -2.536  28.414  45.296  1.00  0.00    -0.070 C 
ATOM      2  C   UNL     1      -2.138  29.262  46.273  1.00  0.00    -0.027 C 
ATOM      3  C   UNL     1      -3.969  27.947  45.304  1.00  0.00     0.039 C 
ENDROOT
BRANCH   2   4
ATOM      4  C   UNL     1      -0.761  29.877  46.385  1.00  0.00     0.032 C 
BRANCH   4   5
ATOM      5  C   UNL     1      -0.828  31.411  46.416  1.00  0.00     0.034 C 
BRANCH   5   6
ATOM      6  C   UNL     1      -1.359  32.023  45.128  1.00  0.00    -0.077 C 
ATOM      7  C   UNL     1      -2.542  32.958  45.202  1.00  0.00     0.039 C 
ATOM      8  C   UNL     1      -0.816  31.789  43.912  1.00  0.00    -0.023 CG0
ATOM      9  G   UNL     1       0.322  30.834  43.631  1.00  0.00     0.000 G0
ENDBRANCH   5   6
ENDBRANCH   4   5
ENDBRANCH   2   4
BRANCH   1  10
ATOM     10  C   UNL     1      -1.608  27.920  44.203  1.00  0.00     0.111 C 
BRANCH  10  11
ATOM     11  C   UNL     1      -1.417  28.964  43.139  1.00  0.00     0.163 C 
ATOM     12  O   UNL     1      -2.413  29.356  42.473  1.00  0.00    -0.294 OA
BRANCH  11  13
ATOM     13  C   UNL     1      -0.083  29.560  42.874  1.00  0.00    -0.002 C 
ATOM     14  C   UNL     1       0.760  28.982  41.976  1.00  0.00    -0.069 C 
ATOM     15  C   UNL     1       2.141  29.544  41.731  1.00  0.00     0.039 C 
ATOM     16  C   UNL     1       0.333  27.782  41.161  1.00  0.00     0.039 C 
BRANCH  13  17
ATOM     17  C   UNL     1       0.326  30.827  43.619  1.00  0.00     0.066 CG0
ATOM     18  G   UNL     1      -0.824  31.767  43.896  1.00  0.00     0.000 G0
ENDBRANCH  13  17
ENDBRANCH  11  13
ENDBRANCH  10  11
ENDBRANCH   1  10
TORSDOF 0
ENDMDL
