MODEL 1
REMARK VINA RESULT:    -5.733      0.000      0.000
REMARK INTER + INTRA:         -10.830
REMARK INTER:                 -10.090
REMARK INTRA:                  -0.741
REMARK UNBOUND:                -0.741
REMARK SMILES CCCCCCC=CCCCCCCCC(=O)[O-]
REMARK SMILES IDX 10 1 11 2 12 3 13 4 14 5 15 6 16 7 17 8 18 9 9 10 8 11 7 12
REMARK SMILES IDX 6 13 5 14 4 15 3 16 2 17 1 18
REMARK H PARENT
REMARK Flexibility Score: inf
ROOT
ATOM      1  C   UNL     1      23.747 137.525 352.067  1.00  0.00     0.004 C 
ENDROOT
BRANCH   1   2
ATOM      2  C   UNL     1      25.236 137.154 352.008  1.00  0.00     0.000 C 
BRANCH   2   3
ATOM      3  C   UNL     1      25.537 135.952 352.913  1.00  0.00     0.000 C 
BRANCH   3   4
ATOM      4  C   UNL     1      26.748 136.231 353.814  1.00  0.00     0.000 C 
BRANCH   4   5
ATOM      5  C   UNL     1      27.722 135.040 353.902  1.00  0.00     0.006 C 
BRANCH   5   6
ATOM      6  C   UNL     1      29.201 135.450 354.008  1.00  0.00     0.053 C 
BRANCH   6   7
ATOM      7  C   UNL     1      30.057 134.813 352.956  1.00  0.00     0.041 C 
ATOM      8  O   UNL     1      30.923 133.955 353.274  1.00  0.00    -0.550 OA
ATOM      9  O   UNL     1      29.878 135.144 351.619  1.00  0.00    -0.550 OA
ENDBRANCH   6   7
ENDBRANCH   5   6
ENDBRANCH   4   5
ENDBRANCH   3   4
ENDBRANCH   2   3
ENDBRANCH   1   2
BRANCH   1  10
ATOM     10  C   UNL     1      23.383 138.294 353.346  1.00  0.00     0.027 C 
BRANCH  10  11
ATOM     11  C   UNL     1      24.326 139.450 353.587  1.00  0.00    -0.031 C 
ATOM     12  C   UNL     1      24.100 140.729 353.228  1.00  0.00    -0.031 C 
BRANCH  12  13
ATOM     13  C   UNL     1      22.882 141.225 352.488  1.00  0.00     0.027 C 
BRANCH  13  14
ATOM     14  C   UNL     1      22.380 142.558 353.055  1.00  0.00     0.004 C 
BRANCH  14  15
ATOM     15  C   UNL     1      21.025 142.383 353.757  1.00  0.00     0.000 C 
BRANCH  15  16
ATOM     16  C   UNL     1      20.034 143.513 353.408  1.00  0.00    -0.000 C 
BRANCH  16  17
ATOM     17  C   UNL     1      18.800 143.556 354.325  1.00  0.00    -0.003 C 
ATOM     18  C   UNL     1      17.587 144.207 353.667  1.00  0.00     0.004 C 
ENDBRANCH  16  17
ENDBRANCH  15  16
ENDBRANCH  14  15
ENDBRANCH  13  14
ENDBRANCH  12  13
ENDBRANCH  10  11
ENDBRANCH   1  10
TORSDOF 13
ENDMDL
MODEL 2
REMARK VINA RESULT:    -5.712      0.843      1.455
REMARK INTER + INTRA:         -10.793
REMARK INTER:                 -10.284
REMARK INTRA:                  -0.509
REMARK UNBOUND:                -0.741
REMARK SMILES CCCCCCC=CCCCCCCCC(=O)[O-]
REMARK SMILES IDX 10 1 11 2 12 3 13 4 14 5 15 6 16 7 17 8 18 9 9 10 8 11 7 12
REMARK SMILES IDX 6 13 5 14 4 15 3 16 2 17 1 18
REMARK H PARENT
REMARK Flexibility Score: inf
ROOT
ATOM      1  C   UNL     1      23.659 138.386 353.426  1.00  0.00     0.004 C 
ENDROOT
BRANCH   1   2
ATOM      2  C   UNL     1      24.648 137.587 352.563  1.00  0.00     0.000 C 
BRANCH   2   3
ATOM      3  C   UNL     1      25.559 136.717 353.438  1.00  0.00     0.000 C 
BRANCH   3   4
ATOM      4  C   UNL     1      26.450 135.811 352.576  1.00  0.00     0.000 C 
BRANCH   4   5
ATOM      5  C   UNL     1      27.384 134.914 353.409  1.00  0.00     0.006 C 
BRANCH   5   6
ATOM      6  C   UNL     1      28.760 135.541 353.697  1.00  0.00     0.053 C 
BRANCH   6   7
ATOM      7  C   UNL     1      29.849 134.966 352.844  1.00  0.00     0.041 C 
ATOM      8  O   UNL     1      29.820 135.110 351.592  1.00  0.00    -0.550 OA
ATOM      9  O   UNL     1      30.913 134.296 353.433  1.00  0.00    -0.550 OA
ENDBRANCH   6   7
ENDBRANCH   5   6
ENDBRANCH   4   5
ENDBRANCH   3   4
ENDBRANCH   2   3
ENDBRANCH   1   2
BRANCH   1  10
ATOM     10  C   UNL     1      23.131 139.636 352.706  1.00  0.00     0.027 C 
BRANCH  10  11
ATOM     11  C   UNL     1      23.741 140.900 353.266  1.00  0.00    -0.031 C 
ATOM     12  C   UNL     1      23.150 142.111 353.282  1.00  0.00    -0.031 C 
BRANCH  12  13
ATOM     13  C   UNL     1      21.792 142.426 352.708  1.00  0.00     0.027 C 
BRANCH  13  14
ATOM     14  C   UNL     1      20.935 143.233 353.691  1.00  0.00     0.004 C 
BRANCH  14  15
ATOM     15  C   UNL     1      19.701 142.433 354.132  1.00  0.00     0.000 C 
BRANCH  15  16
ATOM     16  C   UNL     1      18.407 142.929 353.453  1.00  0.00    -0.000 C 
BRANCH  16  17
ATOM     17  C   UNL     1      17.661 144.005 354.261  1.00  0.00    -0.003 C 
ATOM     18  C   UNL     1      16.991 145.057 353.380  1.00  0.00     0.004 C 
ENDBRANCH  16  17
ENDBRANCH  15  16
ENDBRANCH  14  15
ENDBRANCH  13  14
ENDBRANCH  12  13
ENDBRANCH  10  11
ENDBRANCH   1  10
TORSDOF 13
ENDMDL
MODEL 3
REMARK VINA RESULT:    -5.600      5.069     10.365
REMARK INTER + INTRA:         -10.596
REMARK INTER:                  -9.898
REMARK INTRA:                  -0.698
REMARK UNBOUND:                -0.741
REMARK SMILES CCCCCCC=CCCCCCCCC(=O)[O-]
REMARK SMILES IDX 10 1 11 2 12 3 13 4 14 5 15 6 16 7 17 8 18 9 9 10 8 11 7 12
REMARK SMILES IDX 6 13 5 14 4 15 3 16 2 17 1 18
REMARK H PARENT
REMARK Flexibility Score: inf
ROOT
ATOM      1  C   UNL     1      23.304 139.208 353.058  1.00  0.00     0.004 C 
ENDROOT
BRANCH   1   2
ATOM      2  C   UNL     1      24.193 140.438 353.297  1.00  0.00     0.000 C 
BRANCH   2   3
ATOM      3  C   UNL     1      23.344 141.671 353.627  1.00  0.00     0.000 C 
BRANCH   3   4
ATOM      4  C   UNL     1      22.162 141.803 352.656  1.00  0.00     0.000 C 
BRANCH   4   5
ATOM      5  C   UNL     1      21.325 143.074 352.891  1.00  0.00     0.006 C 
BRANCH   5   6
ATOM      6  C   UNL     1      20.288 142.938 354.020  1.00  0.00     0.053 C 
BRANCH   6   7
ATOM      7  C   UNL     1      18.891 143.230 353.563  1.00  0.00     0.041 C 
ATOM      8  O   UNL     1      17.916 142.607 354.060  1.00  0.00    -0.550 OA
ATOM      9  O   UNL     1      18.663 144.213 352.609  1.00  0.00    -0.550 OA
ENDBRANCH   6   7
ENDBRANCH   5   6
ENDBRANCH   4   5
ENDBRANCH   3   4
ENDBRANCH   2   3
ENDBRANCH   1   2
BRANCH   1  10
ATOM     10  C   UNL     1      23.960 137.906 353.544  1.00  0.00     0.027 C 
BRANCH  10  11
ATOM     11  C   UNL     1      24.769 137.250 352.451  1.00  0.00    -0.031 C 
ATOM     12  C   UNL     1      25.814 136.420 352.644  1.00  0.00    -0.031 C 
BRANCH  12  13
ATOM     13  C   UNL     1      26.383 136.032 353.986  1.00  0.00     0.027 C 
BRANCH  13  14
ATOM     14  C   UNL     1      27.802 135.467 353.857  1.00  0.00     0.004 C 
BRANCH  14  15
ATOM     15  C   UNL     1      28.019 134.830 352.477  1.00  0.00     0.000 C 
BRANCH  15  16
ATOM     16  C   UNL     1      29.501 134.848 352.049  1.00  0.00    -0.000 C 
BRANCH  16  17
ATOM     17  C   UNL     1      30.484 134.864 353.231  1.00  0.00    -0.003 C 
ATOM     18  C   UNL     1      31.018 133.478 353.585  1.00  0.00     0.004 C 
ENDBRANCH  16  17
ENDBRANCH  15  16
ENDBRANCH  14  15
ENDBRANCH  13  14
ENDBRANCH  12  13
ENDBRANCH  10  11
ENDBRANCH   1  10
TORSDOF 13
ENDMDL
MODEL 4
REMARK VINA RESULT:    -5.576      4.140      9.165
REMARK INTER + INTRA:         -10.555
REMARK INTER:                  -9.191
REMARK INTRA:                  -1.363
REMARK UNBOUND:                -0.741
REMARK SMILES CCCCCCC=CCCCCCCCC(=O)[O-]
REMARK SMILES IDX 10 1 11 2 12 3 13 4 14 5 15 6 16 7 17 8 18 9 9 10 8 11 7 12
REMARK SMILES IDX 6 13 5 14 4 15 3 16 2 17 1 18
REMARK H PARENT
REMARK Flexibility Score: inf
ROOT
ATOM      1  C   UNL     1      25.121 136.328 353.410  1.00  0.00     0.004 C 
ENDROOT
BRANCH   1   2
ATOM      2  C   UNL     1      24.470 136.767 352.089  1.00  0.00     0.000 C 
BRANCH   2   3
ATOM      3  C   UNL     1      24.938 138.171 351.688  1.00  0.00     0.000 C 
BRANCH   3   4
ATOM      4  C   UNL     1      24.490 139.217 352.720  1.00  0.00     0.000 C 
BRANCH   4   5
ATOM      5  C   UNL     1      23.236 139.998 352.284  1.00  0.00     0.006 C 
BRANCH   5   6
ATOM      6  C   UNL     1      22.737 141.011 353.330  1.00  0.00     0.053 C 
BRANCH   6   7
ATOM      7  C   UNL     1      22.510 142.376 352.753  1.00  0.00     0.041 C 
ATOM      8  O   UNL     1      21.580 143.104 353.190  1.00  0.00    -0.550 OA
ATOM      9  O   UNL     1      23.345 142.856 351.753  1.00  0.00    -0.550 OA
ENDBRANCH   6   7
ENDBRANCH   5   6
ENDBRANCH   4   5
ENDBRANCH   3   4
ENDBRANCH   2   3
ENDBRANCH   1   2
BRANCH   1  10
ATOM     10  C   UNL     1      26.653 136.268 353.316  1.00  0.00     0.027 C 
BRANCH  10  11
ATOM     11  C   UNL     1      27.250 135.486 354.463  1.00  0.00    -0.031 C 
ATOM     12  C   UNL     1      28.558 135.201 354.615  1.00  0.00    -0.031 C 
BRANCH  12  13
ATOM     13  C   UNL     1      29.652 135.578 353.647  1.00  0.00     0.027 C 
BRANCH  13  14
ATOM     14  C   UNL     1      30.358 134.340 353.082  1.00  0.00     0.004 C 
BRANCH  14  15
ATOM     15  C   UNL     1      30.299 134.324 351.547  1.00  0.00     0.000 C 
BRANCH  15  16
ATOM     16  C   UNL     1      29.257 135.317 350.990  1.00  0.00    -0.000 C 
BRANCH  16  17
ATOM     17  C   UNL     1      28.040 134.634 350.343  1.00  0.00    -0.003 C 
ATOM     18  C   UNL     1      27.064 135.624 349.712  1.00  0.00     0.004 C 
ENDBRANCH  16  17
ENDBRANCH  15  16
ENDBRANCH  14  15
ENDBRANCH  13  14
ENDBRANCH  12  13
ENDBRANCH  10  11
ENDBRANCH   1  10
TORSDOF 13
ENDMDL
MODEL 5
REMARK VINA RESULT:    -5.491      5.114     10.327
REMARK INTER + INTRA:         -10.404
REMARK INTER:                  -9.810
REMARK INTRA:                  -0.594
REMARK UNBOUND:                -0.741
REMARK SMILES CCCCCCC=CCCCCCCCC(=O)[O-]
REMARK SMILES IDX 10 1 11 2 12 3 13 4 14 5 15 6 16 7 17 8 18 9 9 10 8 11 7 12
REMARK SMILES IDX 6 13 5 14 4 15 3 16 2 17 1 18
REMARK H PARENT
REMARK Flexibility Score: inf
ROOT
ATOM      1  C   UNL     1      23.745 141.283 352.179  1.00  0.00     0.004 C 
ENDROOT
BRANCH   1   2
ATOM      2  C   UNL     1      22.530 141.790 352.970  1.00  0.00     0.000 C 
BRANCH   2   3
ATOM      3  C   UNL     1      21.805 142.905 352.207  1.00  0.00     0.000 C 
BRANCH   3   4
ATOM      4  C   UNL     1      20.871 143.692 353.136  1.00  0.00     0.000 C 
BRANCH   4   5
ATOM      5  C   UNL     1      20.293 142.836 354.279  1.00  0.00     0.006 C 
BRANCH   5   6
ATOM      6  C   UNL     1      18.899 143.283 354.751  1.00  0.00     0.053 C 
BRANCH   6   7
ATOM      7  C   UNL     1      17.924 143.433 353.622  1.00  0.00     0.041 C 
ATOM      8  O   UNL     1      17.822 142.532 352.748  1.00  0.00    -0.550 OA
ATOM      9  O   UNL     1      17.108 144.554 353.553  1.00  0.00    -0.550 OA
ENDBRANCH   6   7
ENDBRANCH   5   6
ENDBRANCH   4   5
ENDBRANCH   3   4
ENDBRANCH   2   3
ENDBRANCH   1   2
BRANCH   1  10
ATOM     10  C   UNL     1      23.657 139.782 351.865  1.00  0.00     0.027 C 
BRANCH  10  11
ATOM     11  C   UNL     1      23.283 138.979 353.088  1.00  0.00    -0.031 C 
ATOM     12  C   UNL     1      23.990 137.946 353.589  1.00  0.00    -0.031 C 
BRANCH  12  13
ATOM     13  C   UNL     1      25.257 137.386 352.993  1.00  0.00     0.027 C 
BRANCH  13  14
ATOM     14  C   UNL     1      25.406 135.889 353.286  1.00  0.00     0.004 C 
BRANCH  14  15
ATOM     15  C   UNL     1      26.819 135.397 352.941  1.00  0.00     0.000 C 
BRANCH  15  16
ATOM     16  C   UNL     1      27.877 135.901 353.945  1.00  0.00    -0.000 C 
BRANCH  16  17
ATOM     17  C   UNL     1      28.811 134.795 354.463  1.00  0.00    -0.003 C 
ATOM     18  C   UNL     1      30.114 134.694 353.675  1.00  0.00     0.004 C 
ENDBRANCH  16  17
ENDBRANCH  15  16
ENDBRANCH  14  15
ENDBRANCH  13  14
ENDBRANCH  12  13
ENDBRANCH  10  11
ENDBRANCH   1  10
TORSDOF 13
ENDMDL
MODEL 6
REMARK VINA RESULT:    -5.421      3.998      8.133
REMARK INTER + INTRA:         -10.281
REMARK INTER:                  -8.748
REMARK INTRA:                  -1.533
REMARK UNBOUND:                -0.741
REMARK SMILES CCCCCCC=CCCCCCCCC(=O)[O-]
REMARK SMILES IDX 10 1 11 2 12 3 13 4 14 5 15 6 16 7 17 8 18 9 9 10 8 11 7 12
REMARK SMILES IDX 6 13 5 14 4 15 3 16 2 17 1 18
REMARK H PARENT
REMARK Flexibility Score: inf
ROOT
ATOM      1  C   UNL     1      27.874 135.471 354.217  1.00  0.00     0.004 C 
ENDROOT
BRANCH   1   2
ATOM      2  C   UNL     1      26.667 136.357 353.876  1.00  0.00     0.000 C 
BRANCH   2   3
ATOM      3  C   UNL     1      25.741 135.660 352.872  1.00  0.00     0.000 C 
BRANCH   3   4
ATOM      4  C   UNL     1      24.488 136.504 352.599  1.00  0.00     0.000 C 
BRANCH   4   5
ATOM      5  C   UNL     1      24.735 138.017 352.743  1.00  0.00     0.006 C 
BRANCH   5   6
ATOM      6  C   UNL     1      23.628 138.761 353.510  1.00  0.00     0.053 C 
BRANCH   6   7
ATOM      7  C   UNL     1      23.565 140.219 353.171  1.00  0.00     0.041 C 
ATOM      8  O   UNL     1      24.594 140.821 352.762  1.00  0.00    -0.550 OA
ATOM      9  O   UNL     1      22.364 140.907 353.277  1.00  0.00    -0.550 OA
ENDBRANCH   6   7
ENDBRANCH   5   6
ENDBRANCH   4   5
ENDBRANCH   3   4
ENDBRANCH   2   3
ENDBRANCH   1   2
BRANCH   1  10
ATOM     10  C   UNL     1      28.135 134.399 353.148  1.00  0.00     0.027 C 
BRANCH  10  11
ATOM     11  C   UNL     1      29.321 134.755 352.282  1.00  0.00    -0.031 C 
ATOM     12  C   UNL     1      29.252 135.267 351.037  1.00  0.00    -0.031 C 
BRANCH  12  13
ATOM     13  C   UNL     1      27.979 135.540 350.276  1.00  0.00     0.027 C 
BRANCH  13  14
ATOM     14  C   UNL     1      27.520 134.311 349.482  1.00  0.00     0.004 C 
BRANCH  14  15
ATOM     15  C   UNL     1      26.645 134.720 348.289  1.00  0.00     0.000 C 
BRANCH  15  16
ATOM     16  C   UNL     1      25.239 134.089 348.349  1.00  0.00    -0.000 C 
BRANCH  16  17
ATOM     17  C   UNL     1      24.332 134.706 349.428  1.00  0.00    -0.003 C 
ATOM     18  C   UNL     1      23.620 135.972 348.959  1.00  0.00     0.004 C 
ENDBRANCH  16  17
ENDBRANCH  15  16
ENDBRANCH  14  15
ENDBRANCH  13  14
ENDBRANCH  12  13
ENDBRANCH  10  11
ENDBRANCH   1  10
TORSDOF 13
ENDMDL
MODEL 7
REMARK VINA RESULT:    -5.385      9.541     11.347
REMARK INTER + INTRA:         -10.218
REMARK INTER:                  -8.557
REMARK INTRA:                  -1.661
REMARK UNBOUND:                -0.741
REMARK SMILES CCCCCCC=CCCCCCCCC(=O)[O-]
REMARK SMILES IDX 10 1 11 2 12 3 13 4 14 5 15 6 16 7 17 8 18 9 9 10 8 11 7 12
REMARK SMILES IDX 6 13 5 14 4 15 3 16 2 17 1 18
REMARK H PARENT
REMARK Flexibility Score: inf
ROOT
ATOM      1  C   UNL     1      19.673 138.285 341.985  1.00  0.00     0.004 C 
ENDROOT
BRANCH   1   2
ATOM      2  C   UNL     1      20.045 137.471 343.234  1.00  0.00     0.000 C 
BRANCH   2   3
ATOM      3  C   UNL     1      21.553 137.542 343.505  1.00  0.00     0.000 C 
BRANCH   3   4
ATOM      4  C   UNL     1      22.309 138.075 342.279  1.00  0.00     0.000 C 
BRANCH   4   5
ATOM      5  C   UNL     1      23.781 138.415 342.577  1.00  0.00     0.006 C 
BRANCH   5   6
ATOM      6  C   UNL     1      24.081 139.925 342.596  1.00  0.00     0.053 C 
BRANCH   6   7
ATOM      7  C   UNL     1      24.234 140.469 343.984  1.00  0.00     0.041 C 
ATOM      8  O   UNL     1      24.604 141.660 344.162  1.00  0.00    -0.550 OA
ATOM      9  O   UNL     1      23.939 139.670 345.080  1.00  0.00    -0.550 OA
ENDBRANCH   6   7
ENDBRANCH   5   6
ENDBRANCH   4   5
ENDBRANCH   3   4
ENDBRANCH   2   3
ENDBRANCH   1   2
BRANCH   1  10
ATOM     10  C   UNL     1      18.154 138.405 341.794  1.00  0.00     0.027 C 
BRANCH  10  11
ATOM     11  C   UNL     1      17.660 139.795 342.117  1.00  0.00    -0.031 C 
ATOM     12  C   UNL     1      17.125 140.180 343.293  1.00  0.00    -0.031 C 
BRANCH  12  13
ATOM     13  C   UNL     1      16.890 139.279 344.480  1.00  0.00     0.027 C 
BRANCH  13  14
ATOM     14  C   UNL     1      18.022 139.390 345.507  1.00  0.00     0.004 C 
BRANCH  14  15
ATOM     15  C   UNL     1      18.036 138.176 346.447  1.00  0.00     0.000 C 
BRANCH  15  16
ATOM     16  C   UNL     1      19.467 137.740 346.822  1.00  0.00    -0.000 C 
BRANCH  16  17
ATOM     17  C   UNL     1      19.658 136.214 346.859  1.00  0.00    -0.003 C 
ATOM     18  C   UNL     1      21.123 135.792 346.786  1.00  0.00     0.004 C 
ENDBRANCH  16  17
ENDBRANCH  15  16
ENDBRANCH  14  15
ENDBRANCH  13  14
ENDBRANCH  12  13
ENDBRANCH  10  11
ENDBRANCH   1  10
TORSDOF 13
ENDMDL
MODEL 8
REMARK VINA RESULT:    -5.364      9.890     11.274
REMARK INTER + INTRA:         -10.182
REMARK INTER:                  -8.687
REMARK INTRA:                  -1.496
REMARK UNBOUND:                -0.741
REMARK SMILES CCCCCCC=CCCCCCCCC(=O)[O-]
REMARK SMILES IDX 10 1 11 2 12 3 13 4 14 5 15 6 16 7 17 8 18 9 9 10 8 11 7 12
REMARK SMILES IDX 6 13 5 14 4 15 3 16 2 17 1 18
REMARK H PARENT
REMARK Flexibility Score: inf
ROOT
ATOM      1  C   UNL     1      21.020 138.167 343.627  1.00  0.00     0.004 C 
ENDROOT
BRANCH   1   2
ATOM      2  C   UNL     1      22.329 137.380 343.459  1.00  0.00     0.000 C 
BRANCH   2   3
ATOM      3  C   UNL     1      23.125 137.893 342.252  1.00  0.00     0.000 C 
BRANCH   3   4
ATOM      4  C   UNL     1      23.479 139.378 342.415  1.00  0.00     0.000 C 
BRANCH   4   5
ATOM      5  C   UNL     1      24.348 139.658 343.656  1.00  0.00     0.006 C 
BRANCH   5   6
ATOM      6  C   UNL     1      24.849 141.110 343.751  1.00  0.00     0.053 C 
BRANCH   6   7
ATOM      7  C   UNL     1      26.331 141.226 343.560  1.00  0.00     0.041 C 
ATOM      8  O   UNL     1      26.820 141.291 342.400  1.00  0.00    -0.550 OA
ATOM      9  O   UNL     1      27.171 141.293 344.663  1.00  0.00    -0.550 OA
ENDBRANCH   6   7
ENDBRANCH   5   6
ENDBRANCH   4   5
ENDBRANCH   3   4
ENDBRANCH   2   3
ENDBRANCH   1   2
BRANCH   1  10
ATOM     10  C   UNL     1      19.854 137.537 342.851  1.00  0.00     0.027 C 
BRANCH  10  11
ATOM     11  C   UNL     1      19.494 138.351 341.631  1.00  0.00    -0.031 C 
ATOM     12  C   UNL     1      18.273 138.855 341.361  1.00  0.00    -0.031 C 
BRANCH  12  13
ATOM     13  C   UNL     1      17.043 138.663 342.212  1.00  0.00     0.027 C 
BRANCH  13  14
ATOM     14  C   UNL     1      16.780 139.878 343.109  1.00  0.00     0.004 C 
BRANCH  14  15
ATOM     15  C   UNL     1      16.592 139.453 344.573  1.00  0.00     0.000 C 
BRANCH  15  16
ATOM     16  C   UNL     1      17.929 139.378 345.338  1.00  0.00    -0.000 C 
BRANCH  16  17
ATOM     17  C   UNL     1      18.104 138.081 346.146  1.00  0.00    -0.003 C 
ATOM     18  C   UNL     1      19.343 138.094 347.039  1.00  0.00     0.004 C 
ENDBRANCH  16  17
ENDBRANCH  15  16
ENDBRANCH  14  15
ENDBRANCH  13  14
ENDBRANCH  12  13
ENDBRANCH  10  11
ENDBRANCH   1  10
TORSDOF 13
ENDMDL
MODEL 9
REMARK VINA RESULT:    -5.353      4.740      6.389
REMARK INTER + INTRA:         -10.161
REMARK INTER:                  -9.064
REMARK INTRA:                  -1.098
REMARK UNBOUND:                -0.741
REMARK SMILES CCCCCCC=CCCCCCCCC(=O)[O-]
REMARK SMILES IDX 10 1 11 2 12 3 13 4 14 5 15 6 16 7 17 8 18 9 9 10 8 11 7 12
REMARK SMILES IDX 6 13 5 14 4 15 3 16 2 17 1 18
REMARK H PARENT
REMARK Flexibility Score: inf
ROOT
ATOM      1  C   UNL     1      25.275 136.706 353.244  1.00  0.00     0.004 C 
ENDROOT
BRANCH   1   2
ATOM      2  C   UNL     1      26.415 135.676 353.280  1.00  0.00     0.000 C 
BRANCH   2   3
ATOM      3  C   UNL     1      27.451 136.043 354.348  1.00  0.00     0.000 C 
BRANCH   3   4
ATOM      4  C   UNL     1      28.606 135.031 354.367  1.00  0.00     0.000 C 
BRANCH   4   5
ATOM      5  C   UNL     1      29.851 135.520 353.603  1.00  0.00     0.006 C 
BRANCH   5   6
ATOM      6  C   UNL     1      30.746 134.384 353.077  1.00  0.00     0.053 C 
BRANCH   6   7
ATOM      7  C   UNL     1      30.589 134.157 351.604  1.00  0.00     0.041 C 
ATOM      8  O   UNL     1      29.620 134.667 350.982  1.00  0.00    -0.550 OA
ATOM      9  O   UNL     1      31.530 133.406 350.912  1.00  0.00    -0.550 OA
ENDBRANCH   6   7
ENDBRANCH   5   6
ENDBRANCH   4   5
ENDBRANCH   3   4
ENDBRANCH   2   3
ENDBRANCH   1   2
BRANCH   1  10
ATOM     10  C   UNL     1      24.999 137.227 351.825  1.00  0.00     0.027 C 
BRANCH  10  11
ATOM     11  C   UNL     1      25.589 136.316 350.774  1.00  0.00    -0.031 C 
ATOM     12  C   UNL     1      24.884 135.520 349.947  1.00  0.00    -0.031 C 
BRANCH  12  13
ATOM     13  C   UNL     1      23.383 135.369 349.951  1.00  0.00     0.027 C 
BRANCH  13  14
ATOM     14  C   UNL     1      22.838 135.093 348.545  1.00  0.00     0.004 C 
BRANCH  14  15
ATOM     15  C   UNL     1      22.706 136.394 347.740  1.00  0.00     0.000 C 
BRANCH  15  16
ATOM     16  C   UNL     1      23.199 136.236 346.286  1.00  0.00    -0.000 C 
BRANCH  16  17
ATOM     17  C   UNL     1      24.413 137.117 345.948  1.00  0.00    -0.003 C 
ATOM     18  C   UNL     1      25.725 136.567 346.502  1.00  0.00     0.004 C 
ENDBRANCH  16  17
ENDBRANCH  15  16
ENDBRANCH  14  15
ENDBRANCH  13  14
ENDBRANCH  12  13
ENDBRANCH  10  11
ENDBRANCH   1  10
TORSDOF 13
ENDMDL
