MODEL 1
REMARK VINA RESULT:    10.118      0.000      0.000
REMARK INTER + INTRA:          18.848
REMARK INTER:                  19.582
REMARK INTRA:                  -0.734
REMARK UNBOUND:                -0.734
REMARK SMILES CCCCCCCCCCCCCCCCCC(=O)[O-]
REMARK SMILES IDX 10 1 11 2 12 3 13 4 14 5 15 6 16 7 17 8 18 9 19 10 20 11
REMARK SMILES IDX 9 12 8 13 7 14 6 15 5 16 4 17 3 18 2 19 1 20
REMARK H PARENT
REMARK Flexibility Score: inf
ROOT
ATOM      1  C   UNL     1       4.705  41.973  11.294  1.00  0.00     0.000 C 
ENDROOT
BRANCH   1   2
ATOM      2  C   UNL     1       3.846  42.721  10.264  1.00  0.00     0.000 C 
BRANCH   2   3
ATOM      3  C   UNL     1       4.624  43.089   8.990  1.00  0.00     0.000 C 
BRANCH   3   4
ATOM      4  C   UNL     1       6.101  42.649   9.063  1.00  0.00     0.000 C 
BRANCH   4   5
ATOM      5  C   UNL     1       6.841  42.728   7.715  1.00  0.00     0.000 C 
BRANCH   5   6
ATOM      6  C   UNL     1       8.101  41.855   7.616  1.00  0.00     0.000 C 
BRANCH   6   7
ATOM      7  C   UNL     1       9.124  42.399   6.606  1.00  0.00     0.006 C 
BRANCH   7   8
ATOM      8  C   UNL     1       8.663  42.141   5.168  1.00  0.00     0.053 C 
BRANCH   8   9
ATOM      9  C   UNL     1       9.154  40.812   4.687  1.00  0.00     0.041 C 
ATOM     10  O   UNL     1       9.856  40.730   3.646  1.00  0.00    -0.550 OA
ATOM     11  O   UNL     1       8.820  39.658   5.383  1.00  0.00    -0.550 OA
ENDBRANCH   8   9
ENDBRANCH   7   8
ENDBRANCH   6   7
ENDBRANCH   5   6
ENDBRANCH   4   5
ENDBRANCH   3   4
ENDBRANCH   2   3
ENDBRANCH   1   2
BRANCH   1  12
ATOM     12  C   UNL     1       3.936  41.669  12.591  1.00  0.00     0.000 C 
BRANCH  12  13
ATOM     13  C   UNL     1       4.775  40.868  13.600  1.00  0.00    -0.000 C 
BRANCH  13  14
ATOM     14  C   UNL     1       3.913  40.193  14.681  1.00  0.00    -0.000 C 
BRANCH  14  15
ATOM     15  C   UNL     1       4.753  39.516  15.779  1.00  0.00    -0.000 C 
BRANCH  15  16
ATOM     16  C   UNL     1       5.650  38.363  15.293  1.00  0.00    -0.000 C 
BRANCH  16  17
ATOM     17  C   UNL     1       7.082  38.439  15.848  1.00  0.00    -0.000 C 
BRANCH  17  18
ATOM     18  C   UNL     1       7.683  39.854  15.707  1.00  0.00    -0.000 C 
BRANCH  18  19
ATOM     19  C   UNL     1       8.907  39.911  14.779  1.00  0.00    -0.003 C 
ATOM     20  C   UNL     1       9.754  38.646  14.833  1.00  0.00     0.004 C 
ENDBRANCH  18  19
ENDBRANCH  17  18
ENDBRANCH  16  17
ENDBRANCH  15  16
ENDBRANCH  14  15
ENDBRANCH  13  14
ENDBRANCH  12  13
ENDBRANCH   1  12
TORSDOF 16
ENDMDL
MODEL 2
REMARK VINA RESULT:    11.197      0.952      1.630
REMARK INTER + INTRA:          20.936
REMARK INTER:                  21.487
REMARK INTRA:                  -0.551
REMARK UNBOUND:                -0.734
REMARK SMILES CCCCCCCCCCCCCCCCCC(=O)[O-]
REMARK SMILES IDX 10 1 11 2 12 3 13 4 14 5 15 6 16 7 17 8 18 9 19 10 20 11
REMARK SMILES IDX 9 12 8 13 7 14 6 15 5 16 4 17 3 18 2 19 1 20
REMARK H PARENT
REMARK Flexibility Score: inf
ROOT
ATOM      1  C   UNL     1       4.034  42.813  10.085  1.00  0.00     0.000 C 
ENDROOT
BRANCH   1   2
ATOM      2  C   UNL     1       4.902  43.234   8.890  1.00  0.00     0.000 C 
BRANCH   2   3
ATOM      3  C   UNL     1       6.278  42.548   8.880  1.00  0.00     0.000 C 
BRANCH   3   4
ATOM      4  C   UNL     1       6.872  42.457   7.458  1.00  0.00     0.000 C 
BRANCH   4   5
ATOM      5  C   UNL     1       8.395  42.223   7.434  1.00  0.00     0.000 C 
BRANCH   5   6
ATOM      6  C   UNL     1       8.839  40.921   6.751  1.00  0.00     0.000 C 
BRANCH   6   7
ATOM      7  C   UNL     1       8.570  40.921   5.239  1.00  0.00     0.006 C 
BRANCH   7   8
ATOM      8  C   UNL     1       9.809  41.382   4.462  1.00  0.00     0.053 C 
BRANCH   8   9
ATOM      9  C   UNL     1      10.071  40.475   3.302  1.00  0.00     0.041 C 
ATOM     10  O   UNL     1       9.783  40.837   2.132  1.00  0.00    -0.550 OA
ATOM     11  O   UNL     1      10.619  39.217   3.516  1.00  0.00    -0.550 OA
ENDBRANCH   8   9
ENDBRANCH   7   8
ENDBRANCH   6   7
ENDBRANCH   5   6
ENDBRANCH   4   5
ENDBRANCH   3   4
ENDBRANCH   2   3
ENDBRANCH   1   2
BRANCH   1  12
ATOM     12  C   UNL     1       4.809  41.960  11.103  1.00  0.00     0.000 C 
BRANCH  12  13
ATOM     13  C   UNL     1       3.982  41.644  12.360  1.00  0.00    -0.000 C 
BRANCH  13  14
ATOM     14  C   UNL     1       4.808  40.940  13.450  1.00  0.00    -0.000 C 
BRANCH  14  15
ATOM     15  C   UNL     1       3.937  40.160  14.450  1.00  0.00    -0.000 C 
BRANCH  15  16
ATOM     16  C   UNL     1       4.716  39.449  15.572  1.00  0.00    -0.000 C 
BRANCH  16  17
ATOM     17  C   UNL     1       6.198  39.223  15.226  1.00  0.00    -0.000 C 
BRANCH  17  18
ATOM     18  C   UNL     1       7.099  40.348  15.781  1.00  0.00    -0.000 C 
BRANCH  18  19
ATOM     19  C   UNL     1       8.493  40.393  15.135  1.00  0.00    -0.003 C 
ATOM     20  C   UNL     1       9.027  39.012  14.778  1.00  0.00     0.004 C 
ENDBRANCH  18  19
ENDBRANCH  17  18
ENDBRANCH  16  17
ENDBRANCH  15  16
ENDBRANCH  14  15
ENDBRANCH  13  14
ENDBRANCH  12  13
ENDBRANCH   1  12
TORSDOF 16
ENDMDL
MODEL 3
REMARK VINA RESULT:    11.583      1.677      2.378
REMARK INTER + INTRA:          21.684
REMARK INTER:                  22.148
REMARK INTRA:                  -0.464
REMARK UNBOUND:                -0.734
REMARK SMILES CCCCCCCCCCCCCCCCCC(=O)[O-]
REMARK SMILES IDX 10 1 11 2 12 3 13 4 14 5 15 6 16 7 17 8 18 9 19 10 20 11
REMARK SMILES IDX 9 12 8 13 7 14 6 15 5 16 4 17 3 18 2 19 1 20
REMARK H PARENT
REMARK Flexibility Score: inf
ROOT
ATOM      1  C   UNL     1       4.866  41.260  12.878  1.00  0.00     0.000 C 
ENDROOT
BRANCH   1   2
ATOM      2  C   UNL     1       5.478  41.749  11.557  1.00  0.00     0.000 C 
BRANCH   2   3
ATOM      3  C   UNL     1       4.418  42.084  10.494  1.00  0.00     0.000 C 
BRANCH   3   4
ATOM      4  C   UNL     1       4.794  43.335   9.672  1.00  0.00     0.000 C 
BRANCH   4   5
ATOM      5  C   UNL     1       5.164  43.029   8.208  1.00  0.00     0.000 C 
BRANCH   5   6
ATOM      6  C   UNL     1       6.671  42.947   7.926  1.00  0.00     0.000 C 
BRANCH   6   7
ATOM      7  C   UNL     1       6.984  42.504   6.489  1.00  0.00     0.006 C 
BRANCH   7   8
ATOM      8  C   UNL     1       8.310  41.738   6.428  1.00  0.00     0.053 C 
BRANCH   8   9
ATOM      9  C   UNL     1       9.417  42.553   7.017  1.00  0.00     0.041 C 
ATOM     10  O   UNL     1       9.551  43.766   6.707  1.00  0.00    -0.550 OA
ATOM     11  O   UNL     1      10.315  41.968   7.900  1.00  0.00    -0.550 OA
ENDBRANCH   8   9
ENDBRANCH   7   8
ENDBRANCH   6   7
ENDBRANCH   5   6
ENDBRANCH   4   5
ENDBRANCH   3   4
ENDBRANCH   2   3
ENDBRANCH   1   2
BRANCH   1  12
ATOM     12  C   UNL     1       5.872  40.473  13.735  1.00  0.00     0.000 C 
BRANCH  12  13
ATOM     13  C   UNL     1       5.556  40.556  15.238  1.00  0.00    -0.000 C 
BRANCH  13  14
ATOM     14  C   UNL     1       5.031  39.224  15.805  1.00  0.00    -0.000 C 
BRANCH  14  15
ATOM     15  C   UNL     1       5.999  38.051  15.569  1.00  0.00    -0.000 C 
BRANCH  15  16
ATOM     16  C   UNL     1       7.467  38.338  15.931  1.00  0.00    -0.000 C 
BRANCH  16  17
ATOM     17  C   UNL     1       8.410  38.279  14.718  1.00  0.00    -0.000 C 
BRANCH  17  18
ATOM     18  C   UNL     1       9.845  37.876  15.119  1.00  0.00    -0.000 C 
BRANCH  18  19
ATOM     19  C   UNL     1      10.569  38.939  15.960  1.00  0.00    -0.003 C 
ATOM     20  C   UNL     1      12.062  38.670  16.102  1.00  0.00     0.004 C 
ENDBRANCH  18  19
ENDBRANCH  17  18
ENDBRANCH  16  17
ENDBRANCH  15  16
ENDBRANCH  14  15
ENDBRANCH  13  14
ENDBRANCH  12  13
ENDBRANCH   1  12
TORSDOF 16
ENDMDL
MODEL 4
REMARK VINA RESULT:    11.587      1.589      3.148
REMARK INTER + INTRA:          21.691
REMARK INTER:                  22.099
REMARK INTRA:                  -0.407
REMARK UNBOUND:                -0.734
REMARK SMILES CCCCCCCCCCCCCCCCCC(=O)[O-]
REMARK SMILES IDX 10 1 11 2 12 3 13 4 14 5 15 6 16 7 17 8 18 9 19 10 20 11
REMARK SMILES IDX 9 12 8 13 7 14 6 15 5 16 4 17 3 18 2 19 1 20
REMARK H PARENT
REMARK Flexibility Score: inf
ROOT
ATOM      1  C   UNL     1       6.709  41.497  11.498  1.00  0.00     0.000 C 
ENDROOT
BRANCH   1   2
ATOM      2  C   UNL     1       7.214  42.114  10.185  1.00  0.00     0.000 C 
BRANCH   2   3
ATOM      3  C   UNL     1       6.092  42.332   9.157  1.00  0.00     0.000 C 
BRANCH   3   4
ATOM      4  C   UNL     1       6.566  43.164   7.946  1.00  0.00     0.000 C 
BRANCH   4   5
ATOM      5  C   UNL     1       7.115  42.314   6.784  1.00  0.00     0.000 C 
BRANCH   5   6
ATOM      6  C   UNL     1       8.548  41.799   6.980  1.00  0.00     0.000 C 
BRANCH   6   7
ATOM      7  C   UNL     1       9.357  41.777   5.675  1.00  0.00     0.006 C 
BRANCH   7   8
ATOM      8  C   UNL     1       8.995  40.553   4.827  1.00  0.00     0.053 C 
BRANCH   8   9
ATOM      9  C   UNL     1       9.713  40.590   3.515  1.00  0.00     0.041 C 
ATOM     10  O   UNL     1      10.755  39.906   3.338  1.00  0.00    -0.550 OA
ATOM     11  O   UNL     1       9.239  41.396   2.488  1.00  0.00    -0.550 OA
ENDBRANCH   8   9
ENDBRANCH   7   8
ENDBRANCH   6   7
ENDBRANCH   5   6
ENDBRANCH   4   5
ENDBRANCH   3   4
ENDBRANCH   2   3
ENDBRANCH   1   2
BRANCH   1  12
ATOM     12  C   UNL     1       7.839  41.284  12.520  1.00  0.00     0.000 C 
BRANCH  12  13
ATOM     13  C   UNL     1       7.422  40.360  13.676  1.00  0.00    -0.000 C 
BRANCH  13  14
ATOM     14  C   UNL     1       8.392  40.431  14.868  1.00  0.00    -0.000 C 
BRANCH  14  15
ATOM     15  C   UNL     1       7.888  39.653  16.097  1.00  0.00    -0.000 C 
BRANCH  15  16
ATOM     16  C   UNL     1       6.843  38.564  15.791  1.00  0.00    -0.000 C 
BRANCH  16  17
ATOM     17  C   UNL     1       5.396  39.046  15.992  1.00  0.00    -0.000 C 
BRANCH  17  18
ATOM     18  C   UNL     1       4.390  37.875  15.982  1.00  0.00    -0.000 C 
BRANCH  18  19
ATOM     19  C   UNL     1       2.983  38.279  15.512  1.00  0.00    -0.003 C 
ATOM     20  C   UNL     1       3.004  39.254  14.342  1.00  0.00     0.004 C 
ENDBRANCH  18  19
ENDBRANCH  17  18
ENDBRANCH  16  17
ENDBRANCH  15  16
ENDBRANCH  14  15
ENDBRANCH  13  14
ENDBRANCH  12  13
ENDBRANCH   1  12
TORSDOF 16
ENDMDL
MODEL 5
REMARK VINA RESULT:    12.124      4.113      9.342
REMARK INTER + INTRA:          22.731
REMARK INTER:                  23.490
REMARK INTRA:                  -0.759
REMARK UNBOUND:                -0.734
REMARK SMILES CCCCCCCCCCCCCCCCCC(=O)[O-]
REMARK SMILES IDX 10 1 11 2 12 3 13 4 14 5 15 6 16 7 17 8 18 9 19 10 20 11
REMARK SMILES IDX 9 12 8 13 7 14 6 15 5 16 4 17 3 18 2 19 1 20
REMARK H PARENT
REMARK Flexibility Score: inf
ROOT
ATOM      1  C   UNL     1       6.829  42.344  10.189  1.00  0.00     0.000 C 
ENDROOT
BRANCH   1   2
ATOM      2  C   UNL     1       6.732  41.093  11.075  1.00  0.00     0.000 C 
BRANCH   2   3
ATOM      3  C   UNL     1       6.759  41.420  12.577  1.00  0.00     0.000 C 
BRANCH   3   4
ATOM      4  C   UNL     1       7.645  40.437  13.371  1.00  0.00     0.000 C 
BRANCH   4   5
ATOM      5  C   UNL     1       7.350  40.415  14.883  1.00  0.00     0.000 C 
BRANCH   5   6
ATOM      6  C   UNL     1       7.509  39.043  15.554  1.00  0.00     0.000 C 
BRANCH   6   7
ATOM      7  C   UNL     1       6.457  38.026  15.085  1.00  0.00     0.006 C 
BRANCH   7   8
ATOM      8  C   UNL     1       5.341  37.875  16.124  1.00  0.00     0.053 C 
BRANCH   8   9
ATOM      9  C   UNL     1       4.123  38.635  15.703  1.00  0.00     0.041 C 
ATOM     10  O   UNL     1       3.017  38.047  15.575  1.00  0.00    -0.550 OA
ATOM     11  O   UNL     1       4.212  39.994  15.435  1.00  0.00    -0.550 OA
ENDBRANCH   8   9
ENDBRANCH   7   8
ENDBRANCH   6   7
ENDBRANCH   5   6
ENDBRANCH   4   5
ENDBRANCH   3   4
ENDBRANCH   2   3
ENDBRANCH   1   2
BRANCH   1  12
ATOM     12  C   UNL     1       5.680  42.433   9.171  1.00  0.00     0.000 C 
BRANCH  12  13
ATOM     13  C   UNL     1       6.002  43.378   8.001  1.00  0.00    -0.000 C 
BRANCH  13  14
ATOM     14  C   UNL     1       6.650  42.646   6.812  1.00  0.00    -0.000 C 
BRANCH  14  15
ATOM     15  C   UNL     1       8.148  42.961   6.661  1.00  0.00    -0.000 C 
BRANCH  15  16
ATOM     16  C   UNL     1       9.094  41.798   7.012  1.00  0.00    -0.000 C 
BRANCH  16  17
ATOM     17  C   UNL     1       8.872  40.555   6.134  1.00  0.00    -0.000 C 
BRANCH  17  18
ATOM     18  C   UNL     1       8.848  40.906   4.631  1.00  0.00    -0.000 C 
BRANCH  18  19
ATOM     19  C   UNL     1      10.069  40.382   3.858  1.00  0.00    -0.003 C 
ATOM     20  C   UNL     1       9.934  40.546   2.350  1.00  0.00     0.004 C 
ENDBRANCH  18  19
ENDBRANCH  17  18
ENDBRANCH  16  17
ENDBRANCH  15  16
ENDBRANCH  14  15
ENDBRANCH  13  14
ENDBRANCH  12  13
ENDBRANCH   1  12
TORSDOF 16
ENDMDL
MODEL 6
REMARK VINA RESULT:    12.763      1.527      2.659
REMARK INTER + INTRA:          23.968
REMARK INTER:                  24.689
REMARK INTRA:                  -0.721
REMARK UNBOUND:                -0.734
REMARK SMILES CCCCCCCCCCCCCCCCCC(=O)[O-]
REMARK SMILES IDX 10 1 11 2 12 3 13 4 14 5 15 6 16 7 17 8 18 9 19 10 20 11
REMARK SMILES IDX 9 12 8 13 7 14 6 15 5 16 4 17 3 18 2 19 1 20
REMARK H PARENT
REMARK Flexibility Score: inf
ROOT
ATOM      1  C   UNL     1       5.205  42.595  10.670  1.00  0.00     0.000 C 
ENDROOT
BRANCH   1   2
ATOM      2  C   UNL     1       4.815  42.984   9.236  1.00  0.00     0.000 C 
BRANCH   2   3
ATOM      3  C   UNL     1       5.973  42.828   8.237  1.00  0.00     0.000 C 
BRANCH   3   4
ATOM      4  C   UNL     1       7.130  41.986   8.815  1.00  0.00     0.000 C 
BRANCH   4   5
ATOM      5  C   UNL     1       8.429  42.065   7.991  1.00  0.00     0.000 C 
BRANCH   5   6
ATOM      6  C   UNL     1       8.227  42.183   6.473  1.00  0.00     0.000 C 
BRANCH   6   7
ATOM      7  C   UNL     1       9.268  41.388   5.671  1.00  0.00     0.006 C 
BRANCH   7   8
ATOM      8  C   UNL     1       8.681  40.902   4.342  1.00  0.00     0.053 C 
BRANCH   8   9
ATOM      9  C   UNL     1       9.771  40.492   3.403  1.00  0.00     0.041 C 
ATOM     10  O   UNL     1       9.866  41.023   2.266  1.00  0.00    -0.550 OA
ATOM     11  O   UNL     1      10.674  39.507   3.778  1.00  0.00    -0.550 OA
ENDBRANCH   8   9
ENDBRANCH   7   8
ENDBRANCH   6   7
ENDBRANCH   5   6
ENDBRANCH   4   5
ENDBRANCH   3   4
ENDBRANCH   2   3
ENDBRANCH   1   2
BRANCH   1  12
ATOM     12  C   UNL     1       4.218  41.595  11.296  1.00  0.00     0.000 C 
BRANCH  12  13
ATOM     13  C   UNL     1       4.228  41.644  12.833  1.00  0.00    -0.000 C 
BRANCH  13  14
ATOM     14  C   UNL     1       5.316  40.744  13.446  1.00  0.00    -0.000 C 
BRANCH  14  15
ATOM     15  C   UNL     1       5.686  41.148  14.884  1.00  0.00    -0.000 C 
BRANCH  15  16
ATOM     16  C   UNL     1       6.279  40.016  15.743  1.00  0.00    -0.000 C 
BRANCH  16  17
ATOM     17  C   UNL     1       6.052  38.620  15.140  1.00  0.00    -0.000 C 
BRANCH  17  18
ATOM     18  C   UNL     1       4.887  37.875  15.826  1.00  0.00    -0.000 C 
BRANCH  18  19
ATOM     19  C   UNL     1       3.645  38.752  16.050  1.00  0.00    -0.003 C 
ATOM     20  C   UNL     1       2.348  37.953  16.069  1.00  0.00     0.004 C 
ENDBRANCH  18  19
ENDBRANCH  17  18
ENDBRANCH  16  17
ENDBRANCH  15  16
ENDBRANCH  14  15
ENDBRANCH  13  14
ENDBRANCH  12  13
ENDBRANCH   1  12
TORSDOF 16
ENDMDL
