MODEL 1
REMARK VINA RESULT:    -7.148      0.000      0.000
REMARK INTER + INTRA:         -11.782
REMARK INTER:                 -10.491
REMARK INTRA:                  -1.291
REMARK UNBOUND:                -1.291
REMARK SMILES O=c1c(O[C@@H]2O[C@H](CO)[C@@H](O)[C@@H](O)[C@H]2O)c(-c2ccc(O)c(O)c2)oc2cc(O)cc(O)c12
REMARK SMILES IDX 4 1 3 2 16 3 25 4 2 5 26 6 1 7 33 8 27 9 31 10 28 11 30 12
REMARK SMILES IDX 17 13 18 14 19 15 20 16 24 17 22 18 21 19 23 21 32 23 29 25
REMARK SMILES IDX 5 27 14 28 6 29 12 30 7 31 10 32 15 33 13 35 8 37 9 38 11 40
REMARK H PARENT 21 20 23 22 32 24 29 26 15 34 13 36 9 39 11 41
REMARK Flexibility Score: inf
ROOT
ATOM      1  O   UNL     1      14.015 -36.149   0.475  1.00  0.00    -0.454 OA
ENDROOT
BRANCH   1   2
ATOM      2  C   UNL     1      14.913 -36.536  -0.542  1.00  0.00     0.214 A 
ATOM      3  C   UNL     1      14.683 -36.083  -1.853  1.00  0.00     0.180 A 
ATOM      4  O   UNL     1      15.462 -36.476  -2.854  1.00  0.00    -0.452 OA
ATOM      5  C   UNL     1      16.035 -37.367  -0.317  1.00  0.00     0.239 A 
ATOM      6  C   UNL     1      16.501 -37.283  -2.690  1.00  0.00     0.146 A 
ATOM      7  O   UNL     1      16.325 -37.735   0.852  1.00  0.00    -0.285 OA
ATOM      8  C   UNL     1      16.842 -37.763  -1.405  1.00  0.00     0.111 A 
ATOM      9  C   UNL     1      17.262 -37.646  -3.805  1.00  0.00     0.094 A 
ATOM     10  C   UNL     1      17.967 -38.614  -1.266  1.00  0.00     0.134 A 
ATOM     11  C   UNL     1      18.369 -38.487  -3.661  1.00  0.00     0.123 A 
ATOM     12  C   UNL     1      18.718 -38.967  -2.397  1.00  0.00     0.093 A 
BRANCH   3  13
ATOM     13  C   UNL     1      13.569 -35.178  -2.160  1.00  0.00     0.025 A 
ATOM     14  C   UNL     1      13.793 -33.799  -2.258  1.00  0.00     0.016 A 
ATOM     15  C   UNL     1      12.729 -32.933  -2.525  1.00  0.00     0.051 A 
ATOM     16  C   UNL     1      11.430 -33.438  -2.683  1.00  0.00     0.157 A 
ATOM     17  C   UNL     1      12.269 -35.683  -2.302  1.00  0.00     0.062 A 
ATOM     18  C   UNL     1      11.200 -34.819  -2.568  1.00  0.00     0.158 A 
BRANCH  16  19
ATOM     19  O   UNL     1      10.371 -32.572  -2.951  1.00  0.00    -0.504 OA
ATOM     20  H   UNL     1       9.630 -32.822  -3.595  1.00  0.00     0.293 HD
ENDBRANCH  16  19
BRANCH  18  21
ATOM     21  O   UNL     1       9.919 -35.352  -2.717  1.00  0.00    -0.504 OA
ATOM     22  H   UNL     1       9.099 -34.887  -2.351  1.00  0.00     0.293 HD
ENDBRANCH  18  21
ENDBRANCH   3  13
BRANCH  10  23
ATOM     23  O   UNL     1      18.342 -39.112  -0.017  1.00  0.00    -0.507 OA
ATOM     24  H   UNL     1      18.696 -38.506   0.714  1.00  0.00     0.293 HD
ENDBRANCH  10  23
BRANCH  11  25
ATOM     25  O   UNL     1      19.129 -38.854  -4.770  1.00  0.00    -0.508 OA
ATOM     26  H   UNL     1      19.163 -39.813  -5.094  1.00  0.00     0.293 HD
ENDBRANCH  11  25
ENDBRANCH   1   2
BRANCH   1  27
ATOM     27  C   UNL     1      14.365 -35.423   1.661  1.00  0.00     0.339 C 
ATOM     28  C   UNL     1      14.830 -33.982   1.335  1.00  0.00     0.214 C 
ATOM     29  O   UNL     1      13.305 -35.462   2.604  1.00  0.00    -0.332 OA
ATOM     30  C   UNL     1      13.653 -33.085   0.932  1.00  0.00     0.180 C 
ATOM     31  C   UNL     1      12.163 -34.689   2.256  1.00  0.00     0.179 C 
ATOM     32  C   UNL     1      12.483 -33.208   1.928  1.00  0.00     0.177 C 
BRANCH  28  33
ATOM     33  O   UNL     1      15.559 -33.424   2.403  1.00  0.00    -0.384 OA
ATOM     34  H   UNL     1      16.328 -32.922   2.027  1.00  0.00     0.211 HD
ENDBRANCH  28  33
BRANCH  30  35
ATOM     35  O   UNL     1      14.087 -31.751   0.838  1.00  0.00    -0.387 OA
ATOM     36  H   UNL     1      14.510 -31.525   1.708  1.00  0.00     0.211 HD
ENDBRANCH  30  35
BRANCH  31  37
ATOM     37  C   UNL     1      11.237 -35.405   1.245  1.00  0.00     0.191 C 
BRANCH  37  38
ATOM     38  O   UNL     1      11.181 -36.788   1.461  1.00  0.00    -0.394 OA
ATOM     39  H   UNL     1      10.412 -36.961   2.064  1.00  0.00     0.210 HD
ENDBRANCH  37  38
ENDBRANCH  31  37
BRANCH  32  40
ATOM     40  O   UNL     1      12.788 -32.533   3.124  1.00  0.00    -0.387 OA
ATOM     41  H   UNL     1      12.933 -33.223   3.822  1.00  0.00     0.211 HD
ENDBRANCH  32  40
ENDBRANCH   1  27
TORSDOF 12
ENDMDL
MODEL 2
REMARK VINA RESULT:    -6.849      2.299      5.807
REMARK INTER + INTRA:         -11.344
REMARK INTER:                  -9.694
REMARK INTRA:                  -1.649
REMARK UNBOUND:                -1.291
REMARK SMILES O=c1c(O[C@@H]2O[C@H](CO)[C@@H](O)[C@@H](O)[C@H]2O)c(-c2ccc(O)c(O)c2)oc2cc(O)cc(O)c12
REMARK SMILES IDX 4 1 3 2 16 3 25 4 2 5 26 6 1 7 33 8 27 9 31 10 28 11 30 12
REMARK SMILES IDX 17 13 18 14 19 15 20 16 24 17 22 18 21 19 23 21 32 23 29 25
REMARK SMILES IDX 5 27 14 28 6 29 12 30 7 31 10 32 15 33 13 35 8 37 9 38 11 40
REMARK H PARENT 21 20 23 22 32 24 29 26 15 34 13 36 9 39 11 41
REMARK Flexibility Score: inf
ROOT
ATOM      1  O   UNL     1      14.349 -35.777  -1.300  1.00  0.00    -0.454 OA
ENDROOT
BRANCH   1   2
ATOM      2  C   UNL     1      13.692 -36.514  -2.308  1.00  0.00     0.214 A 
ATOM      3  C   UNL     1      14.439 -37.432  -3.068  1.00  0.00     0.180 A 
ATOM      4  O   UNL     1      13.880 -38.098  -4.071  1.00  0.00    -0.452 OA
ATOM      5  C   UNL     1      12.317 -36.373  -2.606  1.00  0.00     0.239 A 
ATOM      6  C   UNL     1      12.603 -37.967  -4.404  1.00  0.00     0.146 A 
ATOM      7  O   UNL     1      11.591 -35.619  -1.904  1.00  0.00    -0.285 OA
ATOM      8  C   UNL     1      11.756 -37.098  -3.679  1.00  0.00     0.111 A 
ATOM      9  C   UNL     1      12.103 -38.707  -5.479  1.00  0.00     0.094 A 
ATOM     10  C   UNL     1      10.393 -36.994  -4.056  1.00  0.00     0.134 A 
ATOM     11  C   UNL     1      10.759 -38.597  -5.848  1.00  0.00     0.123 A 
ATOM     12  C   UNL     1       9.911 -37.745  -5.138  1.00  0.00     0.093 A 
BRANCH   3  13
ATOM     13  C   UNL     1      15.860 -37.671  -2.788  1.00  0.00     0.025 A 
ATOM     14  C   UNL     1      16.842 -37.092  -3.601  1.00  0.00     0.016 A 
ATOM     15  C   UNL     1      18.194 -37.338  -3.352  1.00  0.00     0.051 A 
ATOM     16  C   UNL     1      18.576 -38.177  -2.295  1.00  0.00     0.157 A 
ATOM     17  C   UNL     1      16.238 -38.523  -1.741  1.00  0.00     0.062 A 
ATOM     18  C   UNL     1      17.592 -38.774  -1.488  1.00  0.00     0.158 A 
BRANCH  16  19
ATOM     19  O   UNL     1      19.926 -38.421  -2.047  1.00  0.00    -0.504 OA
ATOM     20  H   UNL     1      20.369 -39.288  -2.324  1.00  0.00     0.293 HD
ENDBRANCH  16  19
BRANCH  18  21
ATOM     21  O   UNL     1      17.939 -39.616  -0.431  1.00  0.00    -0.504 OA
ATOM     22  H   UNL     1      17.383 -40.424  -0.183  1.00  0.00     0.293 HD
ENDBRANCH  18  21
ENDBRANCH   3  13
BRANCH  10  23
ATOM     23  O   UNL     1       9.520 -36.150  -3.369  1.00  0.00    -0.507 OA
ATOM     24  H   UNL     1       8.529 -36.124  -3.578  1.00  0.00     0.293 HD
ENDBRANCH  10  23
BRANCH  11  25
ATOM     25  O   UNL     1      10.255 -39.331  -6.920  1.00  0.00    -0.508 OA
ATOM     26  H   UNL     1       9.290 -39.245  -7.214  1.00  0.00     0.293 HD
ENDBRANCH  11  25
ENDBRANCH   1   2
BRANCH   1  27
ATOM     27  C   UNL     1      14.213 -35.994   0.111  1.00  0.00     0.339 C 
ATOM     28  C   UNL     1      15.588 -36.021   0.822  1.00  0.00     0.214 C 
ATOM     29  O   UNL     1      13.314 -35.054   0.679  1.00  0.00    -0.332 OA
ATOM     30  C   UNL     1      16.198 -34.618   0.928  1.00  0.00     0.180 C 
ATOM     31  C   UNL     1      13.807 -33.722   0.754  1.00  0.00     0.179 C 
ATOM     32  C   UNL     1      15.176 -33.598   1.471  1.00  0.00     0.177 C 
BRANCH  28  33
ATOM     33  O   UNL     1      15.501 -36.640   2.084  1.00  0.00    -0.384 OA
ATOM     34  H   UNL     1      14.596 -36.471   2.454  1.00  0.00     0.211 HD
ENDBRANCH  28  33
BRANCH  30  35
ATOM     35  O   UNL     1      17.340 -34.660   1.747  1.00  0.00    -0.387 OA
ATOM     36  H   UNL     1      17.932 -35.367   1.377  1.00  0.00     0.211 HD
ENDBRANCH  30  35
BRANCH  31  37
ATOM     37  C   UNL     1      13.693 -32.961  -0.589  1.00  0.00     0.191 C 
BRANCH  37  38
ATOM     38  O   UNL     1      12.450 -33.155  -1.205  1.00  0.00    -0.394 OA
ATOM     39  H   UNL     1      12.221 -32.313  -1.678  1.00  0.00     0.210 HD
ENDBRANCH  37  38
ENDBRANCH  31  37
BRANCH  32  40
ATOM     40  O   UNL     1      14.985 -33.787   2.852  1.00  0.00    -0.387 OA
ATOM     41  H   UNL     1      15.161 -34.745   3.044  1.00  0.00     0.211 HD
ENDBRANCH  32  40
ENDBRANCH   1  27
TORSDOF 12
ENDMDL
MODEL 3
REMARK VINA RESULT:    -6.721      3.015      6.291
REMARK INTER + INTRA:         -11.156
REMARK INTER:                 -10.020
REMARK INTRA:                  -1.136
REMARK UNBOUND:                -1.291
REMARK SMILES O=c1c(O[C@@H]2O[C@H](CO)[C@@H](O)[C@@H](O)[C@H]2O)c(-c2ccc(O)c(O)c2)oc2cc(O)cc(O)c12
REMARK SMILES IDX 4 1 3 2 16 3 25 4 2 5 26 6 1 7 33 8 27 9 31 10 28 11 30 12
REMARK SMILES IDX 17 13 18 14 19 15 20 16 24 17 22 18 21 19 23 21 32 23 29 25
REMARK SMILES IDX 5 27 14 28 6 29 12 30 7 31 10 32 15 33 13 35 8 37 9 38 11 40
REMARK H PARENT 21 20 23 22 32 24 29 26 15 34 13 36 9 39 11 41
REMARK Flexibility Score: inf
ROOT
ATOM      1  O   UNL     1      14.023 -35.806  -2.809  1.00  0.00    -0.454 OA
ENDROOT
BRANCH   1   2
ATOM      2  C   UNL     1      13.467 -36.889  -3.523  1.00  0.00     0.214 A 
ATOM      3  C   UNL     1      14.269 -38.019  -3.767  1.00  0.00     0.180 A 
ATOM      4  O   UNL     1      13.812 -39.033  -4.491  1.00  0.00    -0.452 OA
ATOM      5  C   UNL     1      12.143 -36.899  -4.019  1.00  0.00     0.239 A 
ATOM      6  C   UNL     1      12.589 -39.065  -5.003  1.00  0.00     0.146 A 
ATOM      7  O   UNL     1      11.364 -35.943  -3.762  1.00  0.00    -0.285 OA
ATOM      8  C   UNL     1      11.690 -37.995  -4.784  1.00  0.00     0.111 A 
ATOM      9  C   UNL     1      12.196 -40.174  -5.757  1.00  0.00     0.094 A 
ATOM     10  C   UNL     1      10.387 -38.069  -5.336  1.00  0.00     0.134 A 
ATOM     11  C   UNL     1      10.911 -40.239  -6.301  1.00  0.00     0.123 A 
ATOM     12  C   UNL     1      10.012 -39.191  -6.090  1.00  0.00     0.093 A 
BRANCH   3  13
ATOM     13  C   UNL     1      15.638 -38.106  -3.243  1.00  0.00     0.025 A 
ATOM     14  C   UNL     1      16.718 -37.705  -4.038  1.00  0.00     0.016 A 
ATOM     15  C   UNL     1      18.024 -37.810  -3.551  1.00  0.00     0.051 A 
ATOM     16  C   UNL     1      18.260 -38.331  -2.270  1.00  0.00     0.157 A 
ATOM     17  C   UNL     1      15.872 -38.642  -1.970  1.00  0.00     0.062 A 
ATOM     18  C   UNL     1      17.178 -38.752  -1.478  1.00  0.00     0.158 A 
BRANCH  16  19
ATOM     19  O   UNL     1      19.563 -38.434  -1.786  1.00  0.00    -0.504 OA
ATOM     20  H   UNL     1      20.336 -38.688  -2.390  1.00  0.00     0.293 HD
ENDBRANCH  16  19
BRANCH  18  21
ATOM     21  O   UNL     1      17.381 -39.277  -0.202  1.00  0.00    -0.504 OA
ATOM     22  H   UNL     1      18.260 -39.694   0.074  1.00  0.00     0.293 HD
ENDBRANCH  18  21
ENDBRANCH   3  13
BRANCH  10  23
ATOM     23  O   UNL     1       9.466 -37.038  -5.146  1.00  0.00    -0.507 OA
ATOM     24  H   UNL     1       8.503 -37.223  -4.893  1.00  0.00     0.293 HD
ENDBRANCH  10  23
BRANCH  11  25
ATOM     25  O   UNL     1      10.515 -41.342  -7.055  1.00  0.00    -0.508 OA
ATOM     26  H   UNL     1      10.287 -41.256  -8.038  1.00  0.00     0.293 HD
ENDBRANCH  11  25
ENDBRANCH   1   2
BRANCH   1  27
ATOM     27  C   UNL     1      13.354 -35.051  -1.791  1.00  0.00     0.339 C 
ATOM     28  C   UNL     1      12.733 -35.970  -0.711  1.00  0.00     0.214 C 
ATOM     29  O   UNL     1      14.219 -34.065  -1.247  1.00  0.00    -0.332 OA
ATOM     30  C   UNL     1      13.805 -36.572   0.206  1.00  0.00     0.180 C 
ATOM     31  C   UNL     1      15.267 -34.572  -0.430  1.00  0.00     0.179 C 
ATOM     32  C   UNL     1      14.781 -35.493   0.716  1.00  0.00     0.177 C 
BRANCH  28  33
ATOM     33  O   UNL     1      11.744 -35.295   0.030  1.00  0.00    -0.384 OA
ATOM     34  H   UNL     1      12.105 -34.412   0.302  1.00  0.00     0.211 HD
ENDBRANCH  28  33
BRANCH  30  35
ATOM     35  O   UNL     1      13.188 -37.234   1.282  1.00  0.00    -0.387 OA
ATOM     36  H   UNL     1      12.966 -36.540   1.956  1.00  0.00     0.211 HD
ENDBRANCH  30  35
BRANCH  31  37
ATOM     37  C   UNL     1      16.463 -35.112  -1.251  1.00  0.00     0.191 C 
BRANCH  37  38
ATOM     38  O   UNL     1      17.545 -35.475  -0.438  1.00  0.00    -0.394 OA
ATOM     39  H   UNL     1      18.116 -36.092  -0.965  1.00  0.00     0.210 HD
ENDBRANCH  37  38
ENDBRANCH  31  37
BRANCH  32  40
ATOM     40  O   UNL     1      14.162 -34.704   1.703  1.00  0.00    -0.387 OA
ATOM     41  H   UNL     1      14.662 -34.847   2.548  1.00  0.00     0.211 HD
ENDBRANCH  32  40
ENDBRANCH   1  27
TORSDOF 12
ENDMDL
MODEL 4
REMARK VINA RESULT:    -6.386      2.296      5.878
REMARK INTER + INTRA:         -10.664
REMARK INTER:                  -9.323
REMARK INTRA:                  -1.341
REMARK UNBOUND:                -1.291
REMARK SMILES O=c1c(O[C@@H]2O[C@H](CO)[C@@H](O)[C@@H](O)[C@H]2O)c(-c2ccc(O)c(O)c2)oc2cc(O)cc(O)c12
REMARK SMILES IDX 4 1 3 2 16 3 25 4 2 5 26 6 1 7 33 8 27 9 31 10 28 11 30 12
REMARK SMILES IDX 17 13 18 14 19 15 20 16 24 17 22 18 21 19 23 21 32 23 29 25
REMARK SMILES IDX 5 27 14 28 6 29 12 30 7 31 10 32 15 33 13 35 8 37 9 38 11 40
REMARK H PARENT 21 20 23 22 32 24 29 26 15 34 13 36 9 39 11 41
REMARK Flexibility Score: inf
ROOT
ATOM      1  O   UNL     1      14.386 -36.494  -0.814  1.00  0.00    -0.454 OA
ENDROOT
BRANCH   1   2
ATOM      2  C   UNL     1      13.748 -37.047  -1.945  1.00  0.00     0.214 A 
ATOM      3  C   UNL     1      14.532 -37.721  -2.899  1.00  0.00     0.180 A 
ATOM      4  O   UNL     1      13.987 -38.199  -4.011  1.00  0.00    -0.452 OA
ATOM      5  C   UNL     1      12.357 -36.954  -2.180  1.00  0.00     0.239 A 
ATOM      6  C   UNL     1      12.693 -38.100  -4.284  1.00  0.00     0.146 A 
ATOM      7  O   UNL     1      11.604 -36.426  -1.318  1.00  0.00    -0.285 OA
ATOM      8  C   UNL     1      11.812 -37.475  -3.373  1.00  0.00     0.111 A 
ATOM      9  C   UNL     1      12.210 -38.631  -5.484  1.00  0.00     0.094 A 
ATOM     10  C   UNL     1      10.433 -37.399  -3.693  1.00  0.00     0.134 A 
ATOM     11  C   UNL     1      10.850 -38.549  -5.794  1.00  0.00     0.123 A 
ATOM     12  C   UNL     1       9.968 -37.937  -4.902  1.00  0.00     0.093 A 
BRANCH   3  13
ATOM     13  C   UNL     1      15.976 -37.904  -2.704  1.00  0.00     0.025 A 
ATOM     14  C   UNL     1      16.880 -37.379  -3.635  1.00  0.00     0.016 A 
ATOM     15  C   UNL     1      18.254 -37.572  -3.465  1.00  0.00     0.051 A 
ATOM     16  C   UNL     1      18.733 -38.304  -2.369  1.00  0.00     0.157 A 
ATOM     17  C   UNL     1      16.451 -38.649  -1.616  1.00  0.00     0.062 A 
ATOM     18  C   UNL     1      17.826 -38.847  -1.442  1.00  0.00     0.158 A 
BRANCH  16  19
ATOM     19  O   UNL     1      20.104 -38.494  -2.200  1.00  0.00    -0.504 OA
ATOM     20  H   UNL     1      20.469 -39.150  -1.520  1.00  0.00     0.293 HD
ENDBRANCH  16  19
BRANCH  18  21
ATOM     21  O   UNL     1      18.272 -39.582  -0.344  1.00  0.00    -0.504 OA
ATOM     22  H   UNL     1      19.148 -40.087  -0.355  1.00  0.00     0.293 HD
ENDBRANCH  18  21
ENDBRANCH   3  13
BRANCH  10  23
ATOM     23  O   UNL     1       9.526 -36.791  -2.823  1.00  0.00    -0.507 OA
ATOM     24  H   UNL     1       9.305 -35.805  -2.888  1.00  0.00     0.293 HD
ENDBRANCH  10  23
BRANCH  11  25
ATOM     25  O   UNL     1      10.363 -39.074  -6.990  1.00  0.00    -0.508 OA
ATOM     26  H   UNL     1       9.641 -39.784  -7.001  1.00  0.00     0.293 HD
ENDBRANCH  11  25
ENDBRANCH   1   2
BRANCH   1  27
ATOM     27  C   UNL     1      14.836 -35.139  -0.693  1.00  0.00     0.339 C 
ATOM     28  C   UNL     1      13.776 -34.242  -0.008  1.00  0.00     0.214 C 
ATOM     29  O   UNL     1      16.102 -35.085  -0.055  1.00  0.00    -0.332 OA
ATOM     30  C   UNL     1      13.686 -34.521   1.498  1.00  0.00     0.180 C 
ATOM     31  C   UNL     1      16.087 -35.389   1.335  1.00  0.00     0.179 C 
ATOM     32  C   UNL     1      15.081 -34.540   2.152  1.00  0.00     0.177 C 
BRANCH  28  33
ATOM     33  O   UNL     1      14.016 -32.877  -0.264  1.00  0.00    -0.384 OA
ATOM     34  H   UNL     1      14.859 -32.618   0.190  1.00  0.00     0.211 HD
ENDBRANCH  28  33
BRANCH  30  35
ATOM     35  O   UNL     1      12.863 -33.558   2.108  1.00  0.00    -0.387 OA
ATOM     36  H   UNL     1      13.088 -32.684   1.693  1.00  0.00     0.211 HD
ENDBRANCH  30  35
BRANCH  31  37
ATOM     37  C   UNL     1      16.052 -36.910   1.618  1.00  0.00     0.191 C 
BRANCH  37  38
ATOM     38  O   UNL     1      17.334 -37.475   1.653  1.00  0.00    -0.394 OA
ATOM     39  H   UNL     1      17.474 -37.939   0.788  1.00  0.00     0.210 HD
ENDBRANCH  37  38
ENDBRANCH  31  37
BRANCH  32  40
ATOM     40  O   UNL     1      15.582 -33.230   2.270  1.00  0.00    -0.387 OA
ATOM     41  H   UNL     1      16.280 -33.246   2.975  1.00  0.00     0.211 HD
ENDBRANCH  32  40
ENDBRANCH   1  27
TORSDOF 12
ENDMDL
MODEL 5
REMARK VINA RESULT:    -6.326      3.513      5.291
REMARK INTER + INTRA:         -10.575
REMARK INTER:                  -9.107
REMARK INTRA:                  -1.468
REMARK UNBOUND:                -1.291
REMARK SMILES O=c1c(O[C@@H]2O[C@H](CO)[C@@H](O)[C@@H](O)[C@H]2O)c(-c2ccc(O)c(O)c2)oc2cc(O)cc(O)c12
REMARK SMILES IDX 4 1 3 2 16 3 25 4 2 5 26 6 1 7 33 8 27 9 31 10 28 11 30 12
REMARK SMILES IDX 17 13 18 14 19 15 20 16 24 17 22 18 21 19 23 21 32 23 29 25
REMARK SMILES IDX 5 27 14 28 6 29 12 30 7 31 10 32 15 33 13 35 8 37 9 38 11 40
REMARK H PARENT 21 20 23 22 32 24 29 26 15 34 13 36 9 39 11 41
REMARK Flexibility Score: inf
ROOT
ATOM      1  O   UNL     1      14.084 -37.810  -0.522  1.00  0.00    -0.454 OA
ENDROOT
BRANCH   1   2
ATOM      2  C   UNL     1      13.703 -38.565  -1.652  1.00  0.00     0.214 A 
ATOM      3  C   UNL     1      14.281 -38.256  -2.895  1.00  0.00     0.180 A 
ATOM      4  O   UNL     1      13.904 -38.893  -3.997  1.00  0.00    -0.452 OA
ATOM      5  C   UNL     1      12.758 -39.616  -1.605  1.00  0.00     0.239 A 
ATOM      6  C   UNL     1      12.997 -39.860  -4.001  1.00  0.00     0.146 A 
ATOM      7  O   UNL     1      12.269 -39.979  -0.502  1.00  0.00    -0.285 OA
ATOM      8  C   UNL     1      12.382 -40.273  -2.796  1.00  0.00     0.111 A 
ATOM      9  C   UNL     1      12.660 -40.472  -5.211  1.00  0.00     0.094 A 
ATOM     10  C   UNL     1      11.425 -41.318  -2.836  1.00  0.00     0.134 A 
ATOM     11  C   UNL     1      11.714 -41.499  -5.244  1.00  0.00     0.123 A 
ATOM     12  C   UNL     1      11.102 -41.919  -4.061  1.00  0.00     0.093 A 
BRANCH   3  13
ATOM     13  C   UNL     1      15.306 -37.211  -3.018  1.00  0.00     0.025 A 
ATOM     14  C   UNL     1      14.952 -35.864  -2.879  1.00  0.00     0.016 A 
ATOM     15  C   UNL     1      15.921 -34.866  -3.019  1.00  0.00     0.051 A 
ATOM     16  C   UNL     1      17.249 -35.208  -3.315  1.00  0.00     0.157 A 
ATOM     17  C   UNL     1      16.628 -37.555  -3.330  1.00  0.00     0.062 A 
ATOM     18  C   UNL     1      17.602 -36.559  -3.474  1.00  0.00     0.158 A 
BRANCH  16  19
ATOM     19  O   UNL     1      18.213 -34.212  -3.454  1.00  0.00    -0.504 OA
ATOM     20  H   UNL     1      18.430 -33.572  -2.699  1.00  0.00     0.293 HD
ENDBRANCH  16  19
BRANCH  18  21
ATOM     21  O   UNL     1      18.913 -36.931  -3.771  1.00  0.00    -0.504 OA
ATOM     22  H   UNL     1      19.162 -37.884  -4.002  1.00  0.00     0.293 HD
ENDBRANCH  18  21
ENDBRANCH   3  13
BRANCH  10  23
ATOM     23  O   UNL     1      10.794 -41.759  -1.672  1.00  0.00    -0.507 OA
ATOM     24  H   UNL     1      10.827 -42.730  -1.383  1.00  0.00     0.293 HD
ENDBRANCH  10  23
BRANCH  11  25
ATOM     25  O   UNL     1      11.373 -42.111  -6.449  1.00  0.00    -0.508 OA
ATOM     26  H   UNL     1      11.942 -42.848  -6.848  1.00  0.00     0.293 HD
ENDBRANCH  11  25
ENDBRANCH   1   2
BRANCH   1  27
ATOM     27  C   UNL     1      15.020 -38.228   0.480  1.00  0.00     0.339 C 
ATOM     28  C   UNL     1      16.434 -37.655   0.218  1.00  0.00     0.214 C 
ATOM     29  O   UNL     1      14.533 -37.928   1.779  1.00  0.00    -0.332 OA
ATOM     30  C   UNL     1      16.506 -36.156   0.539  1.00  0.00     0.180 C 
ATOM     31  C   UNL     1      14.526 -36.545   2.112  1.00  0.00     0.179 C 
ATOM     32  C   UNL     1      15.895 -35.845   1.920  1.00  0.00     0.177 C 
BRANCH  28  33
ATOM     33  O   UNL     1      17.419 -38.378   0.919  1.00  0.00    -0.384 OA
ATOM     34  H   UNL     1      17.704 -39.143   0.356  1.00  0.00     0.211 HD
ENDBRANCH  28  33
BRANCH  30  35
ATOM     35  O   UNL     1      17.842 -35.724   0.477  1.00  0.00    -0.387 OA
ATOM     36  H   UNL     1      17.830 -34.738   0.595  1.00  0.00     0.211 HD
ENDBRANCH  30  35
BRANCH  31  37
ATOM     37  C   UNL     1      13.310 -35.790   1.524  1.00  0.00     0.191 C 
BRANCH  37  38
ATOM     38  O   UNL     1      12.162 -36.592   1.466  1.00  0.00    -0.394 OA
ATOM     39  H   UNL     1      11.399 -35.999   1.241  1.00  0.00     0.210 HD
ENDBRANCH  37  38
ENDBRANCH  31  37
BRANCH  32  40
ATOM     40  O   UNL     1      16.766 -36.263   2.943  1.00  0.00    -0.387 OA
ATOM     41  H   UNL     1      17.678 -35.963   2.692  1.00  0.00     0.211 HD
ENDBRANCH  32  40
ENDBRANCH   1  27
TORSDOF 12
ENDMDL
MODEL 6
REMARK VINA RESULT:    -6.246      2.145      3.768
REMARK INTER + INTRA:         -10.459
REMARK INTER:                  -9.210
REMARK INTRA:                  -1.248
REMARK UNBOUND:                -1.291
REMARK SMILES O=c1c(O[C@@H]2O[C@H](CO)[C@@H](O)[C@@H](O)[C@H]2O)c(-c2ccc(O)c(O)c2)oc2cc(O)cc(O)c12
REMARK SMILES IDX 4 1 3 2 16 3 25 4 2 5 26 6 1 7 33 8 27 9 31 10 28 11 30 12
REMARK SMILES IDX 17 13 18 14 19 15 20 16 24 17 22 18 21 19 23 21 32 23 29 25
REMARK SMILES IDX 5 27 14 28 6 29 12 30 7 31 10 32 15 33 13 35 8 37 9 38 11 40
REMARK H PARENT 21 20 23 22 32 24 29 26 15 34 13 36 9 39 11 41
REMARK Flexibility Score: inf
ROOT
ATOM      1  O   UNL     1      13.236 -35.443  -1.512  1.00  0.00    -0.454 OA
ENDROOT
BRANCH   1   2
ATOM      2  C   UNL     1      14.241 -36.331  -1.951  1.00  0.00     0.214 A 
ATOM      3  C   UNL     1      14.029 -37.714  -1.806  1.00  0.00     0.180 A 
ATOM      4  O   UNL     1      14.973 -38.585  -2.143  1.00  0.00    -0.452 OA
ATOM      5  C   UNL     1      15.461 -35.906  -2.525  1.00  0.00     0.239 A 
ATOM      6  C   UNL     1      16.144 -38.224  -2.651  1.00  0.00     0.146 A 
ATOM      7  O   UNL     1      15.664 -34.682  -2.745  1.00  0.00    -0.285 OA
ATOM      8  C   UNL     1      16.441 -36.860  -2.873  1.00  0.00     0.111 A 
ATOM      9  C   UNL     1      17.078 -39.213  -2.972  1.00  0.00     0.094 A 
ATOM     10  C   UNL     1      17.698 -36.512  -3.429  1.00  0.00     0.134 A 
ATOM     11  C   UNL     1      18.316 -38.862  -3.518  1.00  0.00     0.123 A 
ATOM     12  C   UNL     1      18.622 -37.519  -3.745  1.00  0.00     0.093 A 
BRANCH   3  13
ATOM     13  C   UNL     1      12.769 -38.237  -1.265  1.00  0.00     0.025 A 
ATOM     14  C   UNL     1      11.602 -38.191  -2.037  1.00  0.00     0.016 A 
ATOM     15  C   UNL     1      10.396 -38.666  -1.515  1.00  0.00     0.051 A 
ATOM     16  C   UNL     1      10.344 -39.178  -0.210  1.00  0.00     0.157 A 
ATOM     17  C   UNL     1      12.717 -38.734   0.045  1.00  0.00     0.062 A 
ATOM     18  C   UNL     1      11.511 -39.209   0.573  1.00  0.00     0.158 A 
BRANCH  16  19
ATOM     19  O   UNL     1       9.141 -39.653   0.309  1.00  0.00    -0.504 OA
ATOM     20  H   UNL     1       8.273 -39.144   0.187  1.00  0.00     0.293 HD
ENDBRANCH  16  19
BRANCH  18  21
ATOM     21  O   UNL     1      11.492 -39.709   1.875  1.00  0.00    -0.504 OA
ATOM     22  H   UNL     1      12.017 -40.532   2.142  1.00  0.00     0.293 HD
ENDBRANCH  18  21
ENDBRANCH   3  13
BRANCH  10  23
ATOM     23  O   UNL     1      18.035 -35.179  -3.667  1.00  0.00    -0.507 OA
ATOM     24  H   UNL     1      18.623 -34.656  -3.029  1.00  0.00     0.293 HD
ENDBRANCH  10  23
BRANCH  11  25
ATOM     25  O   UNL     1      19.253 -39.844  -3.838  1.00  0.00    -0.508 OA
ATOM     26  H   UNL     1      19.743 -40.362  -3.119  1.00  0.00     0.293 HD
ENDBRANCH  11  25
ENDBRANCH   1   2
BRANCH   1  27
ATOM     27  C   UNL     1      12.874 -35.208  -0.145  1.00  0.00     0.339 C 
ATOM     28  C   UNL     1      14.107 -35.249   0.790  1.00  0.00     0.214 C 
ATOM     29  O   UNL     1      12.126 -34.008  -0.023  1.00  0.00    -0.332 OA
ATOM     30  C   UNL     1      14.979 -33.998   0.632  1.00  0.00     0.180 C 
ATOM     31  C   UNL     1      12.875 -32.813  -0.213  1.00  0.00     0.179 C 
ATOM     32  C   UNL     1      14.133 -32.710   0.686  1.00  0.00     0.177 C 
BRANCH  28  33
ATOM     33  O   UNL     1      13.727 -35.445   2.132  1.00  0.00    -0.384 OA
ATOM     34  H   UNL     1      13.757 -34.569   2.596  1.00  0.00     0.211 HD
ENDBRANCH  28  33
BRANCH  30  35
ATOM     35  O   UNL     1      15.969 -33.984   1.630  1.00  0.00    -0.387 OA
ATOM     36  H   UNL     1      15.585 -33.502   2.409  1.00  0.00     0.211 HD
ENDBRANCH  30  35
BRANCH  31  37
ATOM     37  C   UNL     1      13.101 -32.475  -1.706  1.00  0.00     0.191 C 
BRANCH  37  38
ATOM     38  O   UNL     1      11.974 -32.756  -2.491  1.00  0.00    -0.394 OA
ATOM     39  H   UNL     1      11.846 -33.740  -2.481  1.00  0.00     0.210 HD
ENDBRANCH  37  38
ENDBRANCH  31  37
BRANCH  32  40
ATOM     40  O   UNL     1      13.727 -32.448   2.008  1.00  0.00    -0.387 OA
ATOM     41  H   UNL     1      13.177 -33.219   2.303  1.00  0.00     0.211 HD
ENDBRANCH  32  40
ENDBRANCH   1  27
TORSDOF 12
ENDMDL
MODEL 7
REMARK VINA RESULT:    -6.183      2.871      7.451
REMARK INTER + INTRA:         -10.366
REMARK INTER:                  -9.202
REMARK INTRA:                  -1.164
REMARK UNBOUND:                -1.291
REMARK SMILES O=c1c(O[C@@H]2O[C@H](CO)[C@@H](O)[C@@H](O)[C@H]2O)c(-c2ccc(O)c(O)c2)oc2cc(O)cc(O)c12
REMARK SMILES IDX 4 1 3 2 16 3 25 4 2 5 26 6 1 7 33 8 27 9 31 10 28 11 30 12
REMARK SMILES IDX 17 13 18 14 19 15 20 16 24 17 22 18 21 19 23 21 32 23 29 25
REMARK SMILES IDX 5 27 14 28 6 29 12 30 7 31 10 32 15 33 13 35 8 37 9 38 11 40
REMARK H PARENT 21 20 23 22 32 24 29 26 15 34 13 36 9 39 11 41
REMARK Flexibility Score: inf
ROOT
ATOM      1  O   UNL     1      12.971 -38.034  -1.966  1.00  0.00    -0.454 OA
ENDROOT
BRANCH   1   2
ATOM      2  C   UNL     1      13.267 -36.803  -1.342  1.00  0.00     0.214 A 
ATOM      3  C   UNL     1      14.602 -36.361  -1.323  1.00  0.00     0.180 A 
ATOM      4  O   UNL     1      14.939 -35.244  -0.690  1.00  0.00    -0.452 OA
ATOM      5  C   UNL     1      12.292 -35.988  -0.723  1.00  0.00     0.239 A 
ATOM      6  C   UNL     1      14.060 -34.471  -0.067  1.00  0.00     0.146 A 
ATOM      7  O   UNL     1      11.074 -36.304  -0.780  1.00  0.00    -0.285 OA
ATOM      8  C   UNL     1      12.686 -34.806  -0.061  1.00  0.00     0.111 A 
ATOM      9  C   UNL     1      14.508 -33.314   0.576  1.00  0.00     0.094 A 
ATOM     10  C   UNL     1      11.774 -33.949   0.604  1.00  0.00     0.134 A 
ATOM     11  C   UNL     1      13.603 -32.475   1.232  1.00  0.00     0.123 A 
ATOM     12  C   UNL     1      12.244 -32.793   1.244  1.00  0.00     0.093 A 
BRANCH   3  13
ATOM     13  C   UNL     1      15.666 -37.127  -1.986  1.00  0.00     0.025 A 
ATOM     14  C   UNL     1      15.821 -37.051  -3.375  1.00  0.00     0.016 A 
ATOM     15  C   UNL     1      16.817 -37.797  -4.011  1.00  0.00     0.051 A 
ATOM     16  C   UNL     1      17.656 -38.636  -3.264  1.00  0.00     0.157 A 
ATOM     17  C   UNL     1      16.493 -37.976  -1.239  1.00  0.00     0.062 A 
ATOM     18  C   UNL     1      17.490 -38.727  -1.871  1.00  0.00     0.158 A 
BRANCH  16  19
ATOM     19  O   UNL     1      18.649 -39.379  -3.900  1.00  0.00    -0.504 OA
ATOM     20  H   UNL     1      18.711 -40.384  -3.795  1.00  0.00     0.293 HD
ENDBRANCH  16  19
BRANCH  18  21
ATOM     21  O   UNL     1      18.307 -39.555  -1.101  1.00  0.00    -0.504 OA
ATOM     22  H   UNL     1      18.930 -39.187  -0.394  1.00  0.00     0.293 HD
ENDBRANCH  18  21
ENDBRANCH   3  13
BRANCH  10  23
ATOM     23  O   UNL     1      10.409 -34.238   0.636  1.00  0.00    -0.507 OA
ATOM     24  H   UNL     1       9.774 -33.747   1.255  1.00  0.00     0.293 HD
ENDBRANCH  10  23
BRANCH  11  25
ATOM     25  O   UNL     1      14.046 -31.322   1.878  1.00  0.00    -0.508 OA
ATOM     26  H   UNL     1      15.025 -31.063   1.887  1.00  0.00     0.293 HD
ENDBRANCH  11  25
ENDBRANCH   1   2
BRANCH   1  27
ATOM     27  C   UNL     1      11.879 -38.268  -2.865  1.00  0.00     0.339 C 
ATOM     28  C   UNL     1      12.254 -37.915  -4.325  1.00  0.00     0.214 C 
ATOM     29  O   UNL     1      11.389 -39.593  -2.725  1.00  0.00    -0.332 OA
ATOM     30  C   UNL     1      13.199 -38.957  -4.936  1.00  0.00     0.180 C 
ATOM     31  C   UNL     1      12.251 -40.608  -3.227  1.00  0.00     0.179 C 
ATOM     32  C   UNL     1      12.686 -40.391  -4.698  1.00  0.00     0.177 C 
BRANCH  28  33
ATOM     33  O   UNL     1      11.105 -37.734  -5.120  1.00  0.00    -0.384 OA
ATOM     34  H   UNL     1      10.793 -36.799  -5.010  1.00  0.00     0.211 HD
ENDBRANCH  28  33
BRANCH  30  35
ATOM     35  O   UNL     1      13.354 -38.705  -6.310  1.00  0.00    -0.387 OA
ATOM     36  H   UNL     1      12.458 -38.456  -6.659  1.00  0.00     0.211 HD
ENDBRANCH  30  35
BRANCH  31  37
ATOM     37  C   UNL     1      13.392 -40.968  -2.246  1.00  0.00     0.191 C 
BRANCH  37  38
ATOM     38  O   UNL     1      14.638 -40.497  -2.683  1.00  0.00    -0.394 OA
ATOM     39  H   UNL     1      14.917 -39.779  -2.058  1.00  0.00     0.210 HD
ENDBRANCH  37  38
ENDBRANCH  31  37
BRANCH  32  40
ATOM     40  O   UNL     1      11.593 -40.664  -5.541  1.00  0.00    -0.387 OA
ATOM     41  H   UNL     1      11.747 -41.559  -5.941  1.00  0.00     0.211 HD
ENDBRANCH  32  40
ENDBRANCH   1  27
TORSDOF 12
ENDMDL
MODEL 8
REMARK VINA RESULT:    -6.116      1.230      2.667
REMARK INTER + INTRA:         -10.267
REMARK INTER:                  -9.278
REMARK INTRA:                  -0.989
REMARK UNBOUND:                -1.291
REMARK SMILES O=c1c(O[C@@H]2O[C@H](CO)[C@@H](O)[C@@H](O)[C@H]2O)c(-c2ccc(O)c(O)c2)oc2cc(O)cc(O)c12
REMARK SMILES IDX 4 1 3 2 16 3 25 4 2 5 26 6 1 7 33 8 27 9 31 10 28 11 30 12
REMARK SMILES IDX 17 13 18 14 19 15 20 16 24 17 22 18 21 19 23 21 32 23 29 25
REMARK SMILES IDX 5 27 14 28 6 29 12 30 7 31 10 32 15 33 13 35 8 37 9 38 11 40
REMARK H PARENT 21 20 23 22 32 24 29 26 15 34 13 36 9 39 11 41
REMARK Flexibility Score: inf
ROOT
ATOM      1  O   UNL     1      14.007 -36.370   0.213  1.00  0.00    -0.454 OA
ENDROOT
BRANCH   1   2
ATOM      2  C   UNL     1      14.950 -36.718  -0.777  1.00  0.00     0.214 A 
ATOM      3  C   UNL     1      14.830 -36.144  -2.055  1.00  0.00     0.180 A 
ATOM      4  O   UNL     1      15.652 -36.493  -3.037  1.00  0.00    -0.452 OA
ATOM      5  C   UNL     1      16.012 -37.626  -0.558  1.00  0.00     0.239 A 
ATOM      6  C   UNL     1      16.638 -37.366  -2.881  1.00  0.00     0.146 A 
ATOM      7  O   UNL     1      16.206 -38.107   0.590  1.00  0.00    -0.285 OA
ATOM      8  C   UNL     1      16.868 -37.972  -1.625  1.00  0.00     0.111 A 
ATOM      9  C   UNL     1      17.451 -37.674  -3.975  1.00  0.00     0.094 A 
ATOM     10  C   UNL     1      17.939 -38.892  -1.492  1.00  0.00     0.134 A 
ATOM     11  C   UNL     1      18.503 -38.584  -3.838  1.00  0.00     0.123 A 
ATOM     12  C   UNL     1      18.744 -39.188  -2.602  1.00  0.00     0.093 A 
BRANCH   3  13
ATOM     13  C   UNL     1      13.784 -35.156  -2.349  1.00  0.00     0.025 A 
ATOM     14  C   UNL     1      13.918 -33.839  -1.895  1.00  0.00     0.016 A 
ATOM     15  C   UNL     1      12.912 -32.903  -2.152  1.00  0.00     0.051 A 
ATOM     16  C   UNL     1      11.758 -33.281  -2.853  1.00  0.00     0.157 A 
ATOM     17  C   UNL     1      12.625 -35.541  -3.036  1.00  0.00     0.062 A 
ATOM     18  C   UNL     1      11.614 -34.608  -3.295  1.00  0.00     0.158 A 
BRANCH  16  19
ATOM     19  O   UNL     1      10.757 -32.345  -3.110  1.00  0.00    -0.504 OA
ATOM     20  H   UNL     1      10.959 -31.355  -3.174  1.00  0.00     0.293 HD
ENDBRANCH  16  19
BRANCH  18  21
ATOM     21  O   UNL     1      10.477 -35.015  -3.992  1.00  0.00    -0.504 OA
ATOM     22  H   UNL     1       9.672 -34.412  -4.108  1.00  0.00     0.293 HD
ENDBRANCH  18  21
ENDBRANCH   3  13
BRANCH  10  23
ATOM     23  O   UNL     1      18.205 -39.513  -0.271  1.00  0.00    -0.507 OA
ATOM     24  H   UNL     1      18.115 -40.516  -0.153  1.00  0.00     0.293 HD
ENDBRANCH  10  23
BRANCH  11  25
ATOM     25  O   UNL     1      19.317 -38.897  -4.926  1.00  0.00    -0.508 OA
ATOM     26  H   UNL     1      20.219 -38.457  -5.055  1.00  0.00     0.293 HD
ENDBRANCH  11  25
ENDBRANCH   1   2
BRANCH   1  27
ATOM     27  C   UNL     1      12.594 -36.597   0.132  1.00  0.00     0.339 C 
ATOM     28  C   UNL     1      12.175 -37.878   0.894  1.00  0.00     0.214 C 
ATOM     29  O   UNL     1      11.876 -35.446   0.548  1.00  0.00    -0.332 OA
ATOM     30  C   UNL     1      12.223 -37.675   2.413  1.00  0.00     0.180 C 
ATOM     31  C   UNL     1      11.930 -35.177   1.944  1.00  0.00     0.179 C 
ATOM     32  C   UNL     1      11.508 -36.375   2.831  1.00  0.00     0.177 C 
BRANCH  28  33
ATOM     33  O   UNL     1      10.908 -38.332   0.477  1.00  0.00    -0.384 OA
ATOM     34  H   UNL     1      10.361 -37.544   0.226  1.00  0.00     0.211 HD
ENDBRANCH  28  33
BRANCH  30  35
ATOM     35  O   UNL     1      11.651 -38.786   3.056  1.00  0.00    -0.387 OA
ATOM     36  H   UNL     1      12.251 -39.559   2.881  1.00  0.00     0.211 HD
ENDBRANCH  30  35
BRANCH  31  37
ATOM     37  C   UNL     1      13.238 -34.467   2.370  1.00  0.00     0.191 C 
BRANCH  37  38
ATOM     38  O   UNL     1      13.690 -33.560   1.403  1.00  0.00    -0.394 OA
ATOM     39  H   UNL     1      13.926 -34.084   0.595  1.00  0.00     0.210 HD
ENDBRANCH  37  38
ENDBRANCH  31  37
BRANCH  32  40
ATOM     40  O   UNL     1      10.113 -36.536   2.743  1.00  0.00    -0.387 OA
ATOM     41  H   UNL     1       9.941 -37.492   2.540  1.00  0.00     0.211 HD
ENDBRANCH  32  40
ENDBRANCH   1  27
TORSDOF 12
ENDMDL
MODEL 9
REMARK VINA RESULT:    -6.071      2.618      4.930
REMARK INTER + INTRA:         -10.201
REMARK INTER:                  -8.446
REMARK INTRA:                  -1.756
REMARK UNBOUND:                -1.291
REMARK SMILES O=c1c(O[C@@H]2O[C@H](CO)[C@@H](O)[C@@H](O)[C@H]2O)c(-c2ccc(O)c(O)c2)oc2cc(O)cc(O)c12
REMARK SMILES IDX 4 1 3 2 16 3 25 4 2 5 26 6 1 7 33 8 27 9 31 10 28 11 30 12
REMARK SMILES IDX 17 13 18 14 19 15 20 16 24 17 22 18 21 19 23 21 32 23 29 25
REMARK SMILES IDX 5 27 14 28 6 29 12 30 7 31 10 32 15 33 13 35 8 37 9 38 11 40
REMARK H PARENT 21 20 23 22 32 24 29 26 15 34 13 36 9 39 11 41
REMARK Flexibility Score: inf
ROOT
ATOM      1  O   UNL     1      13.087 -35.734  -1.311  1.00  0.00    -0.454 OA
ENDROOT
BRANCH   1   2
ATOM      2  C   UNL     1      14.248 -36.332  -0.778  1.00  0.00     0.214 A 
ATOM      3  C   UNL     1      14.592 -37.629  -1.197  1.00  0.00     0.180 A 
ATOM      4  O   UNL     1      15.637 -38.258  -0.674  1.00  0.00    -0.452 OA
ATOM      5  C   UNL     1      15.088 -35.698   0.168  1.00  0.00     0.239 A 
ATOM      6  C   UNL     1      16.428 -37.712   0.240  1.00  0.00     0.146 A 
ATOM      7  O   UNL     1      14.863 -34.509   0.516  1.00  0.00    -0.285 OA
ATOM      8  C   UNL     1      16.192 -36.397   0.701  1.00  0.00     0.111 A 
ATOM      9  C   UNL     1      17.504 -38.453   0.737  1.00  0.00     0.094 A 
ATOM     10  C   UNL     1      17.065 -35.841   1.670  1.00  0.00     0.134 A 
ATOM     11  C   UNL     1      18.359 -37.900   1.694  1.00  0.00     0.123 A 
ATOM     12  C   UNL     1      18.140 -36.601   2.156  1.00  0.00     0.093 A 
BRANCH   3  13
ATOM     13  C   UNL     1      13.799 -38.335  -2.212  1.00  0.00     0.025 A 
ATOM     14  C   UNL     1      12.812 -39.247  -1.820  1.00  0.00     0.016 A 
ATOM     15  C   UNL     1      12.073 -39.938  -2.784  1.00  0.00     0.051 A 
ATOM     16  C   UNL     1      12.325 -39.732  -4.148  1.00  0.00     0.157 A 
ATOM     17  C   UNL     1      14.064 -38.139  -3.574  1.00  0.00     0.062 A 
ATOM     18  C   UNL     1      13.328 -38.830  -4.544  1.00  0.00     0.158 A 
BRANCH  16  19
ATOM     19  O   UNL     1      11.586 -40.422  -5.108  1.00  0.00    -0.504 OA
ATOM     20  H   UNL     1      10.575 -40.365  -5.142  1.00  0.00     0.293 HD
ENDBRANCH  16  19
BRANCH  18  21
ATOM     21  O   UNL     1      13.604 -38.606  -5.892  1.00  0.00    -0.504 OA
ATOM     22  H   UNL     1      13.906 -37.703  -6.236  1.00  0.00     0.293 HD
ENDBRANCH  18  21
ENDBRANCH   3  13
BRANCH  10  23
ATOM     23  O   UNL     1      16.872 -34.546   2.154  1.00  0.00    -0.507 OA
ATOM     24  H   UNL     1      16.519 -33.803   1.562  1.00  0.00     0.293 HD
ENDBRANCH  10  23
BRANCH  11  25
ATOM     25  O   UNL     1      19.433 -38.635   2.195  1.00  0.00    -0.508 OA
ATOM     26  H   UNL     1      19.414 -39.030   3.127  1.00  0.00     0.293 HD
ENDBRANCH  11  25
ENDBRANCH   1   2
BRANCH   1  27
ATOM     27  C   UNL     1      13.064 -34.705  -2.309  1.00  0.00     0.339 C 
ATOM     28  C   UNL     1      12.091 -35.048  -3.463  1.00  0.00     0.214 C 
ATOM     29  O   UNL     1      12.801 -33.440  -1.721  1.00  0.00    -0.332 OA
ATOM     30  C   UNL     1      10.626 -34.894  -3.034  1.00  0.00     0.180 C 
ATOM     31  C   UNL     1      11.470 -33.261  -1.254  1.00  0.00     0.179 C 
ATOM     32  C   UNL     1      10.385 -33.547  -2.324  1.00  0.00     0.177 C 
BRANCH  28  33
ATOM     33  O   UNL     1      12.371 -34.286  -4.614  1.00  0.00    -0.384 OA
ATOM     34  H   UNL     1      11.554 -34.258  -5.176  1.00  0.00     0.211 HD
ENDBRANCH  28  33
BRANCH  30  35
ATOM     35  O   UNL     1       9.789 -35.021  -4.156  1.00  0.00    -0.387 OA
ATOM     36  H   UNL     1       9.926 -35.938  -4.513  1.00  0.00     0.211 HD
ENDBRANCH  30  35
BRANCH  31  37
ATOM     37  C   UNL     1      11.223 -33.911   0.128  1.00  0.00     0.191 C 
BRANCH  37  38
ATOM     38  O   UNL     1      12.279 -33.682   1.020  1.00  0.00    -0.394 OA
ATOM     39  H   UNL     1      11.937 -33.085   1.735  1.00  0.00     0.210 HD
ENDBRANCH  37  38
ENDBRANCH  31  37
BRANCH  32  40
ATOM     40  O   UNL     1      10.381 -32.497  -3.260  1.00  0.00    -0.387 OA
ATOM     41  H   UNL     1      10.349 -31.648  -2.747  1.00  0.00     0.211 HD
ENDBRANCH  32  40
ENDBRANCH   1  27
TORSDOF 12
ENDMDL
