MODEL 1
REMARK VINA RESULT:    -4.725      0.000      0.000
REMARK INTER + INTRA:          -5.821
REMARK INTER:                  -5.553
REMARK INTRA:                  -0.268
REMARK UNBOUND:                -0.268
REMARK SMILES O=c1cc(-c2ccc(O)c(O)c2)oc2cc(O)cc(O)c12
REMARK SMILES IDX 4 1 3 2 2 3 1 4 21 5 19 6 18 7 16 8 15 9 14 10 13 11 5 12
REMARK SMILES IDX 6 13 7 14 8 15 12 16 10 17 9 18 11 20 20 22 17 24
REMARK H PARENT 9 19 11 21 20 23 17 25
REMARK Flexibility Score: inf
ROOT
ATOM      1  C   UNL     1     -26.187  51.280  42.088  1.00  0.00     0.138 A 
ATOM      2  C   UNL     1     -25.288  52.007  41.295  1.00  0.00     0.100 A 
ATOM      3  C   UNL     1     -24.895  53.286  41.692  1.00  0.00     0.197 A 
ATOM      4  O   UNL     1     -24.132  53.934  40.931  1.00  0.00    -0.289 OA
ATOM      5  C   UNL     1     -25.380  53.826  42.908  1.00  0.00     0.107 A 
ATOM      6  C   UNL     1     -25.021  55.105  43.430  1.00  0.00     0.134 A 
ATOM      7  C   UNL     1     -25.641  55.573  44.595  1.00  0.00     0.093 A 
ATOM      8  C   UNL     1     -26.561  54.786  45.288  1.00  0.00     0.123 A 
ATOM      9  C   UNL     1     -26.881  53.514  44.815  1.00  0.00     0.094 A 
ATOM     10  C   UNL     1     -26.306  53.033  43.636  1.00  0.00     0.146 A 
ATOM     11  O   UNL     1     -26.651  51.822  43.210  1.00  0.00    -0.456 OA
ENDROOT
BRANCH   1  12
ATOM     12  C   UNL     1     -26.637  49.915  41.717  1.00  0.00     0.021 A 
ATOM     13  C   UNL     1     -26.467  48.818  42.584  1.00  0.00     0.016 A 
ATOM     14  C   UNL     1     -26.891  47.543  42.204  1.00  0.00     0.051 A 
ATOM     15  C   UNL     1     -27.484  47.337  40.951  1.00  0.00     0.157 A 
ATOM     16  C   UNL     1     -27.221  49.697  40.457  1.00  0.00     0.062 A 
ATOM     17  C   UNL     1     -27.647  48.421  40.074  1.00  0.00     0.158 A 
BRANCH  15  18
ATOM     18  O   UNL     1     -27.906  46.063  40.577  1.00  0.00    -0.504 OA
ATOM     19  H   UNL     1     -27.263  45.382  40.191  1.00  0.00     0.293 HD
ENDBRANCH  15  18
BRANCH  17  20
ATOM     20  O   UNL     1     -28.228  48.249  38.818  1.00  0.00    -0.504 OA
ATOM     21  H   UNL     1     -29.073  48.737  38.545  1.00  0.00     0.293 HD
ENDBRANCH  17  20
ENDBRANCH   1  12
BRANCH   6  22
ATOM     22  O   UNL     1     -24.055  55.941  42.862  1.00  0.00    -0.507 OA
ATOM     23  H   UNL     1     -24.206  56.901  42.590  1.00  0.00     0.293 HD
ENDBRANCH   6  22
BRANCH   8  24
ATOM     24  O   UNL     1     -27.147  55.278  46.453  1.00  0.00    -0.508 OA
ATOM     25  H   UNL     1     -27.808  54.728  46.987  1.00  0.00     0.293 HD
ENDBRANCH   8  24
TORSDOF 5
ENDMDL
MODEL 2
REMARK VINA RESULT:    -4.640      0.672      1.529
REMARK INTER + INTRA:          -5.722
REMARK INTER:                  -5.438
REMARK INTRA:                  -0.284
REMARK UNBOUND:                -0.268
REMARK SMILES O=c1cc(-c2ccc(O)c(O)c2)oc2cc(O)cc(O)c12
REMARK SMILES IDX 4 1 3 2 2 3 1 4 21 5 19 6 18 7 16 8 15 9 14 10 13 11 5 12
REMARK SMILES IDX 6 13 7 14 8 15 12 16 10 17 9 18 11 20 20 22 17 24
REMARK H PARENT 9 19 11 21 20 23 17 25
REMARK Flexibility Score: inf
ROOT
ATOM      1  C   UNL     1     -26.164  51.296  42.104  1.00  0.00     0.138 A 
ATOM      2  C   UNL     1     -25.292  52.045  41.302  1.00  0.00     0.100 A 
ATOM      3  C   UNL     1     -24.925  53.333  41.695  1.00  0.00     0.197 A 
ATOM      4  O   UNL     1     -24.186  53.999  40.927  1.00  0.00    -0.289 OA
ATOM      5  C   UNL     1     -25.408  53.859  42.918  1.00  0.00     0.107 A 
ATOM      6  C   UNL     1     -25.074  55.146  43.438  1.00  0.00     0.134 A 
ATOM      7  C   UNL     1     -25.691  55.598  44.611  1.00  0.00     0.093 A 
ATOM      8  C   UNL     1     -26.584  54.789  45.314  1.00  0.00     0.123 A 
ATOM      9  C   UNL     1     -26.878  53.509  44.842  1.00  0.00     0.094 A 
ATOM     10  C   UNL     1     -26.306  53.043  43.656  1.00  0.00     0.146 A 
ATOM     11  O   UNL     1     -26.628  51.826  43.232  1.00  0.00    -0.456 OA
ENDROOT
BRANCH   1  12
ATOM     12  C   UNL     1     -26.585  49.921  41.737  1.00  0.00     0.021 A 
ATOM     13  C   UNL     1     -27.188  49.638  40.495  1.00  0.00     0.016 A 
ATOM     14  C   UNL     1     -27.582  48.336  40.181  1.00  0.00     0.051 A 
ATOM     15  C   UNL     1     -27.390  47.295  41.099  1.00  0.00     0.157 A 
ATOM     16  C   UNL     1     -26.408  48.874  42.658  1.00  0.00     0.062 A 
ATOM     17  C   UNL     1     -26.801  47.568  42.345  1.00  0.00     0.158 A 
BRANCH  15  18
ATOM     18  O   UNL     1     -27.784  45.997  40.780  1.00  0.00    -0.504 OA
ATOM     19  H   UNL     1     -28.567  45.551  41.242  1.00  0.00     0.293 HD
ENDBRANCH  15  18
BRANCH  17  20
ATOM     20  O   UNL     1     -26.600  46.556  43.283  1.00  0.00    -0.504 OA
ATOM     21  H   UNL     1     -25.674  46.233  43.536  1.00  0.00     0.293 HD
ENDBRANCH  17  20
ENDBRANCH   1  12
BRANCH   6  22
ATOM     22  O   UNL     1     -24.135  56.006  42.860  1.00  0.00    -0.507 OA
ATOM     23  H   UNL     1     -23.186  55.756  42.627  1.00  0.00     0.293 HD
ENDBRANCH   6  22
BRANCH   8  24
ATOM     24  O   UNL     1     -27.167  55.265  46.486  1.00  0.00    -0.508 OA
ATOM     25  H   UNL     1     -27.926  55.935  46.466  1.00  0.00     0.293 HD
ENDBRANCH   8  24
TORSDOF 5
ENDMDL
MODEL 3
REMARK VINA RESULT:    -4.501      1.605      7.339
REMARK INTER + INTRA:          -5.558
REMARK INTER:                  -5.290
REMARK INTRA:                  -0.269
REMARK UNBOUND:                -0.268
REMARK SMILES O=c1cc(-c2ccc(O)c(O)c2)oc2cc(O)cc(O)c12
REMARK SMILES IDX 4 1 3 2 2 3 1 4 21 5 19 6 18 7 16 8 15 9 14 10 13 11 5 12
REMARK SMILES IDX 6 13 7 14 8 15 12 16 10 17 9 18 11 20 20 22 17 24
REMARK H PARENT 9 19 11 21 20 23 17 25
REMARK Flexibility Score: inf
ROOT
ATOM      1  C   UNL     1     -25.900  51.920  43.809  1.00  0.00     0.138 A 
ATOM      2  C   UNL     1     -25.694  50.841  44.679  1.00  0.00     0.100 A 
ATOM      3  C   UNL     1     -25.798  49.535  44.197  1.00  0.00     0.197 A 
ATOM      4  O   UNL     1     -25.663  48.589  45.014  1.00  0.00    -0.289 OA
ATOM      5  C   UNL     1     -26.077  49.312  42.827  1.00  0.00     0.107 A 
ATOM      6  C   UNL     1     -26.173  48.025  42.215  1.00  0.00     0.134 A 
ATOM      7  C   UNL     1     -26.552  47.927  40.871  1.00  0.00     0.093 A 
ATOM      8  C   UNL     1     -26.779  49.067  40.100  1.00  0.00     0.123 A 
ATOM      9  C   UNL     1     -26.639  50.331  40.674  1.00  0.00     0.094 A 
ATOM     10  C   UNL     1     -26.297  50.461  42.022  1.00  0.00     0.146 A 
ATOM     11  O   UNL     1     -26.191  51.683  42.535  1.00  0.00    -0.456 OA
ENDROOT
BRANCH   1  12
ATOM     12  C   UNL     1     -25.798  53.329  44.267  1.00  0.00     0.021 A 
ATOM     13  C   UNL     1     -24.930  54.248  43.646  1.00  0.00     0.016 A 
ATOM     14  C   UNL     1     -24.848  55.565  44.105  1.00  0.00     0.051 A 
ATOM     15  C   UNL     1     -25.622  55.986  45.194  1.00  0.00     0.157 A 
ATOM     16  C   UNL     1     -26.561  53.756  45.368  1.00  0.00     0.062 A 
ATOM     17  C   UNL     1     -26.481  55.074  45.829  1.00  0.00     0.158 A 
BRANCH  15  18
ATOM     18  O   UNL     1     -25.537  57.301  45.648  1.00  0.00    -0.504 OA
ATOM     19  H   UNL     1     -26.275  57.722  46.199  1.00  0.00     0.293 HD
ENDBRANCH  15  18
BRANCH  17  20
ATOM     20  O   UNL     1     -27.262  55.460  46.919  1.00  0.00    -0.504 OA
ATOM     21  H   UNL     1     -28.255  55.639  46.832  1.00  0.00     0.293 HD
ENDBRANCH  17  20
ENDBRANCH   1  12
BRANCH   6  22
ATOM     22  O   UNL     1     -25.890  46.822  42.870  1.00  0.00    -0.507 OA
ATOM     23  H   UNL     1     -24.978  46.398  42.935  1.00  0.00     0.293 HD
ENDBRANCH   6  22
BRANCH   8  24
ATOM     24  O   UNL     1     -27.139  48.931  38.761  1.00  0.00    -0.508 OA
ATOM     25  H   UNL     1     -26.446  48.773  38.040  1.00  0.00     0.293 HD
ENDBRANCH   8  24
TORSDOF 5
ENDMDL
MODEL 4
REMARK VINA RESULT:    -4.260      1.975      2.254
REMARK INTER + INTRA:          -5.275
REMARK INTER:                  -4.996
REMARK INTRA:                  -0.279
REMARK UNBOUND:                -0.268
REMARK SMILES O=c1cc(-c2ccc(O)c(O)c2)oc2cc(O)cc(O)c12
REMARK SMILES IDX 4 1 3 2 2 3 1 4 21 5 19 6 18 7 16 8 15 9 14 10 13 11 5 12
REMARK SMILES IDX 6 13 7 14 8 15 12 16 10 17 9 18 11 20 20 22 17 24
REMARK H PARENT 9 19 11 21 20 23 17 25
REMARK Flexibility Score: inf
ROOT
ATOM      1  C   UNL     1     -25.997  50.112  42.962  1.00  0.00     0.138 A 
ATOM      2  C   UNL     1     -24.687  49.902  43.415  1.00  0.00     0.100 A 
ATOM      3  C   UNL     1     -24.107  50.813  44.299  1.00  0.00     0.197 A 
ATOM      4  O   UNL     1     -22.912  50.627  44.643  1.00  0.00    -0.289 OA
ATOM      5  C   UNL     1     -24.858  51.922  44.759  1.00  0.00     0.107 A 
ATOM      6  C   UNL     1     -24.384  52.897  45.688  1.00  0.00     0.134 A 
ATOM      7  C   UNL     1     -25.183  54.005  45.994  1.00  0.00     0.093 A 
ATOM      8  C   UNL     1     -26.461  54.144  45.452  1.00  0.00     0.123 A 
ATOM      9  C   UNL     1     -26.955  53.171  44.583  1.00  0.00     0.094 A 
ATOM     10  C   UNL     1     -26.168  52.072  44.231  1.00  0.00     0.146 A 
ATOM     11  O   UNL     1     -26.669  51.178  43.385  1.00  0.00    -0.456 OA
ENDROOT
BRANCH   1  12
ATOM     12  C   UNL     1     -26.664  49.174  42.025  1.00  0.00     0.021 A 
ATOM     13  C   UNL     1     -26.850  47.815  42.344  1.00  0.00     0.016 A 
ATOM     14  C   UNL     1     -27.473  46.954  41.438  1.00  0.00     0.051 A 
ATOM     15  C   UNL     1     -27.913  47.429  40.196  1.00  0.00     0.157 A 
ATOM     16  C   UNL     1     -27.098  49.641  40.771  1.00  0.00     0.062 A 
ATOM     17  C   UNL     1     -27.722  48.780  39.862  1.00  0.00     0.158 A 
BRANCH  15  18
ATOM     18  O   UNL     1     -28.535  46.566  39.295  1.00  0.00    -0.504 OA
ATOM     19  H   UNL     1     -28.956  45.696  39.598  1.00  0.00     0.293 HD
ENDBRANCH  15  18
BRANCH  17  20
ATOM     20  O   UNL     1     -28.145  49.284  38.632  1.00  0.00    -0.504 OA
ATOM     21  H   UNL     1     -28.933  48.890  38.131  1.00  0.00     0.293 HD
ENDBRANCH  17  20
ENDBRANCH   1  12
BRANCH   6  22
ATOM     22  O   UNL     1     -23.155  52.817  46.350  1.00  0.00    -0.507 OA
ATOM     23  H   UNL     1     -22.985  53.117  47.298  1.00  0.00     0.293 HD
ENDBRANCH   6  22
BRANCH   8  24
ATOM     24  O   UNL     1     -27.235  55.252  45.791  1.00  0.00    -0.508 OA
ATOM     25  H   UNL     1     -27.378  55.523  46.756  1.00  0.00     0.293 HD
ENDBRANCH   8  24
TORSDOF 5
ENDMDL
MODEL 5
REMARK VINA RESULT:    -4.245      8.022      9.031
REMARK INTER + INTRA:          -5.257
REMARK INTER:                  -4.980
REMARK INTRA:                  -0.277
REMARK UNBOUND:                -0.268
REMARK SMILES O=c1cc(-c2ccc(O)c(O)c2)oc2cc(O)cc(O)c12
REMARK SMILES IDX 4 1 3 2 2 3 1 4 21 5 19 6 18 7 16 8 15 9 14 10 13 11 5 12
REMARK SMILES IDX 6 13 7 14 8 15 12 16 10 17 9 18 11 20 20 22 17 24
REMARK H PARENT 9 19 11 21 20 23 17 25
REMARK Flexibility Score: inf
ROOT
ATOM      1  C   UNL     1     -27.514  54.784  33.890  1.00  0.00     0.138 A 
ATOM      2  C   UNL     1     -27.754  55.708  32.864  1.00  0.00     0.100 A 
ATOM      3  C   UNL     1     -27.775  57.073  33.154  1.00  0.00     0.197 A 
ATOM      4  O   UNL     1     -28.048  57.873  32.223  1.00  0.00    -0.289 OA
ATOM      5  C   UNL     1     -27.519  57.515  34.475  1.00  0.00     0.107 A 
ATOM      6  C   UNL     1     -27.480  58.883  34.882  1.00  0.00     0.134 A 
ATOM      7  C   UNL     1     -27.314  59.196  36.236  1.00  0.00     0.093 A 
ATOM      8  C   UNL     1     -27.128  58.195  37.190  1.00  0.00     0.123 A 
ATOM      9  C   UNL     1     -27.113  56.857  36.796  1.00  0.00     0.094 A 
ATOM     10  C   UNL     1     -27.311  56.511  35.457  1.00  0.00     0.146 A 
ATOM     11  O   UNL     1     -27.308  55.224  35.127  1.00  0.00    -0.456 OA
ENDROOT
BRANCH   1  12
ATOM     12  C   UNL     1     -27.478  53.322  33.638  1.00  0.00     0.021 A 
ATOM     13  C   UNL     1     -26.481  52.498  34.197  1.00  0.00     0.016 A 
ATOM     14  C   UNL     1     -26.467  51.127  33.935  1.00  0.00     0.051 A 
ATOM     15  C   UNL     1     -27.438  50.553  33.104  1.00  0.00     0.157 A 
ATOM     16  C   UNL     1     -28.442  52.740  32.795  1.00  0.00     0.062 A 
ATOM     17  C   UNL     1     -28.429  51.366  32.531  1.00  0.00     0.158 A 
BRANCH  15  18
ATOM     18  O   UNL     1     -27.420  49.184  32.846  1.00  0.00    -0.504 OA
ATOM     19  H   UNL     1     -27.968  48.777  32.097  1.00  0.00     0.293 HD
ENDBRANCH  15  18
BRANCH  17  20
ATOM     20  O   UNL     1     -29.408  50.828  31.696  1.00  0.00    -0.504 OA
ATOM     21  H   UNL     1     -30.390  50.831  31.947  1.00  0.00     0.293 HD
ENDBRANCH  17  20
ENDBRANCH   1  12
BRANCH   6  22
ATOM     22  O   UNL     1     -27.576  59.966  34.002  1.00  0.00    -0.507 OA
ATOM     23  H   UNL     1     -26.919  60.729  33.946  1.00  0.00     0.293 HD
ENDBRANCH   6  22
BRANCH   8  24
ATOM     24  O   UNL     1     -26.950  58.544  38.527  1.00  0.00    -0.508 OA
ATOM     25  H   UNL     1     -26.613  59.460  38.795  1.00  0.00     0.293 HD
ENDBRANCH   8  24
TORSDOF 5
ENDMDL
MODEL 6
REMARK VINA RESULT:    -4.221      2.335      7.283
REMARK INTER + INTRA:          -5.229
REMARK INTER:                  -4.951
REMARK INTRA:                  -0.278
REMARK UNBOUND:                -0.268
REMARK SMILES O=c1cc(-c2ccc(O)c(O)c2)oc2cc(O)cc(O)c12
REMARK SMILES IDX 4 1 3 2 2 3 1 4 21 5 19 6 18 7 16 8 15 9 14 10 13 11 5 12
REMARK SMILES IDX 6 13 7 14 8 15 12 16 10 17 9 18 11 20 20 22 17 24
REMARK H PARENT 9 19 11 21 20 23 17 25
REMARK Flexibility Score: inf
ROOT
ATOM      1  C   UNL     1     -25.843  53.056  45.134  1.00  0.00     0.138 A 
ATOM      2  C   UNL     1     -25.975  53.721  43.907  1.00  0.00     0.100 A 
ATOM      3  C   UNL     1     -26.061  52.982  42.726  1.00  0.00     0.197 A 
ATOM      4  O   UNL     1     -26.122  53.609  41.638  1.00  0.00    -0.289 OA
ATOM      5  C   UNL     1     -26.051  51.567  42.780  1.00  0.00     0.107 A 
ATOM      6  C   UNL     1     -26.168  50.709  41.645  1.00  0.00     0.134 A 
ATOM      7  C   UNL     1     -26.045  49.324  41.811  1.00  0.00     0.093 A 
ATOM      8  C   UNL     1     -25.870  48.763  43.076  1.00  0.00     0.123 A 
ATOM      9  C   UNL     1     -25.806  49.589  44.198  1.00  0.00     0.094 A 
ATOM     10  C   UNL     1     -25.889  50.976  44.061  1.00  0.00     0.146 A 
ATOM     11  O   UNL     1     -25.805  51.728  45.154  1.00  0.00    -0.456 OA
ENDROOT
BRANCH   1  12
ATOM     12  C   UNL     1     -25.750  53.792  46.420  1.00  0.00     0.021 A 
ATOM     13  C   UNL     1     -24.859  53.397  47.437  1.00  0.00     0.016 A 
ATOM     14  C   UNL     1     -24.800  54.103  48.640  1.00  0.00     0.051 A 
ATOM     15  C   UNL     1     -25.634  55.208  48.855  1.00  0.00     0.157 A 
ATOM     16  C   UNL     1     -26.592  54.894  46.649  1.00  0.00     0.062 A 
ATOM     17  C   UNL     1     -26.536  55.603  47.854  1.00  0.00     0.158 A 
BRANCH  15  18
ATOM     18  O   UNL     1     -25.571  55.910  50.058  1.00  0.00    -0.504 OA
ATOM     19  H   UNL     1     -25.690  55.446  50.951  1.00  0.00     0.293 HD
ENDBRANCH  15  18
BRANCH  17  20
ATOM     20  O   UNL     1     -27.382  56.696  48.038  1.00  0.00    -0.504 OA
ATOM     21  H   UNL     1     -27.115  57.494  48.601  1.00  0.00     0.293 HD
ENDBRANCH  17  20
ENDBRANCH   1  12
BRANCH   6  22
ATOM     22  O   UNL     1     -26.423  51.158  40.345  1.00  0.00    -0.507 OA
ATOM     23  H   UNL     1     -25.863  50.940  39.536  1.00  0.00     0.293 HD
ENDBRANCH   6  22
BRANCH   8  24
ATOM     24  O   UNL     1     -25.768  47.379  43.206  1.00  0.00    -0.508 OA
ATOM     25  H   UNL     1     -25.300  46.954  43.997  1.00  0.00     0.293 HD
ENDBRANCH   8  24
TORSDOF 5
ENDMDL
MODEL 7
REMARK VINA RESULT:    -4.136      1.986      7.113
REMARK INTER + INTRA:          -5.129
REMARK INTER:                  -4.842
REMARK INTRA:                  -0.287
REMARK UNBOUND:                -0.268
REMARK SMILES O=c1cc(-c2ccc(O)c(O)c2)oc2cc(O)cc(O)c12
REMARK SMILES IDX 4 1 3 2 2 3 1 4 21 5 19 6 18 7 16 8 15 9 14 10 13 11 5 12
REMARK SMILES IDX 6 13 7 14 8 15 12 16 10 17 9 18 11 20 20 22 17 24
REMARK H PARENT 9 19 11 21 20 23 17 25
REMARK Flexibility Score: inf
ROOT
ATOM      1  C   UNL     1     -25.857  52.330  43.726  1.00  0.00     0.138 A 
ATOM      2  C   UNL     1     -26.071  52.133  42.356  1.00  0.00     0.100 A 
ATOM      3  C   UNL     1     -26.154  50.835  41.849  1.00  0.00     0.197 A 
ATOM      4  O   UNL     1     -26.290  50.690  40.608  1.00  0.00    -0.289 OA
ATOM      5  C   UNL     1     -26.058  49.729  42.729  1.00  0.00     0.107 A 
ATOM      6  C   UNL     1     -26.163  48.362  42.332  1.00  0.00     0.134 A 
ATOM      7  C   UNL     1     -25.953  47.351  43.277  1.00  0.00     0.093 A 
ATOM      8  C   UNL     1     -25.701  47.655  44.615  1.00  0.00     0.123 A 
ATOM      9  C   UNL     1     -25.647  48.988  45.024  1.00  0.00     0.094 A 
ATOM     10  C   UNL     1     -25.817  50.020  44.098  1.00  0.00     0.146 A 
ATOM     11  O   UNL     1     -25.740  51.275  44.526  1.00  0.00    -0.456 OA
ENDROOT
BRANCH   1  12
ATOM     12  C   UNL     1     -25.764  53.688  44.319  1.00  0.00     0.021 A 
ATOM     13  C   UNL     1     -24.886  54.662  43.805  1.00  0.00     0.016 A 
ATOM     14  C   UNL     1     -24.813  55.929  44.389  1.00  0.00     0.051 A 
ATOM     15  C   UNL     1     -25.606  56.244  45.500  1.00  0.00     0.157 A 
ATOM     16  C   UNL     1     -26.547  54.008  45.442  1.00  0.00     0.062 A 
ATOM     17  C   UNL     1     -26.476  55.277  46.029  1.00  0.00     0.158 A 
BRANCH  15  18
ATOM     18  O   UNL     1     -25.530  57.509  46.079  1.00  0.00    -0.504 OA
ATOM     19  H   UNL     1     -25.534  58.352  45.517  1.00  0.00     0.293 HD
ENDBRANCH  15  18
BRANCH  17  20
ATOM     20  O   UNL     1     -27.276  55.556  47.137  1.00  0.00    -0.504 OA
ATOM     21  H   UNL     1     -27.292  56.471  47.571  1.00  0.00     0.293 HD
ENDBRANCH  17  20
ENDBRANCH   1  12
BRANCH   6  22
ATOM     22  O   UNL     1     -26.490  47.944  41.038  1.00  0.00    -0.507 OA
ATOM     23  H   UNL     1     -27.405  48.013  40.619  1.00  0.00     0.293 HD
ENDBRANCH   6  22
BRANCH   8  24
ATOM     24  O   UNL     1     -25.513  46.623  45.531  1.00  0.00    -0.508 OA
ATOM     25  H   UNL     1     -26.259  45.979  45.765  1.00  0.00     0.293 HD
ENDBRANCH   8  24
TORSDOF 5
ENDMDL
MODEL 8
REMARK VINA RESULT:    -4.066      1.478      6.876
REMARK INTER + INTRA:          -5.047
REMARK INTER:                  -4.752
REMARK INTRA:                  -0.295
REMARK UNBOUND:                -0.268
REMARK SMILES O=c1cc(-c2ccc(O)c(O)c2)oc2cc(O)cc(O)c12
REMARK SMILES IDX 4 1 3 2 2 3 1 4 21 5 19 6 18 7 16 8 15 9 14 10 13 11 5 12
REMARK SMILES IDX 6 13 7 14 8 15 12 16 10 17 9 18 11 20 20 22 17 24
REMARK H PARENT 9 19 11 21 20 23 17 25
REMARK Flexibility Score: inf
ROOT
ATOM      1  C   UNL     1     -25.796  51.729  42.033  1.00  0.00     0.138 A 
ATOM      2  C   UNL     1     -25.008  51.862  40.882  1.00  0.00     0.100 A 
ATOM      3  C   UNL     1     -24.921  50.803  39.977  1.00  0.00     0.197 A 
ATOM      4  O   UNL     1     -24.162  50.933  38.983  1.00  0.00    -0.289 OA
ATOM      5  C   UNL     1     -25.658  49.617  40.210  1.00  0.00     0.107 A 
ATOM      6  C   UNL     1     -25.675  48.485  39.340  1.00  0.00     0.134 A 
ATOM      7  C   UNL     1     -26.365  47.329  39.725  1.00  0.00     0.093 A 
ATOM      8  C   UNL     1     -27.086  47.283  40.918  1.00  0.00     0.123 A 
ATOM      9  C   UNL     1     -27.118  48.401  41.752  1.00  0.00     0.094 A 
ATOM     10  C   UNL     1     -26.412  49.557  41.413  1.00  0.00     0.146 A 
ATOM     11  O   UNL     1     -26.454  50.593  42.244  1.00  0.00    -0.456 OA
ENDROOT
BRANCH   1  12
ATOM     12  C   UNL     1     -25.927  52.823  43.027  1.00  0.00     0.021 A 
ATOM     13  C   UNL     1     -26.803  52.726  44.126  1.00  0.00     0.016 A 
ATOM     14  C   UNL     1     -26.912  53.776  45.040  1.00  0.00     0.051 A 
ATOM     15  C   UNL     1     -26.157  54.944  44.871  1.00  0.00     0.157 A 
ATOM     16  C   UNL     1     -25.182  54.004  42.858  1.00  0.00     0.062 A 
ATOM     17  C   UNL     1     -25.289  55.057  43.773  1.00  0.00     0.158 A 
BRANCH  15  18
ATOM     18  O   UNL     1     -26.269  55.989  45.787  1.00  0.00    -0.504 OA
ATOM     19  H   UNL     1     -25.927  56.918  45.576  1.00  0.00     0.293 HD
ENDBRANCH  15  18
BRANCH  17  20
ATOM     20  O   UNL     1     -24.527  56.208  43.574  1.00  0.00    -0.504 OA
ATOM     21  H   UNL     1     -23.577  56.170  43.224  1.00  0.00     0.293 HD
ENDBRANCH  17  20
ENDBRANCH   1  12
BRANCH   6  22
ATOM     22  O   UNL     1     -25.055  48.450  38.087  1.00  0.00    -0.507 OA
ATOM     23  H   UNL     1     -24.362  47.775  37.802  1.00  0.00     0.293 HD
ENDBRANCH   6  22
BRANCH   8  24
ATOM     24  O   UNL     1     -27.774  46.121  41.261  1.00  0.00    -0.508 OA
ATOM     25  H   UNL     1     -27.360  45.204  41.138  1.00  0.00     0.293 HD
ENDBRANCH   8  24
TORSDOF 5
ENDMDL
MODEL 9
REMARK VINA RESULT:    -3.995      1.774      3.342
REMARK INTER + INTRA:          -4.963
REMARK INTER:                  -4.668
REMARK INTRA:                  -0.295
REMARK UNBOUND:                -0.268
REMARK SMILES O=c1cc(-c2ccc(O)c(O)c2)oc2cc(O)cc(O)c12
REMARK SMILES IDX 4 1 3 2 2 3 1 4 21 5 19 6 18 7 16 8 15 9 14 10 13 11 5 12
REMARK SMILES IDX 6 13 7 14 8 15 12 16 10 17 9 18 11 20 20 22 17 24
REMARK H PARENT 9 19 11 21 20 23 17 25
REMARK Flexibility Score: inf
ROOT
ATOM      1  C   UNL     1     -25.478  52.255  41.954  1.00  0.00     0.138 A 
ATOM      2  C   UNL     1     -26.508  52.014  42.874  1.00  0.00     0.100 A 
ATOM      3  C   UNL     1     -26.753  52.936  43.892  1.00  0.00     0.197 A 
ATOM      4  O   UNL     1     -27.647  52.665  44.735  1.00  0.00    -0.289 OA
ATOM      5  C   UNL     1     -25.984  54.123  43.968  1.00  0.00     0.107 A 
ATOM      6  C   UNL     1     -26.167  55.151  44.942  1.00  0.00     0.134 A 
ATOM      7  C   UNL     1     -25.280  56.233  44.977  1.00  0.00     0.093 A 
ATOM      8  C   UNL     1     -24.255  56.357  44.040  1.00  0.00     0.123 A 
ATOM      9  C   UNL     1     -24.099  55.384  43.052  1.00  0.00     0.094 A 
ATOM     10  C   UNL     1     -24.945  54.274  43.012  1.00  0.00     0.146 A 
ATOM     11  O   UNL     1     -24.750  53.361  42.066  1.00  0.00    -0.456 OA
ENDROOT
BRANCH   1  12
ATOM     12  C   UNL     1     -25.175  51.310  40.849  1.00  0.00     0.021 A 
ATOM     13  C   UNL     1     -24.082  51.510  39.983  1.00  0.00     0.016 A 
ATOM     14  C   UNL     1     -23.828  50.610  38.946  1.00  0.00     0.051 A 
ATOM     15  C   UNL     1     -24.661  49.500  38.749  1.00  0.00     0.157 A 
ATOM     16  C   UNL     1     -26.013  50.202  40.637  1.00  0.00     0.062 A 
ATOM     17  C   UNL     1     -25.760  49.298  39.600  1.00  0.00     0.158 A 
BRANCH  15  18
ATOM     18  O   UNL     1     -24.402  48.604  37.714  1.00  0.00    -0.504 OA
ATOM     19  H   UNL     1     -25.105  48.374  37.022  1.00  0.00     0.293 HD
ENDBRANCH  15  18
BRANCH  17  20
ATOM     20  O   UNL     1     -26.611  48.207  39.429  1.00  0.00    -0.504 OA
ATOM     21  H   UNL     1     -26.529  47.579  38.638  1.00  0.00     0.293 HD
ENDBRANCH  17  20
ENDBRANCH   1  12
BRANCH   6  22
ATOM     22  O   UNL     1     -27.207  55.169  45.877  1.00  0.00    -0.507 OA
ATOM     23  H   UNL     1     -27.869  54.422  46.022  1.00  0.00     0.293 HD
ENDBRANCH   6  22
BRANCH   8  24
ATOM     24  O   UNL     1     -23.401  57.456  44.095  1.00  0.00    -0.508 OA
ATOM     25  H   UNL     1     -23.566  58.223  44.736  1.00  0.00     0.293 HD
ENDBRANCH   8  24
TORSDOF 5
ENDMDL
