MODEL 1
REMARK VINA RESULT:    -3.711      0.000      0.000
REMARK INTER + INTRA:          -4.757
REMARK INTER:                  -4.362
REMARK INTRA:                  -0.395
REMARK UNBOUND:                -0.395
REMARK SMILES [NH3+][C@@H](CO)C(=O)[O-]
REMARK SMILES IDX 3 1 2 2 1 3 5 7 6 8 7 9 4 10
REMARK H PARENT 1 4 1 5 1 6 4 11
REMARK Flexibility Score: inf
ROOT
ATOM      1  C   UNL     1      14.564  -5.632  17.354  1.00  0.00     0.227 C 
ENDROOT
BRANCH   1   2
ATOM      2  C   UNL     1      15.652  -4.605  17.005  1.00  0.00     0.253 C 
BRANCH   2   3
ATOM      3  N   UNL     1      16.894  -5.279  16.609  1.00  0.00    -0.348 N 
ATOM      4  H   UNL     1      16.743  -5.858  15.751  1.00  0.00     0.345 HD
ATOM      5  H   UNL     1      17.637  -4.568  16.415  1.00  0.00     0.345 HD
ATOM      6  H   UNL     1      17.227  -5.896  17.386  1.00  0.00     0.345 HD
ENDBRANCH   2   3
BRANCH   2   7
ATOM      7  C   UNL     1      15.904  -3.680  18.167  1.00  0.00     0.102 C 
ATOM      8  O   UNL     1      15.347  -2.551  18.219  1.00  0.00    -0.544 OA
ATOM      9  O   UNL     1      16.767  -4.064  19.185  1.00  0.00    -0.544 OA
ENDBRANCH   2   7
ENDBRANCH   1   2
BRANCH   1  10
ATOM     10  O   UNL     1      14.141  -5.452  18.677  1.00  0.00    -0.390 OA
ATOM     11  H   UNL     1      13.415  -4.776  18.645  1.00  0.00     0.210 HD
ENDBRANCH   1  10
TORSDOF 4
ENDMDL
MODEL 2
REMARK VINA RESULT:    -3.617      5.274      6.177
REMARK INTER + INTRA:          -4.646
REMARK INTER:                  -4.244
REMARK INTRA:                  -0.402
REMARK UNBOUND:                -0.395
REMARK SMILES [NH3+][C@@H](CO)C(=O)[O-]
REMARK SMILES IDX 3 1 2 2 1 3 5 7 6 8 7 9 4 10
REMARK H PARENT 1 4 1 5 1 6 4 11
REMARK Flexibility Score: inf
ROOT
ATOM      1  C   UNL     1      22.489  -5.126  16.735  1.00  0.00     0.227 C 
ENDROOT
BRANCH   1   2
ATOM      2  C   UNL     1      21.314  -5.207  17.722  1.00  0.00     0.253 C 
BRANCH   2   3
ATOM      3  N   UNL     1      20.203  -5.974  17.144  1.00  0.00    -0.348 N 
ATOM      4  H   UNL     1      20.559  -6.815  16.633  1.00  0.00     0.345 HD
ATOM      5  H   UNL     1      19.555  -6.285  17.905  1.00  0.00     0.345 HD
ATOM      6  H   UNL     1      19.663  -5.371  16.480  1.00  0.00     0.345 HD
ENDBRANCH   2   3
BRANCH   2   7
ATOM      7  C   UNL     1      20.852  -3.830  18.117  1.00  0.00     0.102 C 
ATOM      8  O   UNL     1      21.265  -3.297  19.181  1.00  0.00    -0.544 OA
ATOM      9  O   UNL     1      19.955  -3.141  17.311  1.00  0.00    -0.544 OA
ENDBRANCH   2   7
ENDBRANCH   1   2
BRANCH   1  10
ATOM     10  O   UNL     1      22.870  -3.790  16.554  1.00  0.00    -0.390 OA
ATOM     11  H   UNL     1      23.541  -3.598  17.259  1.00  0.00     0.210 HD
ENDBRANCH   1  10
TORSDOF 4
ENDMDL
MODEL 3
REMARK VINA RESULT:    -3.604      2.106      2.262
REMARK INTER + INTRA:          -4.631
REMARK INTER:                  -4.622
REMARK INTRA:                  -0.009
REMARK UNBOUND:                -0.395
REMARK SMILES [NH3+][C@@H](CO)C(=O)[O-]
REMARK SMILES IDX 3 1 2 2 1 3 5 7 6 8 7 9 4 10
REMARK H PARENT 1 4 1 5 1 6 4 11
REMARK Flexibility Score: inf
ROOT
ATOM      1  C   UNL     1      14.221  -5.615  17.717  1.00  0.00     0.227 C 
ENDROOT
BRANCH   1   2
ATOM      2  C   UNL     1      15.424  -4.739  18.099  1.00  0.00     0.253 C 
BRANCH   2   3
ATOM      3  N   UNL     1      14.991  -3.376  18.425  1.00  0.00    -0.348 N 
ATOM      4  H   UNL     1      14.450  -2.959  17.632  1.00  0.00     0.345 HD
ATOM      5  H   UNL     1      14.388  -3.391  19.280  1.00  0.00     0.345 HD
ATOM      6  H   UNL     1      15.826  -2.776  18.625  1.00  0.00     0.345 HD
ENDBRANCH   2   3
BRANCH   2   7
ATOM      7  C   UNL     1      16.441  -4.716  16.988  1.00  0.00     0.102 C 
ATOM      8  O   UNL     1      17.352  -3.846  16.973  1.00  0.00    -0.544 OA
ATOM      9  O   UNL     1      16.371  -5.651  15.963  1.00  0.00    -0.544 OA
ENDBRANCH   2   7
ENDBRANCH   1   2
BRANCH   1  10
ATOM     10  O   UNL     1      13.471  -5.924  18.860  1.00  0.00    -0.390 OA
ATOM     11  H   UNL     1      13.913  -6.711  19.274  1.00  0.00     0.210 HD
ENDBRANCH   1  10
TORSDOF 4
ENDMDL
MODEL 4
REMARK VINA RESULT:    -3.468      2.100      2.166
REMARK INTER + INTRA:          -4.471
REMARK INTER:                  -4.246
REMARK INTRA:                  -0.224
REMARK UNBOUND:                -0.395
REMARK SMILES [NH3+][C@@H](CO)C(=O)[O-]
REMARK SMILES IDX 3 1 2 2 1 3 5 7 6 8 7 9 4 10
REMARK H PARENT 1 4 1 5 1 6 4 11
REMARK Flexibility Score: inf
ROOT
ATOM      1  C   UNL     1      15.592  -5.629  16.474  1.00  0.00     0.227 C 
ENDROOT
BRANCH   1   2
ATOM      2  C   UNL     1      15.667  -5.022  17.884  1.00  0.00     0.253 C 
BRANCH   2   3
ATOM      3  N   UNL     1      14.398  -5.206  18.597  1.00  0.00    -0.348 N 
ATOM      4  H   UNL     1      14.298  -4.503  19.365  1.00  0.00     0.345 HD
ATOM      5  H   UNL     1      13.598  -5.099  17.929  1.00  0.00     0.345 HD
ATOM      6  H   UNL     1      14.356  -6.169  19.005  1.00  0.00     0.345 HD
ENDBRANCH   2   3
BRANCH   2   7
ATOM      7  C   UNL     1      16.025  -3.560  17.817  1.00  0.00     0.102 C 
ATOM      8  O   UNL     1      15.230  -2.686  18.256  1.00  0.00    -0.544 OA
ATOM      9  O   UNL     1      17.233  -3.166  17.257  1.00  0.00    -0.544 OA
ENDBRANCH   2   7
ENDBRANCH   1   2
BRANCH   1  10
ATOM     10  O   UNL     1      16.884  -5.855  15.981  1.00  0.00    -0.390 OA
ATOM     11  H   UNL     1      17.482  -5.241  16.482  1.00  0.00     0.210 HD
ENDBRANCH   1  10
TORSDOF 4
ENDMDL
MODEL 5
REMARK VINA RESULT:    -3.386      1.957      2.946
REMARK INTER + INTRA:          -4.375
REMARK INTER:                  -4.021
REMARK INTRA:                  -0.354
REMARK UNBOUND:                -0.395
REMARK SMILES [NH3+][C@@H](CO)C(=O)[O-]
REMARK SMILES IDX 3 1 2 2 1 3 5 7 6 8 7 9 4 10
REMARK H PARENT 1 4 1 5 1 6 4 11
REMARK Flexibility Score: inf
ROOT
ATOM      1  C   UNL     1      17.220  -4.055  18.173  1.00  0.00     0.227 C 
ENDROOT
BRANCH   1   2
ATOM      2  C   UNL     1      15.865  -3.844  17.481  1.00  0.00     0.253 C 
BRANCH   2   3
ATOM      3  N   UNL     1      14.965  -3.056  18.331  1.00  0.00    -0.348 N 
ATOM      4  H   UNL     1      14.355  -3.683  18.906  1.00  0.00     0.345 HD
ATOM      5  H   UNL     1      15.526  -2.445  18.970  1.00  0.00     0.345 HD
ATOM      6  H   UNL     1      14.362  -2.441  17.737  1.00  0.00     0.345 HD
ENDBRANCH   2   3
BRANCH   2   7
ATOM      7  C   UNL     1      15.233  -5.165  17.130  1.00  0.00     0.102 C 
ATOM      8  O   UNL     1      14.222  -5.578  17.758  1.00  0.00    -0.544 OA
ATOM      9  O   UNL     1      15.774  -5.945  16.116  1.00  0.00    -0.544 OA
ENDBRANCH   2   7
ENDBRANCH   1   2
BRANCH   1  10
ATOM     10  O   UNL     1      17.254  -5.314  18.786  1.00  0.00    -0.390 OA
ATOM     11  H   UNL     1      17.080  -5.976  18.067  1.00  0.00     0.210 HD
ENDBRANCH   1  10
TORSDOF 4
ENDMDL
MODEL 6
REMARK VINA RESULT:    -3.334      7.483      8.164
REMARK INTER + INTRA:          -4.313
REMARK INTER:                  -4.096
REMARK INTRA:                  -0.218
REMARK UNBOUND:                -0.395
REMARK SMILES [NH3+][C@@H](CO)C(=O)[O-]
REMARK SMILES IDX 3 1 2 2 1 3 5 7 6 8 7 9 4 10
REMARK H PARENT 1 4 1 5 1 6 4 11
REMARK Flexibility Score: inf
ROOT
ATOM      1  C   UNL     1      20.803  -2.077  23.222  1.00  0.00     0.227 C 
ENDROOT
BRANCH   1   2
ATOM      2  C   UNL     1      21.157  -3.385  22.498  1.00  0.00     0.253 C 
BRANCH   2   3
ATOM      3  N   UNL     1      21.775  -4.340  23.426  1.00  0.00    -0.348 N 
ATOM      4  H   UNL     1      22.766  -4.073  23.627  1.00  0.00     0.345 HD
ATOM      5  H   UNL     1      21.237  -4.359  24.324  1.00  0.00     0.345 HD
ATOM      6  H   UNL     1      21.755  -5.301  23.013  1.00  0.00     0.345 HD
ENDBRANCH   2   3
BRANCH   2   7
ATOM      7  C   UNL     1      22.073  -3.119  21.332  1.00  0.00     0.102 C 
ATOM      8  O   UNL     1      21.795  -3.562  20.186  1.00  0.00    -0.544 OA
ATOM      9  O   UNL     1      23.240  -2.390  21.519  1.00  0.00    -0.544 OA
ENDBRANCH   2   7
ENDBRANCH   1   2
BRANCH   1  10
ATOM     10  O   UNL     1      21.819  -1.737  24.124  1.00  0.00    -0.390 OA
ATOM     11  H   UNL     1      22.591  -2.321  23.902  1.00  0.00     0.210 HD
ENDBRANCH   1  10
TORSDOF 4
ENDMDL
MODEL 7
REMARK VINA RESULT:    -3.326      4.979      5.837
REMARK INTER + INTRA:          -4.304
REMARK INTER:                  -4.082
REMARK INTRA:                  -0.223
REMARK UNBOUND:                -0.395
REMARK SMILES [NH3+][C@@H](CO)C(=O)[O-]
REMARK SMILES IDX 3 1 2 2 1 3 5 7 6 8 7 9 4 10
REMARK H PARENT 1 4 1 5 1 6 4 11
REMARK Flexibility Score: inf
ROOT
ATOM      1  C   UNL     1      21.319  -4.183  19.315  1.00  0.00     0.227 C 
ENDROOT
BRANCH   1   2
ATOM      2  C   UNL     1      21.026  -3.983  17.819  1.00  0.00     0.253 C 
BRANCH   2   3
ATOM      3  N   UNL     1      22.273  -3.802  17.066  1.00  0.00    -0.348 N 
ATOM      4  H   UNL     1      22.668  -4.726  16.776  1.00  0.00     0.345 HD
ATOM      5  H   UNL     1      22.090  -3.225  16.213  1.00  0.00     0.345 HD
ATOM      6  H   UNL     1      22.975  -3.298  17.657  1.00  0.00     0.345 HD
ENDBRANCH   2   3
BRANCH   2   7
ATOM      7  C   UNL     1      20.109  -2.808  17.607  1.00  0.00     0.102 C 
ATOM      8  O   UNL     1      19.067  -2.928  16.909  1.00  0.00    -0.544 OA
ATOM      9  O   UNL     1      20.415  -1.578  18.173  1.00  0.00    -0.544 OA
ENDBRANCH   2   7
ENDBRANCH   1   2
BRANCH   1  10
ATOM     10  O   UNL     1      22.159  -3.161  19.779  1.00  0.00    -0.390 OA
ATOM     11  H   UNL     1      22.987  -3.608  20.094  1.00  0.00     0.210 HD
ENDBRANCH   1  10
TORSDOF 4
ENDMDL
MODEL 8
REMARK VINA RESULT:    -3.294      5.686      6.345
REMARK INTER + INTRA:          -4.266
REMARK INTER:                  -4.041
REMARK INTRA:                  -0.225
REMARK UNBOUND:                -0.395
REMARK SMILES [NH3+][C@@H](CO)C(=O)[O-]
REMARK SMILES IDX 3 1 2 2 1 3 5 7 6 8 7 9 4 10
REMARK H PARENT 1 4 1 5 1 6 4 11
REMARK Flexibility Score: inf
ROOT
ATOM      1  C   UNL     1      21.069  -4.434  19.094  1.00  0.00     0.227 C 
ENDROOT
BRANCH   1   2
ATOM      2  C   UNL     1      20.602  -4.651  17.647  1.00  0.00     0.253 C 
BRANCH   2   3
ATOM      3  N   UNL     1      19.277  -5.283  17.618  1.00  0.00    -0.348 N 
ATOM      4  H   UNL     1      19.362  -6.316  17.478  1.00  0.00     0.345 HD
ATOM      5  H   UNL     1      18.778  -5.100  18.520  1.00  0.00     0.345 HD
ATOM      6  H   UNL     1      18.707  -4.876  16.841  1.00  0.00     0.345 HD
ENDBRANCH   2   3
BRANCH   2   7
ATOM      7  C   UNL     1      21.598  -5.485  16.884  1.00  0.00     0.102 C 
ATOM      8  O   UNL     1      22.752  -5.041  16.642  1.00  0.00    -0.544 OA
ATOM      9  O   UNL     1      21.242  -6.748  16.430  1.00  0.00    -0.544 OA
ENDBRANCH   2   7
ENDBRANCH   1   2
BRANCH   1  10
ATOM     10  O   UNL     1      22.128  -3.517  19.124  1.00  0.00    -0.390 OA
ATOM     11  H   UNL     1      22.084  -3.074  20.011  1.00  0.00     0.210 HD
ENDBRANCH   1  10
TORSDOF 4
ENDMDL
MODEL 9
REMARK VINA RESULT:    -3.294      8.230      8.716
REMARK INTER + INTRA:          -4.266
REMARK INTER:                  -4.039
REMARK INTRA:                  -0.227
REMARK UNBOUND:                -0.395
REMARK SMILES [NH3+][C@@H](CO)C(=O)[O-]
REMARK SMILES IDX 3 1 2 2 1 3 5 7 6 8 7 9 4 10
REMARK H PARENT 1 4 1 5 1 6 4 11
REMARK Flexibility Score: inf
ROOT
ATOM      1  C   UNL     1      21.786  -3.422  21.907  1.00  0.00     0.227 C 
ENDROOT
BRANCH   1   2
ATOM      2  C   UNL     1      22.655  -2.156  21.842  1.00  0.00     0.253 C 
BRANCH   2   3
ATOM      3  N   UNL     1      24.078  -2.499  21.941  1.00  0.00    -0.348 N 
ATOM      4  H   UNL     1      24.627  -1.694  22.325  1.00  0.00     0.345 HD
ATOM      5  H   UNL     1      24.201  -3.327  22.569  1.00  0.00     0.345 HD
ATOM      6  H   UNL     1      24.450  -2.748  20.995  1.00  0.00     0.345 HD
ENDBRANCH   2   3
BRANCH   2   7
ATOM      7  C   UNL     1      22.270  -1.189  22.930  1.00  0.00     0.102 C 
ATOM      8  O   UNL     1      22.809  -0.052  22.996  1.00  0.00    -0.544 OA
ATOM      9  O   UNL     1      21.323  -1.553  23.879  1.00  0.00    -0.544 OA
ENDBRANCH   2   7
ENDBRANCH   1   2
BRANCH   1  10
ATOM     10  O   UNL     1      22.149  -4.196  23.017  1.00  0.00    -0.390 OA
ATOM     11  H   UNL     1      22.436  -3.555  23.718  1.00  0.00     0.210 HD
ENDBRANCH   1  10
TORSDOF 4
ENDMDL
