MODEL 1
REMARK VINA RESULT:    -6.951      0.000      0.000
REMARK INTER + INTRA:         -14.106
REMARK INTER:                 -12.030
REMARK INTRA:                  -2.076
REMARK UNBOUND:                -2.076
REMARK SMILES OC[C@@H]1O[C@H](O[C@@H]2[C@@H](O)[C@H](O)[C@@H](O[C@H]3[C@H](O)[C@@H](O)[C@H](O)O[C@H]3CO)O[C@H]2CO)[C@H](O)[C@H](O)[C@H]1O
REMARK SMILES IDX 7 1 26 2 25 3 12 4 10 5 8 6 6 7 5 8 3 9 33 10 4 11 31 12
REMARK SMILES IDX 29 13 2 14 1 15 34 17 32 19 30 21 27 23 28 24 9 26 11 28
REMARK SMILES IDX 13 30 14 31 22 32 15 33 21 34 17 35 19 36 23 37 24 38 16 40
REMARK SMILES IDX 18 42 20 44
REMARK H PARENT 1 16 34 18 32 20 30 22 28 25 9 27 11 29 24 39 16 41 18 43
REMARK H PARENT 20 45
REMARK Flexibility Score: inf
ROOT
ATOM      1  C   UNL     1      35.068 -48.944   1.064  1.00  0.00     0.184 C 
ATOM      2  C   UNL     1      33.506 -48.842   1.144  1.00  0.00     0.178 C 
ATOM      3  O   UNL     1      32.952 -48.218  -0.009  1.00  0.00    -0.341 OA
ATOM      4  C   UNL     1      33.495 -46.913  -0.157  1.00  0.00     0.282 C 
ATOM      5  C   UNL     1      35.017 -46.949  -0.509  1.00  0.00     0.202 C 
ATOM      6  C   UNL     1      35.567 -48.381  -0.296  1.00  0.00     0.180 C 
ENDROOT
BRANCH   1   7
ATOM      7  O   UNL     1      35.695 -48.186   2.093  1.00  0.00    -0.341 OA
BRANCH   7   8
ATOM      8  C   UNL     1      35.894 -48.934   3.286  1.00  0.00     0.282 C 
ATOM      9  C   UNL     1      36.265 -51.097   4.092  1.00  0.00     0.178 C 
ATOM     10  C   UNL     1      37.096 -50.501   5.273  1.00  0.00     0.177 C 
ATOM     11  O   UNL     1      36.276 -50.258   2.940  1.00  0.00    -0.341 OA
ATOM     12  C   UNL     1      37.931 -49.292   4.808  1.00  0.00     0.179 C 
ATOM     13  C   UNL     1      37.001 -48.244   4.135  1.00  0.00     0.202 C 
BRANCH   9  14
ATOM     14  C   UNL     1      36.798 -52.480   3.686  1.00  0.00     0.191 C 
BRANCH  14  15
ATOM     15  O   UNL     1      37.999 -52.358   2.967  1.00  0.00    -0.394 OA
ATOM     16  H   UNL     1      38.154 -53.243   2.531  1.00  0.00     0.210 HD
ENDBRANCH  14  15
ENDBRANCH   9  14
BRANCH  10  17
ATOM     17  O   UNL     1      36.212 -50.102   6.291  1.00  0.00    -0.387 OA
ATOM     18  H   UNL     1      35.473 -49.595   5.854  1.00  0.00     0.211 HD
ENDBRANCH  10  17
BRANCH  12  19
ATOM     19  O   UNL     1      38.992 -49.746   3.994  1.00  0.00    -0.387 OA
ATOM     20  H   UNL     1      39.621 -48.998   3.801  1.00  0.00     0.211 HD
ENDBRANCH  12  19
BRANCH  13  21
ATOM     21  O   UNL     1      37.769 -47.347   3.364  1.00  0.00    -0.385 OA
ATOM     22  H   UNL     1      38.513 -47.877   2.973  1.00  0.00     0.211 HD
ENDBRANCH  13  21
ENDBRANCH   7   8
ENDBRANCH   1   7
BRANCH   2  23
ATOM     23  C   UNL     1      32.851 -50.221   1.352  1.00  0.00     0.191 C 
BRANCH  23  24
ATOM     24  O   UNL     1      32.014 -50.534   0.276  1.00  0.00    -0.394 OA
ATOM     25  H   UNL     1      31.438 -49.740   0.135  1.00  0.00     0.210 HD
ENDBRANCH  23  24
ENDBRANCH   2  23
BRANCH   6  26
ATOM     26  O   UNL     1      35.173 -49.178  -1.396  1.00  0.00    -0.387 OA
ATOM     27  H   UNL     1      34.717 -50.001  -1.061  1.00  0.00     0.211 HD
ENDBRANCH   6  26
BRANCH   5  28
ATOM     28  O   UNL     1      35.724 -46.046   0.307  1.00  0.00    -0.385 OA
ATOM     29  H   UNL     1      36.374 -45.580  -0.273  1.00  0.00     0.211 HD
ENDBRANCH   5  28
BRANCH   4  30
ATOM     30  O   UNL     1      32.698 -46.100  -1.011  1.00  0.00    -0.341 OA
BRANCH  30  31
ATOM     31  C   UNL     1      33.107 -46.051  -2.372  1.00  0.00     0.184 C 
ATOM     32  C   UNL     1      33.089 -44.559  -2.789  1.00  0.00     0.178 C 
ATOM     33  C   UNL     1      32.129 -46.864  -3.279  1.00  0.00     0.180 C 
ATOM     34  O   UNL     1      31.758 -44.070  -2.780  1.00  0.00    -0.342 OA
ATOM     35  C   UNL     1      31.466 -46.001  -4.375  1.00  0.00     0.201 C 
ATOM     36  C   UNL     1      30.915 -44.689  -3.755  1.00  0.00     0.279 C 
BRANCH  32  37
ATOM     37  C   UNL     1      33.939 -43.683  -1.850  1.00  0.00     0.191 C 
BRANCH  37  38
ATOM     38  O   UNL     1      33.132 -43.045  -0.900  1.00  0.00    -0.394 OA
ATOM     39  H   UNL     1      33.552 -43.195  -0.013  1.00  0.00     0.210 HD
ENDBRANCH  37  38
ENDBRANCH  32  37
BRANCH  33  40
ATOM     40  O   UNL     1      32.788 -47.960  -3.853  1.00  0.00    -0.387 OA
ATOM     41  H   UNL     1      33.251 -48.454  -3.132  1.00  0.00     0.211 HD
ENDBRANCH  33  40
BRANCH  35  42
ATOM     42  O   UNL     1      30.417 -46.715  -4.972  1.00  0.00    -0.385 OA
ATOM     43  H   UNL     1      30.333 -46.387  -5.908  1.00  0.00     0.211 HD
ENDBRANCH  35  42
BRANCH  36  44
ATOM     44  O   UNL     1      30.632 -43.751  -4.762  1.00  0.00    -0.366 OA
ATOM     45  H   UNL     1      30.689 -42.857  -4.336  1.00  0.00     0.213 HD
ENDBRANCH  36  44
ENDBRANCH  30  31
ENDBRANCH   4  30
TORSDOF 18
ENDMDL
MODEL 2
REMARK VINA RESULT:    -6.547      1.613      3.273
REMARK INTER + INTRA:         -13.406
REMARK INTER:                 -10.774
REMARK INTRA:                  -2.633
REMARK UNBOUND:                -2.076
REMARK SMILES OC[C@@H]1O[C@H](O[C@@H]2[C@@H](O)[C@H](O)[C@@H](O[C@H]3[C@H](O)[C@@H](O)[C@H](O)O[C@H]3CO)O[C@H]2CO)[C@H](O)[C@H](O)[C@H]1O
REMARK SMILES IDX 7 1 26 2 25 3 12 4 10 5 8 6 6 7 5 8 3 9 33 10 4 11 31 12
REMARK SMILES IDX 29 13 2 14 1 15 34 17 32 19 30 21 27 23 28 24 9 26 11 28
REMARK SMILES IDX 13 30 14 31 22 32 15 33 21 34 17 35 19 36 23 37 24 38 16 40
REMARK SMILES IDX 18 42 20 44
REMARK H PARENT 1 16 34 18 32 20 30 22 28 25 9 27 11 29 24 39 16 41 18 43
REMARK H PARENT 20 45
REMARK Flexibility Score: inf
ROOT
ATOM      1  C   UNL     1      36.267 -46.951   2.061  1.00  0.00     0.184 C 
ATOM      2  C   UNL     1      36.755 -46.058   0.869  1.00  0.00     0.178 C 
ATOM      3  O   UNL     1      35.717 -45.809  -0.072  1.00  0.00    -0.341 OA
ATOM      4  C   UNL     1      35.229 -47.041  -0.586  1.00  0.00     0.282 C 
ATOM      5  C   UNL     1      34.483 -47.875   0.505  1.00  0.00     0.202 C 
ATOM      6  C   UNL     1      34.752 -47.264   1.902  1.00  0.00     0.180 C 
ENDROOT
BRANCH   1   7
ATOM      7  O   UNL     1      36.957 -48.195   2.099  1.00  0.00    -0.341 OA
BRANCH   7   8
ATOM      8  C   UNL     1      36.705 -48.930   3.290  1.00  0.00     0.282 C 
ATOM      9  C   UNL     1      35.841 -50.950   4.089  1.00  0.00     0.178 C 
ATOM     10  C   UNL     1      36.845 -50.893   5.284  1.00  0.00     0.177 C 
ATOM     11  O   UNL     1      36.318 -50.252   2.941  1.00  0.00    -0.341 OA
ATOM     12  C   UNL     1      38.207 -50.326   4.836  1.00  0.00     0.179 C 
ATOM     13  C   UNL     1      37.998 -48.944   4.157  1.00  0.00     0.202 C 
BRANCH   9  14
ATOM     14  C   UNL     1      35.549 -52.403   3.682  1.00  0.00     0.191 C 
BRANCH  14  15
ATOM     15  O   UNL     1      36.720 -53.037   3.231  1.00  0.00    -0.394 OA
ATOM     16  H   UNL     1      36.428 -53.718   2.562  1.00  0.00     0.210 HD
ENDBRANCH  14  15
ENDBRANCH   9  14
BRANCH  10  17
ATOM     17  O   UNL     1      36.302 -50.078   6.293  1.00  0.00    -0.387 OA
ATOM     18  H   UNL     1      35.328 -50.285   6.342  1.00  0.00     0.211 HD
ENDBRANCH  10  17
BRANCH  12  19
ATOM     19  O   UNL     1      38.867 -51.282   4.033  1.00  0.00    -0.387 OA
ATOM     20  H   UNL     1      38.436 -51.333   3.136  1.00  0.00     0.211 HD
ENDBRANCH  12  19
BRANCH  13  21
ATOM     21  O   UNL     1      39.138 -48.603   3.400  1.00  0.00    -0.385 OA
ATOM     22  H   UNL     1      38.914 -47.766   2.914  1.00  0.00     0.211 HD
ENDBRANCH  13  21
ENDBRANCH   7   8
ENDBRANCH   1   7
BRANCH   2  23
ATOM     23  C   UNL     1      37.343 -44.719   1.359  1.00  0.00     0.191 C 
BRANCH  23  24
ATOM     24  O   UNL     1      36.579 -44.203   2.411  1.00  0.00    -0.394 OA
ATOM     25  H   UNL     1      36.488 -43.233   2.235  1.00  0.00     0.210 HD
ENDBRANCH  23  24
ENDBRANCH   2  23
BRANCH   6  26
ATOM     26  O   UNL     1      33.938 -46.118   2.053  1.00  0.00    -0.387 OA
ATOM     27  H   UNL     1      34.518 -45.312   2.154  1.00  0.00     0.211 HD
ENDBRANCH   6  26
BRANCH   5  28
ATOM     28  O   UNL     1      34.926 -49.210   0.481  1.00  0.00    -0.385 OA
ATOM     29  H   UNL     1      35.820 -49.226   0.901  1.00  0.00     0.211 HD
ENDBRANCH   5  28
BRANCH   4  30
ATOM     30  O   UNL     1      34.512 -46.862  -1.802  1.00  0.00    -0.341 OA
BRANCH  30  31
ATOM     31  C   UNL     1      33.100 -46.759  -1.676  1.00  0.00     0.184 C 
ATOM     32  C   UNL     1      32.491 -47.389  -2.953  1.00  0.00     0.178 C 
ATOM     33  C   UNL     1      32.657 -45.265  -1.561  1.00  0.00     0.180 C 
ATOM     34  O   UNL     1      32.824 -46.603  -4.086  1.00  0.00    -0.342 OA
ATOM     35  C   UNL     1      31.694 -44.835  -2.689  1.00  0.00     0.201 C 
ATOM     36  C   UNL     1      32.248 -45.295  -4.064  1.00  0.00     0.279 C 
BRANCH  32  37
ATOM     37  C   UNL     1      32.993 -48.825  -3.188  1.00  0.00     0.191 C 
BRANCH  37  38
ATOM     38  O   UNL     1      33.042 -49.539  -1.984  1.00  0.00    -0.394 OA
ATOM     39  H   UNL     1      33.996 -49.756  -1.813  1.00  0.00     0.210 HD
ENDBRANCH  37  38
ENDBRANCH  32  37
BRANCH  33  40
ATOM     40  O   UNL     1      32.082 -45.017  -0.308  1.00  0.00    -0.387 OA
ATOM     41  H   UNL     1      32.365 -44.117  -0.011  1.00  0.00     0.211 HD
ENDBRANCH  33  40
BRANCH  35  42
ATOM     42  O   UNL     1      31.549 -43.439  -2.684  1.00  0.00    -0.385 OA
ATOM     43  H   UNL     1      31.437 -43.152  -3.631  1.00  0.00     0.211 HD
ENDBRANCH  35  42
BRANCH  36  44
ATOM     44  O   UNL     1      31.243 -45.232  -5.044  1.00  0.00    -0.366 OA
ATOM     45  H   UNL     1      31.187 -44.282  -5.327  1.00  0.00     0.213 HD
ENDBRANCH  36  44
ENDBRANCH  30  31
ENDBRANCH   4  30
TORSDOF 18
ENDMDL
MODEL 3
REMARK VINA RESULT:    -6.443      1.636      8.714
REMARK INTER + INTRA:         -13.228
REMARK INTER:                 -10.917
REMARK INTRA:                  -2.311
REMARK UNBOUND:                -2.076
REMARK SMILES OC[C@@H]1O[C@H](O[C@@H]2[C@@H](O)[C@H](O)[C@@H](O[C@H]3[C@H](O)[C@@H](O)[C@H](O)O[C@H]3CO)O[C@H]2CO)[C@H](O)[C@H](O)[C@H]1O
REMARK SMILES IDX 7 1 26 2 25 3 12 4 10 5 8 6 6 7 5 8 3 9 33 10 4 11 31 12
REMARK SMILES IDX 29 13 2 14 1 15 34 17 32 19 30 21 27 23 28 24 9 26 11 28
REMARK SMILES IDX 13 30 14 31 22 32 15 33 21 34 17 35 19 36 23 37 24 38 16 40
REMARK SMILES IDX 18 42 20 44
REMARK H PARENT 1 16 34 18 32 20 30 22 28 25 9 27 11 29 24 39 16 41 18 43
REMARK H PARENT 20 45
REMARK Flexibility Score: inf
ROOT
ATOM      1  C   UNL     1      33.374 -47.789  -0.724  1.00  0.00     0.184 C 
ATOM      2  C   UNL     1      34.781 -48.278  -1.211  1.00  0.00     0.178 C 
ATOM      3  O   UNL     1      35.312 -49.299  -0.374  1.00  0.00    -0.341 OA
ATOM      4  C   UNL     1      35.424 -48.818   0.959  1.00  0.00     0.282 C 
ATOM      5  C   UNL     1      34.026 -48.563   1.608  1.00  0.00     0.202 C 
ATOM      6  C   UNL     1      32.928 -48.613   0.517  1.00  0.00     0.180 C 
ENDROOT
BRANCH   1   7
ATOM      7  O   UNL     1      33.401 -46.420  -0.337  1.00  0.00    -0.341 OA
BRANCH   7   8
ATOM      8  C   UNL     1      33.102 -45.538  -1.411  1.00  0.00     0.282 C 
ATOM      9  C   UNL     1      32.012 -45.414  -3.476  1.00  0.00     0.178 C 
ATOM     10  C   UNL     1      31.688 -43.910  -3.201  1.00  0.00     0.177 C 
ATOM     11  O   UNL     1      32.166 -46.167  -2.276  1.00  0.00    -0.341 OA
ATOM     12  C   UNL     1      31.356 -43.679  -1.714  1.00  0.00     0.179 C 
ATOM     13  C   UNL     1      32.515 -44.217  -0.831  1.00  0.00     0.202 C 
BRANCH   9  14
ATOM     14  C   UNL     1      30.908 -46.071  -4.319  1.00  0.00     0.191 C 
BRANCH  14  15
ATOM     15  O   UNL     1      31.016 -47.472  -4.273  1.00  0.00    -0.394 OA
ATOM     16  H   UNL     1      30.419 -47.773  -3.531  1.00  0.00     0.210 HD
ENDBRANCH  14  15
ENDBRANCH   9  14
BRANCH  10  17
ATOM     17  O   UNL     1      32.803 -43.134  -3.563  1.00  0.00    -0.387 OA
ATOM     18  H   UNL     1      33.524 -43.768  -3.833  1.00  0.00     0.211 HD
ENDBRANCH  10  17
BRANCH  12  19
ATOM     19  O   UNL     1      30.090 -44.238  -1.428  1.00  0.00    -0.387 OA
ATOM     20  H   UNL     1      29.907 -44.191  -0.450  1.00  0.00     0.211 HD
ENDBRANCH  12  19
BRANCH  13  21
ATOM     21  O   UNL     1      32.070 -44.383   0.497  1.00  0.00    -0.385 OA
ATOM     22  H   UNL     1      31.429 -43.644   0.673  1.00  0.00     0.211 HD
ENDBRANCH  13  21
ENDBRANCH   7   8
ENDBRANCH   1   7
BRANCH   2  23
ATOM     23  C   UNL     1      34.744 -48.772  -2.671  1.00  0.00     0.191 C 
BRANCH  23  24
ATOM     24  O   UNL     1      33.453 -48.647  -3.197  1.00  0.00    -0.394 OA
ATOM     25  H   UNL     1      32.940 -48.109  -2.543  1.00  0.00     0.210 HD
ENDBRANCH  23  24
ENDBRANCH   2  23
BRANCH   6  26
ATOM     26  O   UNL     1      32.668 -49.969   0.209  1.00  0.00    -0.387 OA
ATOM     27  H   UNL     1      32.585 -50.490   1.058  1.00  0.00     0.211 HD
ENDBRANCH   6  26
BRANCH   5  28
ATOM     28  O   UNL     1      34.008 -47.303   2.236  1.00  0.00    -0.385 OA
ATOM     29  H   UNL     1      33.257 -46.795   1.844  1.00  0.00     0.211 HD
ENDBRANCH   5  28
BRANCH   4  30
ATOM     30  O   UNL     1      36.313 -49.612   1.736  1.00  0.00    -0.341 OA
BRANCH  30  31
ATOM     31  C   UNL     1      36.991 -48.933   2.785  1.00  0.00     0.184 C 
ATOM     32  C   UNL     1      38.411 -49.545   2.869  1.00  0.00     0.178 C 
ATOM     33  C   UNL     1      36.251 -49.128   4.147  1.00  0.00     0.180 C 
ATOM     34  O   UNL     1      38.330 -50.897   3.289  1.00  0.00    -0.342 OA
ATOM     35  C   UNL     1      37.132 -49.804   5.219  1.00  0.00     0.201 C 
ATOM     36  C   UNL     1      37.831 -51.053   4.620  1.00  0.00     0.279 C 
BRANCH  32  37
ATOM     37  C   UNL     1      39.145 -49.497   1.516  1.00  0.00     0.191 C 
BRANCH  37  38
ATOM     38  O   UNL     1      38.820 -50.611   0.733  1.00  0.00    -0.394 OA
ATOM     39  H   UNL     1      38.507 -51.321   1.353  1.00  0.00     0.210 HD
ENDBRANCH  37  38
ENDBRANCH  32  37
BRANCH  33  40
ATOM     40  O   UNL     1      35.761 -47.903   4.620  1.00  0.00    -0.387 OA
ATOM     41  H   UNL     1      34.910 -48.074   5.096  1.00  0.00     0.211 HD
ENDBRANCH  33  40
BRANCH  35  42
ATOM     42  O   UNL     1      36.340 -50.188   6.312  1.00  0.00    -0.385 OA
ATOM     43  H   UNL     1      36.730 -49.760   7.122  1.00  0.00     0.211 HD
ENDBRANCH  35  42
BRANCH  36  44
ATOM     44  O   UNL     1      38.887 -51.469   5.448  1.00  0.00    -0.366 OA
ATOM     45  H   UNL     1      39.615 -50.804   5.330  1.00  0.00     0.213 HD
ENDBRANCH  36  44
ENDBRANCH  30  31
ENDBRANCH   4  30
TORSDOF 18
ENDMDL
MODEL 4
REMARK VINA RESULT:    -6.416      3.250      6.890
REMARK INTER + INTRA:         -13.180
REMARK INTER:                 -10.775
REMARK INTRA:                  -2.405
REMARK UNBOUND:                -2.076
REMARK SMILES OC[C@@H]1O[C@H](O[C@@H]2[C@@H](O)[C@H](O)[C@@H](O[C@H]3[C@H](O)[C@@H](O)[C@H](O)O[C@H]3CO)O[C@H]2CO)[C@H](O)[C@H](O)[C@H]1O
REMARK SMILES IDX 7 1 26 2 25 3 12 4 10 5 8 6 6 7 5 8 3 9 33 10 4 11 31 12
REMARK SMILES IDX 29 13 2 14 1 15 34 17 32 19 30 21 27 23 28 24 9 26 11 28
REMARK SMILES IDX 13 30 14 31 22 32 15 33 21 34 17 35 19 36 23 37 24 38 16 40
REMARK SMILES IDX 18 42 20 44
REMARK H PARENT 1 16 34 18 32 20 30 22 28 25 9 27 11 29 24 39 16 41 18 43
REMARK H PARENT 20 45
REMARK Flexibility Score: inf
ROOT
ATOM      1  C   UNL     1      38.017 -51.735   5.068  1.00  0.00     0.184 C 
ATOM      2  C   UNL     1      38.625 -50.776   3.988  1.00  0.00     0.178 C 
ATOM      3  O   UNL     1      37.651 -49.887   3.453  1.00  0.00    -0.341 OA
ATOM      4  C   UNL     1      36.591 -50.632   2.868  1.00  0.00     0.282 C 
ATOM      5  C   UNL     1      35.763 -51.412   3.939  1.00  0.00     0.202 C 
ATOM      6  C   UNL     1      36.516 -51.396   5.292  1.00  0.00     0.180 C 
ENDROOT
BRANCH   1   7
ATOM      7  O   UNL     1      38.089 -53.096   4.660  1.00  0.00    -0.341 OA
BRANCH   7   8
ATOM      8  C   UNL     1      39.399 -53.485   4.267  1.00  0.00     0.282 C 
ATOM      9  C   UNL     1      41.322 -54.585   5.015  1.00  0.00     0.178 C 
ATOM     10  C   UNL     1      41.604 -55.060   3.553  1.00  0.00     0.177 C 
ATOM     11  O   UNL     1      39.936 -54.353   5.255  1.00  0.00    -0.341 OA
ATOM     12  C   UNL     1      40.293 -55.412   2.823  1.00  0.00     0.179 C 
ATOM     13  C   UNL     1      39.319 -54.202   2.887  1.00  0.00     0.202 C 
BRANCH   9  14
ATOM     14  C   UNL     1      41.822 -55.617   6.037  1.00  0.00     0.191 C 
BRANCH  14  15
ATOM     15  O   UNL     1      40.869 -56.634   6.223  1.00  0.00    -0.394 OA
ATOM     16  H   UNL     1      40.052 -56.187   6.584  1.00  0.00     0.210 HD
ENDBRANCH  14  15
ENDBRANCH   9  14
BRANCH  10  17
ATOM     17  O   UNL     1      42.268 -54.030   2.863  1.00  0.00    -0.387 OA
ATOM     18  H   UNL     1      41.954 -53.168   3.253  1.00  0.00     0.211 HD
ENDBRANCH  10  17
BRANCH  12  19
ATOM     19  O   UNL     1      39.773 -56.613   3.354  1.00  0.00    -0.387 OA
ATOM     20  H   UNL     1      40.479 -57.316   3.369  1.00  0.00     0.211 HD
ENDBRANCH  12  19
BRANCH  13  21
ATOM     21  O   UNL     1      38.007 -54.627   2.593  1.00  0.00    -0.385 OA
ATOM     22  H   UNL     1      37.810 -54.315   1.671  1.00  0.00     0.211 HD
ENDBRANCH  13  21
ENDBRANCH   7   8
ENDBRANCH   1   7
BRANCH   2  23
ATOM     23  C   UNL     1      39.815 -49.967   4.543  1.00  0.00     0.191 C 
BRANCH  23  24
ATOM     24  O   UNL     1      39.438 -49.270   5.696  1.00  0.00    -0.394 OA
ATOM     25  H   UNL     1      38.539 -49.606   5.940  1.00  0.00     0.210 HD
ENDBRANCH  23  24
ENDBRANCH   2  23
BRANCH   6  26
ATOM     26  O   UNL     1      36.324 -50.130   5.894  1.00  0.00    -0.387 OA
ATOM     27  H   UNL     1      36.243 -50.244   6.883  1.00  0.00     0.211 HD
ENDBRANCH   6  26
BRANCH   5  28
ATOM     28  O   UNL     1      35.567 -52.743   3.525  1.00  0.00    -0.385 OA
ATOM     29  H   UNL     1      36.098 -53.315   4.129  1.00  0.00     0.211 HD
ENDBRANCH   5  28
BRANCH   4  30
ATOM     30  O   UNL     1      35.821 -49.842   1.969  1.00  0.00    -0.341 OA
BRANCH  30  31
ATOM     31  C   UNL     1      34.895 -48.948   2.572  1.00  0.00     0.184 C 
ATOM     32  C   UNL     1      33.879 -48.548   1.473  1.00  0.00     0.178 C 
ATOM     33  C   UNL     1      35.619 -47.673   3.110  1.00  0.00     0.180 C 
ATOM     34  O   UNL     1      34.530 -47.791   0.466  1.00  0.00    -0.342 OA
ATOM     35  C   UNL     1      35.097 -46.369   2.468  1.00  0.00     0.201 C 
ATOM     36  C   UNL     1      35.021 -46.530   0.927  1.00  0.00     0.279 C 
BRANCH  32  37
ATOM     37  C   UNL     1      33.223 -49.776   0.814  1.00  0.00     0.191 C 
BRANCH  37  38
ATOM     38  O   UNL     1      33.005 -50.789   1.756  1.00  0.00    -0.394 OA
ATOM     39  H   UNL     1      32.979 -50.355   2.649  1.00  0.00     0.210 HD
ENDBRANCH  37  38
ENDBRANCH  32  37
BRANCH  33  40
ATOM     40  O   UNL     1      35.520 -47.603   4.506  1.00  0.00    -0.387 OA
ATOM     41  H   UNL     1      36.144 -46.905   4.825  1.00  0.00     0.211 HD
ENDBRANCH  33  40
BRANCH  35  42
ATOM     42  O   UNL     1      35.956 -45.306   2.788  1.00  0.00    -0.385 OA
ATOM     43  H   UNL     1      36.446 -45.064   1.956  1.00  0.00     0.211 HD
ENDBRANCH  35  42
BRANCH  36  44
ATOM     44  O   UNL     1      34.234 -45.511   0.365  1.00  0.00    -0.366 OA
ATOM     45  H   UNL     1      33.375 -45.513   0.863  1.00  0.00     0.213 HD
ENDBRANCH  36  44
ENDBRANCH  30  31
ENDBRANCH   4  30
TORSDOF 18
ENDMDL
MODEL 5
REMARK VINA RESULT:    -6.352      2.006      4.016
REMARK INTER + INTRA:         -13.069
REMARK INTER:                 -10.010
REMARK INTRA:                  -3.059
REMARK UNBOUND:                -2.076
REMARK SMILES OC[C@@H]1O[C@H](O[C@@H]2[C@@H](O)[C@H](O)[C@@H](O[C@H]3[C@H](O)[C@@H](O)[C@H](O)O[C@H]3CO)O[C@H]2CO)[C@H](O)[C@H](O)[C@H]1O
REMARK SMILES IDX 7 1 26 2 25 3 12 4 10 5 8 6 6 7 5 8 3 9 33 10 4 11 31 12
REMARK SMILES IDX 29 13 2 14 1 15 34 17 32 19 30 21 27 23 28 24 9 26 11 28
REMARK SMILES IDX 13 30 14 31 22 32 15 33 21 34 17 35 19 36 23 37 24 38 16 40
REMARK SMILES IDX 18 42 20 44
REMARK H PARENT 1 16 34 18 32 20 30 22 28 25 9 27 11 29 24 39 16 41 18 43
REMARK H PARENT 20 45
REMARK Flexibility Score: inf
ROOT
ATOM      1  C   UNL     1      34.992 -45.406   2.136  1.00  0.00     0.184 C 
ATOM      2  C   UNL     1      36.195 -45.563   1.144  1.00  0.00     0.178 C 
ATOM      3  O   UNL     1      35.968 -44.879  -0.083  1.00  0.00    -0.341 OA
ATOM      4  C   UNL     1      34.789 -45.379  -0.701  1.00  0.00     0.282 C 
ATOM      5  C   UNL     1      33.505 -45.017   0.112  1.00  0.00     0.202 C 
ATOM      6  C   UNL     1      33.906 -44.486   1.510  1.00  0.00     0.180 C 
ENDROOT
BRANCH   1   7
ATOM      7  O   UNL     1      34.378 -46.658   2.416  1.00  0.00    -0.341 OA
BRANCH   7   8
ATOM      8  C   UNL     1      35.296 -47.744   2.375  1.00  0.00     0.282 C 
ATOM      9  C   UNL     1      36.486 -49.233   3.729  1.00  0.00     0.178 C 
ATOM     10  C   UNL     1      36.388 -50.314   2.605  1.00  0.00     0.177 C 
ATOM     11  O   UNL     1      35.414 -48.296   3.679  1.00  0.00    -0.341 OA
ATOM     12  C   UNL     1      35.021 -50.252   1.895  1.00  0.00     0.179 C 
ATOM     13  C   UNL     1      34.772 -48.810   1.369  1.00  0.00     0.202 C 
BRANCH   9  14
ATOM     14  C   UNL     1      36.493 -49.884   5.120  1.00  0.00     0.191 C 
BRANCH  14  15
ATOM     15  O   UNL     1      36.083 -51.226   5.043  1.00  0.00    -0.394 OA
ATOM     16  H   UNL     1      35.103 -51.230   5.240  1.00  0.00     0.210 HD
ENDBRANCH  14  15
ENDBRANCH   9  14
BRANCH  10  17
ATOM     17  O   UNL     1      37.416 -50.091   1.672  1.00  0.00    -0.387 OA
ATOM     18  H   UNL     1      38.073 -50.834   1.779  1.00  0.00     0.211 HD
ENDBRANCH  10  17
BRANCH  12  19
ATOM     19  O   UNL     1      34.022 -50.741   2.766  1.00  0.00    -0.387 OA
ATOM     20  H   UNL     1      34.226 -50.478   3.704  1.00  0.00     0.211 HD
ENDBRANCH  12  19
BRANCH  13  21
ATOM     21  O   UNL     1      33.402 -48.633   1.087  1.00  0.00    -0.385 OA
ATOM     22  H   UNL     1      33.250 -47.652   1.035  1.00  0.00     0.211 HD
ENDBRANCH  13  21
ENDBRANCH   7   8
ENDBRANCH   1   7
BRANCH   2  23
ATOM     23  C   UNL     1      37.520 -45.081   1.768  1.00  0.00     0.191 C 
BRANCH  23  24
ATOM     24  O   UNL     1      37.334 -43.868   2.439  1.00  0.00    -0.394 OA
ATOM     25  H   UNL     1      36.516 -43.463   2.053  1.00  0.00     0.210 HD
ENDBRANCH  23  24
ENDBRANCH   2  23
BRANCH   6  26
ATOM     26  O   UNL     1      34.337 -43.146   1.371  1.00  0.00    -0.387 OA
ATOM     27  H   UNL     1      33.567 -42.580   1.080  1.00  0.00     0.211 HD
ENDBRANCH   6  26
BRANCH   5  28
ATOM     28  O   UNL     1      32.688 -46.154   0.257  1.00  0.00    -0.385 OA
ATOM     29  H   UNL     1      32.680 -46.384   1.218  1.00  0.00     0.211 HD
ENDBRANCH   5  28
BRANCH   4  30
ATOM     30  O   UNL     1      34.737 -45.053  -2.085  1.00  0.00    -0.341 OA
BRANCH  30  31
ATOM     31  C   UNL     1      34.944 -46.136  -2.982  1.00  0.00     0.184 C 
ATOM     32  C   UNL     1      33.825 -46.052  -4.049  1.00  0.00     0.178 C 
ATOM     33  C   UNL     1      34.858 -47.505  -2.234  1.00  0.00     0.180 C 
ATOM     34  O   UNL     1      32.564 -46.299  -3.448  1.00  0.00    -0.342 OA
ATOM     35  C   UNL     1      33.748 -48.425  -2.788  1.00  0.00     0.201 C 
ATOM     36  C   UNL     1      32.425 -47.628  -2.938  1.00  0.00     0.279 C 
BRANCH  32  37
ATOM     37  C   UNL     1      33.778 -44.674  -4.735  1.00  0.00     0.191 C 
BRANCH  37  38
ATOM     38  O   UNL     1      33.185 -43.721  -3.897  1.00  0.00    -0.394 OA
ATOM     39  H   UNL     1      32.697 -44.219  -3.190  1.00  0.00     0.210 HD
ENDBRANCH  37  38
ENDBRANCH  32  37
BRANCH  33  40
ATOM     40  O   UNL     1      36.096 -48.161  -2.266  1.00  0.00    -0.387 OA
ATOM     41  H   UNL     1      36.635 -47.767  -2.997  1.00  0.00     0.211 HD
ENDBRANCH  33  40
BRANCH  35  42
ATOM     42  O   UNL     1      33.549 -49.506  -1.916  1.00  0.00    -0.385 OA
ATOM     43  H   UNL     1      32.570 -49.573  -1.750  1.00  0.00     0.211 HD
ENDBRANCH  35  42
BRANCH  36  44
ATOM     44  O   UNL     1      31.520 -48.328  -3.752  1.00  0.00    -0.366 OA
ATOM     45  H   UNL     1      31.986 -49.155  -4.043  1.00  0.00     0.213 HD
ENDBRANCH  36  44
ENDBRANCH  30  31
ENDBRANCH   4  30
TORSDOF 18
ENDMDL
MODEL 6
REMARK VINA RESULT:    -6.256      1.844      3.886
REMARK INTER + INTRA:         -12.904
REMARK INTER:                 -10.485
REMARK INTRA:                  -2.418
REMARK UNBOUND:                -2.076
REMARK SMILES OC[C@@H]1O[C@H](O[C@@H]2[C@@H](O)[C@H](O)[C@@H](O[C@H]3[C@H](O)[C@@H](O)[C@H](O)O[C@H]3CO)O[C@H]2CO)[C@H](O)[C@H](O)[C@H]1O
REMARK SMILES IDX 7 1 26 2 25 3 12 4 10 5 8 6 6 7 5 8 3 9 33 10 4 11 31 12
REMARK SMILES IDX 29 13 2 14 1 15 34 17 32 19 30 21 27 23 28 24 9 26 11 28
REMARK SMILES IDX 13 30 14 31 22 32 15 33 21 34 17 35 19 36 23 37 24 38 16 40
REMARK SMILES IDX 18 42 20 44
REMARK H PARENT 1 16 34 18 32 20 30 22 28 25 9 27 11 29 24 39 16 41 18 43
REMARK H PARENT 20 45
REMARK Flexibility Score: inf
ROOT
ATOM      1  C   UNL     1      34.934 -46.127   2.411  1.00  0.00     0.184 C 
ATOM      2  C   UNL     1      36.044 -46.055   1.306  1.00  0.00     0.178 C 
ATOM      3  O   UNL     1      35.528 -45.603   0.059  1.00  0.00    -0.341 OA
ATOM      4  C   UNL     1      34.494 -46.475  -0.377  1.00  0.00     0.282 C 
ATOM      5  C   UNL     1      33.233 -46.394   0.542  1.00  0.00     0.202 C 
ATOM      6  C   UNL     1      33.581 -45.619   1.837  1.00  0.00     0.180 C 
ENDROOT
BRANCH   1   7
ATOM      7  O   UNL     1      34.731 -47.461   2.862  1.00  0.00    -0.341 OA
BRANCH   7   8
ATOM      8  C   UNL     1      35.850 -48.303   2.614  1.00  0.00     0.282 C 
ATOM      9  C   UNL     1      37.853 -49.069   3.546  1.00  0.00     0.178 C 
ATOM     10  C   UNL     1      37.673 -50.424   2.789  1.00  0.00     0.177 C 
ATOM     11  O   UNL     1      36.610 -48.422   3.809  1.00  0.00    -0.341 OA
ATOM     12  C   UNL     1      36.191 -50.845   2.753  1.00  0.00     0.179 C 
ATOM     13  C   UNL     1      35.337 -49.697   2.146  1.00  0.00     0.202 C 
BRANCH   9  14
ATOM     14  C   UNL     1      38.579 -49.277   4.884  1.00  0.00     0.191 C 
BRANCH  14  15
ATOM     15  O   UNL     1      37.748 -49.942   5.802  1.00  0.00    -0.394 OA
ATOM     16  H   UNL     1      38.039 -50.897   5.800  1.00  0.00     0.210 HD
ENDBRANCH  14  15
ENDBRANCH   9  14
BRANCH  10  17
ATOM     17  O   UNL     1      38.155 -50.275   1.477  1.00  0.00    -0.387 OA
ATOM     18  H   UNL     1      38.133 -49.301   1.266  1.00  0.00     0.211 HD
ENDBRANCH  10  17
BRANCH  12  19
ATOM     19  O   UNL     1      35.792 -51.254   4.044  1.00  0.00    -0.387 OA
ATOM     20  H   UNL     1      34.823 -51.487   4.047  1.00  0.00     0.211 HD
ENDBRANCH  12  19
BRANCH  13  21
ATOM     21  O   UNL     1      33.977 -49.889   2.467  1.00  0.00    -0.385 OA
ATOM     22  H   UNL     1      33.637 -49.012   2.788  1.00  0.00     0.211 HD
ENDBRANCH  13  21
ENDBRANCH   7   8
ENDBRANCH   1   7
BRANCH   2  23
ATOM     23  C   UNL     1      37.223 -45.159   1.734  1.00  0.00     0.191 C 
BRANCH  23  24
ATOM     24  O   UNL     1      36.754 -43.970   2.303  1.00  0.00    -0.394 OA
ATOM     25  H   UNL     1      36.686 -44.139   3.277  1.00  0.00     0.210 HD
ENDBRANCH  23  24
ENDBRANCH   2  23
BRANCH   6  26
ATOM     26  O   UNL     1      33.597 -44.237   1.538  1.00  0.00    -0.387 OA
ATOM     27  H   UNL     1      32.799 -44.011   0.981  1.00  0.00     0.211 HD
ENDBRANCH   6  26
BRANCH   5  28
ATOM     28  O   UNL     1      32.792 -47.690   0.873  1.00  0.00    -0.385 OA
ATOM     29  H   UNL     1      32.941 -47.808   1.842  1.00  0.00     0.211 HD
ENDBRANCH   5  28
BRANCH   4  30
ATOM     30  O   UNL     1      34.234 -46.334  -1.769  1.00  0.00    -0.341 OA
BRANCH  30  31
ATOM     31  C   UNL     1      32.973 -45.770  -2.107  1.00  0.00     0.184 C 
ATOM     32  C   UNL     1      32.483 -46.504  -3.380  1.00  0.00     0.178 C 
ATOM     33  C   UNL     1      33.105 -44.241  -2.398  1.00  0.00     0.180 C 
ATOM     34  O   UNL     1      33.334 -46.200  -4.472  1.00  0.00    -0.342 OA
ATOM     35  C   UNL     1      32.657 -43.859  -3.826  1.00  0.00     0.201 C 
ATOM     36  C   UNL     1      33.299 -44.823  -4.858  1.00  0.00     0.279 C 
BRANCH  32  37
ATOM     37  C   UNL     1      32.453 -48.032  -3.194  1.00  0.00     0.191 C 
BRANCH  37  38
ATOM     38  O   UNL     1      31.424 -48.606  -3.951  1.00  0.00    -0.394 OA
ATOM     39  H   UNL     1      31.116 -47.915  -4.595  1.00  0.00     0.210 HD
ENDBRANCH  37  38
ENDBRANCH  32  37
BRANCH  33  40
ATOM     40  O   UNL     1      32.393 -43.497  -1.448  1.00  0.00    -0.387 OA
ATOM     41  H   UNL     1      31.465 -43.839  -1.420  1.00  0.00     0.211 HD
ENDBRANCH  33  40
BRANCH  35  42
ATOM     42  O   UNL     1      33.046 -42.541  -4.109  1.00  0.00    -0.385 OA
ATOM     43  H   UNL     1      33.098 -42.456  -5.099  1.00  0.00     0.211 HD
ENDBRANCH  35  42
BRANCH  36  44
ATOM     44  O   UNL     1      32.643 -44.723  -6.097  1.00  0.00    -0.366 OA
ATOM     45  H   UNL     1      33.008 -45.448  -6.668  1.00  0.00     0.213 HD
ENDBRANCH  36  44
ENDBRANCH  30  31
ENDBRANCH   4  30
TORSDOF 18
ENDMDL
MODEL 7
REMARK VINA RESULT:    -6.235      1.690      2.990
REMARK INTER + INTRA:         -12.868
REMARK INTER:                 -10.882
REMARK INTRA:                  -1.986
REMARK UNBOUND:                -2.076
REMARK SMILES OC[C@@H]1O[C@H](O[C@@H]2[C@@H](O)[C@H](O)[C@@H](O[C@H]3[C@H](O)[C@@H](O)[C@H](O)O[C@H]3CO)O[C@H]2CO)[C@H](O)[C@H](O)[C@H]1O
REMARK SMILES IDX 7 1 26 2 25 3 12 4 10 5 8 6 6 7 5 8 3 9 33 10 4 11 31 12
REMARK SMILES IDX 29 13 2 14 1 15 34 17 32 19 30 21 27 23 28 24 9 26 11 28
REMARK SMILES IDX 13 30 14 31 22 32 15 33 21 34 17 35 19 36 23 37 24 38 16 40
REMARK SMILES IDX 18 42 20 44
REMARK H PARENT 1 16 34 18 32 20 30 22 28 25 9 27 11 29 24 39 16 41 18 43
REMARK H PARENT 20 45
REMARK Flexibility Score: inf
ROOT
ATOM      1  C   UNL     1      36.574 -46.504   2.448  1.00  0.00     0.184 C 
ATOM      2  C   UNL     1      36.873 -45.648   1.169  1.00  0.00     0.178 C 
ATOM      3  O   UNL     1      35.681 -45.169   0.556  1.00  0.00    -0.341 OA
ATOM      4  C   UNL     1      34.852 -46.267   0.196  1.00  0.00     0.282 C 
ATOM      5  C   UNL     1      34.293 -47.013   1.450  1.00  0.00     0.202 C 
ATOM      6  C   UNL     1      35.043 -46.536   2.718  1.00  0.00     0.180 C 
ENDROOT
BRANCH   1   7
ATOM      7  O   UNL     1      37.006 -47.850   2.288  1.00  0.00    -0.341 OA
BRANCH   7   8
ATOM      8  C   UNL     1      36.728 -48.657   3.426  1.00  0.00     0.282 C 
ATOM      9  C   UNL     1      35.813 -50.706   4.082  1.00  0.00     0.178 C 
ATOM     10  C   UNL     1      36.809 -50.751   5.285  1.00  0.00     0.177 C 
ATOM     11  O   UNL     1      36.315 -49.944   2.987  1.00  0.00    -0.341 OA
ATOM     12  C   UNL     1      38.186 -50.186   4.886  1.00  0.00     0.179 C 
ATOM     13  C   UNL     1      38.013 -48.757   4.299  1.00  0.00     0.202 C 
BRANCH   9  14
ATOM     14  C   UNL     1      35.494 -52.122   3.577  1.00  0.00     0.191 C 
BRANCH  14  15
ATOM     15  O   UNL     1      36.675 -52.808   3.243  1.00  0.00    -0.394 OA
ATOM     16  H   UNL     1      36.984 -52.423   2.374  1.00  0.00     0.210 HD
ENDBRANCH  14  15
ENDBRANCH   9  14
BRANCH  10  17
ATOM     17  O   UNL     1      36.275 -49.993   6.343  1.00  0.00    -0.387 OA
ATOM     18  H   UNL     1      37.045 -49.669   6.887  1.00  0.00     0.211 HD
ENDBRANCH  10  17
BRANCH  12  19
ATOM     19  O   UNL     1      38.832 -51.100   4.025  1.00  0.00    -0.387 OA
ATOM     20  H   UNL     1      39.416 -51.713   4.550  1.00  0.00     0.211 HD
ENDBRANCH  12  19
BRANCH  13  21
ATOM     21  O   UNL     1      39.167 -48.392   3.574  1.00  0.00    -0.385 OA
ATOM     22  H   UNL     1      39.011 -47.468   3.245  1.00  0.00     0.211 HD
ENDBRANCH  13  21
ENDBRANCH   7   8
ENDBRANCH   1   7
BRANCH   2  23
ATOM     23  C   UNL     1      37.809 -44.462   1.478  1.00  0.00     0.191 C 
BRANCH  23  24
ATOM     24  O   UNL     1      37.277 -43.671   2.502  1.00  0.00    -0.394 OA
ATOM     25  H   UNL     1      36.896 -42.870   2.061  1.00  0.00     0.210 HD
ENDBRANCH  23  24
ENDBRANCH   2  23
BRANCH   6  26
ATOM     26  O   UNL     1      34.527 -45.274   3.093  1.00  0.00    -0.387 OA
ATOM     27  H   UNL     1      33.567 -45.373   3.351  1.00  0.00     0.211 HD
ENDBRANCH   6  26
BRANCH   5  28
ATOM     28  O   UNL     1      34.458 -48.402   1.300  1.00  0.00    -0.385 OA
ATOM     29  H   UNL     1      34.887 -48.549   0.422  1.00  0.00     0.211 HD
ENDBRANCH   5  28
BRANCH   4  30
ATOM     30  O   UNL     1      33.875 -45.899  -0.771  1.00  0.00    -0.341 OA
BRANCH  30  31
ATOM     31  C   UNL     1      34.124 -46.341  -2.099  1.00  0.00     0.184 C 
ATOM     32  C   UNL     1      33.472 -45.302  -3.045  1.00  0.00     0.178 C 
ATOM     33  C   UNL     1      33.494 -47.748  -2.346  1.00  0.00     0.180 C 
ATOM     34  O   UNL     1      32.062 -45.332  -2.898  1.00  0.00    -0.342 OA
ATOM     35  C   UNL     1      32.457 -47.751  -3.491  1.00  0.00     0.201 C 
ATOM     36  C   UNL     1      31.471 -46.566  -3.315  1.00  0.00     0.279 C 
BRANCH  32  37
ATOM     37  C   UNL     1      33.962 -43.870  -2.761  1.00  0.00     0.191 C 
BRANCH  37  38
ATOM     38  O   UNL     1      33.218 -43.285  -1.728  1.00  0.00    -0.394 OA
ATOM     39  H   UNL     1      32.993 -44.008  -1.086  1.00  0.00     0.210 HD
ENDBRANCH  37  38
ENDBRANCH  32  37
BRANCH  33  40
ATOM     40  O   UNL     1      34.494 -48.698  -2.593  1.00  0.00    -0.387 OA
ATOM     41  H   UNL     1      34.462 -49.374  -1.871  1.00  0.00     0.211 HD
ENDBRANCH  33  40
BRANCH  35  42
ATOM     42  O   UNL     1      31.745 -48.960  -3.485  1.00  0.00    -0.385 OA
ATOM     43  H   UNL     1      32.416 -49.696  -3.499  1.00  0.00     0.211 HD
ENDBRANCH  35  42
BRANCH  36  44
ATOM     44  O   UNL     1      30.757 -46.341  -4.504  1.00  0.00    -0.366 OA
ATOM     45  H   UNL     1      29.897 -46.828  -4.411  1.00  0.00     0.213 HD
ENDBRANCH  36  44
ENDBRANCH  30  31
ENDBRANCH   4  30
TORSDOF 18
ENDMDL
MODEL 8
REMARK VINA RESULT:    -6.119      2.227      9.409
REMARK INTER + INTRA:         -12.666
REMARK INTER:                 -10.667
REMARK INTRA:                  -2.000
REMARK UNBOUND:                -2.076
REMARK SMILES OC[C@@H]1O[C@H](O[C@@H]2[C@@H](O)[C@H](O)[C@@H](O[C@H]3[C@H](O)[C@@H](O)[C@H](O)O[C@H]3CO)O[C@H]2CO)[C@H](O)[C@H](O)[C@H]1O
REMARK SMILES IDX 7 1 26 2 25 3 12 4 10 5 8 6 6 7 5 8 3 9 33 10 4 11 31 12
REMARK SMILES IDX 29 13 2 14 1 15 34 17 32 19 30 21 27 23 28 24 9 26 11 28
REMARK SMILES IDX 13 30 14 31 22 32 15 33 21 34 17 35 19 36 23 37 24 38 16 40
REMARK SMILES IDX 18 42 20 44
REMARK H PARENT 1 16 34 18 32 20 30 22 28 25 9 27 11 29 24 39 16 41 18 43
REMARK H PARENT 20 45
REMARK Flexibility Score: inf
ROOT
ATOM      1  C   UNL     1      32.805 -45.718  -4.134  1.00  0.00     0.184 C 
ATOM      2  C   UNL     1      34.346 -45.866  -3.889  1.00  0.00     0.178 C 
ATOM      3  O   UNL     1      34.633 -46.743  -2.805  1.00  0.00    -0.341 OA
ATOM      4  C   UNL     1      34.019 -46.256  -1.619  1.00  0.00     0.282 C 
ATOM      5  C   UNL     1      32.460 -46.334  -1.693  1.00  0.00     0.202 C 
ATOM      6  C   UNL     1      32.022 -46.630  -3.149  1.00  0.00     0.180 C 
ENDROOT
BRANCH   1   7
ATOM      7  O   UNL     1      32.367 -44.381  -3.916  1.00  0.00    -0.341 OA
BRANCH   7   8
ATOM      8  C   UNL     1      31.332 -43.988  -4.809  1.00  0.00     0.282 C 
ATOM      9  C   UNL     1      29.029 -43.608  -4.944  1.00  0.00     0.178 C 
ATOM     10  C   UNL     1      29.287 -42.506  -6.021  1.00  0.00     0.177 C 
ATOM     11  O   UNL     1      30.139 -43.782  -4.066  1.00  0.00    -0.341 OA
ATOM     12  C   UNL     1      30.563 -41.705  -5.699  1.00  0.00     0.179 C 
ATOM     13  C   UNL     1      31.763 -42.679  -5.534  1.00  0.00     0.202 C 
BRANCH   9  14
ATOM     14  C   UNL     1      27.792 -43.273  -4.096  1.00  0.00     0.191 C 
BRANCH  14  15
ATOM     15  O   UNL     1      27.511 -41.897  -4.150  1.00  0.00    -0.394 OA
ATOM     16  H   UNL     1      27.723 -41.606  -5.082  1.00  0.00     0.210 HD
ENDBRANCH  14  15
ENDBRANCH   9  14
BRANCH  10  17
ATOM     17  O   UNL     1      29.420 -43.123  -7.277  1.00  0.00    -0.387 OA
ATOM     18  H   UNL     1      29.322 -44.105  -7.131  1.00  0.00     0.211 HD
ENDBRANCH  10  17
BRANCH  12  19
ATOM     19  O   UNL     1      30.322 -40.876  -4.581  1.00  0.00    -0.387 OA
ATOM     20  H   UNL     1      30.498 -39.924  -4.815  1.00  0.00     0.211 HD
ENDBRANCH  12  19
BRANCH  13  21
ATOM     21  O   UNL     1      32.819 -42.031  -4.861  1.00  0.00    -0.385 OA
ATOM     22  H   UNL     1      33.011 -41.200  -5.371  1.00  0.00     0.211 HD
ENDBRANCH  13  21
ENDBRANCH   7   8
ENDBRANCH   1   7
BRANCH   2  23
ATOM     23  C   UNL     1      35.085 -46.346  -5.154  1.00  0.00     0.191 C 
BRANCH  23  24
ATOM     24  O   UNL     1      34.419 -47.435  -5.727  1.00  0.00    -0.394 OA
ATOM     25  H   UNL     1      34.030 -47.104  -6.575  1.00  0.00     0.210 HD
ENDBRANCH  23  24
ENDBRANCH   2  23
BRANCH   6  26
ATOM     26  O   UNL     1      32.220 -48.007  -3.402  1.00  0.00    -0.387 OA
ATOM     27  H   UNL     1      32.459 -48.468  -2.549  1.00  0.00     0.211 HD
ENDBRANCH   6  26
BRANCH   5  28
ATOM     28  O   UNL     1      31.895 -45.117  -1.269  1.00  0.00    -0.385 OA
ATOM     29  H   UNL     1      32.634 -44.559  -0.923  1.00  0.00     0.211 HD
ENDBRANCH   5  28
BRANCH   4  30
ATOM     30  O   UNL     1      34.595 -46.829  -0.451  1.00  0.00    -0.341 OA
BRANCH  30  31
ATOM     31  C   UNL     1      33.680 -47.426   0.459  1.00  0.00     0.184 C 
ATOM     32  C   UNL     1      33.851 -46.689   1.811  1.00  0.00     0.178 C 
ATOM     33  C   UNL     1      33.988 -48.946   0.645  1.00  0.00     0.180 C 
ATOM     34  O   UNL     1      35.138 -46.953   2.346  1.00  0.00    -0.342 OA
ATOM     35  C   UNL     1      34.309 -49.321   2.108  1.00  0.00     0.201 C 
ATOM     36  C   UNL     1      35.341 -48.324   2.697  1.00  0.00     0.279 C 
BRANCH  32  37
ATOM     37  C   UNL     1      33.684 -45.165   1.667  1.00  0.00     0.191 C 
BRANCH  37  38
ATOM     38  O   UNL     1      32.336 -44.826   1.501  1.00  0.00    -0.394 OA
ATOM     39  H   UNL     1      31.918 -45.547   0.960  1.00  0.00     0.210 HD
ENDBRANCH  37  38
ENDBRANCH  32  37
BRANCH  33  40
ATOM     40  O   UNL     1      32.928 -49.725   0.162  1.00  0.00    -0.387 OA
ATOM     41  H   UNL     1      32.836 -49.554  -0.808  1.00  0.00     0.211 HD
ENDBRANCH  33  40
BRANCH  35  42
ATOM     42  O   UNL     1      34.830 -50.623   2.161  1.00  0.00    -0.385 OA
ATOM     43  H   UNL     1      34.903 -50.949   1.224  1.00  0.00     0.211 HD
ENDBRANCH  35  42
BRANCH  36  44
ATOM     44  O   UNL     1      35.379 -48.427   4.098  1.00  0.00    -0.366 OA
ATOM     45  H   UNL     1      35.134 -47.532   4.452  1.00  0.00     0.213 HD
ENDBRANCH  36  44
ENDBRANCH  30  31
ENDBRANCH   4  30
TORSDOF 18
ENDMDL
MODEL 9
REMARK VINA RESULT:    -6.037      1.797      8.600
REMARK INTER + INTRA:         -12.524
REMARK INTER:                  -9.835
REMARK INTRA:                  -2.689
REMARK UNBOUND:                -2.076
REMARK SMILES OC[C@@H]1O[C@H](O[C@@H]2[C@@H](O)[C@H](O)[C@@H](O[C@H]3[C@H](O)[C@@H](O)[C@H](O)O[C@H]3CO)O[C@H]2CO)[C@H](O)[C@H](O)[C@H]1O
REMARK SMILES IDX 7 1 26 2 25 3 12 4 10 5 8 6 6 7 5 8 3 9 33 10 4 11 31 12
REMARK SMILES IDX 29 13 2 14 1 15 34 17 32 19 30 21 27 23 28 24 9 26 11 28
REMARK SMILES IDX 13 30 14 31 22 32 15 33 21 34 17 35 19 36 23 37 24 38 16 40
REMARK SMILES IDX 18 42 20 44
REMARK H PARENT 1 16 34 18 32 20 30 22 28 25 9 27 11 29 24 39 16 41 18 43
REMARK H PARENT 20 45
REMARK Flexibility Score: inf
ROOT
ATOM      1  C   UNL     1      33.715 -47.686  -2.920  1.00  0.00     0.184 C 
ATOM      2  C   UNL     1      35.232 -47.954  -2.633  1.00  0.00     0.178 C 
ATOM      3  O   UNL     1      35.446 -48.470  -1.324  1.00  0.00    -0.341 OA
ATOM      4  C   UNL     1      34.947 -47.552  -0.360  1.00  0.00     0.282 C 
ATOM      5  C   UNL     1      33.389 -47.438  -0.411  1.00  0.00     0.202 C 
ATOM      6  C   UNL     1      32.860 -48.122  -1.696  1.00  0.00     0.180 C 
ENDROOT
BRANCH   1   7
ATOM      7  O   UNL     1      33.461 -46.304  -3.145  1.00  0.00    -0.341 OA
BRANCH   7   8
ATOM      8  C   UNL     1      32.136 -46.053  -3.594  1.00  0.00     0.282 C 
ATOM      9  C   UNL     1      30.119 -45.040  -2.983  1.00  0.00     0.178 C 
ATOM     10  C   UNL     1      29.838 -44.722  -4.487  1.00  0.00     0.177 C 
ATOM     11  O   UNL     1      31.512 -45.143  -2.699  1.00  0.00    -0.341 OA
ATOM     12  C   UNL     1      31.136 -44.338  -5.223  1.00  0.00     0.179 C 
ATOM     13  C   UNL     1      32.195 -45.459  -5.032  1.00  0.00     0.202 C 
BRANCH   9  14
ATOM     14  C   UNL     1      29.519 -43.961  -2.069  1.00  0.00     0.191 C 
BRANCH  14  15
ATOM     15  O   UNL     1      30.335 -42.817  -2.049  1.00  0.00    -0.394 OA
ATOM     16  H   UNL     1      31.128 -43.050  -1.489  1.00  0.00     0.210 HD
ENDBRANCH  14  15
ENDBRANCH   9  14
BRANCH  10  17
ATOM     17  O   UNL     1      29.269 -45.857  -5.091  1.00  0.00    -0.387 OA
ATOM     18  H   UNL     1      29.001 -45.592  -6.014  1.00  0.00     0.211 HD
ENDBRANCH  10  17
BRANCH  12  19
ATOM     19  O   UNL     1      31.552 -43.057  -4.795  1.00  0.00    -0.387 OA
ATOM     20  H   UNL     1      31.799 -42.497  -5.580  1.00  0.00     0.211 HD
ENDBRANCH  12  19
BRANCH  13  21
ATOM     21  O   UNL     1      33.479 -44.964  -5.341  1.00  0.00    -0.385 OA
ATOM     22  H   UNL     1      34.077 -45.252  -4.601  1.00  0.00     0.211 HD
ENDBRANCH  13  21
ENDBRANCH   7   8
ENDBRANCH   1   7
BRANCH   2  23
ATOM     23  C   UNL     1      35.852 -48.909  -3.673  1.00  0.00     0.191 C 
BRANCH  23  24
ATOM     24  O   UNL     1      35.169 -50.130  -3.687  1.00  0.00    -0.394 OA
ATOM     25  H   UNL     1      34.310 -49.959  -4.149  1.00  0.00     0.210 HD
ENDBRANCH  23  24
ENDBRANCH   2  23
BRANCH   6  26
ATOM     26  O   UNL     1      32.868 -49.521  -1.492  1.00  0.00    -0.387 OA
ATOM     27  H   UNL     1      33.643 -49.765  -0.910  1.00  0.00     0.211 HD
ENDBRANCH   6  26
BRANCH   5  28
ATOM     28  O   UNL     1      33.003 -46.085  -0.404  1.00  0.00    -0.385 OA
ATOM     29  H   UNL     1      33.033 -45.781   0.536  1.00  0.00     0.211 HD
ENDBRANCH   5  28
BRANCH   4  30
ATOM     30  O   UNL     1      35.490 -47.794   0.933  1.00  0.00    -0.341 OA
BRANCH  30  31
ATOM     31  C   UNL     1      34.586 -48.324   1.893  1.00  0.00     0.184 C 
ATOM     32  C   UNL     1      34.962 -47.694   3.257  1.00  0.00     0.178 C 
ATOM     33  C   UNL     1      34.710 -49.879   1.978  1.00  0.00     0.180 C 
ATOM     34  O   UNL     1      36.245 -48.146   3.661  1.00  0.00    -0.342 OA
ATOM     35  C   UNL     1      35.100 -50.376   3.387  1.00  0.00     0.201 C 
ATOM     36  C   UNL     1      36.298 -49.550   3.927  1.00  0.00     0.279 C 
BRANCH  32  37
ATOM     37  C   UNL     1      34.981 -46.155   3.201  1.00  0.00     0.191 C 
BRANCH  37  38
ATOM     38  O   UNL     1      33.894 -45.671   2.463  1.00  0.00    -0.394 OA
ATOM     39  H   UNL     1      33.871 -44.686   2.592  1.00  0.00     0.210 HD
ENDBRANCH  37  38
ENDBRANCH  32  37
BRANCH  33  40
ATOM     40  O   UNL     1      33.521 -50.491   1.558  1.00  0.00    -0.387 OA
ATOM     41  H   UNL     1      32.765 -50.031   2.001  1.00  0.00     0.211 HD
ENDBRANCH  33  40
BRANCH  35  42
ATOM     42  O   UNL     1      35.452 -51.733   3.332  1.00  0.00    -0.385 OA
ATOM     43  H   UNL     1      36.039 -51.917   4.115  1.00  0.00     0.211 HD
ENDBRANCH  35  42
BRANCH  36  44
ATOM     44  O   UNL     1      36.439 -49.738   5.312  1.00  0.00    -0.366 OA
ATOM     45  H   UNL     1      37.280 -50.250   5.442  1.00  0.00     0.213 HD
ENDBRANCH  36  44
ENDBRANCH  30  31
ENDBRANCH   4  30
TORSDOF 18
ENDMDL
