MODEL 1
REMARK VINA RESULT:    -5.306      0.000      0.000
REMARK INTER + INTRA:         -12.163
REMARK INTER:                  -9.959
REMARK INTRA:                  -2.204
REMARK UNBOUND:                -2.204
REMARK SMILES CCCCCCCCC=CCCCCCCCC(=O)[O-]
REMARK SMILES IDX 10 1 9 2 11 3 12 4 13 5 14 6 15 7 16 8 17 9 18 10 19 11
REMARK SMILES IDX 20 12 8 13 7 14 6 15 5 16 4 17 3 18 2 19 1 20
REMARK H PARENT
REMARK Flexibility Score: inf
ROOT
ATOM      1  C   UNL     1      36.312  17.425  33.617  1.00  0.00    -0.031 C 
ATOM      2  C   UNL     1      37.553  17.929  33.473  1.00  0.00    -0.031 C 
ENDROOT
BRANCH   1   3
ATOM      3  C   UNL     1      35.085  18.219  33.998  1.00  0.00     0.027 C 
BRANCH   3   4
ATOM      4  C   UNL     1      34.009  18.157  32.904  1.00  0.00     0.004 C 
BRANCH   4   5
ATOM      5  C   UNL     1      34.589  18.404  31.501  1.00  0.00     0.000 C 
BRANCH   5   6
ATOM      6  C   UNL     1      33.837  17.629  30.405  1.00  0.00     0.000 C 
BRANCH   6   7
ATOM      7  C   UNL     1      34.311  16.172  30.276  1.00  0.00     0.000 C 
BRANCH   7   8
ATOM      8  C   UNL     1      34.816  15.881  28.858  1.00  0.00     0.006 C 
BRANCH   8   9
ATOM      9  C   UNL     1      33.664  15.901  27.849  1.00  0.00     0.053 C 
BRANCH   9  10
ATOM     10  C   UNL     1      34.001  16.777  26.683  1.00  0.00     0.041 C 
ATOM     11  O   UNL     1      33.210  16.863  25.707  1.00  0.00    -0.550 OA
ATOM     12  O   UNL     1      35.170  17.526  26.692  1.00  0.00    -0.550 OA
ENDBRANCH   9  10
ENDBRANCH   8   9
ENDBRANCH   7   8
ENDBRANCH   6   7
ENDBRANCH   5   6
ENDBRANCH   4   5
ENDBRANCH   3   4
ENDBRANCH   1   3
BRANCH   2  13
ATOM     13  C   UNL     1      37.946  19.368  33.700  1.00  0.00     0.027 C 
BRANCH  13  14
ATOM     14  C   UNL     1      38.698  19.997  32.513  1.00  0.00     0.004 C 
BRANCH  14  15
ATOM     15  C   UNL     1      40.041  19.321  32.188  1.00  0.00     0.000 C 
BRANCH  15  16
ATOM     16  C   UNL     1      40.383  19.340  30.688  1.00  0.00     0.000 C 
BRANCH  16  17
ATOM     17  C   UNL     1      40.283  17.950  30.042  1.00  0.00    -0.000 C 
BRANCH  17  18
ATOM     18  C   UNL     1      38.864  17.362  30.129  1.00  0.00    -0.000 C 
BRANCH  18  19
ATOM     19  C   UNL     1      37.985  17.767  28.936  1.00  0.00    -0.003 C 
ATOM     20  C   UNL     1      37.133  19.002  29.222  1.00  0.00     0.004 C 
ENDBRANCH  18  19
ENDBRANCH  17  18
ENDBRANCH  16  17
ENDBRANCH  15  16
ENDBRANCH  14  15
ENDBRANCH  13  14
ENDBRANCH   2  13
TORSDOF 15
ENDMDL
MODEL 2
REMARK VINA RESULT:    -5.271      1.186      2.537
REMARK INTER + INTRA:         -12.098
REMARK INTER:                  -9.346
REMARK INTRA:                  -2.752
REMARK UNBOUND:                -2.204
REMARK SMILES CCCCCCCCC=CCCCCCCCC(=O)[O-]
REMARK SMILES IDX 10 1 9 2 11 3 12 4 13 5 14 6 15 7 16 8 17 9 18 10 19 11
REMARK SMILES IDX 20 12 8 13 7 14 6 15 5 16 4 17 3 18 2 19 1 20
REMARK H PARENT
REMARK Flexibility Score: inf
ROOT
ATOM      1  C   UNL     1      37.847  19.547  33.309  1.00  0.00    -0.031 C 
ATOM      2  C   UNL     1      38.872  20.046  32.590  1.00  0.00    -0.031 C 
ENDROOT
BRANCH   1   3
ATOM      3  C   UNL     1      37.767  18.144  33.859  1.00  0.00     0.027 C 
BRANCH   3   4
ATOM      4  C   UNL     1      36.546  17.390  33.310  1.00  0.00     0.004 C 
BRANCH   4   5
ATOM      5  C   UNL     1      35.243  17.795  34.021  1.00  0.00     0.000 C 
BRANCH   5   6
ATOM      6  C   UNL     1      34.157  18.269  33.041  1.00  0.00     0.000 C 
BRANCH   6   7
ATOM      7  C   UNL     1      34.668  18.378  31.596  1.00  0.00     0.000 C 
BRANCH   7   8
ATOM      8  C   UNL     1      33.834  17.506  30.649  1.00  0.00     0.006 C 
BRANCH   8   9
ATOM      9  C   UNL     1      34.515  16.157  30.402  1.00  0.00     0.053 C 
BRANCH   9  10
ATOM     10  C   UNL     1      34.316  15.719  28.984  1.00  0.00     0.041 C 
ATOM     11  O   UNL     1      33.231  15.962  28.393  1.00  0.00    -0.550 OA
ATOM     12  O   UNL     1      35.343  15.076  28.305  1.00  0.00    -0.550 OA
ENDBRANCH   9  10
ENDBRANCH   8   9
ENDBRANCH   7   8
ENDBRANCH   6   7
ENDBRANCH   5   6
ENDBRANCH   4   5
ENDBRANCH   3   4
ENDBRANCH   1   3
BRANCH   2  13
ATOM     13  C   UNL     1      40.106  19.281  32.177  1.00  0.00     0.027 C 
BRANCH  13  14
ATOM     14  C   UNL     1      40.378  19.319  30.663  1.00  0.00     0.004 C 
BRANCH  14  15
ATOM     15  C   UNL     1      40.512  17.931  30.012  1.00  0.00     0.000 C 
BRANCH  15  16
ATOM     16  C   UNL     1      39.682  16.847  30.721  1.00  0.00     0.000 C 
BRANCH  16  17
ATOM     17  C   UNL     1      38.211  16.847  30.280  1.00  0.00    -0.000 C 
BRANCH  17  18
ATOM     18  C   UNL     1      38.041  17.232  28.799  1.00  0.00    -0.000 C 
BRANCH  18  19
ATOM     19  C   UNL     1      37.028  18.369  28.599  1.00  0.00    -0.003 C 
ATOM     20  C   UNL     1      36.309  18.290  27.254  1.00  0.00     0.004 C 
ENDBRANCH  18  19
ENDBRANCH  17  18
ENDBRANCH  16  17
ENDBRANCH  15  16
ENDBRANCH  14  15
ENDBRANCH  13  14
ENDBRANCH   2  13
TORSDOF 15
ENDMDL
MODEL 3
REMARK VINA RESULT:    -5.252      1.349      2.684
REMARK INTER + INTRA:         -12.061
REMARK INTER:                  -9.505
REMARK INTRA:                  -2.556
REMARK UNBOUND:                -2.204
REMARK SMILES CCCCCCCCC=CCCCCCCCC(=O)[O-]
REMARK SMILES IDX 10 1 9 2 11 3 12 4 13 5 14 6 15 7 16 8 17 9 18 10 19 11
REMARK SMILES IDX 20 12 8 13 7 14 6 15 5 16 4 17 3 18 2 19 1 20
REMARK H PARENT
REMARK Flexibility Score: inf
ROOT
ATOM      1  C   UNL     1      34.116  18.273  33.036  1.00  0.00    -0.031 C 
ATOM      2  C   UNL     1      34.939  18.009  34.070  1.00  0.00    -0.031 C 
ENDROOT
BRANCH   1   3
ATOM      3  C   UNL     1      34.556  18.552  31.618  1.00  0.00     0.027 C 
BRANCH   3   4
ATOM      4  C   UNL     1      33.961  17.534  30.632  1.00  0.00     0.004 C 
BRANCH   4   5
ATOM      5  C   UNL     1      34.327  16.086  30.997  1.00  0.00     0.000 C 
BRANCH   5   6
ATOM      6  C   UNL     1      34.112  15.108  29.829  1.00  0.00     0.000 C 
BRANCH   6   7
ATOM      7  C   UNL     1      33.204  15.686  28.732  1.00  0.00     0.000 C 
BRANCH   7   8
ATOM      8  C   UNL     1      33.914  15.687  27.372  1.00  0.00     0.006 C 
BRANCH   8   9
ATOM      9  C   UNL     1      34.302  17.108  26.956  1.00  0.00     0.053 C 
BRANCH   9  10
ATOM     10  C   UNL     1      35.743  17.371  27.260  1.00  0.00     0.041 C 
ATOM     11  O   UNL     1      36.234  18.514  27.064  1.00  0.00    -0.550 OA
ATOM     12  O   UNL     1      36.535  16.364  27.797  1.00  0.00    -0.550 OA
ENDBRANCH   9  10
ENDBRANCH   8   9
ENDBRANCH   7   8
ENDBRANCH   6   7
ENDBRANCH   5   6
ENDBRANCH   4   5
ENDBRANCH   3   4
ENDBRANCH   1   3
BRANCH   2  13
ATOM     13  C   UNL     1      36.447  17.979  34.003  1.00  0.00     0.027 C 
BRANCH  13  14
ATOM     14  C   UNL     1      37.019  16.609  33.597  1.00  0.00     0.004 C 
BRANCH  14  15
ATOM     15  C   UNL     1      38.195  16.686  32.608  1.00  0.00     0.000 C 
BRANCH  15  16
ATOM     16  C   UNL     1      37.746  16.757  31.138  1.00  0.00     0.000 C 
BRANCH  16  17
ATOM     17  C   UNL     1      38.063  18.112  30.488  1.00  0.00    -0.000 C 
BRANCH  17  18
ATOM     18  C   UNL     1      39.553  18.481  30.596  1.00  0.00    -0.000 C 
BRANCH  18  19
ATOM     19  C   UNL     1      39.778  19.813  31.328  1.00  0.00    -0.003 C 
ATOM     20  C   UNL     1      38.500  20.363  31.960  1.00  0.00     0.004 C 
ENDBRANCH  18  19
ENDBRANCH  17  18
ENDBRANCH  16  17
ENDBRANCH  15  16
ENDBRANCH  14  15
ENDBRANCH  13  14
ENDBRANCH   2  13
TORSDOF 15
ENDMDL
MODEL 4
REMARK VINA RESULT:    -5.247      1.294      4.701
REMARK INTER + INTRA:         -12.051
REMARK INTER:                  -9.342
REMARK INTRA:                  -2.709
REMARK UNBOUND:                -2.204
REMARK SMILES CCCCCCCCC=CCCCCCCCC(=O)[O-]
REMARK SMILES IDX 10 1 9 2 11 3 12 4 13 5 14 6 15 7 16 8 17 9 18 10 19 11
REMARK SMILES IDX 20 12 8 13 7 14 6 15 5 16 4 17 3 18 2 19 1 20
REMARK H PARENT
REMARK Flexibility Score: inf
ROOT
ATOM      1  C   UNL     1      38.931  19.872  32.858  1.00  0.00    -0.031 C 
ATOM      2  C   UNL     1      37.757  19.290  33.170  1.00  0.00    -0.031 C 
ENDROOT
BRANCH   1   3
ATOM      3  C   UNL     1      40.290  19.232  33.008  1.00  0.00     0.027 C 
BRANCH   3   4
ATOM      4  C   UNL     1      41.007  19.103  31.655  1.00  0.00     0.004 C 
BRANCH   4   5
ATOM      5  C   UNL     1      40.183  18.301  30.633  1.00  0.00     0.000 C 
BRANCH   5   6
ATOM      6  C   UNL     1      40.071  16.812  31.001  1.00  0.00     0.000 C 
BRANCH   6   7
ATOM      7  C   UNL     1      39.033  16.066  30.147  1.00  0.00     0.000 C 
BRANCH   7   8
ATOM      8  C   UNL     1      37.884  16.997  29.739  1.00  0.00     0.006 C 
BRANCH   8   9
ATOM      9  C   UNL     1      37.555  16.843  28.251  1.00  0.00     0.053 C 
BRANCH   9  10
ATOM     10  C   UNL     1      36.651  17.944  27.796  1.00  0.00     0.041 C 
ATOM     11  O   UNL     1      36.814  19.117  28.226  1.00  0.00    -0.550 OA
ATOM     12  O   UNL     1      35.651  17.684  26.867  1.00  0.00    -0.550 OA
ENDBRANCH   9  10
ENDBRANCH   8   9
ENDBRANCH   7   8
ENDBRANCH   6   7
ENDBRANCH   5   6
ENDBRANCH   4   5
ENDBRANCH   3   4
ENDBRANCH   1   3
BRANCH   2  13
ATOM     13  C   UNL     1      37.592  17.909  33.757  1.00  0.00     0.027 C 
BRANCH  13  14
ATOM     14  C   UNL     1      36.344  17.166  33.246  1.00  0.00     0.004 C 
BRANCH  14  15
ATOM     15  C   UNL     1      35.013  17.851  33.604  1.00  0.00     0.000 C 
BRANCH  15  16
ATOM     16  C   UNL     1      34.206  18.288  32.369  1.00  0.00     0.000 C 
BRANCH  16  17
ATOM     17  C   UNL     1      34.772  17.716  31.061  1.00  0.00    -0.000 C 
BRANCH  17  18
ATOM     18  C   UNL     1      33.672  17.165  30.136  1.00  0.00    -0.000 C 
BRANCH  18  19
ATOM     19  C   UNL     1      34.008  15.769  29.590  1.00  0.00    -0.003 C 
ATOM     20  C   UNL     1      34.877  14.953  30.546  1.00  0.00     0.004 C 
ENDBRANCH  18  19
ENDBRANCH  17  18
ENDBRANCH  16  17
ENDBRANCH  15  16
ENDBRANCH  14  15
ENDBRANCH  13  14
ENDBRANCH   2  13
TORSDOF 15
ENDMDL
MODEL 5
REMARK VINA RESULT:    -5.230      2.713      5.953
REMARK INTER + INTRA:         -12.020
REMARK INTER:                  -9.457
REMARK INTRA:                  -2.563
REMARK UNBOUND:                -2.204
REMARK SMILES CCCCCCCCC=CCCCCCCCC(=O)[O-]
REMARK SMILES IDX 10 1 9 2 11 3 12 4 13 5 14 6 15 7 16 8 17 9 18 10 19 11
REMARK SMILES IDX 20 12 8 13 7 14 6 15 5 16 4 17 3 18 2 19 1 20
REMARK H PARENT
REMARK Flexibility Score: inf
ROOT
ATOM      1  C   UNL     1      34.278  17.918  31.263  1.00  0.00    -0.031 C 
ATOM      2  C   UNL     1      33.670  17.352  30.201  1.00  0.00    -0.031 C 
ENDROOT
BRANCH   1   3
ATOM      3  C   UNL     1      35.162  17.197  32.250  1.00  0.00     0.027 C 
BRANCH   3   4
ATOM      4  C   UNL     1      35.269  17.962  33.579  1.00  0.00     0.004 C 
BRANCH   4   5
ATOM      5  C   UNL     1      36.674  17.865  34.196  1.00  0.00     0.000 C 
BRANCH   5   6
ATOM      6  C   UNL     1      37.406  19.218  34.217  1.00  0.00     0.000 C 
BRANCH   6   7
ATOM      7  C   UNL     1      37.871  19.662  32.820  1.00  0.00     0.000 C 
BRANCH   7   8
ATOM      8  C   UNL     1      39.385  19.905  32.795  1.00  0.00     0.006 C 
BRANCH   8   9
ATOM      9  C   UNL     1      40.153  18.612  33.083  1.00  0.00     0.053 C 
BRANCH   9  10
ATOM     10  C   UNL     1      39.989  17.641  31.956  1.00  0.00     0.041 C 
ATOM     11  O   UNL     1      40.538  17.862  30.844  1.00  0.00    -0.550 OA
ATOM     12  O   UNL     1      39.262  16.473  32.145  1.00  0.00    -0.550 OA
ENDBRANCH   9  10
ENDBRANCH   8   9
ENDBRANCH   7   8
ENDBRANCH   6   7
ENDBRANCH   5   6
ENDBRANCH   4   5
ENDBRANCH   3   4
ENDBRANCH   1   3
BRANCH   2  13
ATOM     13  C   UNL     1      33.738  15.891  29.829  1.00  0.00     0.027 C 
BRANCH  13  14
ATOM     14  C   UNL     1      33.562  15.628  28.323  1.00  0.00     0.004 C 
BRANCH  14  15
ATOM     15  C   UNL     1      33.493  16.904  27.465  1.00  0.00     0.000 C 
BRANCH  15  16
ATOM     16  C   UNL     1      34.706  17.074  26.534  1.00  0.00     0.000 C 
BRANCH  16  17
ATOM     17  C   UNL     1      35.856  17.847  27.198  1.00  0.00    -0.000 C 
BRANCH  17  18
ATOM     18  C   UNL     1      36.907  16.914  27.824  1.00  0.00    -0.000 C 
BRANCH  18  19
ATOM     19  C   UNL     1      37.372  17.396  29.206  1.00  0.00    -0.003 C 
ATOM     20  C   UNL     1      37.286  18.913  29.363  1.00  0.00     0.004 C 
ENDBRANCH  18  19
ENDBRANCH  17  18
ENDBRANCH  16  17
ENDBRANCH  15  16
ENDBRANCH  14  15
ENDBRANCH  13  14
ENDBRANCH   2  13
TORSDOF 15
ENDMDL
MODEL 6
REMARK VINA RESULT:    -5.210      1.215      2.027
REMARK INTER + INTRA:         -11.982
REMARK INTER:                  -9.814
REMARK INTRA:                  -2.168
REMARK UNBOUND:                -2.204
REMARK SMILES CCCCCCCCC=CCCCCCCCC(=O)[O-]
REMARK SMILES IDX 10 1 9 2 11 3 12 4 13 5 14 6 15 7 16 8 17 9 18 10 19 11
REMARK SMILES IDX 20 12 8 13 7 14 6 15 5 16 4 17 3 18 2 19 1 20
REMARK H PARENT
REMARK Flexibility Score: inf
ROOT
ATOM      1  C   UNL     1      35.826  18.644  34.549  1.00  0.00    -0.031 C 
ATOM      2  C   UNL     1      37.007  18.051  34.283  1.00  0.00    -0.031 C 
ENDROOT
BRANCH   1   3
ATOM      3  C   UNL     1      34.471  17.992  34.416  1.00  0.00     0.027 C 
BRANCH   3   4
ATOM      4  C   UNL     1      33.625  18.664  33.323  1.00  0.00     0.004 C 
BRANCH   4   5
ATOM      5  C   UNL     1      34.328  18.657  31.955  1.00  0.00     0.000 C 
BRANCH   5   6
ATOM      6  C   UNL     1      34.386  17.254  31.327  1.00  0.00     0.000 C 
BRANCH   6   7
ATOM      7  C   UNL     1      33.661  17.179  29.973  1.00  0.00     0.000 C 
BRANCH   7   8
ATOM      8  C   UNL     1      34.564  16.559  28.899  1.00  0.00     0.006 C 
BRANCH   8   9
ATOM      9  C   UNL     1      33.758  16.195  27.649  1.00  0.00     0.053 C 
BRANCH   9  10
ATOM     10  C   UNL     1      34.158  17.060  26.495  1.00  0.00     0.041 C 
ATOM     11  O   UNL     1      33.409  17.158  25.487  1.00  0.00    -0.550 OA
ATOM     12  O   UNL     1      35.341  17.786  26.548  1.00  0.00    -0.550 OA
ENDBRANCH   9  10
ENDBRANCH   8   9
ENDBRANCH   7   8
ENDBRANCH   6   7
ENDBRANCH   5   6
ENDBRANCH   4   5
ENDBRANCH   3   4
ENDBRANCH   1   3
BRANCH   2  13
ATOM     13  C   UNL     1      37.184  16.641  33.773  1.00  0.00     0.027 C 
BRANCH  13  14
ATOM     14  C   UNL     1      38.570  16.377  33.159  1.00  0.00     0.004 C 
BRANCH  14  15
ATOM     15  C   UNL     1      39.725  17.096  33.878  1.00  0.00     0.000 C 
BRANCH  15  16
ATOM     16  C   UNL     1      40.531  18.024  32.952  1.00  0.00     0.000 C 
BRANCH  16  17
ATOM     17  C   UNL     1      40.322  19.510  33.278  1.00  0.00    -0.000 C 
BRANCH  17  18
ATOM     18  C   UNL     1      39.302  20.180  32.341  1.00  0.00    -0.000 C 
BRANCH  18  19
ATOM     19  C   UNL     1      39.156  19.437  31.004  1.00  0.00    -0.003 C 
ATOM     20  C   UNL     1      37.703  19.099  30.672  1.00  0.00     0.004 C 
ENDBRANCH  18  19
ENDBRANCH  17  18
ENDBRANCH  16  17
ENDBRANCH  15  16
ENDBRANCH  14  15
ENDBRANCH  13  14
ENDBRANCH   2  13
TORSDOF 15
ENDMDL
MODEL 7
REMARK VINA RESULT:    -5.206      2.756      5.601
REMARK INTER + INTRA:         -11.975
REMARK INTER:                  -9.230
REMARK INTRA:                  -2.745
REMARK UNBOUND:                -2.204
REMARK SMILES CCCCCCCCC=CCCCCCCCC(=O)[O-]
REMARK SMILES IDX 10 1 9 2 11 3 12 4 13 5 14 6 15 7 16 8 17 9 18 10 19 11
REMARK SMILES IDX 20 12 8 13 7 14 6 15 5 16 4 17 3 18 2 19 1 20
REMARK H PARENT
REMARK Flexibility Score: inf
ROOT
ATOM      1  C   UNL     1      34.854  18.598  31.337  1.00  0.00    -0.031 C 
ATOM      2  C   UNL     1      35.932  18.513  30.533  1.00  0.00    -0.031 C 
ENDROOT
BRANCH   1   3
ATOM      3  C   UNL     1      34.519  17.639  32.454  1.00  0.00     0.027 C 
BRANCH   3   4
ATOM      4  C   UNL     1      34.319  18.373  33.788  1.00  0.00     0.004 C 
BRANCH   4   5
ATOM      5  C   UNL     1      35.499  18.163  34.753  1.00  0.00     0.000 C 
BRANCH   5   6
ATOM      6  C   UNL     1      36.601  19.222  34.578  1.00  0.00     0.000 C 
BRANCH   6   7
ATOM      7  C   UNL     1      37.831  18.679  33.832  1.00  0.00     0.000 C 
BRANCH   7   8
ATOM      8  C   UNL     1      38.540  19.796  33.054  1.00  0.00     0.006 C 
BRANCH   8   9
ATOM      9  C   UNL     1      40.041  19.517  32.940  1.00  0.00     0.053 C 
BRANCH   9  10
ATOM     10  C   UNL     1      40.343  18.772  31.678  1.00  0.00     0.041 C 
ATOM     11  O   UNL     1      40.474  17.519  31.697  1.00  0.00    -0.550 OA
ATOM     12  O   UNL     1      40.442  19.456  30.473  1.00  0.00    -0.550 OA
ENDBRANCH   9  10
ENDBRANCH   8   9
ENDBRANCH   7   8
ENDBRANCH   6   7
ENDBRANCH   5   6
ENDBRANCH   4   5
ENDBRANCH   3   4
ENDBRANCH   1   3
BRANCH   2  13
ATOM     13  C   UNL     1      36.979  17.426  30.583  1.00  0.00     0.027 C 
BRANCH  13  14
ATOM     14  C   UNL     1      37.690  17.192  29.238  1.00  0.00     0.004 C 
BRANCH  14  15
ATOM     15  C   UNL     1      37.618  15.740  28.732  1.00  0.00     0.000 C 
BRANCH  15  16
ATOM     16  C   UNL     1      36.445  14.947  29.334  1.00  0.00     0.000 C 
BRANCH  16  17
ATOM     17  C   UNL     1      35.245  14.852  28.379  1.00  0.00    -0.000 C 
BRANCH  17  18
ATOM     18  C   UNL     1      34.087  15.775  28.799  1.00  0.00    -0.000 C 
BRANCH  18  19
ATOM     19  C   UNL     1      33.622  16.691  27.657  1.00  0.00    -0.003 C 
ATOM     20  C   UNL     1      34.784  17.251  26.838  1.00  0.00     0.004 C 
ENDBRANCH  18  19
ENDBRANCH  17  18
ENDBRANCH  16  17
ENDBRANCH  15  16
ENDBRANCH  14  15
ENDBRANCH  13  14
ENDBRANCH   2  13
TORSDOF 15
ENDMDL
MODEL 8
REMARK VINA RESULT:    -5.158      1.319      2.855
REMARK INTER + INTRA:         -11.885
REMARK INTER:                  -9.092
REMARK INTRA:                  -2.793
REMARK UNBOUND:                -2.204
REMARK SMILES CCCCCCCCC=CCCCCCCCC(=O)[O-]
REMARK SMILES IDX 10 1 9 2 11 3 12 4 13 5 14 6 15 7 16 8 17 9 18 10 19 11
REMARK SMILES IDX 20 12 8 13 7 14 6 15 5 16 4 17 3 18 2 19 1 20
REMARK H PARENT
REMARK Flexibility Score: inf
ROOT
ATOM      1  C   UNL     1      36.538  18.121  30.280  1.00  0.00    -0.031 C 
ATOM      2  C   UNL     1      37.631  18.908  30.334  1.00  0.00    -0.031 C 
ENDROOT
BRANCH   1   3
ATOM      3  C   UNL     1      35.231  18.393  30.985  1.00  0.00     0.027 C 
BRANCH   3   4
ATOM      4  C   UNL     1      34.571  17.093  31.473  1.00  0.00     0.004 C 
BRANCH   4   5
ATOM      5  C   UNL     1      35.438  15.856  31.184  1.00  0.00     0.000 C 
BRANCH   5   6
ATOM      6  C   UNL     1      34.714  14.817  30.311  1.00  0.00     0.000 C 
BRANCH   6   7
ATOM      7  C   UNL     1      34.999  15.000  28.812  1.00  0.00     0.000 C 
BRANCH   7   8
ATOM      8  C   UNL     1      33.717  15.357  28.047  1.00  0.00     0.006 C 
BRANCH   8   9
ATOM      9  C   UNL     1      33.584  16.873  27.876  1.00  0.00     0.053 C 
BRANCH   9  10
ATOM     10  C   UNL     1      34.206  17.313  26.588  1.00  0.00     0.041 C 
ATOM     11  O   UNL     1      35.390  17.741  26.570  1.00  0.00    -0.550 OA
ATOM     12  O   UNL     1      33.490  17.216  25.402  1.00  0.00    -0.550 OA
ENDBRANCH   9  10
ENDBRANCH   8   9
ENDBRANCH   7   8
ENDBRANCH   6   7
ENDBRANCH   5   6
ENDBRANCH   4   5
ENDBRANCH   3   4
ENDBRANCH   1   3
BRANCH   2  13
ATOM     13  C   UNL     1      37.756  20.180  31.136  1.00  0.00     0.027 C 
BRANCH  13  14
ATOM     14  C   UNL     1      39.045  20.259  31.974  1.00  0.00     0.004 C 
BRANCH  14  15
ATOM     15  C   UNL     1      39.921  18.995  31.901  1.00  0.00     0.000 C 
BRANCH  15  16
ATOM     16  C   UNL     1      40.613  18.661  33.234  1.00  0.00     0.000 C 
BRANCH  16  17
ATOM     17  C   UNL     1      39.913  17.523  33.993  1.00  0.00    -0.000 C 
BRANCH  17  18
ATOM     18  C   UNL     1      38.745  16.916  33.196  1.00  0.00    -0.000 C 
BRANCH  18  19
ATOM     19  C   UNL     1      37.442  16.868  34.006  1.00  0.00    -0.003 C 
ATOM     20  C   UNL     1      36.873  18.257  34.295  1.00  0.00     0.004 C 
ENDBRANCH  18  19
ENDBRANCH  17  18
ENDBRANCH  16  17
ENDBRANCH  15  16
ENDBRANCH  14  15
ENDBRANCH  13  14
ENDBRANCH   2  13
TORSDOF 15
ENDMDL
MODEL 9
REMARK VINA RESULT:    -5.119      2.865      5.599
REMARK INTER + INTRA:         -11.811
REMARK INTER:                  -9.012
REMARK INTRA:                  -2.799
REMARK UNBOUND:                -2.204
REMARK SMILES CCCCCCCCC=CCCCCCCCC(=O)[O-]
REMARK SMILES IDX 10 1 9 2 11 3 12 4 13 5 14 6 15 7 16 8 17 9 18 10 19 11
REMARK SMILES IDX 20 12 8 13 7 14 6 15 5 16 4 17 3 18 2 19 1 20
REMARK H PARENT
REMARK Flexibility Score: inf
ROOT
ATOM      1  C   UNL     1      34.064  16.340  30.249  1.00  0.00    -0.031 C 
ATOM      2  C   UNL     1      34.423  15.960  29.007  1.00  0.00    -0.031 C 
ENDROOT
BRANCH   1   3
ATOM      3  C   UNL     1      33.700  17.746  30.662  1.00  0.00     0.027 C 
BRANCH   3   4
ATOM      4  C   UNL     1      34.664  18.289  31.729  1.00  0.00     0.004 C 
BRANCH   4   5
ATOM      5  C   UNL     1      34.010  18.368  33.119  1.00  0.00     0.000 C 
BRANCH   5   6
ATOM      6  C   UNL     1      35.028  18.210  34.261  1.00  0.00     0.000 C 
BRANCH   6   7
ATOM      7  C   UNL     1      36.454  17.939  33.753  1.00  0.00     0.000 C 
BRANCH   7   8
ATOM      8  C   UNL     1      37.379  19.126  34.049  1.00  0.00     0.006 C 
BRANCH   8   9
ATOM      9  C   UNL     1      38.008  19.666  32.762  1.00  0.00     0.053 C 
BRANCH   9  10
ATOM     10  C   UNL     1      39.479  19.389  32.739  1.00  0.00     0.041 C 
ATOM     11  O   UNL     1      40.028  18.802  33.708  1.00  0.00    -0.550 OA
ATOM     12  O   UNL     1      40.235  19.744  31.629  1.00  0.00    -0.550 OA
ENDBRANCH   9  10
ENDBRANCH   8   9
ENDBRANCH   7   8
ENDBRANCH   6   7
ENDBRANCH   5   6
ENDBRANCH   4   5
ENDBRANCH   3   4
ENDBRANCH   1   3
BRANCH   2  13
ATOM     13  C   UNL     1      34.559  16.877  27.816  1.00  0.00     0.027 C 
BRANCH  13  14
ATOM     14  C   UNL     1      36.009  17.038  27.324  1.00  0.00     0.004 C 
BRANCH  14  15
ATOM     15  C   UNL     1      36.604  18.437  27.564  1.00  0.00     0.000 C 
BRANCH  15  16
ATOM     16  C   UNL     1      36.995  18.685  29.032  1.00  0.00     0.000 C 
BRANCH  16  17
ATOM     17  C   UNL     1      38.196  17.836  29.474  1.00  0.00    -0.000 C 
BRANCH  17  18
ATOM     18  C   UNL     1      37.801  16.732  30.471  1.00  0.00    -0.000 C 
BRANCH  18  19
ATOM     19  C   UNL     1      39.017  16.113  31.176  1.00  0.00    -0.003 C 
ATOM     20  C   UNL     1      40.332  16.410  30.456  1.00  0.00     0.004 C 
ENDBRANCH  18  19
ENDBRANCH  17  18
ENDBRANCH  16  17
ENDBRANCH  15  16
ENDBRANCH  14  15
ENDBRANCH  13  14
ENDBRANCH   2  13
TORSDOF 15
ENDMDL
