MODEL 1
REMARK VINA RESULT:    -3.593      0.000      0.000
REMARK INTER + INTRA:          -5.640
REMARK INTER:                  -5.483
REMARK INTRA:                  -0.156
REMARK UNBOUND:                -0.156
REMARK SMILES CC1=CCC[C@@H](C)C(=O)C[C@H](C(C)C)C(=O)C1
REMARK SMILES IDX 8 1 9 2 6 3 7 4 5 5 4 6 3 7 2 8 1 9 10 11 11 12 15 13 16 14
REMARK SMILES IDX 17 15 12 17 13 18 14 19
REMARK H PARENT
REMARK Flexibility Score: 70.00
ROOT
ATOM      1  C   UNL     1      -6.366  73.371  20.977  1.00  0.00     0.136 C 
ATOM      2  O   UNL     1      -6.959  73.095  19.944  1.00  0.00    -0.299 OA
ENDROOT
BRANCH   1   3
ATOM      3  C   UNL     1      -4.886  73.036  21.083  1.00  0.00     0.053 C 
ATOM      4  C   UNL     1      -4.050  74.085  20.340  1.00  0.00     0.016 C 
BRANCH   3   5
ATOM      5  C   UNL     1      -4.562  71.616  20.572  1.00  0.00     0.015 C 
BRANCH   5   6
ATOM      6  C   UNL     1      -5.265  70.534  21.408  1.00  0.00     0.028 C 
BRANCH   6   7
ATOM      7  C   UNL     1      -4.932  70.601  22.879  1.00  0.00    -0.028 C 
ATOM      8  C   UNL     1      -5.801  70.855  23.893  1.00  0.00    -0.070 CG0
ATOM      9  C   UNL     1      -5.216  71.000  25.277  1.00  0.00     0.039 C 
ATOM     10  G   UNL     1      -7.319  70.920  23.743  1.00  0.00     0.000 G0
ENDBRANCH   6   7
ENDBRANCH   5   6
ENDBRANCH   3   5
ENDBRANCH   1   3
BRANCH   1  11
ATOM     11  C   UNL     1      -7.137  73.962  22.138  1.00  0.00     0.087 C 
BRANCH  11  12
ATOM     12  C   UNL     1      -8.322  73.088  22.640  1.00  0.00     0.066 C 
BRANCH  12  13
ATOM     13  C   UNL     1      -7.930  72.296  23.887  1.00  0.00     0.140 C 
ATOM     14  O   UNL     1      -8.158  72.744  25.003  1.00  0.00    -0.299 OA
BRANCH  13  15
ATOM     15  C   UNL     1      -7.333  70.917  23.753  1.00  0.00     0.106 CG0
ATOM     16  G   UNL     1      -5.815  70.854  23.908  1.00  0.00     0.000 G0
ENDBRANCH  13  15
ENDBRANCH  12  13
BRANCH  12  17
ATOM     17  C   UNL     1      -9.676  73.860  22.821  1.00  0.00    -0.006 C 
ATOM     18  C   UNL     1     -10.794  72.904  23.281  1.00  0.00     0.008 C 
ATOM     19  C   UNL     1     -10.142  74.571  21.538  1.00  0.00     0.008 C 
ENDBRANCH  12  17
ENDBRANCH  11  12
ENDBRANCH   1  11
TORSDOF 1
ENDMDL
MODEL 2
REMARK VINA RESULT:    -3.579      7.210      9.349
REMARK INTER + INTRA:          -5.619
REMARK INTER:                  -5.871
REMARK INTRA:                   0.252
REMARK UNBOUND:                -0.156
REMARK SMILES CC1=CCC[C@@H](C)C(=O)C[C@H](C(C)C)C(=O)C1
REMARK SMILES IDX 8 1 9 2 6 3 7 4 5 5 4 6 3 7 2 8 1 9 10 11 11 12 15 13 16 14
REMARK SMILES IDX 17 15 12 17 13 18 14 19
REMARK H PARENT
REMARK Flexibility Score: 70.00
ROOT
ATOM      1  C   UNL     1     -11.920  72.300  29.339  1.00  0.00     0.136 C 
ATOM      2  O   UNL     1     -11.986  71.146  28.942  1.00  0.00    -0.299 OA
ENDROOT
BRANCH   1   3
ATOM      3  C   UNL     1     -11.788  73.420  28.317  1.00  0.00     0.053 C 
ATOM      4  C   UNL     1     -13.066  73.522  27.476  1.00  0.00     0.016 C 
BRANCH   3   5
ATOM      5  C   UNL     1     -10.549  73.253  27.412  1.00  0.00     0.015 C 
BRANCH   5   6
ATOM      6  C   UNL     1      -9.428  74.235  27.793  1.00  0.00     0.028 C 
BRANCH   6   7
ATOM      7  C   UNL     1      -9.768  75.103  28.980  1.00  0.00    -0.028 C 
ATOM      8  C   UNL     1      -9.533  74.812  30.287  1.00  0.00    -0.070 CG0
ATOM      9  C   UNL     1     -10.077  75.777  31.313  1.00  0.00     0.039 C 
ATOM     10  G   UNL     1      -8.696  73.634  30.780  1.00  0.00     0.000 G0
ENDBRANCH   6   7
ENDBRANCH   5   6
ENDBRANCH   3   5
ENDBRANCH   1   3
BRANCH   1  11
ATOM     11  C   UNL     1     -11.891  72.570  30.828  1.00  0.00     0.087 C 
BRANCH  11  12
ATOM     12  C   UNL     1     -10.632  72.024  31.562  1.00  0.00     0.066 C 
BRANCH  12  13
ATOM     13  C   UNL     1      -9.367  72.285  30.746  1.00  0.00     0.140 C 
ATOM     14  O   UNL     1      -8.924  71.423  29.997  1.00  0.00    -0.299 OA
BRANCH  13  15
ATOM     15  C   UNL     1      -8.698  73.636  30.793  1.00  0.00     0.106 CG0
ATOM     16  G   UNL     1      -9.548  74.794  30.275  1.00  0.00     0.000 G0
ENDBRANCH  13  15
ENDBRANCH  12  13
BRANCH  12  17
ATOM     17  C   UNL     1     -10.490  72.486  33.054  1.00  0.00    -0.006 C 
ATOM     18  C   UNL     1     -10.153  71.292  33.968  1.00  0.00     0.008 C 
ATOM     19  C   UNL     1     -11.757  73.171  33.598  1.00  0.00     0.008 C 
ENDBRANCH  12  17
ENDBRANCH  11  12
ENDBRANCH   1  11
TORSDOF 1
ENDMDL
MODEL 3
REMARK VINA RESULT:    -3.510      6.663      9.005
REMARK INTER + INTRA:          -5.514
REMARK INTER:                  -5.791
REMARK INTRA:                   0.277
REMARK UNBOUND:                -0.156
REMARK SMILES CC1=CCC[C@@H](C)C(=O)C[C@H](C(C)C)C(=O)C1
REMARK SMILES IDX 8 1 9 2 6 3 7 4 5 5 4 6 3 7 2 8 1 9 10 11 11 12 15 13 16 14
REMARK SMILES IDX 17 15 12 17 13 18 14 19
REMARK H PARENT
REMARK Flexibility Score: 70.00
ROOT
ATOM      1  C   UNL     1      -9.561  74.842  30.635  1.00  0.00     0.136 C 
ATOM      2  O   UNL     1      -8.431  74.945  31.090  1.00  0.00    -0.299 OA
ENDROOT
BRANCH   1   3
ATOM      3  C   UNL     1     -10.729  74.699  31.599  1.00  0.00     0.053 C 
ATOM      4  C   UNL     1     -10.948  76.009  32.364  1.00  0.00     0.016 C 
BRANCH   3   5
ATOM      5  C   UNL     1     -10.548  73.517  32.576  1.00  0.00     0.015 C 
BRANCH   5   6
ATOM      6  C   UNL     1     -11.356  72.284  32.136  1.00  0.00     0.028 C 
BRANCH   6   7
ATOM      7  C   UNL     1     -12.223  72.535  30.926  1.00  0.00    -0.028 C 
ATOM      8  C   UNL     1     -11.894  72.286  29.631  1.00  0.00    -0.070 CG0
ATOM      9  C   UNL     1     -12.874  72.738  28.576  1.00  0.00     0.039 C 
ATOM     10  G   UNL     1     -10.655  71.515  29.180  1.00  0.00     0.000 G0
ENDBRANCH   6   7
ENDBRANCH   5   6
ENDBRANCH   3   5
ENDBRANCH   1   3
BRANCH   1  11
ATOM     11  C   UNL     1      -9.751  74.782  29.135  1.00  0.00     0.087 C 
BRANCH  11  12
ATOM     12  C   UNL     1      -9.118  73.537  28.450  1.00  0.00     0.066 C 
BRANCH  12  13
ATOM     13  C   UNL     1      -9.350  72.277  29.282  1.00  0.00     0.140 C 
ATOM     14  O   UNL     1      -8.511  71.906  30.093  1.00  0.00    -0.299 OA
BRANCH  13  15
ATOM     15  C   UNL     1     -10.653  71.524  29.173  1.00  0.00     0.106 CG0
ATOM     16  G   UNL     1     -11.884  72.295  29.644  1.00  0.00     0.000 G0
ENDBRANCH  13  15
ENDBRANCH  12  13
BRANCH  12  17
ATOM     17  C   UNL     1      -9.513  73.343  26.944  1.00  0.00    -0.006 C 
ATOM     18  C   UNL     1      -8.310  72.843  26.122  1.00  0.00     0.008 C 
ATOM     19  C   UNL     1     -10.048  74.630  26.290  1.00  0.00     0.008 C 
ENDBRANCH  12  17
ENDBRANCH  11  12
ENDBRANCH   1  11
TORSDOF 1
ENDMDL
MODEL 4
REMARK VINA RESULT:    -3.278      3.763      5.670
REMARK INTER + INTRA:          -5.158
REMARK INTER:                  -5.034
REMARK INTRA:                  -0.124
REMARK UNBOUND:                -0.156
REMARK SMILES CC1=CCC[C@@H](C)C(=O)C[C@H](C(C)C)C(=O)C1
REMARK SMILES IDX 8 1 9 2 6 3 7 4 5 5 4 6 3 7 2 8 1 9 10 11 11 12 15 13 16 14
REMARK SMILES IDX 17 15 12 17 13 18 14 19
REMARK H PARENT
REMARK Flexibility Score: 70.00
ROOT
ATOM      1  C   UNL     1      -6.605  68.236  23.447  1.00  0.00     0.136 C 
ATOM      2  O   UNL     1      -7.765  68.597  23.315  1.00  0.00    -0.299 OA
ENDROOT
BRANCH   1   3
ATOM      3  C   UNL     1      -6.301  66.746  23.486  1.00  0.00     0.053 C 
ATOM      4  C   UNL     1      -6.996  66.034  22.320  1.00  0.00     0.016 C 
BRANCH   3   5
ATOM      5  C   UNL     1      -6.687  66.098  24.832  1.00  0.00     0.015 C 
BRANCH   5   6
ATOM      6  C   UNL     1      -5.450  65.606  25.604  1.00  0.00     0.028 C 
BRANCH   6   7
ATOM      7  C   UNL     1      -5.227  66.334  26.907  1.00  0.00    -0.028 C 
ATOM      8  C   UNL     1      -4.466  67.445  27.091  1.00  0.00    -0.070 CG0
ATOM      9  C   UNL     1      -4.286  67.925  28.511  1.00  0.00     0.039 C 
ATOM     10  G   UNL     1      -3.856  68.279  25.967  1.00  0.00     0.000 G0
ENDBRANCH   6   7
ENDBRANCH   5   6
ENDBRANCH   3   5
ENDBRANCH   1   3
BRANCH   1  11
ATOM     11  C   UNL     1      -5.525  69.278  23.647  1.00  0.00     0.087 C 
BRANCH  11  12
ATOM     12  C   UNL     1      -5.592  70.028  25.009  1.00  0.00     0.066 C 
BRANCH  12  13
ATOM     13  C   UNL     1      -4.374  69.705  25.873  1.00  0.00     0.140 C 
ATOM     14  O   UNL     1      -3.849  70.576  26.555  1.00  0.00    -0.299 OA
BRANCH  13  15
ATOM     15  C   UNL     1      -3.858  68.290  25.958  1.00  0.00     0.106 CG0
ATOM     16  G   UNL     1      -4.448  67.455  27.092  1.00  0.00     0.000 G0
ENDBRANCH  13  15
ENDBRANCH  12  13
BRANCH  12  17
ATOM     17  C   UNL     1      -5.856  71.571  24.897  1.00  0.00    -0.006 C 
ATOM     18  C   UNL     1      -7.287  71.847  24.396  1.00  0.00     0.008 C 
ATOM     19  C   UNL     1      -4.867  72.286  23.959  1.00  0.00     0.008 C 
ENDBRANCH  12  17
ENDBRANCH  11  12
ENDBRANCH   1  11
TORSDOF 1
ENDMDL
MODEL 5
REMARK VINA RESULT:    -3.252      2.679      4.534
REMARK INTER + INTRA:          -5.119
REMARK INTER:                  -5.127
REMARK INTRA:                   0.008
REMARK UNBOUND:                -0.156
REMARK SMILES CC1=CCC[C@@H](C)C(=O)C[C@H](C(C)C)C(=O)C1
REMARK SMILES IDX 8 1 9 2 6 3 7 4 5 5 4 6 3 7 2 8 1 9 10 11 11 12 15 13 16 14
REMARK SMILES IDX 17 15 12 17 13 18 14 19
REMARK H PARENT
REMARK Flexibility Score: 70.00
ROOT
ATOM      1  C   UNL     1      -4.974  70.907  25.452  1.00  0.00     0.136 C 
ATOM      2  O   UNL     1      -4.043  71.624  25.117  1.00  0.00    -0.299 OA
ENDROOT
BRANCH   1   3
ATOM      3  C   UNL     1      -4.672  69.603  26.175  1.00  0.00     0.053 C 
ATOM      4  C   UNL     1      -3.541  69.810  27.189  1.00  0.00     0.016 C 
BRANCH   3   5
ATOM      5  C   UNL     1      -4.332  68.453  25.203  1.00  0.00     0.015 C 
BRANCH   5   6
ATOM      6  C   UNL     1      -5.445  67.391  25.165  1.00  0.00     0.028 C 
BRANCH   6   7
ATOM      7  C   UNL     1      -5.806  66.951  23.767  1.00  0.00    -0.028 C 
ATOM      8  C   UNL     1      -6.671  67.574  22.923  1.00  0.00    -0.070 CG0
ATOM      9  C   UNL     1      -6.974  66.879  21.617  1.00  0.00     0.039 C 
ATOM     10  G   UNL     1      -7.284  68.951  23.164  1.00  0.00     0.000 G0
ENDBRANCH   6   7
ENDBRANCH   5   6
ENDBRANCH   3   5
ENDBRANCH   1   3
BRANCH   1  11
ATOM     11  C   UNL     1      -6.385  71.300  25.068  1.00  0.00     0.087 C 
BRANCH  11  12
ATOM     12  C   UNL     1      -6.620  71.462  23.539  1.00  0.00     0.066 C 
BRANCH  12  13
ATOM     13  C   UNL     1      -6.426  70.133  22.811  1.00  0.00     0.140 C 
ATOM     14  O   UNL     1      -5.511  69.993  22.009  1.00  0.00    -0.299 OA
BRANCH  13  15
ATOM     15  C   UNL     1      -7.308  68.953  23.137  1.00  0.00     0.106 CG0
ATOM     16  G   UNL     1      -6.664  67.586  22.918  1.00  0.00     0.000 G0
ENDBRANCH  13  15
ENDBRANCH  12  13
BRANCH  12  17
ATOM     17  C   UNL     1      -7.967  72.167  23.152  1.00  0.00    -0.006 C 
ATOM     18  C   UNL     1      -7.702  73.442  22.328  1.00  0.00     0.008 C 
ATOM     19  C   UNL     1      -8.821  72.548  24.374  1.00  0.00     0.008 C 
ENDBRANCH  12  17
ENDBRANCH  11  12
ENDBRANCH   1  11
TORSDOF 1
ENDMDL
MODEL 6
REMARK VINA RESULT:    -3.153     11.431     14.550
REMARK INTER + INTRA:          -4.969
REMARK INTER:                  -4.800
REMARK INTRA:                  -0.169
REMARK UNBOUND:                -0.156
REMARK SMILES CC1=CCC[C@@H](C)C(=O)C[C@H](C(C)C)C(=O)C1
REMARK SMILES IDX 8 1 9 2 6 3 7 4 5 5 4 6 3 7 2 8 1 9 10 11 11 12 15 13 16 14
REMARK SMILES IDX 17 15 12 17 13 18 14 19
REMARK H PARENT
REMARK Flexibility Score: 70.00
ROOT
ATOM      1  C   UNL     1      -6.863  69.329  37.070  1.00  0.00     0.136 C 
ATOM      2  O   UNL     1      -6.802  68.770  38.156  1.00  0.00    -0.299 OA
ENDROOT
BRANCH   1   3
ATOM      3  C   UNL     1      -8.169  69.279  36.293  1.00  0.00     0.053 C 
ATOM      4  C   UNL     1      -9.263  70.047  37.045  1.00  0.00     0.016 C 
BRANCH   3   5
ATOM      5  C   UNL     1      -8.624  67.835  35.990  1.00  0.00     0.015 C 
BRANCH   5   6
ATOM      6  C   UNL     1      -7.447  66.946  35.553  1.00  0.00     0.028 C 
BRANCH   6   7
ATOM      7  C   UNL     1      -7.048  67.144  34.110  1.00  0.00    -0.028 C 
ATOM      8  C   UNL     1      -5.796  67.392  33.645  1.00  0.00    -0.070 CG0
ATOM      9  C   UNL     1      -5.657  67.683  32.170  1.00  0.00     0.039 C 
ATOM     10  G   UNL     1      -4.523  67.318  34.487  1.00  0.00     0.000 G0
ENDBRANCH   6   7
ENDBRANCH   5   6
ENDBRANCH   3   5
ENDBRANCH   1   3
BRANCH   1  11
ATOM     11  C   UNL     1      -5.620  69.980  36.503  1.00  0.00     0.087 C 
BRANCH  11  12
ATOM     12  C   UNL     1      -4.363  69.062  36.472  1.00  0.00     0.066 C 
BRANCH  12  13
ATOM     13  C   UNL     1      -4.029  68.640  35.042  1.00  0.00     0.140 C 
ATOM     14  O   UNL     1      -3.305  69.337  34.343  1.00  0.00    -0.299 OA
BRANCH  13  15
ATOM     15  C   UNL     1      -4.520  67.317  34.507  1.00  0.00     0.106 CG0
ATOM     16  G   UNL     1      -5.782  67.396  33.651  1.00  0.00     0.000 G0
ENDBRANCH  13  15
ENDBRANCH  12  13
BRANCH  12  17
ATOM     17  C   UNL     1      -3.116  69.629  37.237  1.00  0.00    -0.006 C 
ATOM     18  C   UNL     1      -1.953  68.619  37.214  1.00  0.00     0.008 C 
ATOM     19  C   UNL     1      -3.419  69.987  38.704  1.00  0.00     0.008 C 
ENDBRANCH  12  17
ENDBRANCH  11  12
ENDBRANCH   1  11
TORSDOF 1
ENDMDL
MODEL 7
REMARK VINA RESULT:    -3.148     13.195     14.400
REMARK INTER + INTRA:          -4.960
REMARK INTER:                  -4.751
REMARK INTRA:                  -0.209
REMARK UNBOUND:                -0.156
REMARK SMILES CC1=CCC[C@@H](C)C(=O)C[C@H](C(C)C)C(=O)C1
REMARK SMILES IDX 8 1 9 2 6 3 7 4 5 5 4 6 3 7 2 8 1 9 10 11 11 12 15 13 16 14
REMARK SMILES IDX 17 15 12 17 13 18 14 19
REMARK H PARENT
REMARK Flexibility Score: 70.00
ROOT
ATOM      1  C   UNL     1      -7.627  67.200  34.821  1.00  0.00     0.136 C 
ATOM      2  O   UNL     1      -8.223  66.336  35.447  1.00  0.00    -0.299 OA
ENDROOT
BRANCH   1   3
ATOM      3  C   UNL     1      -6.685  66.776  33.704  1.00  0.00     0.053 C 
ATOM      4  C   UNL     1      -6.757  65.259  33.498  1.00  0.00     0.016 C 
BRANCH   3   5
ATOM      5  C   UNL     1      -5.230  67.227  33.953  1.00  0.00     0.015 C 
BRANCH   5   6
ATOM      6  C   UNL     1      -4.658  66.622  35.247  1.00  0.00     0.028 C 
BRANCH   6   7
ATOM      7  C   UNL     1      -3.648  67.511  35.930  1.00  0.00    -0.028 C 
ATOM      8  C   UNL     1      -3.897  68.394  36.932  1.00  0.00    -0.070 CG0
ATOM      9  C   UNL     1      -2.750  69.271  37.374  1.00  0.00     0.039 C 
ATOM     10  G   UNL     1      -5.218  68.502  37.691  1.00  0.00     0.000 G0
ENDBRANCH   6   7
ENDBRANCH   5   6
ENDBRANCH   3   5
ENDBRANCH   1   3
BRANCH   1  11
ATOM     11  C   UNL     1      -7.783  68.650  35.227  1.00  0.00     0.087 C 
BRANCH  11  12
ATOM     12  C   UNL     1      -7.639  68.914  36.754  1.00  0.00     0.066 C 
BRANCH  12  13
ATOM     13  C   UNL     1      -6.240  69.427  37.091  1.00  0.00     0.140 C 
ATOM     14  O   UNL     1      -5.958  70.608  36.935  1.00  0.00    -0.299 OA
BRANCH  13  15
ATOM     15  C   UNL     1      -5.217  68.499  37.700  1.00  0.00     0.106 CG0
ATOM     16  G   UNL     1      -3.898  68.403  36.935  1.00  0.00     0.000 G0
ENDBRANCH  13  15
ENDBRANCH  12  13
BRANCH  12  17
ATOM     17  C   UNL     1      -8.770  69.805  37.376  1.00  0.00    -0.006 C 
ATOM     18  C   UNL     1      -9.912  68.932  37.932  1.00  0.00     0.008 C 
ATOM     19  C   UNL     1      -9.370  70.807  36.373  1.00  0.00     0.008 C 
ENDBRANCH  12  17
ENDBRANCH  11  12
ENDBRANCH   1  11
TORSDOF 1
ENDMDL
MODEL 8
REMARK VINA RESULT:    -3.147      6.818      8.905
REMARK INTER + INTRA:          -4.960
REMARK INTER:                  -5.870
REMARK INTRA:                   0.910
REMARK UNBOUND:                -0.156
REMARK SMILES CC1=CCC[C@@H](C)C(=O)C[C@H](C(C)C)C(=O)C1
REMARK SMILES IDX 8 1 9 2 6 3 7 4 5 5 4 6 3 7 2 8 1 9 10 11 11 12 15 13 16 14
REMARK SMILES IDX 17 15 12 17 13 18 14 19
REMARK H PARENT
REMARK Flexibility Score: 70.00
ROOT
ATOM      1  C   UNL     1      -9.715  75.041  30.929  1.00  0.00     0.136 C 
ATOM      2  O   UNL     1      -8.649  74.759  31.455  1.00  0.00    -0.299 OA
ENDROOT
BRANCH   1   3
ATOM      3  C   UNL     1     -10.980  75.008  31.773  1.00  0.00     0.053 C 
ATOM      4  C   UNL     1     -11.226  76.379  32.413  1.00  0.00     0.016 C 
BRANCH   3   5
ATOM      5  C   UNL     1     -10.947  73.900  32.846  1.00  0.00     0.015 C 
BRANCH   5   6
ATOM      6  C   UNL     1     -11.072  72.498  32.225  1.00  0.00     0.028 C 
BRANCH   6   7
ATOM      7  C   UNL     1      -9.785  71.991  31.623  1.00  0.00    -0.028 C 
ATOM      8  C   UNL     1      -9.601  71.575  30.342  1.00  0.00    -0.070 CG0
ATOM      9  C   UNL     1      -8.253  70.987  29.999  1.00  0.00     0.039 C 
ATOM     10  G   UNL     1     -10.623  71.736  29.219  1.00  0.00     0.000 G0
ENDBRANCH   6   7
ENDBRANCH   5   6
ENDBRANCH   3   5
ENDBRANCH   1   3
BRANCH   1  11
ATOM     11  C   UNL     1      -9.752  75.336  29.444  1.00  0.00     0.087 C 
BRANCH  11  12
ATOM     12  C   UNL     1      -9.648  74.081  28.531  1.00  0.00     0.066 C 
BRANCH  12  13
ATOM     13  C   UNL     1     -10.842  73.151  28.738  1.00  0.00     0.140 C 
ATOM     14  O   UNL     1     -11.974  73.524  28.455  1.00  0.00    -0.299 OA
BRANCH  13  15
ATOM     15  C   UNL     1     -10.629  71.736  29.215  1.00  0.00     0.106 CG0
ATOM     16  G   UNL     1      -9.600  71.580  30.333  1.00  0.00     0.000 G0
ENDBRANCH  13  15
ENDBRANCH  12  13
BRANCH  12  17
ATOM     17  C   UNL     1      -9.385  74.391  27.015  1.00  0.00    -0.006 C 
ATOM     18  C   UNL     1     -10.478  75.317  26.448  1.00  0.00     0.008 C 
ATOM     19  C   UNL     1      -9.320  73.125  26.142  1.00  0.00     0.008 C 
ENDBRANCH  12  17
ENDBRANCH  11  12
ENDBRANCH   1  11
TORSDOF 1
ENDMDL
MODEL 9
REMARK VINA RESULT:    -3.091      3.648      5.968
REMARK INTER + INTRA:          -4.874
REMARK INTER:                  -4.493
REMARK INTRA:                  -0.381
REMARK UNBOUND:                -0.156
REMARK SMILES CC1=CCC[C@@H](C)C(=O)C[C@H](C(C)C)C(=O)C1
REMARK SMILES IDX 8 1 9 2 6 3 7 4 5 5 4 6 3 7 2 8 1 9 10 11 11 12 15 13 16 14
REMARK SMILES IDX 17 15 12 17 13 18 14 19
REMARK H PARENT
REMARK Flexibility Score: 70.00
ROOT
ATOM      1  C   UNL     1      -4.228  70.980  24.393  1.00  0.00     0.136 C 
ATOM      2  O   UNL     1      -3.643  71.918  24.913  1.00  0.00    -0.299 OA
ENDROOT
BRANCH   1   3
ATOM      3  C   UNL     1      -5.492  71.258  23.594  1.00  0.00     0.053 C 
ATOM      4  C   UNL     1      -6.644  71.626  24.537  1.00  0.00     0.016 C 
BRANCH   3   5
ATOM      5  C   UNL     1      -5.888  70.077  22.682  1.00  0.00     0.015 C 
BRANCH   5   6
ATOM      6  C   UNL     1      -7.090  69.299  23.243  1.00  0.00     0.028 C 
BRANCH   6   7
ATOM      7  C   UNL     1      -7.128  67.855  22.806  1.00  0.00    -0.028 C 
ATOM      8  C   UNL     1      -6.663  66.787  23.507  1.00  0.00    -0.070 CG0
ATOM      9  C   UNL     1      -6.692  65.446  22.812  1.00  0.00     0.039 C 
ATOM     10  G   UNL     1      -6.196  66.835  24.960  1.00  0.00     0.000 G0
ENDBRANCH   6   7
ENDBRANCH   5   6
ENDBRANCH   3   5
ENDBRANCH   1   3
BRANCH   1  11
ATOM     11  C   UNL     1      -3.722  69.572  24.625  1.00  0.00     0.087 C 
BRANCH  11  12
ATOM     12  C   UNL     1      -4.543  68.751  25.662  1.00  0.00     0.066 C 
BRANCH  12  13
ATOM     13  C   UNL     1      -4.780  67.326  25.166  1.00  0.00     0.140 C 
ATOM     14  O   UNL     1      -3.837  66.564  24.993  1.00  0.00    -0.299 OA
BRANCH  13  15
ATOM     15  C   UNL     1      -6.186  66.815  24.967  1.00  0.00     0.106 CG0
ATOM     16  G   UNL     1      -6.660  66.782  23.515  1.00  0.00     0.000 G0
ENDBRANCH  13  15
ENDBRANCH  12  13
BRANCH  12  17
ATOM     17  C   UNL     1      -3.981  68.792  27.126  1.00  0.00    -0.006 C 
ATOM     18  C   UNL     1      -4.844  69.704  28.018  1.00  0.00     0.008 C 
ATOM     19  C   UNL     1      -2.523  69.280  27.199  1.00  0.00     0.008 C 
ENDBRANCH  12  17
ENDBRANCH  11  12
ENDBRANCH   1  11
TORSDOF 1
ENDMDL
