MODEL 1
REMARK VINA RESULT:    -2.618      0.000      0.000
REMARK INTER + INTRA:          -2.618
REMARK INTER:                  -2.618
REMARK INTRA:                   0.000
REMARK UNBOUND:                 0.000
REMARK SMILES CC(=O)[O-]
REMARK SMILES IDX 1 1 2 2 3 3 4 4
REMARK H PARENT
REMARK Flexibility Score: inf
ROOT
ATOM      1  C   UNL     1     -11.666  -5.572  31.137  1.00  0.00     0.063 C 
ATOM      2  C   UNL     1     -11.367  -6.938  30.619  1.00  0.00     0.038 C 
ATOM      3  O   UNL     1     -11.208  -7.123  29.384  1.00  0.00    -0.550 OA
ATOM      4  O   UNL     1     -11.318  -8.018  31.490  1.00  0.00    -0.550 OA
ENDROOT
TORSDOF 0
ENDMDL
MODEL 2
REMARK VINA RESULT:    -2.294      1.422      1.772
REMARK INTER + INTRA:          -2.294
REMARK INTER:                  -2.294
REMARK INTRA:                   0.000
REMARK UNBOUND:                 0.000
REMARK SMILES CC(=O)[O-]
REMARK SMILES IDX 1 1 2 2 3 3 4 4
REMARK H PARENT
REMARK Flexibility Score: inf
ROOT
ATOM      1  C   UNL     1     -11.270  -8.183  31.435  1.00  0.00     0.063 C 
ATOM      2  C   UNL     1     -11.383  -7.022  30.505  1.00  0.00     0.038 C 
ATOM      3  O   UNL     1     -11.181  -7.180  29.273  1.00  0.00    -0.550 OA
ATOM      4  O   UNL     1     -11.657  -5.756  31.004  1.00  0.00    -0.550 OA
ENDROOT
TORSDOF 0
ENDMDL
MODEL 3
REMARK VINA RESULT:    -2.261      1.338      2.137
REMARK INTER + INTRA:          -2.261
REMARK INTER:                  -2.261
REMARK INTRA:                   0.000
REMARK UNBOUND:                 0.000
REMARK SMILES CC(=O)[O-]
REMARK SMILES IDX 1 1 2 2 3 3 4 4
REMARK H PARENT
REMARK Flexibility Score: inf
ROOT
ATOM      1  C   UNL     1     -11.365  -7.457  29.158  1.00  0.00     0.063 C 
ATOM      2  C   UNL     1     -11.408  -7.065  30.596  1.00  0.00     0.038 C 
ATOM      3  O   UNL     1     -11.283  -7.940  31.492  1.00  0.00    -0.550 OA
ATOM      4  O   UNL     1     -11.642  -5.743  30.950  1.00  0.00    -0.550 OA
ENDROOT
TORSDOF 0
ENDMDL
MODEL 4
REMARK VINA RESULT:    -2.113     13.173     13.372
REMARK INTER + INTRA:          -2.113
REMARK INTER:                  -2.113
REMARK INTRA:                   0.000
REMARK UNBOUND:                 0.000
REMARK SMILES CC(=O)[O-]
REMARK SMILES IDX 1 1 2 2 3 3 4 4
REMARK H PARENT
REMARK Flexibility Score: inf
ROOT
ATOM      1  C   UNL     1       2.594 -10.365  30.572  1.00  0.00     0.063 C 
ATOM      2  C   UNL     1       1.584  -9.394  31.083  1.00  0.00     0.038 C 
ATOM      3  O   UNL     1       1.857  -8.166  31.131  1.00  0.00    -0.550 OA
ATOM      4  O   UNL     1       0.361  -9.848  31.558  1.00  0.00    -0.550 OA
ENDROOT
TORSDOF 0
ENDMDL
MODEL 5
REMARK VINA RESULT:    -2.096     13.363     13.542
REMARK INTER + INTRA:          -2.096
REMARK INTER:                  -2.096
REMARK INTRA:                   0.000
REMARK UNBOUND:                 0.000
REMARK SMILES CC(=O)[O-]
REMARK SMILES IDX 1 1 2 2 3 3 4 4
REMARK H PARENT
REMARK Flexibility Score: inf
ROOT
ATOM      1  C   UNL     1       1.709  -8.205  31.392  1.00  0.00     0.063 C 
ATOM      2  C   UNL     1       1.774  -9.619  30.924  1.00  0.00     0.038 C 
ATOM      3  O   UNL     1       0.933 -10.460  31.337  1.00  0.00    -0.550 OA
ATOM      4  O   UNL     1       2.797 -10.026  30.077  1.00  0.00    -0.550 OA
ENDROOT
TORSDOF 0
ENDMDL
MODEL 6
REMARK VINA RESULT:    -2.092     24.837     25.143
REMARK INTER + INTRA:          -2.092
REMARK INTER:                  -2.092
REMARK INTRA:                   0.000
REMARK UNBOUND:                 0.000
REMARK SMILES CC(=O)[O-]
REMARK SMILES IDX 1 1 2 2 3 3 4 4
REMARK H PARENT
REMARK Flexibility Score: inf
ROOT
ATOM      1  C   UNL     1       3.694 -18.505  15.148  1.00  0.00     0.063 C 
ATOM      2  C   UNL     1       3.075 -18.664  13.800  1.00  0.00     0.038 C 
ATOM      3  O   UNL     1       2.875 -17.654  13.075  1.00  0.00    -0.550 OA
ATOM      4  O   UNL     1       2.666 -19.918  13.366  1.00  0.00    -0.550 OA
ENDROOT
TORSDOF 0
ENDMDL
MODEL 7
REMARK VINA RESULT:    -2.052     24.682     25.068
REMARK INTER + INTRA:          -2.052
REMARK INTER:                  -2.052
REMARK INTRA:                   0.000
REMARK UNBOUND:                 0.000
REMARK SMILES CC(=O)[O-]
REMARK SMILES IDX 1 1 2 2 3 3 4 4
REMARK H PARENT
REMARK Flexibility Score: inf
ROOT
ATOM      1  C   UNL     1       2.965 -20.049  13.750  1.00  0.00     0.063 C 
ATOM      2  C   UNL     1       3.178 -18.629  14.150  1.00  0.00     0.038 C 
ATOM      3  O   UNL     1       3.634 -18.356  15.291  1.00  0.00    -0.550 OA
ATOM      4  O   UNL     1       2.822 -17.602  13.286  1.00  0.00    -0.550 OA
ENDROOT
TORSDOF 0
ENDMDL
MODEL 8
REMARK VINA RESULT:    -2.030     15.403     15.793
REMARK INTER + INTRA:          -2.030
REMARK INTER:                  -2.030
REMARK INTRA:                   0.000
REMARK UNBOUND:                 0.000
REMARK SMILES CC(=O)[O-]
REMARK SMILES IDX 1 1 2 2 3 3 4 4
REMARK H PARENT
REMARK Flexibility Score: inf
ROOT
ATOM      1  C   UNL     1      -7.963 -14.743  16.290  1.00  0.00     0.063 C 
ATOM      2  C   UNL     1      -7.652 -13.466  16.994  1.00  0.00     0.038 C 
ATOM      3  O   UNL     1      -6.740 -13.430  17.861  1.00  0.00    -0.550 OA
ATOM      4  O   UNL     1      -8.404 -12.328  16.734  1.00  0.00    -0.550 OA
ENDROOT
TORSDOF 0
ENDMDL
MODEL 9
REMARK VINA RESULT:    -2.017     14.167     14.314
REMARK INTER + INTRA:          -2.017
REMARK INTER:                  -2.017
REMARK INTRA:                   0.000
REMARK UNBOUND:                 0.000
REMARK SMILES CC(=O)[O-]
REMARK SMILES IDX 1 1 2 2 3 3 4 4
REMARK H PARENT
REMARK Flexibility Score: inf
ROOT
ATOM      1  C   UNL     1       1.897  -9.336  30.977  1.00  0.00     0.063 C 
ATOM      2  C   UNL     1       2.453 -10.671  30.615  1.00  0.00     0.038 C 
ATOM      3  O   UNL     1       3.518 -10.752  29.948  1.00  0.00    -0.550 OA
ATOM      4  O   UNL     1       1.769 -11.828  30.965  1.00  0.00    -0.550 OA
ENDROOT
TORSDOF 0
ENDMDL
