MODEL 1
REMARK VINA RESULT:    -6.877      0.000      0.000
REMARK INTER + INTRA:          -9.937
REMARK INTER:                  -9.289
REMARK INTRA:                  -0.649
REMARK UNBOUND:                -0.649
REMARK SMILES C=CC(C)=CCC=C(C)CCC=C(C)C
REMARK SMILES IDX 8 1 7 2 9 3 10 4 11 5 12 6 14 7 13 8 15 9 6 10 5 11 3 12
REMARK SMILES IDX 4 13 2 14 1 15
REMARK H PARENT
REMARK Flexibility Score: inf
ROOT
ATOM      1  C   UNL     1      16.078  30.746  23.479  1.00  0.00    -0.077 C 
ATOM      2  C   UNL     1      15.499  31.502  22.517  1.00  0.00    -0.024 C 
ATOM      3  C   UNL     1      15.507  29.410  23.891  1.00  0.00     0.039 C 
ENDROOT
BRANCH   1   4
ATOM      4  C   UNL     1      17.326  31.260  24.169  1.00  0.00     0.034 C 
BRANCH   4   5
ATOM      5  C   UNL     1      18.261  30.117  24.587  1.00  0.00     0.032 C 
BRANCH   5   6
ATOM      6  C   UNL     1      18.710  30.256  26.022  1.00  0.00    -0.028 C 
ATOM      7  C   UNL     1      19.365  27.848  26.232  1.00  0.00     0.039 C 
ATOM      8  C   UNL     1      19.179  29.242  26.782  1.00  0.00    -0.080 C 
ATOM      9  C   UNL     1      19.540  29.528  28.217  1.00  0.00     0.039 C 
ENDBRANCH   5   6
ENDBRANCH   4   5
ENDBRANCH   1   4
BRANCH   2  10
ATOM     10  C   UNL     1      14.260  31.098  21.758  1.00  0.00     0.055 C 
BRANCH  10  11
ATOM     11  C   UNL     1      13.017  31.669  22.391  1.00  0.00    -0.020 C 
ATOM     12  C   UNL     1      12.410  32.795  21.969  1.00  0.00    -0.055 C 
ATOM     13  C   UNL     1      11.184  33.278  22.705  1.00  0.00     0.044 C 
BRANCH  12  14
ATOM     14  C   UNL     1      12.940  33.577  20.814  1.00  0.00    -0.005 C 
ATOM     15  C   UNL     1      12.230  33.832  19.714  1.00  0.00     0.009 C 
ENDBRANCH  12  14
ENDBRANCH  10  11
ENDBRANCH   2  10
TORSDOF 6
ENDMDL
MODEL 2
REMARK VINA RESULT:    -6.822      2.006      3.349
REMARK INTER + INTRA:          -9.863
REMARK INTER:                  -8.971
REMARK INTRA:                  -0.892
REMARK UNBOUND:                -0.649
REMARK SMILES C=CC(C)=CCC=C(C)CCC=C(C)C
REMARK SMILES IDX 8 1 7 2 9 3 10 4 11 5 12 6 14 7 13 8 15 9 6 10 5 11 3 12
REMARK SMILES IDX 4 13 2 14 1 15
REMARK H PARENT
REMARK Flexibility Score: inf
ROOT
ATOM      1  C   UNL     1      15.977  30.718  23.388  1.00  0.00    -0.077 C 
ATOM      2  C   UNL     1      15.320  31.357  22.393  1.00  0.00    -0.024 C 
ATOM      3  C   UNL     1      15.542  29.358  23.883  1.00  0.00     0.039 C 
ENDROOT
BRANCH   1   4
ATOM      4  C   UNL     1      17.175  31.388  24.031  1.00  0.00     0.034 C 
BRANCH   4   5
ATOM      5  C   UNL     1      18.262  30.374  24.413  1.00  0.00     0.032 C 
BRANCH   5   6
ATOM      6  C   UNL     1      18.624  30.464  25.877  1.00  0.00    -0.028 C 
ATOM      7  C   UNL     1      19.091  28.013  26.089  1.00  0.00     0.039 C 
ATOM      8  C   UNL     1      18.967  29.411  26.648  1.00  0.00    -0.080 C 
ATOM      9  C   UNL     1      19.252  29.653  28.109  1.00  0.00     0.039 C 
ENDBRANCH   5   6
ENDBRANCH   4   5
ENDBRANCH   1   4
BRANCH   2  10
ATOM     10  C   UNL     1      14.119  30.792  21.675  1.00  0.00     0.055 C 
BRANCH  10  11
ATOM     11  C   UNL     1      14.510  30.161  20.364  1.00  0.00    -0.020 C 
ATOM     12  C   UNL     1      14.312  28.861  20.069  1.00  0.00    -0.055 C 
ATOM     13  C   UNL     1      14.773  28.342  18.728  1.00  0.00     0.044 C 
BRANCH  12  14
ATOM     14  C   UNL     1      13.674  27.932  21.046  1.00  0.00    -0.005 C 
ATOM     15  C   UNL     1      13.022  26.825  20.688  1.00  0.00     0.009 C 
ENDBRANCH  12  14
ENDBRANCH  10  11
ENDBRANCH   2  10
TORSDOF 6
ENDMDL
MODEL 3
REMARK VINA RESULT:    -6.747      1.292      7.607
REMARK INTER + INTRA:          -9.762
REMARK INTER:                  -9.185
REMARK INTRA:                  -0.576
REMARK UNBOUND:                -0.649
REMARK SMILES C=CC(C)=CCC=C(C)CCC=C(C)C
REMARK SMILES IDX 8 1 7 2 9 3 10 4 11 5 12 6 14 7 13 8 15 9 6 10 5 11 3 12
REMARK SMILES IDX 4 13 2 14 1 15
REMARK H PARENT
REMARK Flexibility Score: inf
ROOT
ATOM      1  C   UNL     1      14.887  30.837  22.367  1.00  0.00    -0.077 C 
ATOM      2  C   UNL     1      15.325  30.127  23.433  1.00  0.00    -0.024 C 
ATOM      3  C   UNL     1      15.605  32.076  21.887  1.00  0.00     0.039 C 
ENDROOT
BRANCH   1   4
ATOM      4  C   UNL     1      13.635  30.382  21.643  1.00  0.00     0.034 C 
BRANCH   4   5
ATOM      5  C   UNL     1      12.635  31.531  21.452  1.00  0.00     0.032 C 
BRANCH   5   6
ATOM      6  C   UNL     1      12.080  32.016  22.770  1.00  0.00    -0.028 C 
ATOM      7  C   UNL     1      10.406  33.541  21.701  1.00  0.00     0.039 C 
ATOM      8  C   UNL     1      11.102  32.939  22.898  1.00  0.00    -0.080 C 
ATOM      9  C   UNL     1      10.689  33.359  24.286  1.00  0.00     0.039 C 
ENDBRANCH   5   6
ENDBRANCH   4   5
ENDBRANCH   1   4
BRANCH   2  10
ATOM     10  C   UNL     1      16.557  30.477  24.231  1.00  0.00     0.055 C 
BRANCH  10  11
ATOM     11  C   UNL     1      17.265  29.239  24.719  1.00  0.00    -0.020 C 
ATOM     12  C   UNL     1      18.228  29.249  25.662  1.00  0.00    -0.055 C 
ATOM     13  C   UNL     1      18.879  27.942  26.046  1.00  0.00     0.044 C 
BRANCH  12  14
ATOM     14  C   UNL     1      18.671  30.519  26.306  1.00  0.00    -0.005 C 
ATOM     15  C   UNL     1      19.398  30.559  27.424  1.00  0.00     0.009 C 
ENDBRANCH  12  14
ENDBRANCH  10  11
ENDBRANCH   2  10
TORSDOF 6
ENDMDL
MODEL 4
REMARK VINA RESULT:    -6.669      1.168      7.517
REMARK INTER + INTRA:          -9.657
REMARK INTER:                  -8.962
REMARK INTRA:                  -0.695
REMARK UNBOUND:                -0.649
REMARK SMILES C=CC(C)=CCC=C(C)CCC=C(C)C
REMARK SMILES IDX 8 1 7 2 9 3 10 4 11 5 12 6 14 7 13 8 15 9 6 10 5 11 3 12
REMARK SMILES IDX 4 13 2 14 1 15
REMARK H PARENT
REMARK Flexibility Score: inf
ROOT
ATOM      1  C   UNL     1      15.398  31.556  22.407  1.00  0.00    -0.077 C 
ATOM      2  C   UNL     1      16.423  31.577  23.290  1.00  0.00    -0.024 C 
ATOM      3  C   UNL     1      14.627  30.291  22.113  1.00  0.00     0.039 C 
ENDROOT
BRANCH   1   4
ATOM      4  C   UNL     1      15.019  32.835  21.686  1.00  0.00     0.034 C 
BRANCH   4   5
ATOM      5  C   UNL     1      13.575  32.795  21.169  1.00  0.00     0.032 C 
BRANCH   5   6
ATOM      6  C   UNL     1      12.599  33.331  22.190  1.00  0.00    -0.028 C 
ATOM      7  C   UNL     1      10.963  31.464  21.859  1.00  0.00     0.039 C 
ATOM      8  C   UNL     1      11.411  32.762  22.488  1.00  0.00    -0.080 C 
ATOM      9  C   UNL     1      10.521  33.445  23.495  1.00  0.00     0.039 C 
ENDBRANCH   5   6
ENDBRANCH   4   5
ENDBRANCH   1   4
BRANCH   2  10
ATOM     10  C   UNL     1      16.890  30.373  24.070  1.00  0.00     0.055 C 
BRANCH  10  11
ATOM     11  C   UNL     1      17.765  30.776  25.229  1.00  0.00    -0.020 C 
ATOM     12  C   UNL     1      18.464  29.902  25.979  1.00  0.00    -0.055 C 
ATOM     13  C   UNL     1      19.285  30.429  27.132  1.00  0.00     0.044 C 
BRANCH  12  14
ATOM     14  C   UNL     1      18.421  28.436  25.707  1.00  0.00    -0.005 C 
ATOM     15  C   UNL     1      19.375  27.589  26.096  1.00  0.00     0.009 C 
ENDBRANCH  12  14
ENDBRANCH  10  11
ENDBRANCH   2  10
TORSDOF 6
ENDMDL
MODEL 5
REMARK VINA RESULT:    -6.554      1.464      7.498
REMARK INTER + INTRA:          -9.501
REMARK INTER:                  -8.844
REMARK INTRA:                  -0.657
REMARK UNBOUND:                -0.649
REMARK SMILES C=CC(C)=CCC=C(C)CCC=C(C)C
REMARK SMILES IDX 8 1 7 2 9 3 10 4 11 5 12 6 14 7 13 8 15 9 6 10 5 11 3 12
REMARK SMILES IDX 4 13 2 14 1 15
REMARK H PARENT
REMARK Flexibility Score: inf
ROOT
ATOM      1  C   UNL     1      14.462  30.140  22.370  1.00  0.00    -0.077 C 
ATOM      2  C   UNL     1      15.308  30.511  23.359  1.00  0.00    -0.024 C 
ATOM      3  C   UNL     1      14.474  28.743  21.797  1.00  0.00     0.039 C 
ENDROOT
BRANCH   1   4
ATOM      4  C   UNL     1      13.485  31.158  21.815  1.00  0.00     0.034 C 
BRANCH   4   5
ATOM      5  C   UNL     1      13.987  32.596  22.004  1.00  0.00     0.032 C 
BRANCH   5   6
ATOM      6  C   UNL     1      13.586  33.486  20.851  1.00  0.00    -0.028 C 
ATOM      7  C   UNL     1      15.758  33.188  19.642  1.00  0.00     0.039 C 
ATOM      8  C   UNL     1      14.380  33.785  19.800  1.00  0.00    -0.080 C 
ATOM      9  C   UNL     1      13.855  34.731  18.750  1.00  0.00     0.039 C 
ENDBRANCH   5   6
ENDBRANCH   4   5
ENDBRANCH   1   4
BRANCH   2  10
ATOM     10  C   UNL     1      16.320  29.590  23.994  1.00  0.00     0.055 C 
BRANCH  10  11
ATOM     11  C   UNL     1      17.274  30.350  24.881  1.00  0.00    -0.020 C 
ATOM     12  C   UNL     1      18.180  29.761  25.685  1.00  0.00    -0.055 C 
ATOM     13  C   UNL     1      19.061  30.633  26.546  1.00  0.00     0.044 C 
BRANCH  12  14
ATOM     14  C   UNL     1      18.307  28.276  25.756  1.00  0.00    -0.005 C 
ATOM     15  C   UNL     1      19.424  27.653  26.135  1.00  0.00     0.009 C 
ENDBRANCH  12  14
ENDBRANCH  10  11
ENDBRANCH   2  10
TORSDOF 6
ENDMDL
MODEL 6
REMARK VINA RESULT:    -6.547      0.520      1.362
REMARK INTER + INTRA:          -9.493
REMARK INTER:                  -8.864
REMARK INTRA:                  -0.629
REMARK UNBOUND:                -0.649
REMARK SMILES C=CC(C)=CCC=C(C)CCC=C(C)C
REMARK SMILES IDX 8 1 7 2 9 3 10 4 11 5 12 6 14 7 13 8 15 9 6 10 5 11 3 12
REMARK SMILES IDX 4 13 2 14 1 15
REMARK H PARENT
REMARK Flexibility Score: inf
ROOT
ATOM      1  C   UNL     1      16.009  30.751  23.467  1.00  0.00    -0.077 C 
ATOM      2  C   UNL     1      15.391  31.469  22.501  1.00  0.00    -0.024 C 
ATOM      3  C   UNL     1      15.530  29.374  23.863  1.00  0.00     0.039 C 
ENDROOT
BRANCH   1   4
ATOM      4  C   UNL     1      17.207  31.348  24.179  1.00  0.00     0.034 C 
BRANCH   4   5
ATOM      5  C   UNL     1      18.255  30.283  24.530  1.00  0.00     0.032 C 
BRANCH   5   6
ATOM      6  C   UNL     1      18.635  30.332  25.991  1.00  0.00    -0.028 C 
ATOM      7  C   UNL     1      19.092  27.874  26.131  1.00  0.00     0.039 C 
ATOM      8  C   UNL     1      18.983  29.256  26.730  1.00  0.00    -0.080 C 
ATOM      9  C   UNL     1      19.288  29.458  28.192  1.00  0.00     0.039 C 
ENDBRANCH   5   6
ENDBRANCH   4   5
ENDBRANCH   1   4
BRANCH   2  10
ATOM     10  C   UNL     1      14.195  30.982  21.721  1.00  0.00     0.055 C 
BRANCH  10  11
ATOM     11  C   UNL     1      13.666  32.052  20.802  1.00  0.00    -0.020 C 
ATOM     12  C   UNL     1      12.628  32.855  21.106  1.00  0.00    -0.055 C 
ATOM     13  C   UNL     1      12.175  33.873  20.086  1.00  0.00     0.044 C 
BRANCH  12  14
ATOM     14  C   UNL     1      11.911  32.739  22.409  1.00  0.00    -0.005 C 
ATOM     15  C   UNL     1      10.867  33.499  22.742  1.00  0.00     0.009 C 
ENDBRANCH  12  14
ENDBRANCH  10  11
ENDBRANCH   2  10
TORSDOF 6
ENDMDL
MODEL 7
REMARK VINA RESULT:    -6.539      2.433      7.573
REMARK INTER + INTRA:          -9.482
REMARK INTER:                  -8.908
REMARK INTRA:                  -0.574
REMARK UNBOUND:                -0.649
REMARK SMILES C=CC(C)=CCC=C(C)CCC=C(C)C
REMARK SMILES IDX 8 1 7 2 9 3 10 4 11 5 12 6 14 7 13 8 15 9 6 10 5 11 3 12
REMARK SMILES IDX 4 13 2 14 1 15
REMARK H PARENT
REMARK Flexibility Score: inf
ROOT
ATOM      1  C   UNL     1      15.159  30.698  22.730  1.00  0.00    -0.077 C 
ATOM      2  C   UNL     1      15.610  29.913  23.735  1.00  0.00    -0.024 C 
ATOM      3  C   UNL     1      15.835  32.001  22.374  1.00  0.00     0.039 C 
ENDROOT
BRANCH   1   4
ATOM      4  C   UNL     1      13.936  30.263  21.946  1.00  0.00     0.034 C 
BRANCH   4   5
ATOM      5  C   UNL     1      14.273  29.181  20.911  1.00  0.00     0.032 C 
BRANCH   5   6
ATOM      6  C   UNL     1      13.613  27.864  21.242  1.00  0.00    -0.028 C 
ATOM      7  C   UNL     1      11.505  28.414  20.006  1.00  0.00     0.039 C 
ATOM      8  C   UNL     1      12.362  27.518  20.869  1.00  0.00    -0.080 C 
ATOM      9  C   UNL     1      11.821  26.185  21.320  1.00  0.00     0.039 C 
ENDBRANCH   5   6
ENDBRANCH   4   5
ENDBRANCH   1   4
BRANCH   2  10
ATOM     10  C   UNL     1      16.815  30.236  24.583  1.00  0.00     0.055 C 
BRANCH  10  11
ATOM     11  C   UNL     1      17.603  28.994  24.913  1.00  0.00    -0.020 C 
ATOM     12  C   UNL     1      18.584  28.952  25.835  1.00  0.00    -0.055 C 
ATOM     13  C   UNL     1      19.318  27.651  26.055  1.00  0.00     0.044 C 
BRANCH  12  14
ATOM     14  C   UNL     1      18.969  30.163  26.616  1.00  0.00    -0.005 C 
ATOM     15  C   UNL     1      19.355  30.121  27.892  1.00  0.00     0.009 C 
ENDBRANCH  12  14
ENDBRANCH  10  11
ENDBRANCH   2  10
TORSDOF 6
ENDMDL
MODEL 8
REMARK VINA RESULT:    -6.388      1.471      2.117
REMARK INTER + INTRA:          -9.278
REMARK INTER:                  -8.763
REMARK INTRA:                  -0.515
REMARK UNBOUND:                -0.649
REMARK SMILES C=CC(C)=CCC=C(C)CCC=C(C)C
REMARK SMILES IDX 8 1 7 2 9 3 10 4 11 5 12 6 14 7 13 8 15 9 6 10 5 11 3 12
REMARK SMILES IDX 4 13 2 14 1 15
REMARK H PARENT
REMARK Flexibility Score: inf
ROOT
ATOM      1  C   UNL     1      15.580  30.150  23.303  1.00  0.00    -0.077 C 
ATOM      2  C   UNL     1      15.595  31.387  22.755  1.00  0.00    -0.024 C 
ATOM      3  C   UNL     1      14.816  29.010  22.672  1.00  0.00     0.039 C 
ENDROOT
BRANCH   1   4
ATOM      4  C   UNL     1      16.342  29.904  24.590  1.00  0.00     0.034 C 
BRANCH   4   5
ATOM      5  C   UNL     1      17.829  30.261  24.453  1.00  0.00     0.032 C 
BRANCH   5   6
ATOM      6  C   UNL     1      18.498  30.400  25.800  1.00  0.00    -0.028 C 
ATOM      7  C   UNL     1      19.037  27.960  25.975  1.00  0.00     0.039 C 
ATOM      8  C   UNL     1      19.017  29.373  26.508  1.00  0.00    -0.080 C 
ATOM      9  C   UNL     1      19.609  29.663  27.864  1.00  0.00     0.039 C 
ENDBRANCH   5   6
ENDBRANCH   4   5
ENDBRANCH   1   4
BRANCH   2  10
ATOM     10  C   UNL     1      14.880  31.753  21.478  1.00  0.00     0.055 C 
BRANCH  10  11
ATOM     11  C   UNL     1      15.576  32.883  20.764  1.00  0.00    -0.020 C 
ATOM     12  C   UNL     1      14.942  33.785  19.990  1.00  0.00    -0.055 C 
ATOM     13  C   UNL     1      15.757  34.855  19.305  1.00  0.00     0.044 C 
BRANCH  12  14
ATOM     14  C   UNL     1      13.466  33.728  19.782  1.00  0.00    -0.005 C 
ATOM     15  C   UNL     1      12.809  34.546  18.958  1.00  0.00     0.009 C 
ENDBRANCH  12  14
ENDBRANCH  10  11
ENDBRANCH   2  10
TORSDOF 6
ENDMDL
MODEL 9
REMARK VINA RESULT:    -6.306      1.399      2.188
REMARK INTER + INTRA:          -9.167
REMARK INTER:                  -8.391
REMARK INTRA:                  -0.776
REMARK UNBOUND:                -0.649
REMARK SMILES C=CC(C)=CCC=C(C)CCC=C(C)C
REMARK SMILES IDX 8 1 7 2 9 3 10 4 11 5 12 6 14 7 13 8 15 9 6 10 5 11 3 12
REMARK SMILES IDX 4 13 2 14 1 15
REMARK H PARENT
REMARK Flexibility Score: inf
ROOT
ATOM      1  C   UNL     1      15.142  30.328  22.778  1.00  0.00    -0.077 C 
ATOM      2  C   UNL     1      14.293  29.652  21.970  1.00  0.00    -0.024 C 
ATOM      3  C   UNL     1      15.613  31.725  22.446  1.00  0.00     0.039 C 
ENDROOT
BRANCH   1   4
ATOM      4  C   UNL     1      15.641  29.663  24.046  1.00  0.00     0.034 C 
BRANCH   4   5
ATOM      5  C   UNL     1      17.069  30.101  24.398  1.00  0.00     0.032 C 
BRANCH   5   6
ATOM      6  C   UNL     1      17.862  28.977  25.022  1.00  0.00    -0.028 C 
ATOM      7  C   UNL     1      18.908  30.448  26.758  1.00  0.00     0.039 C 
ATOM      8  C   UNL     1      18.714  29.123  26.060  1.00  0.00    -0.080 C 
ATOM      9  C   UNL     1      19.473  27.913  26.541  1.00  0.00     0.039 C 
ENDBRANCH   5   6
ENDBRANCH   4   5
ENDBRANCH   1   4
BRANCH   2  10
ATOM     10  C   UNL     1      13.726  30.207  20.687  1.00  0.00     0.055 C 
BRANCH  10  11
ATOM     11  C   UNL     1      12.219  30.203  20.705  1.00  0.00    -0.020 C 
ATOM     12  C   UNL     1      11.473  31.203  21.213  1.00  0.00    -0.055 C 
ATOM     13  C   UNL     1       9.969  31.067  21.195  1.00  0.00     0.044 C 
BRANCH  12  14
ATOM     14  C   UNL     1      12.102  32.417  21.808  1.00  0.00    -0.005 C 
ATOM     15  C   UNL     1      11.547  33.123  22.794  1.00  0.00     0.009 C 
ENDBRANCH  12  14
ENDBRANCH  10  11
ENDBRANCH   2  10
TORSDOF 6
ENDMDL
