MODEL 1
REMARK VINA RESULT:    -4.067      0.000      0.000
REMARK INTER + INTRA:          -5.264
REMARK INTER:                  -5.137
REMARK INTRA:                  -0.127
REMARK UNBOUND:                -0.127
REMARK SMILES CSCC[C@@H]([NH3+])C(=O)[O-]
REMARK SMILES IDX 4 1 5 2 6 3 7 7 8 8 9 9 3 10 2 11 1 12
REMARK H PARENT 6 4 6 5 6 6
REMARK Flexibility Score: inf
ROOT
ATOM      1  C   UNL     1     146.500 130.346 127.442  1.00  0.00     0.082 C 
ENDROOT
BRANCH   1   2
ATOM      2  C   UNL     1     146.818 129.446 128.660  1.00  0.00     0.228 C 
BRANCH   2   3
ATOM      3  N   UNL     1     147.648 130.171 129.630  1.00  0.00    -0.350 N 
ATOM      4  H   UNL     1     148.568 130.416 129.197  1.00  0.00     0.345 HD
ATOM      5  H   UNL     1     147.831 129.567 130.465  1.00  0.00     0.345 HD
ATOM      6  H   UNL     1     147.172 131.050 129.939  1.00  0.00     0.345 HD
ENDBRANCH   2   3
BRANCH   2   7
ATOM      7  C   UNL     1     145.561 128.951 129.328  1.00  0.00     0.099 C 
ATOM      8  O   UNL     1     145.567 127.875 129.983  1.00  0.00    -0.544 OA
ATOM      9  O   UNL     1     144.386 129.684 129.224  1.00  0.00    -0.544 OA
ENDBRANCH   2   7
ENDBRANCH   1   2
BRANCH   1  10
ATOM     10  C   UNL     1     146.415 129.575 126.113  1.00  0.00     0.076 C 
BRANCH  10  11
ATOM     11  S   UNL     1     145.386 130.441 124.869  1.00  0.00    -0.165 SA
ATOM     12  C   UNL     1     144.088 130.979 126.031  1.00  0.00     0.085 C 
ENDBRANCH  10  11
ENDBRANCH   1  10
TORSDOF 5
ENDMDL
MODEL 2
REMARK VINA RESULT:    -3.975      1.738      2.446
REMARK INTER + INTRA:          -5.148
REMARK INTER:                  -4.999
REMARK INTRA:                  -0.149
REMARK UNBOUND:                -0.127
REMARK SMILES CSCC[C@@H]([NH3+])C(=O)[O-]
REMARK SMILES IDX 4 1 5 2 6 3 7 7 8 8 9 9 3 10 2 11 1 12
REMARK H PARENT 6 4 6 5 6 6
REMARK Flexibility Score: inf
ROOT
ATOM      1  C   UNL     1     146.945 131.013 126.956  1.00  0.00     0.082 C 
ENDROOT
BRANCH   1   2
ATOM      2  C   UNL     1     146.722 129.876 127.982  1.00  0.00     0.228 C 
BRANCH   2   3
ATOM      3  N   UNL     1     147.513 130.118 129.194  1.00  0.00    -0.350 N 
ATOM      4  H   UNL     1     147.037 130.834 129.791  1.00  0.00     0.345 HD
ATOM      5  H   UNL     1     148.458 130.486 128.936  1.00  0.00     0.345 HD
ATOM      6  H   UNL     1     147.626 129.236 129.744  1.00  0.00     0.345 HD
ENDBRANCH   2   3
BRANCH   2   7
ATOM      7  C   UNL     1     145.266 129.729 128.338  1.00  0.00     0.099 C 
ATOM      8  O   UNL     1     144.370 130.065 127.518  1.00  0.00    -0.544 OA
ATOM      9  O   UNL     1     144.903 129.216 129.578  1.00  0.00    -0.544 OA
ENDBRANCH   2   7
ENDBRANCH   1   2
BRANCH   1  10
ATOM     10  C   UNL     1     147.350 130.512 125.559  1.00  0.00     0.076 C 
BRANCH  10  11
ATOM     11  S   UNL     1     147.741 128.722 125.546  1.00  0.00    -0.165 SA
ATOM     12  C   UNL     1     148.046 128.604 123.752  1.00  0.00     0.085 C 
ENDBRANCH  10  11
ENDBRANCH   1  10
TORSDOF 5
ENDMDL
MODEL 3
REMARK VINA RESULT:    -3.962      1.606      1.927
REMARK INTER + INTRA:          -5.132
REMARK INTER:                  -5.010
REMARK INTRA:                  -0.122
REMARK UNBOUND:                -0.127
REMARK SMILES CSCC[C@@H]([NH3+])C(=O)[O-]
REMARK SMILES IDX 4 1 5 2 6 3 7 7 8 8 9 9 3 10 2 11 1 12
REMARK H PARENT 6 4 6 5 6 6
REMARK Flexibility Score: inf
ROOT
ATOM      1  C   UNL     1     145.673 130.463 126.952  1.00  0.00     0.082 C 
ENDROOT
BRANCH   1   2
ATOM      2  C   UNL     1     145.990 129.180 127.758  1.00  0.00     0.228 C 
BRANCH   2   3
ATOM      3  N   UNL     1     147.347 128.709 127.457  1.00  0.00    -0.350 N 
ATOM      4  H   UNL     1     147.892 128.605 128.344  1.00  0.00     0.345 HD
ATOM      5  H   UNL     1     147.840 129.406 126.852  1.00  0.00     0.345 HD
ATOM      6  H   UNL     1     147.317 127.786 126.966  1.00  0.00     0.345 HD
ENDBRANCH   2   3
BRANCH   2   7
ATOM      7  C   UNL     1     145.840 129.405 129.240  1.00  0.00     0.099 C 
ATOM      8  O   UNL     1     144.731 129.214 129.806  1.00  0.00    -0.544 OA
ATOM      9  O   UNL     1     146.931 129.824 129.992  1.00  0.00    -0.544 OA
ENDBRANCH   2   7
ENDBRANCH   1   2
BRANCH   1  10
ATOM     10  C   UNL     1     144.206 130.559 126.500  1.00  0.00     0.076 C 
BRANCH  10  11
ATOM     11  S   UNL     1     144.049 130.869 124.700  1.00  0.00    -0.165 SA
ATOM     12  C   UNL     1     145.810 130.611 124.306  1.00  0.00     0.085 C 
ENDBRANCH  10  11
ENDBRANCH   1  10
TORSDOF 5
ENDMDL
MODEL 4
REMARK VINA RESULT:    -3.945      1.725      1.903
REMARK INTER + INTRA:          -5.110
REMARK INTER:                  -5.029
REMARK INTRA:                  -0.082
REMARK UNBOUND:                -0.127
REMARK SMILES CSCC[C@@H]([NH3+])C(=O)[O-]
REMARK SMILES IDX 4 1 5 2 6 3 7 7 8 8 9 9 3 10 2 11 1 12
REMARK H PARENT 6 4 6 5 6 6
REMARK Flexibility Score: inf
ROOT
ATOM      1  C   UNL     1     146.139 130.726 126.991  1.00  0.00     0.082 C 
ENDROOT
BRANCH   1   2
ATOM      2  C   UNL     1     146.135 129.347 127.692  1.00  0.00     0.228 C 
BRANCH   2   3
ATOM      3  N   UNL     1     147.387 128.631 127.418  1.00  0.00    -0.350 N 
ATOM      4  H   UNL     1     147.416 127.742 127.970  1.00  0.00     0.345 HD
ATOM      5  H   UNL     1     148.204 129.219 127.705  1.00  0.00     0.345 HD
ATOM      6  H   UNL     1     147.468 128.403 126.401  1.00  0.00     0.345 HD
ENDBRANCH   2   3
BRANCH   2   7
ATOM      7  C   UNL     1     145.934 129.481 129.178  1.00  0.00     0.099 C 
ATOM      8  O   UNL     1     144.789 129.335 129.684  1.00  0.00    -0.544 OA
ATOM      9  O   UNL     1     147.016 129.765 130.003  1.00  0.00    -0.544 OA
ENDBRANCH   2   7
ENDBRANCH   1   2
BRANCH   1  10
ATOM     10  C   UNL     1     145.269 130.775 125.723  1.00  0.00     0.076 C 
BRANCH  10  11
ATOM     11  S   UNL     1     143.484 130.928 126.106  1.00  0.00    -0.165 SA
ATOM     12  C   UNL     1     142.887 130.188 124.550  1.00  0.00     0.085 C 
ENDBRANCH  10  11
ENDBRANCH   1  10
TORSDOF 5
ENDMDL
MODEL 5
REMARK VINA RESULT:    -3.940      1.583      1.809
REMARK INTER + INTRA:          -5.103
REMARK INTER:                  -4.981
REMARK INTRA:                  -0.122
REMARK UNBOUND:                -0.127
REMARK SMILES CSCC[C@@H]([NH3+])C(=O)[O-]
REMARK SMILES IDX 4 1 5 2 6 3 7 7 8 8 9 9 3 10 2 11 1 12
REMARK H PARENT 6 4 6 5 6 6
REMARK Flexibility Score: inf
ROOT
ATOM      1  C   UNL     1     145.683 130.424 126.993  1.00  0.00     0.082 C 
ENDROOT
BRANCH   1   2
ATOM      2  C   UNL     1     145.996 129.117 127.759  1.00  0.00     0.228 C 
BRANCH   2   3
ATOM      3  N   UNL     1     147.350 128.649 127.441  1.00  0.00    -0.350 N 
ATOM      4  H   UNL     1     147.514 127.712 127.878  1.00  0.00     0.345 HD
ATOM      5  H   UNL     1     148.058 129.316 127.826  1.00  0.00     0.345 HD
ATOM      6  H   UNL     1     147.479 128.570 126.406  1.00  0.00     0.345 HD
ENDBRANCH   2   3
BRANCH   2   7
ATOM      7  C   UNL     1     145.852 129.298 129.248  1.00  0.00     0.099 C 
ATOM      8  O   UNL     1     146.834 129.671 129.944  1.00  0.00    -0.544 OA
ATOM      9  O   UNL     1     144.629 129.054 129.862  1.00  0.00    -0.544 OA
ENDBRANCH   2   7
ENDBRANCH   1   2
BRANCH   1  10
ATOM     10  C   UNL     1     144.213 130.543 126.553  1.00  0.00     0.076 C 
BRANCH  10  11
ATOM     11  S   UNL     1     144.045 130.850 124.755  1.00  0.00    -0.165 SA
ATOM     12  C   UNL     1     145.807 130.607 124.352  1.00  0.00     0.085 C 
ENDBRANCH  10  11
ENDBRANCH   1  10
TORSDOF 5
ENDMDL
MODEL 6
REMARK VINA RESULT:    -3.925      1.517      1.541
REMARK INTER + INTRA:          -5.085
REMARK INTER:                  -5.039
REMARK INTRA:                  -0.046
REMARK UNBOUND:                -0.127
REMARK SMILES CSCC[C@@H]([NH3+])C(=O)[O-]
REMARK SMILES IDX 4 1 5 2 6 3 7 7 8 8 9 9 3 10 2 11 1 12
REMARK H PARENT 6 4 6 5 6 6
REMARK Flexibility Score: inf
ROOT
ATOM      1  C   UNL     1     144.969 130.114 127.456  1.00  0.00     0.082 C 
ENDROOT
BRANCH   1   2
ATOM      2  C   UNL     1     146.209 129.462 128.113  1.00  0.00     0.228 C 
BRANCH   2   3
ATOM      3  N   UNL     1     147.276 130.454 128.288  1.00  0.00    -0.350 N 
ATOM      4  H   UNL     1     146.880 131.335 128.689  1.00  0.00     0.345 HD
ATOM      5  H   UNL     1     147.706 130.683 127.361  1.00  0.00     0.345 HD
ATOM      6  H   UNL     1     148.018 130.090 128.930  1.00  0.00     0.345 HD
ENDBRANCH   2   3
BRANCH   2   7
ATOM      7  C   UNL     1     145.868 128.834 129.439  1.00  0.00     0.099 C 
ATOM      8  O   UNL     1     146.747 128.218 130.099  1.00  0.00    -0.544 OA
ATOM      9  O   UNL     1     144.577 128.935 129.944  1.00  0.00    -0.544 OA
ENDBRANCH   2   7
ENDBRANCH   1   2
BRANCH   1  10
ATOM     10  C   UNL     1     145.010 130.101 125.917  1.00  0.00     0.076 C 
BRANCH  10  11
ATOM     11  S   UNL     1     143.451 130.711 125.173  1.00  0.00    -0.165 SA
ATOM     12  C   UNL     1     143.793 130.105 123.487  1.00  0.00     0.085 C 
ENDBRANCH  10  11
ENDBRANCH   1  10
TORSDOF 5
ENDMDL
MODEL 7
REMARK VINA RESULT:    -3.700      1.533      2.079
REMARK INTER + INTRA:          -4.801
REMARK INTER:                  -4.754
REMARK INTRA:                  -0.047
REMARK UNBOUND:                -0.127
REMARK SMILES CSCC[C@@H]([NH3+])C(=O)[O-]
REMARK SMILES IDX 4 1 5 2 6 3 7 7 8 8 9 9 3 10 2 11 1 12
REMARK H PARENT 6 4 6 5 6 6
REMARK Flexibility Score: inf
ROOT
ATOM      1  C   UNL     1     146.773 129.039 126.691  1.00  0.00     0.082 C 
ENDROOT
BRANCH   1   2
ATOM      2  C   UNL     1     146.586 129.151 128.223  1.00  0.00     0.228 C 
BRANCH   2   3
ATOM      3  N   UNL     1     147.497 130.160 128.777  1.00  0.00    -0.350 N 
ATOM      4  H   UNL     1     147.448 131.035 128.206  1.00  0.00     0.345 HD
ATOM      5  H   UNL     1     148.482 129.806 128.747  1.00  0.00     0.345 HD
ATOM      6  H   UNL     1     147.242 130.384 129.767  1.00  0.00     0.345 HD
ENDBRANCH   2   3
BRANCH   2   7
ATOM      7  C   UNL     1     145.163 129.489 128.585  1.00  0.00     0.099 C 
ATOM      8  O   UNL     1     144.713 129.214 129.730  1.00  0.00    -0.544 OA
ATOM      9  O   UNL     1     144.339 130.109 127.655  1.00  0.00    -0.544 OA
ENDBRANCH   2   7
ENDBRANCH   1   2
BRANCH   1  10
ATOM     10  C   UNL     1     147.320 130.323 126.043  1.00  0.00     0.076 C 
BRANCH  10  11
ATOM     11  S   UNL     1     146.798 130.500 124.295  1.00  0.00    -0.165 SA
ATOM     12  C   UNL     1     148.476 130.436 123.584  1.00  0.00     0.085 C 
ENDBRANCH  10  11
ENDBRANCH   1  10
TORSDOF 5
ENDMDL
MODEL 8
REMARK VINA RESULT:    -3.532      3.719      4.453
REMARK INTER + INTRA:          -4.588
REMARK INTER:                  -4.469
REMARK INTRA:                  -0.119
REMARK UNBOUND:                -0.127
REMARK SMILES CSCC[C@@H]([NH3+])C(=O)[O-]
REMARK SMILES IDX 4 1 5 2 6 3 7 7 8 8 9 9 3 10 2 11 1 12
REMARK H PARENT 6 4 6 5 6 6
REMARK Flexibility Score: inf
ROOT
ATOM      1  C   UNL     1     145.580 130.346 127.036  1.00  0.00     0.082 C 
ENDROOT
BRANCH   1   2
ATOM      2  C   UNL     1     144.262 130.220 126.234  1.00  0.00     0.228 C 
BRANCH   2   3
ATOM      3  N   UNL     1     143.162 130.875 126.952  1.00  0.00    -0.350 N 
ATOM      4  H   UNL     1     142.246 130.483 126.633  1.00  0.00     0.345 HD
ATOM      5  H   UNL     1     143.165 131.902 126.749  1.00  0.00     0.345 HD
ATOM      6  H   UNL     1     143.255 130.728 127.984  1.00  0.00     0.345 HD
ENDBRANCH   2   3
BRANCH   2   7
ATOM      7  C   UNL     1     144.395 130.806 124.853  1.00  0.00     0.099 C 
ATOM      8  O   UNL     1     145.526 130.895 124.303  1.00  0.00    -0.544 OA
ATOM      9  O   UNL     1     143.266 131.250 124.175  1.00  0.00    -0.544 OA
ENDBRANCH   2   7
ENDBRANCH   1   2
BRANCH   1  10
ATOM     10  C   UNL     1     146.287 129.000 127.273  1.00  0.00     0.076 C 
BRANCH  10  11
ATOM     11  S   UNL     1     146.625 128.693 129.048  1.00  0.00    -0.165 SA
ATOM     12  C   UNL     1     144.923 129.000 129.625  1.00  0.00     0.085 C 
ENDBRANCH  10  11
ENDBRANCH   1  10
TORSDOF 5
ENDMDL
MODEL 9
REMARK VINA RESULT:    -3.421      2.326      2.705
REMARK INTER + INTRA:          -4.448
REMARK INTER:                  -4.340
REMARK INTRA:                  -0.108
REMARK UNBOUND:                -0.127
REMARK SMILES CSCC[C@@H]([NH3+])C(=O)[O-]
REMARK SMILES IDX 4 1 5 2 6 3 7 7 8 8 9 9 3 10 2 11 1 12
REMARK H PARENT 6 4 6 5 6 6
REMARK Flexibility Score: inf
ROOT
ATOM      1  C   UNL     1     147.099 130.519 126.004  1.00  0.00     0.082 C 
ENDROOT
BRANCH   1   2
ATOM      2  C   UNL     1     146.889 129.048 126.437  1.00  0.00     0.228 C 
BRANCH   2   3
ATOM      3  N   UNL     1     148.125 128.279 126.252  1.00  0.00    -0.350 N 
ATOM      4  H   UNL     1     147.911 127.255 126.262  1.00  0.00     0.345 HD
ATOM      5  H   UNL     1     148.790 128.480 127.035  1.00  0.00     0.345 HD
ATOM      6  H   UNL     1     148.580 128.523 125.342  1.00  0.00     0.345 HD
ENDBRANCH   2   3
BRANCH   2   7
ATOM      7  C   UNL     1     146.433 128.952 127.869  1.00  0.00     0.099 C 
ATOM      8  O   UNL     1     145.953 127.875 128.315  1.00  0.00    -0.544 OA
ATOM      9  O   UNL     1     146.542 130.054 128.709  1.00  0.00    -0.544 OA
ENDBRANCH   2   7
ENDBRANCH   1   2
BRANCH   1  10
ATOM     10  C   UNL     1     147.790 130.666 124.637  1.00  0.00     0.076 C 
BRANCH  10  11
ATOM     11  S   UNL     1     146.591 130.876 123.267  1.00  0.00    -0.165 SA
ATOM     12  C   UNL     1     146.829 129.218 122.546  1.00  0.00     0.085 C 
ENDBRANCH  10  11
ENDBRANCH   1  10
TORSDOF 5
ENDMDL
