MODEL 1
REMARK VINA RESULT:    -6.956      0.000      0.000
REMARK INTER + INTRA:          -7.981
REMARK INTER:                  -7.769
REMARK INTRA:                  -0.211
REMARK UNBOUND:                -0.211
REMARK SMILES CC(C)c1ccc(C(=O)[O-])cc1
REMARK SMILES IDX 7 1 6 2 11 3 5 4 12 5 4 6 8 7 9 8 10 9 2 10 1 11 3 12
REMARK H PARENT
REMARK Flexibility Score: inf
ROOT
ATOM      1  C   UNL     1      17.640  72.026  72.947  1.00  0.00    -0.003 A 
ATOM      2  C   UNL     1      16.645  71.660  72.024  1.00  0.00     0.010 A 
ATOM      3  C   UNL     1      17.402  71.829  74.317  1.00  0.00     0.010 A 
ATOM      4  C   UNL     1      15.438  71.109  72.464  1.00  0.00     0.004 A 
ATOM      5  C   UNL     1      16.196  71.278  74.757  1.00  0.00     0.004 A 
ATOM      6  C   UNL     1      15.200  70.912  73.834  1.00  0.00    -0.045 A 
ENDROOT
BRANCH   1   7
ATOM      7  C   UNL     1      18.919  72.610  72.486  1.00  0.00     0.071 C 
ATOM      8  O   UNL     1      19.981  72.424  73.139  1.00  0.00    -0.545 OA
ATOM      9  O   UNL     1      18.967  73.375  71.326  1.00  0.00    -0.545 OA
ENDBRANCH   1   7
BRANCH   6  10
ATOM     10  C   UNL     1      13.885  70.313  74.297  1.00  0.00     0.013 C 
ATOM     11  C   UNL     1      13.978  69.830  75.749  1.00  0.00     0.012 C 
ATOM     12  C   UNL     1      12.731  71.306  74.119  1.00  0.00     0.012 C 
ENDBRANCH   6  10
TORSDOF 2
ENDMDL
MODEL 2
REMARK VINA RESULT:    -6.937      0.056      1.399
REMARK INTER + INTRA:          -7.959
REMARK INTER:                  -7.746
REMARK INTRA:                  -0.213
REMARK UNBOUND:                -0.211
REMARK SMILES CC(C)c1ccc(C(=O)[O-])cc1
REMARK SMILES IDX 7 1 6 2 11 3 5 4 12 5 4 6 8 7 9 8 10 9 2 10 1 11 3 12
REMARK H PARENT
REMARK Flexibility Score: inf
ROOT
ATOM      1  C   UNL     1      17.679  72.039  72.947  1.00  0.00    -0.003 A 
ATOM      2  C   UNL     1      17.418  71.843  74.314  1.00  0.00     0.010 A 
ATOM      3  C   UNL     1      16.697  71.679  72.009  1.00  0.00     0.010 A 
ATOM      4  C   UNL     1      16.201  71.300  74.734  1.00  0.00     0.004 A 
ATOM      5  C   UNL     1      15.480  71.136  72.428  1.00  0.00     0.004 A 
ATOM      6  C   UNL     1      15.218  70.940  73.796  1.00  0.00    -0.045 A 
ENDROOT
BRANCH   1   7
ATOM      7  C   UNL     1      18.966  72.613  72.498  1.00  0.00     0.071 C 
ATOM      8  O   UNL     1      20.014  72.448  73.178  1.00  0.00    -0.545 OA
ATOM      9  O   UNL     1      19.038  73.346  71.319  1.00  0.00    -0.545 OA
ENDBRANCH   1   7
BRANCH   6  10
ATOM     10  C   UNL     1      13.901  70.350  74.266  1.00  0.00     0.013 C 
ATOM     11  C   UNL     1      13.988  69.901  75.729  1.00  0.00     0.012 C 
ATOM     12  C   UNL     1      12.748  71.338  74.059  1.00  0.00     0.012 C 
ENDBRANCH   6  10
TORSDOF 2
ENDMDL
MODEL 3
REMARK VINA RESULT:    -6.782      3.461      4.775
REMARK INTER + INTRA:          -7.787
REMARK INTER:                  -7.573
REMARK INTRA:                  -0.214
REMARK UNBOUND:                -0.211
REMARK SMILES CC(C)c1ccc(C(=O)[O-])cc1
REMARK SMILES IDX 7 1 6 2 11 3 5 4 12 5 4 6 8 7 9 8 10 9 2 10 1 11 3 12
REMARK H PARENT
REMARK Flexibility Score: inf
ROOT
ATOM      1  C   UNL     1      16.084  70.870  77.158  1.00  0.00    -0.003 A 
ATOM      2  C   UNL     1      16.968  71.492  76.259  1.00  0.00     0.010 A 
ATOM      3  C   UNL     1      14.864  70.369  76.676  1.00  0.00     0.010 A 
ATOM      4  C   UNL     1      16.637  71.608  74.906  1.00  0.00     0.004 A 
ATOM      5  C   UNL     1      14.533  70.486  75.323  1.00  0.00     0.004 A 
ATOM      6  C   UNL     1      15.416  71.107  74.423  1.00  0.00    -0.045 A 
ENDROOT
BRANCH   1   7
ATOM      7  C   UNL     1      16.429  70.745  78.591  1.00  0.00     0.071 C 
ATOM      8  O   UNL     1      16.563  69.610  79.122  1.00  0.00    -0.545 OA
ATOM      9  O   UNL     1      16.610  71.879  79.375  1.00  0.00    -0.545 OA
ENDBRANCH   1   7
BRANCH   6  10
ATOM     10  C   UNL     1      15.070  71.241  72.951  1.00  0.00     0.013 C 
ATOM     11  C   UNL     1      16.311  71.594  72.122  1.00  0.00     0.012 C 
ATOM     12  C   UNL     1      14.397  69.970  72.423  1.00  0.00     0.012 C 
ENDBRANCH   6  10
TORSDOF 2
ENDMDL
MODEL 4
REMARK VINA RESULT:    -6.623      3.310      5.229
REMARK INTER + INTRA:          -7.609
REMARK INTER:                  -7.407
REMARK INTRA:                  -0.202
REMARK UNBOUND:                -0.211
REMARK SMILES CC(C)c1ccc(C(=O)[O-])cc1
REMARK SMILES IDX 7 1 6 2 11 3 5 4 12 5 4 6 8 7 9 8 10 9 2 10 1 11 3 12
REMARK H PARENT
REMARK Flexibility Score: inf
ROOT
ATOM      1  C   UNL     1      14.757  70.791  74.581  1.00  0.00    -0.003 A 
ATOM      2  C   UNL     1      15.948  71.395  75.021  1.00  0.00     0.010 A 
ATOM      3  C   UNL     1      14.541  70.639  73.201  1.00  0.00     0.010 A 
ATOM      4  C   UNL     1      16.902  71.835  74.100  1.00  0.00     0.004 A 
ATOM      5  C   UNL     1      15.495  71.080  72.280  1.00  0.00     0.004 A 
ATOM      6  C   UNL     1      16.687  71.684  72.720  1.00  0.00    -0.045 A 
ENDROOT
BRANCH   1   7
ATOM      7  C   UNL     1      13.743  70.323  75.552  1.00  0.00     0.071 C 
ATOM      8  O   UNL     1      13.934  69.273  76.221  1.00  0.00    -0.545 OA
ATOM      9  O   UNL     1      12.565  71.036  75.739  1.00  0.00    -0.545 OA
ENDBRANCH   1   7
BRANCH   6  10
ATOM     10  C   UNL     1      17.731  72.167  71.731  1.00  0.00     0.013 C 
ATOM     11  C   UNL     1      17.782  73.699  71.686  1.00  0.00     0.012 C 
ATOM     12  C   UNL     1      19.110  71.579  72.051  1.00  0.00     0.012 C 
ENDBRANCH   6  10
TORSDOF 2
ENDMDL
MODEL 5
REMARK VINA RESULT:    -6.593      5.265      6.464
REMARK INTER + INTRA:          -7.575
REMARK INTER:                  -7.371
REMARK INTRA:                  -0.205
REMARK UNBOUND:                -0.211
REMARK SMILES CC(C)c1ccc(C(=O)[O-])cc1
REMARK SMILES IDX 7 1 6 2 11 3 5 4 12 5 4 6 8 7 9 8 10 9 2 10 1 11 3 12
REMARK H PARENT
REMARK Flexibility Score: inf
ROOT
ATOM      1  C   UNL     1      21.562  70.019  75.733  1.00  0.00    -0.003 A 
ATOM      2  C   UNL     1      22.347  69.292  76.646  1.00  0.00     0.010 A 
ATOM      3  C   UNL     1      20.237  70.334  76.077  1.00  0.00     0.010 A 
ATOM      4  C   UNL     1      21.818  68.892  77.875  1.00  0.00     0.004 A 
ATOM      5  C   UNL     1      19.708  69.934  77.307  1.00  0.00     0.004 A 
ATOM      6  C   UNL     1      20.493  69.207  78.220  1.00  0.00    -0.045 A 
ENDROOT
BRANCH   1   7
ATOM      7  C   UNL     1      22.118  70.445  74.430  1.00  0.00     0.071 C 
ATOM      8  O   UNL     1      21.394  70.458  73.398  1.00  0.00    -0.545 OA
ATOM      9  O   UNL     1      23.448  70.834  74.325  1.00  0.00    -0.545 OA
ENDBRANCH   1   7
BRANCH   6  10
ATOM     10  C   UNL     1      19.931  68.765  79.559  1.00  0.00     0.013 C 
ATOM     11  C   UNL     1      19.628  69.971  80.456  1.00  0.00     0.012 C 
ATOM     12  C   UNL     1      18.688  67.888  79.374  1.00  0.00     0.012 C 
ENDBRANCH   6  10
TORSDOF 2
ENDMDL
MODEL 6
REMARK VINA RESULT:    -6.585      3.984      5.546
REMARK INTER + INTRA:          -7.566
REMARK INTER:                  -7.357
REMARK INTRA:                  -0.210
REMARK UNBOUND:                -0.211
REMARK SMILES CC(C)c1ccc(C(=O)[O-])cc1
REMARK SMILES IDX 7 1 6 2 11 3 5 4 12 5 4 6 8 7 9 8 10 9 2 10 1 11 3 12
REMARK H PARENT
REMARK Flexibility Score: inf
ROOT
ATOM      1  C   UNL     1      12.909  71.333  72.139  1.00  0.00    -0.003 A 
ATOM      2  C   UNL     1      13.457  72.622  72.020  1.00  0.00     0.010 A 
ATOM      3  C   UNL     1      13.770  70.247  72.368  1.00  0.00     0.010 A 
ATOM      4  C   UNL     1      14.835  72.820  72.130  1.00  0.00     0.004 A 
ATOM      5  C   UNL     1      15.149  70.445  72.478  1.00  0.00     0.004 A 
ATOM      6  C   UNL     1      15.698  71.735  72.360  1.00  0.00    -0.045 A 
ENDROOT
BRANCH   1   7
ATOM      7  C   UNL     1      11.450  71.118  72.023  1.00  0.00     0.071 C 
ATOM      8  O   UNL     1      10.647  71.767  72.745  1.00  0.00    -0.545 OA
ATOM      9  O   UNL     1      10.944  70.195  71.115  1.00  0.00    -0.545 OA
ENDBRANCH   1   7
BRANCH   6  10
ATOM     10  C   UNL     1      17.193  71.965  72.476  1.00  0.00     0.013 C 
ATOM     11  C   UNL     1      17.569  73.385  72.040  1.00  0.00     0.012 C 
ATOM     12  C   UNL     1      17.688  71.674  73.897  1.00  0.00     0.012 C 
ENDBRANCH   6  10
TORSDOF 2
ENDMDL
MODEL 7
REMARK VINA RESULT:    -6.533      4.057      5.574
REMARK INTER + INTRA:          -7.508
REMARK INTER:                  -7.303
REMARK INTRA:                  -0.205
REMARK UNBOUND:                -0.211
REMARK SMILES CC(C)c1ccc(C(=O)[O-])cc1
REMARK SMILES IDX 7 1 6 2 11 3 5 4 12 5 4 6 8 7 9 8 10 9 2 10 1 11 3 12
REMARK H PARENT
REMARK Flexibility Score: inf
ROOT
ATOM      1  C   UNL     1      12.633  71.223  72.008  1.00  0.00    -0.003 A 
ATOM      2  C   UNL     1      13.554  70.225  72.372  1.00  0.00     0.010 A 
ATOM      3  C   UNL     1      13.063  72.559  71.957  1.00  0.00     0.010 A 
ATOM      4  C   UNL     1      14.877  70.558  72.676  1.00  0.00     0.004 A 
ATOM      5  C   UNL     1      14.386  72.892  72.261  1.00  0.00     0.004 A 
ATOM      6  C   UNL     1      15.308  71.894  72.624  1.00  0.00    -0.045 A 
ENDROOT
BRANCH   1   7
ATOM      7  C   UNL     1      11.232  70.876  71.686  1.00  0.00     0.071 C 
ATOM      8  O   UNL     1      10.277  71.440  72.285  1.00  0.00    -0.545 OA
ATOM      9  O   UNL     1      10.947  69.920  70.718  1.00  0.00    -0.545 OA
ENDBRANCH   1   7
BRANCH   6  10
ATOM     10  C   UNL     1      16.747  72.241  72.958  1.00  0.00     0.013 C 
ATOM     11  C   UNL     1      17.144  71.688  74.331  1.00  0.00     0.012 C 
ATOM     12  C   UNL     1      17.702  71.746  71.866  1.00  0.00     0.012 C 
ENDBRANCH   6  10
TORSDOF 2
ENDMDL
MODEL 8
REMARK VINA RESULT:    -6.302      2.837      4.191
REMARK INTER + INTRA:          -7.251
REMARK INTER:                  -7.041
REMARK INTRA:                  -0.209
REMARK UNBOUND:                -0.211
REMARK SMILES CC(C)c1ccc(C(=O)[O-])cc1
REMARK SMILES IDX 7 1 6 2 11 3 5 4 12 5 4 6 8 7 9 8 10 9 2 10 1 11 3 12
REMARK H PARENT
REMARK Flexibility Score: inf
ROOT
ATOM      1  C   UNL     1      20.951  70.724  73.699  1.00  0.00    -0.003 A 
ATOM      2  C   UNL     1      20.796  70.822  72.305  1.00  0.00     0.010 A 
ATOM      3  C   UNL     1      19.863  71.045  74.528  1.00  0.00     0.010 A 
ATOM      4  C   UNL     1      19.580  71.232  71.754  1.00  0.00     0.004 A 
ATOM      5  C   UNL     1      18.646  71.456  73.976  1.00  0.00     0.004 A 
ATOM      6  C   UNL     1      18.491  71.554  72.582  1.00  0.00    -0.045 A 
ENDROOT
BRANCH   1   7
ATOM      7  C   UNL     1      22.237  70.290  74.288  1.00  0.00     0.071 C 
ATOM      8  O   UNL     1      22.274  69.775  75.437  1.00  0.00    -0.545 OA
ATOM      9  O   UNL     1      23.424  70.448  73.582  1.00  0.00    -0.545 OA
ENDBRANCH   1   7
BRANCH   6  10
ATOM     10  C   UNL     1      17.177  71.999  71.969  1.00  0.00     0.013 C 
ATOM     11  C   UNL     1      15.989  71.576  72.841  1.00  0.00     0.012 C 
ATOM     12  C   UNL     1      17.166  73.511  71.718  1.00  0.00     0.012 C 
ENDBRANCH   6  10
TORSDOF 2
ENDMDL
MODEL 9
REMARK VINA RESULT:    -6.211      2.338      3.275
REMARK INTER + INTRA:          -7.148
REMARK INTER:                  -6.948
REMARK INTRA:                  -0.201
REMARK UNBOUND:                -0.211
REMARK SMILES CC(C)c1ccc(C(=O)[O-])cc1
REMARK SMILES IDX 7 1 6 2 11 3 5 4 12 5 4 6 8 7 9 8 10 9 2 10 1 11 3 12
REMARK H PARENT
REMARK Flexibility Score: inf
ROOT
ATOM      1  C   UNL     1      15.507  71.611  72.745  1.00  0.00    -0.003 A 
ATOM      2  C   UNL     1      14.869  72.813  72.389  1.00  0.00     0.010 A 
ATOM      3  C   UNL     1      14.764  70.419  72.738  1.00  0.00     0.010 A 
ATOM      4  C   UNL     1      13.518  72.819  72.033  1.00  0.00     0.004 A 
ATOM      5  C   UNL     1      13.413  70.426  72.382  1.00  0.00     0.004 A 
ATOM      6  C   UNL     1      12.774  71.627  72.025  1.00  0.00    -0.045 A 
ENDROOT
BRANCH   1   7
ATOM      7  C   UNL     1      16.937  71.599  73.124  1.00  0.00     0.071 C 
ATOM      8  O   UNL     1      17.279  71.533  74.335  1.00  0.00    -0.545 OA
ATOM      9  O   UNL     1      17.925  71.661  72.147  1.00  0.00    -0.545 OA
ENDBRANCH   1   7
BRANCH   6  10
ATOM     10  C   UNL     1      11.308  71.650  71.637  1.00  0.00     0.013 C 
ATOM     11  C   UNL     1      10.971  70.499  70.682  1.00  0.00     0.012 C 
ATOM     12  C   UNL     1      10.407  71.621  72.876  1.00  0.00     0.012 C 
ENDBRANCH   6  10
TORSDOF 2
ENDMDL
