MODEL 1
REMARK VINA RESULT:    -5.407      0.000      0.000
REMARK INTER + INTRA:          -8.911
REMARK INTER:                  -7.935
REMARK INTRA:                  -0.976
REMARK UNBOUND:                -0.976
REMARK SMILES CC(C)COC(=O)c1ccccc1C(=O)OCC(C)C
REMARK SMILES IDX 8 1 9 2 10 3 11 4 12 5 13 6 6 7 7 8 5 9 4 10 2 11 1 12 3 13
REMARK SMILES IDX 14 14 15 15 16 16 17 17 18 18 19 19 20 20
REMARK H PARENT
REMARK Flexibility Score: inf
ROOT
ATOM      1  C   UNL     1       5.287  -3.483  46.269  1.00  0.00     0.074 A 
ATOM      2  C   UNL     1       4.704  -4.027  45.111  1.00  0.00     0.016 A 
ATOM      3  C   UNL     1       4.310  -3.201  44.056  1.00  0.00     0.001 A 
ATOM      4  C   UNL     1       4.491  -1.824  44.143  1.00  0.00     0.001 A 
ATOM      5  C   UNL     1       5.088  -1.265  45.274  1.00  0.00     0.016 A 
ATOM      6  C   UNL     1       5.515  -2.080  46.338  1.00  0.00     0.074 A 
ENDROOT
BRANCH   1   7
ATOM      7  C   UNL     1       5.580  -4.400  47.392  1.00  0.00     0.339 C 
ATOM      8  O   UNL     1       6.554  -5.199  47.322  1.00  0.00    -0.246 OA
BRANCH   7   9
ATOM      9  O   UNL     1       4.805  -4.333  48.556  1.00  0.00    -0.462 OA
BRANCH   9  10
ATOM     10  C   UNL     1       4.576  -5.449  49.414  1.00  0.00     0.236 C 
BRANCH  10  11
ATOM     11  C   UNL     1       5.333  -5.292  50.747  1.00  0.00     0.021 C 
ATOM     12  C   UNL     1       6.644  -6.084  50.711  1.00  0.00     0.011 C 
ATOM     13  C   UNL     1       5.609  -3.815  51.053  1.00  0.00     0.011 C 
ENDBRANCH  10  11
ENDBRANCH   9  10
ENDBRANCH   7   9
ENDBRANCH   1   7
BRANCH   6  14
ATOM     14  C   UNL     1       6.245  -1.436  47.454  1.00  0.00     0.339 C 
ATOM     15  O   UNL     1       5.632  -1.089  48.501  1.00  0.00    -0.246 OA
BRANCH  14  16
ATOM     16  O   UNL     1       7.630  -1.266  47.363  1.00  0.00    -0.462 OA
BRANCH  16  17
ATOM     17  C   UNL     1       8.518  -2.332  47.040  1.00  0.00     0.236 C 
BRANCH  17  18
ATOM     18  C   UNL     1       9.370  -2.694  48.266  1.00  0.00     0.021 C 
ATOM     19  C   UNL     1       9.788  -4.168  48.210  1.00  0.00     0.011 C 
ATOM     20  C   UNL     1       8.614  -2.404  49.569  1.00  0.00     0.011 C 
ENDBRANCH  17  18
ENDBRANCH  16  17
ENDBRANCH  14  16
ENDBRANCH   6  14
TORSDOF 8
ENDMDL
MODEL 2
REMARK VINA RESULT:    -5.346      1.647      4.547
REMARK INTER + INTRA:          -8.822
REMARK INTER:                  -7.369
REMARK INTRA:                  -1.453
REMARK UNBOUND:                -0.976
REMARK SMILES CC(C)COC(=O)c1ccccc1C(=O)OCC(C)C
REMARK SMILES IDX 8 1 9 2 10 3 11 4 12 5 13 6 6 7 7 8 5 9 4 10 2 11 1 12 3 13
REMARK SMILES IDX 14 14 15 15 16 16 17 17 18 18 19 19 20 20
REMARK H PARENT
REMARK Flexibility Score: inf
ROOT
ATOM      1  C   UNL     1       7.165  -4.201  49.632  1.00  0.00     0.074 A 
ATOM      2  C   UNL     1       6.298  -4.484  50.703  1.00  0.00     0.016 A 
ATOM      3  C   UNL     1       5.861  -3.468  51.554  1.00  0.00     0.001 A 
ATOM      4  C   UNL     1       6.283  -2.157  51.349  1.00  0.00     0.001 A 
ATOM      5  C   UNL     1       7.124  -1.850  50.279  1.00  0.00     0.016 A 
ATOM      6  C   UNL     1       7.558  -2.855  49.395  1.00  0.00     0.074 A 
ENDROOT
BRANCH   1   7
ATOM      7  C   UNL     1       7.677  -5.339  48.837  1.00  0.00     0.339 C 
ATOM      8  O   UNL     1       8.904  -5.631  48.862  1.00  0.00    -0.246 OA
BRANCH   7   9
ATOM      9  O   UNL     1       6.779  -6.125  48.103  1.00  0.00    -0.462 OA
BRANCH   9  10
ATOM     10  C   UNL     1       6.131  -5.675  46.915  1.00  0.00     0.236 C 
BRANCH  10  11
ATOM     11  C   UNL     1       4.658  -6.125  46.880  1.00  0.00     0.021 C 
ATOM     12  C   UNL     1       3.875  -5.476  48.027  1.00  0.00     0.011 C 
ATOM     13  C   UNL     1       4.009  -5.786  45.532  1.00  0.00     0.011 C 
ENDBRANCH  10  11
ENDBRANCH   9  10
ENDBRANCH   7   9
ENDBRANCH   1   7
BRANCH   6  14
ATOM     14  C   UNL     1       8.354  -2.444  48.216  1.00  0.00     0.339 C 
ATOM     15  O   UNL     1       9.602  -2.280  48.313  1.00  0.00    -0.246 OA
BRANCH  14  16
ATOM     16  O   UNL     1       7.721  -2.292  46.978  1.00  0.00    -0.462 OA
BRANCH  16  17
ATOM     17  C   UNL     1       7.035  -1.100  46.604  1.00  0.00     0.236 C 
BRANCH  17  18
ATOM     18  C   UNL     1       5.547  -1.402  46.372  1.00  0.00     0.021 C 
ATOM     19  C   UNL     1       4.918  -1.993  47.639  1.00  0.00     0.011 C 
ATOM     20  C   UNL     1       5.356  -2.358  45.187  1.00  0.00     0.011 C 
ENDBRANCH  17  18
ENDBRANCH  16  17
ENDBRANCH  14  16
ENDBRANCH   6  14
TORSDOF 8
ENDMDL
MODEL 3
REMARK VINA RESULT:    -5.290      1.371      3.055
REMARK INTER + INTRA:          -8.740
REMARK INTER:                  -7.421
REMARK INTRA:                  -1.320
REMARK UNBOUND:                -0.976
REMARK SMILES CC(C)COC(=O)c1ccccc1C(=O)OCC(C)C
REMARK SMILES IDX 8 1 9 2 10 3 11 4 12 5 13 6 6 7 7 8 5 9 4 10 2 11 1 12 3 13
REMARK SMILES IDX 14 14 15 15 16 16 17 17 18 18 19 19 20 20
REMARK H PARENT
REMARK Flexibility Score: inf
ROOT
ATOM      1  C   UNL     1       5.439  -2.475  46.516  1.00  0.00     0.074 A 
ATOM      2  C   UNL     1       5.107  -1.557  45.504  1.00  0.00     0.016 A 
ATOM      3  C   UNL     1       4.573  -1.995  44.291  1.00  0.00     0.001 A 
ATOM      4  C   UNL     1       4.362  -3.354  44.072  1.00  0.00     0.001 A 
ATOM      5  C   UNL     1       4.662  -4.280  45.071  1.00  0.00     0.016 A 
ATOM      6  C   UNL     1       5.179  -3.859  46.310  1.00  0.00     0.074 A 
ENDROOT
BRANCH   1   7
ATOM      7  C   UNL     1       6.103  -1.955  47.732  1.00  0.00     0.339 C 
ATOM      8  O   UNL     1       7.213  -1.361  47.644  1.00  0.00    -0.246 OA
BRANCH   7   9
ATOM      9  O   UNL     1       5.462  -2.075  48.971  1.00  0.00    -0.462 OA
BRANCH   9  10
ATOM     10  C   UNL     1       5.849  -1.340  50.130  1.00  0.00     0.236 C 
BRANCH  10  11
ATOM     11  C   UNL     1       6.612  -2.232  51.127  1.00  0.00     0.021 C 
ATOM     12  C   UNL     1       6.901  -1.461  52.420  1.00  0.00     0.011 C 
ATOM     13  C   UNL     1       5.825  -3.513  51.435  1.00  0.00     0.011 C 
ENDBRANCH  10  11
ENDBRANCH   9  10
ENDBRANCH   7   9
ENDBRANCH   1   7
BRANCH   6  14
ATOM     14  C   UNL     1       5.367  -4.880  47.366  1.00  0.00     0.339 C 
ATOM     15  O   UNL     1       4.490  -5.044  48.259  1.00  0.00    -0.246 OA
BRANCH  14  16
ATOM     16  O   UNL     1       6.498  -5.701  47.335  1.00  0.00    -0.462 OA
BRANCH  16  17
ATOM     17  C   UNL     1       7.823  -5.194  47.467  1.00  0.00     0.236 C 
BRANCH  17  18
ATOM     18  C   UNL     1       8.095  -4.810  48.929  1.00  0.00     0.021 C 
ATOM     19  C   UNL     1       9.293  -3.857  49.018  1.00  0.00     0.011 C 
ATOM     20  C   UNL     1       8.341  -6.056  49.790  1.00  0.00     0.011 C 
ENDBRANCH  17  18
ENDBRANCH  16  17
ENDBRANCH  14  16
ENDBRANCH   6  14
TORSDOF 8
ENDMDL
MODEL 4
REMARK VINA RESULT:    -5.117      2.182      4.544
REMARK INTER + INTRA:          -8.485
REMARK INTER:                  -7.229
REMARK INTRA:                  -1.257
REMARK UNBOUND:                -0.976
REMARK SMILES CC(C)COC(=O)c1ccccc1C(=O)OCC(C)C
REMARK SMILES IDX 8 1 9 2 10 3 11 4 12 5 13 6 6 7 7 8 5 9 4 10 2 11 1 12 3 13
REMARK SMILES IDX 14 14 15 15 16 16 17 17 18 18 19 19 20 20
REMARK H PARENT
REMARK Flexibility Score: inf
ROOT
ATOM      1  C   UNL     1       6.065  -3.350  47.257  1.00  0.00     0.074 A 
ATOM      2  C   UNL     1       6.833  -2.564  46.379  1.00  0.00     0.016 A 
ATOM      3  C   UNL     1       6.998  -1.197  46.605  1.00  0.00     0.001 A 
ATOM      4  C   UNL     1       6.401  -0.595  47.710  1.00  0.00     0.001 A 
ATOM      5  C   UNL     1       5.655  -1.361  48.607  1.00  0.00     0.016 A 
ATOM      6  C   UNL     1       5.495  -2.744  48.411  1.00  0.00     0.074 A 
ENDROOT
BRANCH   1   7
ATOM      7  C   UNL     1       5.839  -4.768  46.899  1.00  0.00     0.339 C 
ATOM      8  O   UNL     1       5.058  -5.068  45.956  1.00  0.00    -0.246 OA
BRANCH   7   9
ATOM      9  O   UNL     1       6.544  -5.770  47.577  1.00  0.00    -0.462 OA
BRANCH   9  10
ATOM     10  C   UNL     1       7.963  -5.907  47.521  1.00  0.00     0.236 C 
BRANCH  10  11
ATOM     11  C   UNL     1       8.605  -5.622  48.892  1.00  0.00     0.021 C 
ATOM     12  C   UNL     1       9.049  -4.158  48.978  1.00  0.00     0.011 C 
ATOM     13  C   UNL     1       7.637  -5.954  50.035  1.00  0.00     0.011 C 
ENDBRANCH  10  11
ENDBRANCH   9  10
ENDBRANCH   7   9
ENDBRANCH   1   7
BRANCH   6  14
ATOM     14  C   UNL     1       4.789  -3.515  49.460  1.00  0.00     0.339 C 
ATOM     15  O   UNL     1       5.193  -3.485  50.656  1.00  0.00    -0.246 OA
BRANCH  14  16
ATOM     16  O   UNL     1       3.637  -4.235  49.127  1.00  0.00    -0.462 OA
BRANCH  16  17
ATOM     17  C   UNL     1       3.257  -5.435  49.795  1.00  0.00     0.236 C 
BRANCH  17  18
ATOM     18  C   UNL     1       2.091  -6.102  49.052  1.00  0.00     0.021 C 
ATOM     19  C   UNL     1       2.360  -6.124  47.543  1.00  0.00     0.011 C 
ATOM     20  C   UNL     1       0.766  -5.386  49.347  1.00  0.00     0.011 C 
ENDBRANCH  17  18
ENDBRANCH  16  17
ENDBRANCH  14  16
ENDBRANCH   6  14
TORSDOF 8
ENDMDL
MODEL 5
REMARK VINA RESULT:    -5.056      9.044     11.063
REMARK INTER + INTRA:          -8.396
REMARK INTER:                  -7.062
REMARK INTRA:                  -1.334
REMARK UNBOUND:                -0.976
REMARK SMILES CC(C)COC(=O)c1ccccc1C(=O)OCC(C)C
REMARK SMILES IDX 8 1 9 2 10 3 11 4 12 5 13 6 6 7 7 8 5 9 4 10 2 11 1 12 3 13
REMARK SMILES IDX 14 14 15 15 16 16 17 17 18 18 19 19 20 20
REMARK H PARENT
REMARK Flexibility Score: inf
ROOT
ATOM      1  C   UNL     1      10.736   3.982  54.570  1.00  0.00     0.074 A 
ATOM      2  C   UNL     1      10.768   4.622  55.822  1.00  0.00     0.016 A 
ATOM      3  C   UNL     1      11.472   5.814  55.995  1.00  0.00     0.001 A 
ATOM      4  C   UNL     1      12.154   6.384  54.923  1.00  0.00     0.001 A 
ATOM      5  C   UNL     1      12.116   5.779  53.667  1.00  0.00     0.016 A 
ATOM      6  C   UNL     1      11.393   4.590  53.463  1.00  0.00     0.074 A 
ENDROOT
BRANCH   1   7
ATOM      7  C   UNL     1      10.064   2.667  54.481  1.00  0.00     0.339 C 
ATOM      8  O   UNL     1      10.604   1.643  54.983  1.00  0.00    -0.246 OA
BRANCH   7   9
ATOM      9  O   UNL     1       8.798   2.579  53.889  1.00  0.00    -0.462 OA
BRANCH   9  10
ATOM     10  C   UNL     1       7.707   3.430  54.236  1.00  0.00     0.236 C 
BRANCH  10  11
ATOM     11  C   UNL     1       7.353   4.381  53.078  1.00  0.00     0.021 C 
ATOM     12  C   UNL     1       5.845   4.352  52.807  1.00  0.00     0.011 C 
ATOM     13  C   UNL     1       7.813   5.813  53.379  1.00  0.00     0.011 C 
ENDBRANCH  10  11
ENDBRANCH   9  10
ENDBRANCH   7   9
ENDBRANCH   1   7
BRANCH   6  14
ATOM     14  C   UNL     1      11.298   4.063  52.083  1.00  0.00     0.339 C 
ATOM     15  O   UNL     1      12.209   3.323  51.617  1.00  0.00    -0.246 OA
BRANCH  14  16
ATOM     16  O   UNL     1      10.165   4.347  51.314  1.00  0.00    -0.462 OA
BRANCH  16  17
ATOM     17  C   UNL     1      10.105   5.440  50.402  1.00  0.00     0.236 C 
BRANCH  17  18
ATOM     18  C   UNL     1       9.620   4.952  49.029  1.00  0.00     0.021 C 
ATOM     19  C   UNL     1      10.785   4.353  48.232  1.00  0.00     0.011 C 
ATOM     20  C   UNL     1       8.964   6.092  48.238  1.00  0.00     0.011 C 
ENDBRANCH  17  18
ENDBRANCH  16  17
ENDBRANCH  14  16
ENDBRANCH   6  14
TORSDOF 8
ENDMDL
MODEL 6
REMARK VINA RESULT:    -5.053      8.705     11.043
REMARK INTER + INTRA:          -8.392
REMARK INTER:                  -7.529
REMARK INTRA:                  -0.863
REMARK UNBOUND:                -0.976
REMARK SMILES CC(C)COC(=O)c1ccccc1C(=O)OCC(C)C
REMARK SMILES IDX 8 1 9 2 10 3 11 4 12 5 13 6 6 7 7 8 5 9 4 10 2 11 1 12 3 13
REMARK SMILES IDX 14 14 15 15 16 16 17 17 18 18 19 19 20 20
REMARK H PARENT
REMARK Flexibility Score: inf
ROOT
ATOM      1  C   UNL     1      10.036   5.051  48.893  1.00  0.00     0.074 A 
ATOM      2  C   UNL     1      10.953   4.361  48.079  1.00  0.00     0.016 A 
ATOM      3  C   UNL     1      12.069   3.734  48.636  1.00  0.00     0.001 A 
ATOM      4  C   UNL     1      12.286   3.787  50.010  1.00  0.00     0.001 A 
ATOM      5  C   UNL     1      11.376   4.445  50.838  1.00  0.00     0.016 A 
ATOM      6  C   UNL     1      10.233   5.063  50.302  1.00  0.00     0.074 A 
ENDROOT
BRANCH   1   7
ATOM      7  C   UNL     1       8.937   5.785  48.229  1.00  0.00     0.339 C 
ATOM      8  O   UNL     1       7.915   5.168  47.823  1.00  0.00    -0.246 OA
BRANCH   7   9
ATOM      9  O   UNL     1       9.015   7.178  48.107  1.00  0.00    -0.462 OA
BRANCH   9  10
ATOM     10  C   UNL     1      10.114   7.854  47.500  1.00  0.00     0.236 C 
BRANCH  10  11
ATOM     11  C   UNL     1       9.682   8.570  46.206  1.00  0.00     0.021 C 
ATOM     12  C   UNL     1      10.074   7.739  44.980  1.00  0.00     0.011 C 
ATOM     13  C   UNL     1       8.173   8.845  46.205  1.00  0.00     0.011 C 
ENDBRANCH  10  11
ENDBRANCH   9  10
ENDBRANCH   7   9
ENDBRANCH   1   7
BRANCH   6  14
ATOM     14  C   UNL     1       9.251   5.644  51.247  1.00  0.00     0.339 C 
ATOM     15  O   UNL     1       9.263   6.880  51.501  1.00  0.00    -0.246 OA
BRANCH  14  16
ATOM     16  O   UNL     1       8.273   4.820  51.814  1.00  0.00    -0.462 OA
BRANCH  16  17
ATOM     17  C   UNL     1       8.382   4.289  53.132  1.00  0.00     0.236 C 
BRANCH  17  18
ATOM     18  C   UNL     1       6.988   3.947  53.677  1.00  0.00     0.021 C 
ATOM     19  C   UNL     1       6.831   2.430  53.830  1.00  0.00     0.011 C 
ATOM     20  C   UNL     1       5.887   4.507  52.767  1.00  0.00     0.011 C 
ENDBRANCH  17  18
ENDBRANCH  16  17
ENDBRANCH  14  16
ENDBRANCH   6  14
TORSDOF 8
ENDMDL
MODEL 7
REMARK VINA RESULT:    -5.030     12.559     14.181
REMARK INTER + INTRA:          -8.357
REMARK INTER:                  -6.771
REMARK INTRA:                  -1.587
REMARK UNBOUND:                -0.976
REMARK SMILES CC(C)COC(=O)c1ccccc1C(=O)OCC(C)C
REMARK SMILES IDX 8 1 9 2 10 3 11 4 12 5 13 6 6 7 7 8 5 9 4 10 2 11 1 12 3 13
REMARK SMILES IDX 14 14 15 15 16 16 17 17 18 18 19 19 20 20
REMARK H PARENT
REMARK Flexibility Score: inf
ROOT
ATOM      1  C   UNL     1       7.437  10.205  48.379  1.00  0.00     0.074 A 
ATOM      2  C   UNL     1       6.476  10.784  49.226  1.00  0.00     0.016 A 
ATOM      3  C   UNL     1       5.246  11.209  48.723  1.00  0.00     0.001 A 
ATOM      4  C   UNL     1       4.958  11.063  47.368  1.00  0.00     0.001 A 
ATOM      5  C   UNL     1       5.888  10.470  46.514  1.00  0.00     0.016 A 
ATOM      6  C   UNL     1       7.125  10.013  47.004  1.00  0.00     0.074 A 
ENDROOT
BRANCH   1   7
ATOM      7  C   UNL     1       8.761   9.878  48.955  1.00  0.00     0.339 C 
ATOM      8  O   UNL     1       9.706  10.710  48.887  1.00  0.00    -0.246 OA
BRANCH   7   9
ATOM      9  O   UNL     1       8.937   8.663  49.627  1.00  0.00    -0.462 OA
BRANCH   9  10
ATOM     10  C   UNL     1       9.451   8.567  50.955  1.00  0.00     0.236 C 
BRANCH  10  11
ATOM     11  C   UNL     1       8.698   9.509  51.913  1.00  0.00     0.021 C 
ATOM     12  C   UNL     1       7.681   8.721  52.746  1.00  0.00     0.011 C 
ATOM     13  C   UNL     1       9.674  10.257  52.831  1.00  0.00     0.011 C 
ENDBRANCH  10  11
ENDBRANCH   9  10
ENDBRANCH   7   9
ENDBRANCH   1   7
BRANCH   6  14
ATOM     14  C   UNL     1       8.017   9.290  46.069  1.00  0.00     0.339 C 
ATOM     15  O   UNL     1       8.200   8.047  46.192  1.00  0.00    -0.246 OA
BRANCH  14  16
ATOM     16  O   UNL     1       8.613   9.985  45.012  1.00  0.00    -0.462 OA
BRANCH  16  17
ATOM     17  C   UNL     1       9.566  11.025  45.213  1.00  0.00     0.236 C 
BRANCH  17  18
ATOM     18  C   UNL     1       8.970  12.373  44.782  1.00  0.00     0.021 C 
ATOM     19  C   UNL     1       8.533  13.182  46.009  1.00  0.00     0.011 C 
ATOM     20  C   UNL     1       7.785  12.174  43.827  1.00  0.00     0.011 C 
ENDBRANCH  17  18
ENDBRANCH  16  17
ENDBRANCH  14  16
ENDBRANCH   6  14
TORSDOF 8
ENDMDL
MODEL 8
REMARK VINA RESULT:    -5.027     12.587     14.466
REMARK INTER + INTRA:          -8.353
REMARK INTER:                  -6.763
REMARK INTRA:                  -1.591
REMARK UNBOUND:                -0.976
REMARK SMILES CC(C)COC(=O)c1ccccc1C(=O)OCC(C)C
REMARK SMILES IDX 8 1 9 2 10 3 11 4 12 5 13 6 6 7 7 8 5 9 4 10 2 11 1 12 3 13
REMARK SMILES IDX 14 14 15 15 16 16 17 17 18 18 19 19 20 20
REMARK H PARENT
REMARK Flexibility Score: inf
ROOT
ATOM      1  C   UNL     1       7.102  10.025  46.906  1.00  0.00     0.074 A 
ATOM      2  C   UNL     1       5.879  10.463  46.367  1.00  0.00     0.016 A 
ATOM      3  C   UNL     1       4.907  11.041  47.184  1.00  0.00     0.001 A 
ATOM      4  C   UNL     1       5.141  11.191  48.549  1.00  0.00     0.001 A 
ATOM      5  C   UNL     1       6.357  10.785  49.100  1.00  0.00     0.016 A 
ATOM      6  C   UNL     1       7.360  10.221  48.291  1.00  0.00     0.074 A 
ENDROOT
BRANCH   1   7
ATOM      7  C   UNL     1       8.043   9.322  46.006  1.00  0.00     0.339 C 
ATOM      8  O   UNL     1       8.195   8.073  46.097  1.00  0.00    -0.246 OA
BRANCH   7   9
ATOM      9  O   UNL     1       8.717  10.044  45.014  1.00  0.00    -0.462 OA
BRANCH   9  10
ATOM     10  C   UNL     1       9.599  11.130  45.295  1.00  0.00     0.236 C 
BRANCH  10  11
ATOM     11  C   UNL     1       8.988  12.473  44.854  1.00  0.00     0.021 C 
ATOM     12  C   UNL     1       7.873  12.240  43.829  1.00  0.00     0.011 C 
ATOM     13  C   UNL     1       8.451  13.257  46.058  1.00  0.00     0.011 C 
ENDBRANCH  10  11
ENDBRANCH   9  10
ENDBRANCH   7   9
ENDBRANCH   1   7
BRANCH   6  14
ATOM     14  C   UNL     1       8.667   9.919  48.918  1.00  0.00     0.339 C 
ATOM     15  O   UNL     1       9.611  10.755  48.861  1.00  0.00    -0.246 OA
BRANCH  14  16
ATOM     16  O   UNL     1       8.831   8.723  49.623  1.00  0.00    -0.462 OA
BRANCH  16  17
ATOM     17  C   UNL     1       9.444   8.662  50.908  1.00  0.00     0.236 C 
BRANCH  17  18
ATOM     18  C   UNL     1       8.657   9.524  51.906  1.00  0.00     0.021 C 
ATOM     19  C   UNL     1       9.616  10.286  52.828  1.00  0.00     0.011 C 
ATOM     20  C   UNL     1       7.690   8.667  52.734  1.00  0.00     0.011 C 
ENDBRANCH  17  18
ENDBRANCH  16  17
ENDBRANCH  14  16
ENDBRANCH   6  14
TORSDOF 8
ENDMDL
MODEL 9
REMARK VINA RESULT:    -4.990      9.493     11.364
REMARK INTER + INTRA:          -8.299
REMARK INTER:                  -6.414
REMARK INTRA:                  -1.884
REMARK UNBOUND:                -0.976
REMARK SMILES CC(C)COC(=O)c1ccccc1C(=O)OCC(C)C
REMARK SMILES IDX 8 1 9 2 10 3 11 4 12 5 13 6 6 7 7 8 5 9 4 10 2 11 1 12 3 13
REMARK SMILES IDX 14 14 15 15 16 16 17 17 18 18 19 19 20 20
REMARK H PARENT
REMARK Flexibility Score: inf
ROOT
ATOM      1  C   UNL     1      10.847   3.995  53.087  1.00  0.00     0.074 A 
ATOM      2  C   UNL     1      10.901   4.139  51.690  1.00  0.00     0.016 A 
ATOM      3  C   UNL     1      11.464   5.277  51.111  1.00  0.00     0.001 A 
ATOM      4  C   UNL     1      11.981   6.287  51.919  1.00  0.00     0.001 A 
ATOM      5  C   UNL     1      11.958   6.154  53.308  1.00  0.00     0.016 A 
ATOM      6  C   UNL     1      11.417   5.005  53.911  1.00  0.00     0.074 A 
ENDROOT
BRANCH   1   7
ATOM      7  C   UNL     1      10.139   2.817  53.635  1.00  0.00     0.339 C 
ATOM      8  O   UNL     1      10.789   1.878  54.171  1.00  0.00    -0.246 OA
BRANCH   7   9
ATOM      9  O   UNL     1       8.740   2.780  53.607  1.00  0.00    -0.462 OA
BRANCH   9  10
ATOM     10  C   UNL     1       7.916   3.841  54.087  1.00  0.00     0.236 C 
BRANCH  10  11
ATOM     11  C   UNL     1       7.425   4.733  52.932  1.00  0.00     0.021 C 
ATOM     12  C   UNL     1       5.902   4.638  52.795  1.00  0.00     0.011 C 
ATOM     13  C   UNL     1       7.852   6.192  53.141  1.00  0.00     0.011 C 
ENDBRANCH  10  11
ENDBRANCH   9  10
ENDBRANCH   7   9
ENDBRANCH   1   7
BRANCH   6  14
ATOM     14  C   UNL     1      11.530   4.877  55.382  1.00  0.00     0.339 C 
ATOM     15  O   UNL     1      10.510   5.010  56.115  1.00  0.00    -0.246 OA
BRANCH  14  16
ATOM     16  O   UNL     1      12.765   4.551  55.952  1.00  0.00    -0.462 OA
BRANCH  16  17
ATOM     17  C   UNL     1      13.395   3.288  55.757  1.00  0.00     0.236 C 
BRANCH  17  18
ATOM     18  C   UNL     1      14.660   3.459  54.903  1.00  0.00     0.021 C 
ATOM     19  C   UNL     1      15.155   4.908  54.964  1.00  0.00     0.011 C 
ATOM     20  C   UNL     1      14.404   3.044  53.448  1.00  0.00     0.011 C 
ENDBRANCH  17  18
ENDBRANCH  16  17
ENDBRANCH  14  16
ENDBRANCH   6  14
TORSDOF 8
ENDMDL
