MODEL 1
REMARK VINA RESULT:    -5.736      0.000      0.000
REMARK INTER + INTRA:          -7.244
REMARK INTER:                  -6.910
REMARK INTRA:                  -0.334
REMARK UNBOUND:                -0.334
REMARK SMILES O=c1c(O)c(-c2ccc(O)c(O)c2)oc2cc(O)cc(O)c12
REMARK SMILES IDX 5 1 3 2 2 3 1 4 22 5 20 6 19 7 17 8 16 9 15 10 14 11 6 12
REMARK SMILES IDX 7 13 8 14 9 15 13 16 11 17 10 18 12 20 4 22 21 24 18 26
REMARK H PARENT 10 19 12 21 4 23 21 25 18 27
REMARK Flexibility Score: inf
ROOT
ATOM      1  C   UNL     1       3.257  37.953   6.315  1.00  0.00     0.180 A 
ATOM      2  C   UNL     1       3.702  38.880   5.356  1.00  0.00     0.208 A 
ATOM      3  C   UNL     1       4.960  39.480   5.520  1.00  0.00     0.238 A 
ATOM      4  O   UNL     1       5.329  40.349   4.689  1.00  0.00    -0.285 OA
ATOM      5  C   UNL     1       5.766  39.132   6.632  1.00  0.00     0.111 A 
ATOM      6  C   UNL     1       7.075  39.647   6.876  1.00  0.00     0.134 A 
ATOM      7  C   UNL     1       7.727  39.334   8.075  1.00  0.00     0.093 A 
ATOM      8  C   UNL     1       7.147  38.474   9.008  1.00  0.00     0.123 A 
ATOM      9  C   UNL     1       5.893  37.918   8.752  1.00  0.00     0.094 A 
ATOM     10  C   UNL     1       5.203  38.240   7.581  1.00  0.00     0.146 A 
ATOM     11  O   UNL     1       4.007  37.698   7.380  1.00  0.00    -0.452 OA
ENDROOT
BRANCH   1  12
ATOM     12  C   UNL     1       1.953  37.261   6.197  1.00  0.00     0.025 A 
ATOM     13  C   UNL     1       1.827  36.052   5.491  1.00  0.00     0.016 A 
ATOM     14  C   UNL     1       0.591  35.404   5.414  1.00  0.00     0.051 A 
ATOM     15  C   UNL     1      -0.532  35.945   6.047  1.00  0.00     0.157 A 
ATOM     16  C   UNL     1       0.828  37.791   6.849  1.00  0.00     0.062 A 
ATOM     17  C   UNL     1      -0.414  37.143   6.772  1.00  0.00     0.158 A 
BRANCH  15  18
ATOM     18  O   UNL     1      -1.752  35.277   5.950  1.00  0.00    -0.504 OA
ATOM     19  H   UNL     1      -1.807  34.280   5.779  1.00  0.00     0.293 HD
ENDBRANCH  15  18
BRANCH  17  20
ATOM     20  O   UNL     1      -1.528  37.684   7.412  1.00  0.00    -0.504 OA
ATOM     21  H   UNL     1      -2.218  38.229   6.907  1.00  0.00     0.293 HD
ENDBRANCH  17  20
ENDBRANCH   1  12
BRANCH   2  22
ATOM     22  O   UNL     1       2.881  39.225   4.278  1.00  0.00    -0.502 OA
ATOM     23  H   UNL     1       2.431  38.531   3.693  1.00  0.00     0.293 HD
ENDBRANCH   2  22
BRANCH   6  24
ATOM     24  O   UNL     1       7.783  40.441   5.970  1.00  0.00    -0.507 OA
ATOM     25  H   UNL     1       8.313  41.262   6.217  1.00  0.00     0.293 HD
ENDBRANCH   6  24
BRANCH   8  26
ATOM     26  O   UNL     1       7.832  38.173  10.183  1.00  0.00    -0.508 OA
ATOM     27  H   UNL     1       7.666  37.308  10.685  1.00  0.00     0.293 HD
ENDBRANCH   8  26
TORSDOF 6
ENDMDL
MODEL 2
REMARK VINA RESULT:    -5.604      3.620      6.183
REMARK INTER + INTRA:          -7.085
REMARK INTER:                  -6.909
REMARK INTRA:                  -0.176
REMARK UNBOUND:                -0.334
REMARK SMILES O=c1c(O)c(-c2ccc(O)c(O)c2)oc2cc(O)cc(O)c12
REMARK SMILES IDX 5 1 3 2 2 3 1 4 22 5 20 6 19 7 17 8 16 9 15 10 14 11 6 12
REMARK SMILES IDX 7 13 8 14 9 15 13 16 11 17 10 18 12 20 4 22 21 24 18 26
REMARK H PARENT 10 19 12 21 4 23 21 25 18 27
REMARK Flexibility Score: inf
ROOT
ATOM      1  C   UNL     1      -0.853  39.611   7.395  1.00  0.00     0.180 A 
ATOM      2  C   UNL     1       0.403  40.209   7.190  1.00  0.00     0.208 A 
ATOM      3  C   UNL     1       1.432  39.453   6.608  1.00  0.00     0.238 A 
ATOM      4  O   UNL     1       2.569  39.977   6.477  1.00  0.00    -0.285 OA
ATOM      5  C   UNL     1       1.188  38.111   6.223  1.00  0.00     0.111 A 
ATOM      6  C   UNL     1       2.146  37.265   5.587  1.00  0.00     0.134 A 
ATOM      7  C   UNL     1       1.838  35.916   5.370  1.00  0.00     0.093 A 
ATOM      8  C   UNL     1       0.586  35.400   5.704  1.00  0.00     0.123 A 
ATOM      9  C   UNL     1      -0.378  36.234   6.271  1.00  0.00     0.094 A 
ATOM     10  C   UNL     1      -0.088  37.575   6.533  1.00  0.00     0.146 A 
ATOM     11  O   UNL     1      -1.030  38.332   7.083  1.00  0.00    -0.452 OA
ENDROOT
BRANCH   1  12
ATOM     12  C   UNL     1      -1.993  40.352   7.980  1.00  0.00     0.025 A 
ATOM     13  C   UNL     1      -2.548  41.470   7.333  1.00  0.00     0.016 A 
ATOM     14  C   UNL     1      -3.640  42.139   7.893  1.00  0.00     0.051 A 
ATOM     15  C   UNL     1      -4.201  41.698   9.095  1.00  0.00     0.157 A 
ATOM     16  C   UNL     1      -2.572  39.898   9.177  1.00  0.00     0.062 A 
ATOM     17  C   UNL     1      -3.667  40.569   9.740  1.00  0.00     0.158 A 
BRANCH  15  18
ATOM     18  O   UNL     1      -5.289  42.387   9.629  1.00  0.00    -0.504 OA
ATOM     19  H   UNL     1      -6.037  41.913  10.121  1.00  0.00     0.293 HD
ENDBRANCH  15  18
BRANCH  17  20
ATOM     20  O   UNL     1      -4.226  40.119  10.935  1.00  0.00    -0.504 OA
ATOM     21  H   UNL     1      -4.816  40.716  11.503  1.00  0.00     0.293 HD
ENDBRANCH  17  20
ENDBRANCH   1  12
BRANCH   2  22
ATOM     22  O   UNL     1       0.628  41.527   7.597  1.00  0.00    -0.502 OA
ATOM     23  H   UNL     1       0.034  41.998   8.269  1.00  0.00     0.293 HD
ENDBRANCH   2  22
BRANCH   6  24
ATOM     24  O   UNL     1       3.392  37.702   5.129  1.00  0.00    -0.507 OA
ATOM     25  H   UNL     1       3.731  37.587   4.186  1.00  0.00     0.293 HD
ENDBRANCH   6  24
BRANCH   8  26
ATOM     26  O   UNL     1       0.309  34.057   5.459  1.00  0.00    -0.508 OA
ATOM     27  H   UNL     1       0.500  33.342   6.152  1.00  0.00     0.293 HD
ENDBRANCH   8  26
TORSDOF 6
ENDMDL
MODEL 3
REMARK VINA RESULT:    -5.595      2.107      7.042
REMARK INTER + INTRA:          -7.075
REMARK INTER:                  -6.753
REMARK INTRA:                  -0.322
REMARK UNBOUND:                -0.334
REMARK SMILES O=c1c(O)c(-c2ccc(O)c(O)c2)oc2cc(O)cc(O)c12
REMARK SMILES IDX 5 1 3 2 2 3 1 4 22 5 20 6 19 7 17 8 16 9 15 10 14 11 6 12
REMARK SMILES IDX 7 13 8 14 9 15 13 16 11 17 10 18 12 20 4 22 21 24 18 26
REMARK H PARENT 10 19 12 21 4 23 21 25 18 27
REMARK Flexibility Score: inf
ROOT
ATOM      1  C   UNL     1       2.208  38.254   6.809  1.00  0.00     0.180 A 
ATOM      2  C   UNL     1       1.640  37.240   6.017  1.00  0.00     0.208 A 
ATOM      3  C   UNL     1       0.247  37.209   5.845  1.00  0.00     0.238 A 
ATOM      4  O   UNL     1      -0.259  36.268   5.180  1.00  0.00    -0.285 OA
ATOM      5  C   UNL     1      -0.559  38.202   6.453  1.00  0.00     0.111 A 
ATOM      6  C   UNL     1      -1.977  38.291   6.311  1.00  0.00     0.134 A 
ATOM      7  C   UNL     1      -2.687  39.235   7.063  1.00  0.00     0.093 A 
ATOM      8  C   UNL     1      -2.027  40.135   7.898  1.00  0.00     0.123 A 
ATOM      9  C   UNL     1      -0.635  40.096   7.998  1.00  0.00     0.094 A 
ATOM     10  C   UNL     1       0.097  39.141   7.288  1.00  0.00     0.146 A 
ATOM     11  O   UNL     1       1.419  39.131   7.419  1.00  0.00    -0.452 OA
ENDROOT
BRANCH   1  12
ATOM     12  C   UNL     1       3.670  38.366   7.017  1.00  0.00     0.025 A 
ATOM     13  C   UNL     1       4.461  39.201   6.208  1.00  0.00     0.016 A 
ATOM     14  C   UNL     1       5.836  39.310   6.439  1.00  0.00     0.051 A 
ATOM     15  C   UNL     1       6.437  38.600   7.482  1.00  0.00     0.157 A 
ATOM     16  C   UNL     1       4.273  37.671   8.077  1.00  0.00     0.062 A 
ATOM     17  C   UNL     1       5.652  37.779   8.309  1.00  0.00     0.158 A 
BRANCH  15  18
ATOM     18  O   UNL     1       7.810  38.728   7.686  1.00  0.00    -0.504 OA
ATOM     19  H   UNL     1       8.192  39.276   8.449  1.00  0.00     0.293 HD
ENDBRANCH  15  18
BRANCH  17  20
ATOM     20  O   UNL     1       6.243  37.075   9.356  1.00  0.00    -0.504 OA
ATOM     21  H   UNL     1       5.727  36.838  10.196  1.00  0.00     0.293 HD
ENDBRANCH  17  20
ENDBRANCH   1  12
BRANCH   2  22
ATOM     22  O   UNL     1       2.453  36.257   5.444  1.00  0.00    -0.502 OA
ATOM     23  H   UNL     1       2.790  36.318   4.491  1.00  0.00     0.293 HD
ENDBRANCH   2  22
BRANCH   6  24
ATOM     24  O   UNL     1      -2.726  37.500   5.435  1.00  0.00    -0.507 OA
ATOM     25  H   UNL     1      -2.362  37.064   4.602  1.00  0.00     0.293 HD
ENDBRANCH   6  24
BRANCH   8  26
ATOM     26  O   UNL     1      -2.764  41.072   8.619  1.00  0.00    -0.508 OA
ATOM     27  H   UNL     1      -2.471  41.383   9.538  1.00  0.00     0.293 HD
ENDBRANCH   8  26
TORSDOF 6
ENDMDL
MODEL 4
REMARK VINA RESULT:    -5.405      3.648      6.976
REMARK INTER + INTRA:          -6.846
REMARK INTER:                  -6.673
REMARK INTRA:                  -0.173
REMARK UNBOUND:                -0.334
REMARK SMILES O=c1c(O)c(-c2ccc(O)c(O)c2)oc2cc(O)cc(O)c12
REMARK SMILES IDX 5 1 3 2 2 3 1 4 22 5 20 6 19 7 17 8 16 9 15 10 14 11 6 12
REMARK SMILES IDX 7 13 8 14 9 15 13 16 11 17 10 18 12 20 4 22 21 24 18 26
REMARK H PARENT 10 19 12 21 4 23 21 25 18 27
REMARK Flexibility Score: inf
ROOT
ATOM      1  C   UNL     1      -2.060  38.680   7.604  1.00  0.00     0.180 A 
ATOM      2  C   UNL     1      -2.611  37.467   7.157  1.00  0.00     0.208 A 
ATOM      3  C   UNL     1      -1.777  36.529   6.529  1.00  0.00     0.238 A 
ATOM      4  O   UNL     1      -2.286  35.469   6.082  1.00  0.00    -0.285 OA
ATOM      5  C   UNL     1      -0.398  36.810   6.370  1.00  0.00     0.111 A 
ATOM      6  C   UNL     1       0.549  35.915   5.784  1.00  0.00     0.134 A 
ATOM      7  C   UNL     1       1.861  36.349   5.559  1.00  0.00     0.093 A 
ATOM      8  C   UNL     1       2.278  37.619   5.958  1.00  0.00     0.123 A 
ATOM      9  C   UNL     1       1.377  38.480   6.585  1.00  0.00     0.094 A 
ATOM     10  C   UNL     1       0.051  38.088   6.790  1.00  0.00     0.146 A 
ATOM     11  O   UNL     1      -0.777  38.941   7.382  1.00  0.00    -0.452 OA
ENDROOT
BRANCH   1  12
ATOM     12  C   UNL     1      -2.872  39.707   8.298  1.00  0.00     0.025 A 
ATOM     13  C   UNL     1      -3.487  39.441   9.533  1.00  0.00     0.016 A 
ATOM     14  C   UNL     1      -4.228  40.433  10.181  1.00  0.00     0.051 A 
ATOM     15  C   UNL     1      -4.356  41.704   9.614  1.00  0.00     0.157 A 
ATOM     16  C   UNL     1      -2.985  40.991   7.741  1.00  0.00     0.062 A 
ATOM     17  C   UNL     1      -3.729  41.987   8.389  1.00  0.00     0.158 A 
BRANCH  15  18
ATOM     18  O   UNL     1      -5.103  42.673  10.283  1.00  0.00    -0.504 OA
ATOM     19  H   UNL     1      -6.046  42.495  10.611  1.00  0.00     0.293 HD
ENDBRANCH  15  18
BRANCH  17  20
ATOM     20  O   UNL     1      -3.846  43.255   7.822  1.00  0.00    -0.504 OA
ATOM     21  H   UNL     1      -3.096  43.935   7.881  1.00  0.00     0.293 HD
ENDBRANCH  17  20
ENDBRANCH   1  12
BRANCH   2  22
ATOM     22  O   UNL     1      -3.979  37.220   7.304  1.00  0.00    -0.502 OA
ATOM     23  H   UNL     1      -4.658  37.964   7.410  1.00  0.00     0.293 HD
ENDBRANCH   2  22
BRANCH   6  24
ATOM     24  O   UNL     1       0.260  34.593   5.433  1.00  0.00    -0.507 OA
ATOM     25  H   UNL     1       0.682  34.098   4.664  1.00  0.00     0.293 HD
ENDBRANCH   6  24
BRANCH   8  26
ATOM     26  O   UNL     1       3.596  38.011   5.732  1.00  0.00    -0.508 OA
ATOM     27  H   UNL     1       3.832  38.681   5.009  1.00  0.00     0.293 HD
ENDBRANCH   8  26
TORSDOF 6
ENDMDL
MODEL 5
REMARK VINA RESULT:    -5.216      4.871      7.906
REMARK INTER + INTRA:          -6.617
REMARK INTER:                  -6.474
REMARK INTRA:                  -0.143
REMARK UNBOUND:                -0.334
REMARK SMILES O=c1c(O)c(-c2ccc(O)c(O)c2)oc2cc(O)cc(O)c12
REMARK SMILES IDX 5 1 3 2 2 3 1 4 22 5 20 6 19 7 17 8 16 9 15 10 14 11 6 12
REMARK SMILES IDX 7 13 8 14 9 15 13 16 11 17 10 18 12 20 4 22 21 24 18 26
REMARK H PARENT 10 19 12 21 4 23 21 25 18 27
REMARK Flexibility Score: inf
ROOT
ATOM      1  C   UNL     1      -2.199  39.825   7.470  1.00  0.00     0.180 A 
ATOM      2  C   UNL     1      -0.827  39.839   7.165  1.00  0.00     0.208 A 
ATOM      3  C   UNL     1      -0.201  38.641   6.785  1.00  0.00     0.238 A 
ATOM      4  O   UNL     1       1.039  38.648   6.567  1.00  0.00    -0.285 OA
ATOM      5  C   UNL     1      -0.959  37.447   6.699  1.00  0.00     0.111 A 
ATOM      6  C   UNL     1      -0.437  36.185   6.285  1.00  0.00     0.134 A 
ATOM      7  C   UNL     1      -1.246  35.045   6.362  1.00  0.00     0.093 A 
ATOM      8  C   UNL     1      -2.576  35.132   6.774  1.00  0.00     0.123 A 
ATOM      9  C   UNL     1      -3.113  36.371   7.124  1.00  0.00     0.094 A 
ATOM     10  C   UNL     1      -2.320  37.520   7.092  1.00  0.00     0.146 A 
ATOM     11  O   UNL     1      -2.867  38.678   7.443  1.00  0.00    -0.452 OA
ENDROOT
BRANCH   1  12
ATOM     12  C   UNL     1      -2.933  41.053   7.854  1.00  0.00     0.025 A 
ATOM     13  C   UNL     1      -3.009  42.160   6.991  1.00  0.00     0.016 A 
ATOM     14  C   UNL     1      -3.728  43.299   7.365  1.00  0.00     0.051 A 
ATOM     15  C   UNL     1      -4.390  43.345   8.595  1.00  0.00     0.157 A 
ATOM     16  C   UNL     1      -3.616  41.094   9.080  1.00  0.00     0.062 A 
ATOM     17  C   UNL     1      -4.338  42.237   9.457  1.00  0.00     0.158 A 
BRANCH  15  18
ATOM     18  O   UNL     1      -5.098  44.495   8.940  1.00  0.00    -0.504 OA
ATOM     19  H   UNL     1      -5.495  45.113   8.242  1.00  0.00     0.293 HD
ENDBRANCH  15  18
BRANCH  17  20
ATOM     20  O   UNL     1      -5.002  42.273  10.681  1.00  0.00    -0.504 OA
ATOM     21  H   UNL     1      -5.216  41.426  11.195  1.00  0.00     0.293 HD
ENDBRANCH  17  20
ENDBRANCH   1  12
BRANCH   2  22
ATOM     22  O   UNL     1      -0.093  41.023   7.279  1.00  0.00    -0.502 OA
ATOM     23  H   UNL     1       0.904  41.030   7.459  1.00  0.00     0.293 HD
ENDBRANCH   2  22
BRANCH   6  24
ATOM     24  O   UNL     1       0.850  36.003   5.769  1.00  0.00    -0.507 OA
ATOM     25  H   UNL     1       1.701  36.099   6.302  1.00  0.00     0.293 HD
ENDBRANCH   6  24
BRANCH   8  26
ATOM     26  O   UNL     1      -3.356  33.978   6.824  1.00  0.00    -0.508 OA
ATOM     27  H   UNL     1      -4.145  33.900   7.455  1.00  0.00     0.293 HD
ENDBRANCH   8  26
TORSDOF 6
ENDMDL
MODEL 6
REMARK VINA RESULT:    -5.209      1.894      7.192
REMARK INTER + INTRA:          -6.609
REMARK INTER:                  -6.548
REMARK INTRA:                  -0.062
REMARK UNBOUND:                -0.334
REMARK SMILES O=c1c(O)c(-c2ccc(O)c(O)c2)oc2cc(O)cc(O)c12
REMARK SMILES IDX 5 1 3 2 2 3 1 4 22 5 20 6 19 7 17 8 16 9 15 10 14 11 6 12
REMARK SMILES IDX 7 13 8 14 9 15 13 16 11 17 10 18 12 20 4 22 21 24 18 26
REMARK H PARENT 10 19 12 21 4 23 21 25 18 27
REMARK Flexibility Score: inf
ROOT
ATOM      1  C   UNL     1       1.701  38.510   6.897  1.00  0.00     0.180 A 
ATOM      2  C   UNL     1       0.920  39.678   6.957  1.00  0.00     0.208 A 
ATOM      3  C   UNL     1      -0.479  39.565   6.927  1.00  0.00     0.238 A 
ATOM      4  O   UNL     1      -1.171  40.616   6.925  1.00  0.00    -0.285 OA
ATOM      5  C   UNL     1      -1.080  38.284   6.856  1.00  0.00     0.111 A 
ATOM      6  C   UNL     1      -2.489  38.049   6.862  1.00  0.00     0.134 A 
ATOM      7  C   UNL     1      -2.973  36.752   6.655  1.00  0.00     0.093 A 
ATOM      8  C   UNL     1      -2.101  35.673   6.509  1.00  0.00     0.123 A 
ATOM      9  C   UNL     1      -0.723  35.883   6.561  1.00  0.00     0.094 A 
ATOM     10  C   UNL     1      -0.210  37.171   6.730  1.00  0.00     0.146 A 
ATOM     11  O   UNL     1       1.108  37.329   6.765  1.00  0.00    -0.452 OA
ENDROOT
BRANCH   1  12
ATOM     12  C   UNL     1       3.180  38.548   6.948  1.00  0.00     0.025 A 
ATOM     13  C   UNL     1       3.925  39.303   6.026  1.00  0.00     0.016 A 
ATOM     14  C   UNL     1       5.320  39.344   6.108  1.00  0.00     0.051 A 
ATOM     15  C   UNL     1       5.989  38.643   7.116  1.00  0.00     0.157 A 
ATOM     16  C   UNL     1       3.854  37.862   7.972  1.00  0.00     0.062 A 
ATOM     17  C   UNL     1       5.254  37.901   8.056  1.00  0.00     0.158 A 
BRANCH  15  18
ATOM     18  O   UNL     1       7.381  38.702   7.172  1.00  0.00    -0.504 OA
ATOM     19  H   UNL     1       7.960  37.883   7.024  1.00  0.00     0.293 HD
ENDBRANCH  15  18
BRANCH  17  20
ATOM     20  O   UNL     1       5.915  37.207   9.067  1.00  0.00    -0.504 OA
ATOM     21  H   UNL     1       6.926  37.130   9.086  1.00  0.00     0.293 HD
ENDBRANCH  17  20
ENDBRANCH   1  12
BRANCH   2  22
ATOM     22  O   UNL     1       1.534  40.933   7.005  1.00  0.00    -0.502 OA
ATOM     23  H   UNL     1       1.237  41.706   6.423  1.00  0.00     0.293 HD
ENDBRANCH   2  22
BRANCH   6  24
ATOM     24  O   UNL     1      -3.445  39.043   7.091  1.00  0.00    -0.507 OA
ATOM     25  H   UNL     1      -4.404  38.999   6.783  1.00  0.00     0.293 HD
ENDBRANCH   6  24
BRANCH   8  26
ATOM     26  O   UNL     1      -2.619  34.393   6.321  1.00  0.00    -0.508 OA
ATOM     27  H   UNL     1      -2.279  33.788   5.582  1.00  0.00     0.293 HD
ENDBRANCH   8  26
TORSDOF 6
ENDMDL
MODEL 7
REMARK VINA RESULT:    -5.181      9.191     11.565
REMARK INTER + INTRA:          -6.576
REMARK INTER:                  -6.245
REMARK INTRA:                  -0.331
REMARK UNBOUND:                -0.334
REMARK SMILES O=c1c(O)c(-c2ccc(O)c(O)c2)oc2cc(O)cc(O)c12
REMARK SMILES IDX 5 1 3 2 2 3 1 4 22 5 20 6 19 7 17 8 16 9 15 10 14 11 6 12
REMARK SMILES IDX 7 13 8 14 9 15 13 16 11 17 10 18 12 20 4 22 21 24 18 26
REMARK H PARENT 10 19 12 21 4 23 21 25 18 27
REMARK Flexibility Score: inf
ROOT
ATOM      1  C   UNL     1      -4.579  44.252   8.406  1.00  0.00     0.180 A 
ATOM      2  C   UNL     1      -5.679  44.629   7.614  1.00  0.00     0.208 A 
ATOM      3  C   UNL     1      -6.002  45.990   7.500  1.00  0.00     0.238 A 
ATOM      4  O   UNL     1      -7.019  46.317   6.835  1.00  0.00    -0.285 OA
ATOM      5  C   UNL     1      -5.211  46.959   8.165  1.00  0.00     0.111 A 
ATOM      6  C   UNL     1      -5.423  48.369   8.086  1.00  0.00     0.134 A 
ATOM      7  C   UNL     1      -4.662  49.227   8.889  1.00  0.00     0.093 A 
ATOM      8  C   UNL     1      -3.654  48.733   9.717  1.00  0.00     0.123 A 
ATOM      9  C   UNL     1      -3.399  47.362   9.758  1.00  0.00     0.094 A 
ATOM     10  C   UNL     1      -4.166  46.478   8.995  1.00  0.00     0.146 A 
ATOM     11  O   UNL     1      -3.899  45.179   9.069  1.00  0.00    -0.452 OA
ENDROOT
BRANCH   1  12
ATOM     12  C   UNL     1      -4.163  42.839   8.555  1.00  0.00     0.025 A 
ATOM     13  C   UNL     1      -3.251  42.247   7.663  1.00  0.00     0.016 A 
ATOM     14  C   UNL     1      -2.853  40.919   7.838  1.00  0.00     0.051 A 
ATOM     15  C   UNL     1      -3.348  40.167   8.907  1.00  0.00     0.157 A 
ATOM     16  C   UNL     1      -4.642  42.087   9.640  1.00  0.00     0.062 A 
ATOM     17  C   UNL     1      -4.245  40.754   9.816  1.00  0.00     0.158 A 
BRANCH  15  18
ATOM     18  O   UNL     1      -2.934  38.844   9.054  1.00  0.00    -0.504 OA
ATOM     19  H   UNL     1      -2.284  38.560   9.778  1.00  0.00     0.293 HD
ENDBRANCH  15  18
BRANCH  17  20
ATOM     20  O   UNL     1      -4.736  40.012  10.888  1.00  0.00    -0.504 OA
ATOM     21  H   UNL     1      -4.174  39.303  11.346  1.00  0.00     0.293 HD
ENDBRANCH  17  20
ENDBRANCH   1  12
BRANCH   2  22
ATOM     22  O   UNL     1      -6.458  43.654   6.985  1.00  0.00    -0.502 OA
ATOM     23  H   UNL     1      -7.425  43.813   6.729  1.00  0.00     0.293 HD
ENDBRANCH   2  22
BRANCH   6  24
ATOM     24  O   UNL     1      -6.341  48.974   7.223  1.00  0.00    -0.507 OA
ATOM     25  H   UNL     1      -7.325  49.082   7.415  1.00  0.00     0.293 HD
ENDBRANCH   6  24
BRANCH   8  26
ATOM     26  O   UNL     1      -2.906  49.618  10.491  1.00  0.00    -0.508 OA
ATOM     27  H   UNL     1      -3.310  50.098  11.287  1.00  0.00     0.293 HD
ENDBRANCH   8  26
TORSDOF 6
ENDMDL
MODEL 8
REMARK VINA RESULT:    -5.125      7.940     11.063
REMARK INTER + INTRA:          -6.508
REMARK INTER:                  -6.186
REMARK INTRA:                  -0.322
REMARK UNBOUND:                -0.334
REMARK SMILES O=c1c(O)c(-c2ccc(O)c(O)c2)oc2cc(O)cc(O)c12
REMARK SMILES IDX 5 1 3 2 2 3 1 4 22 5 20 6 19 7 17 8 16 9 15 10 14 11 6 12
REMARK SMILES IDX 7 13 8 14 9 15 13 16 11 17 10 18 12 20 4 22 21 24 18 26
REMARK H PARENT 10 19 12 21 4 23 21 25 18 27
REMARK Flexibility Score: inf
ROOT
ATOM      1  C   UNL     1      -4.336  43.701   8.749  1.00  0.00     0.180 A 
ATOM      2  C   UNL     1      -5.041  42.932   9.692  1.00  0.00     0.208 A 
ATOM      3  C   UNL     1      -4.774  41.557   9.786  1.00  0.00     0.238 A 
ATOM      4  O   UNL     1      -5.446  40.864  10.593  1.00  0.00    -0.285 OA
ATOM      5  C   UNL     1      -3.793  40.972   8.949  1.00  0.00     0.111 A 
ATOM      6  C   UNL     1      -3.412  39.596   8.987  1.00  0.00     0.134 A 
ATOM      7  C   UNL     1      -2.526  39.098   8.024  1.00  0.00     0.093 A 
ATOM      8  C   UNL     1      -1.957  39.938   7.067  1.00  0.00     0.123 A 
ATOM      9  C   UNL     1      -2.276  41.296   7.058  1.00  0.00     0.094 A 
ATOM     10  C   UNL     1      -3.185  41.814   7.983  1.00  0.00     0.146 A 
ATOM     11  O   UNL     1      -3.470  43.110   7.934  1.00  0.00    -0.452 OA
ENDROOT
BRANCH   1  12
ATOM     12  C   UNL     1      -4.545  45.161   8.608  1.00  0.00     0.025 A 
ATOM     13  C   UNL     1      -5.545  45.678   7.767  1.00  0.00     0.016 A 
ATOM     14  C   UNL     1      -5.740  47.059   7.668  1.00  0.00     0.051 A 
ATOM     15  C   UNL     1      -4.952  47.940   8.414  1.00  0.00     0.157 A 
ATOM     16  C   UNL     1      -3.768  46.047   9.371  1.00  0.00     0.062 A 
ATOM     17  C   UNL     1      -3.962  47.433   9.273  1.00  0.00     0.158 A 
BRANCH  15  18
ATOM     18  O   UNL     1      -5.169  49.312   8.293  1.00  0.00    -0.504 OA
ATOM     19  H   UNL     1      -5.426  49.888   9.086  1.00  0.00     0.293 HD
ENDBRANCH  15  18
BRANCH  17  20
ATOM     20  O   UNL     1      -3.177  48.305  10.025  1.00  0.00    -0.504 OA
ATOM     21  H   UNL     1      -2.188  48.136  10.174  1.00  0.00     0.293 HD
ENDBRANCH  17  20
ENDBRANCH   1  12
BRANCH   2  22
ATOM     22  O   UNL     1      -6.020  43.526  10.493  1.00  0.00    -0.502 OA
ATOM     23  H   UNL     1      -7.007  43.329  10.382  1.00  0.00     0.293 HD
ENDBRANCH   2  22
BRANCH   6  24
ATOM     24  O   UNL     1      -3.851  38.691   9.958  1.00  0.00    -0.507 OA
ATOM     25  H   UNL     1      -4.277  37.799   9.761  1.00  0.00     0.293 HD
ENDBRANCH   6  24
BRANCH   8  26
ATOM     26  O   UNL     1      -1.066  39.411   6.134  1.00  0.00    -0.508 OA
ATOM     27  H   UNL     1      -1.048  38.420   5.921  1.00  0.00     0.293 HD
ENDBRANCH   8  26
TORSDOF 6
ENDMDL
MODEL 9
REMARK VINA RESULT:    -4.972     11.678     13.808
REMARK INTER + INTRA:          -6.324
REMARK INTER:                  -6.018
REMARK INTRA:                  -0.306
REMARK UNBOUND:                -0.334
REMARK SMILES O=c1c(O)c(-c2ccc(O)c(O)c2)oc2cc(O)cc(O)c12
REMARK SMILES IDX 5 1 3 2 2 3 1 4 22 5 20 6 19 7 17 8 16 9 15 10 14 11 6 12
REMARK SMILES IDX 7 13 8 14 9 15 13 16 11 17 10 18 12 20 4 22 21 24 18 26
REMARK H PARENT 10 19 12 21 4 23 21 25 18 27
REMARK Flexibility Score: inf
ROOT
ATOM      1  C   UNL     1      -4.606  47.103   8.696  1.00  0.00     0.180 A 
ATOM      2  C   UNL     1      -3.794  47.725   9.660  1.00  0.00     0.208 A 
ATOM      3  C   UNL     1      -4.019  49.075   9.975  1.00  0.00     0.238 A 
ATOM      4  O   UNL     1      -3.254  49.640  10.798  1.00  0.00    -0.285 OA
ATOM      5  C   UNL     1      -5.066  49.781   9.333  1.00  0.00     0.111 A 
ATOM      6  C   UNL     1      -5.410  51.140   9.604  1.00  0.00     0.134 A 
ATOM      7  C   UNL     1      -6.377  51.777   8.816  1.00  0.00     0.093 A 
ATOM      8  C   UNL     1      -7.058  51.086   7.814  1.00  0.00     0.123 A 
ATOM      9  C   UNL     1      -6.771  49.741   7.580  1.00  0.00     0.094 A 
ATOM     10  C   UNL     1      -5.786  49.089   8.325  1.00  0.00     0.146 A 
ATOM     11  O   UNL     1      -5.536  47.811   8.065  1.00  0.00    -0.452 OA
ENDROOT
BRANCH   1  12
ATOM     12  C   UNL     1      -4.444  45.678   8.330  1.00  0.00     0.025 A 
ATOM     13  C   UNL     1      -3.685  45.291   7.212  1.00  0.00     0.016 A 
ATOM     14  C   UNL     1      -3.526  43.938   6.900  1.00  0.00     0.051 A 
ATOM     15  C   UNL     1      -4.110  42.953   7.702  1.00  0.00     0.157 A 
ATOM     16  C   UNL     1      -5.013  44.686   9.146  1.00  0.00     0.062 A 
ATOM     17  C   UNL     1      -4.855  43.328   8.833  1.00  0.00     0.158 A 
BRANCH  15  18
ATOM     18  O   UNL     1      -3.935  41.612   7.364  1.00  0.00    -0.504 OA
ATOM     19  H   UNL     1      -4.672  41.065   6.935  1.00  0.00     0.293 HD
ENDBRANCH  15  18
BRANCH  17  20
ATOM     20  O   UNL     1      -5.434  42.351   9.642  1.00  0.00    -0.504 OA
ATOM     21  H   UNL     1      -6.430  42.340   9.832  1.00  0.00     0.293 HD
ENDBRANCH  17  20
ENDBRANCH   1  12
BRANCH   2  22
ATOM     22  O   UNL     1      -2.752  47.015  10.266  1.00  0.00    -0.502 OA
ATOM     23  H   UNL     1      -2.381  47.263  11.175  1.00  0.00     0.293 HD
ENDBRANCH   2  22
BRANCH   6  24
ATOM     24  O   UNL     1      -4.857  51.894  10.642  1.00  0.00    -0.507 OA
ATOM     25  H   UNL     1      -4.016  52.445  10.567  1.00  0.00     0.293 HD
ENDBRANCH   6  24
BRANCH   8  26
ATOM     26  O   UNL     1      -8.026  51.748   7.060  1.00  0.00    -0.508 OA
ATOM     27  H   UNL     1      -7.891  52.702   6.745  1.00  0.00     0.293 HD
ENDBRANCH   8  26
TORSDOF 6
ENDMDL
