MODEL 1
REMARK VINA RESULT:    -5.580      0.000      0.000
REMARK INTER + INTRA:          -9.961
REMARK INTER:                  -8.515
REMARK INTRA:                  -1.446
REMARK UNBOUND:                -1.446
REMARK SMILES OC[C@@H]1O[C@@H](O[C@]2(CO)O[C@H](CO)[C@H](O)[C@H]2O)[C@@H](O)[C@@H](O)[C@H]1O
REMARK SMILES IDX 6 1 5 2 3 3 22 4 4 5 20 6 18 7 2 8 1 9 23 11 21 13 19 15
REMARK SMILES IDX 7 17 16 18 10 19 14 20 11 21 8 22 9 23 17 25 15 27 12 29
REMARK SMILES IDX 13 30
REMARK H PARENT 1 10 23 12 21 14 19 16 9 24 17 26 15 28 13 31
REMARK Flexibility Score: inf
ROOT
ATOM      1  O   UNL     1      13.547 -33.585 -19.248  1.00  0.00    -0.313 OA
ENDROOT
BRANCH   1   2
ATOM      2  C   UNL     1      12.439 -32.829 -18.765  1.00  0.00     0.285 C 
ATOM      3  C   UNL     1      12.447 -33.987 -16.718  1.00  0.00     0.178 C 
ATOM      4  C   UNL     1      11.095 -34.692 -16.993  1.00  0.00     0.177 C 
ATOM      5  O   UNL     1      12.480 -32.717 -17.351  1.00  0.00    -0.341 OA
ATOM      6  C   UNL     1      10.821 -34.795 -18.511  1.00  0.00     0.179 C 
ATOM      7  C   UNL     1      11.107 -33.456 -19.221  1.00  0.00     0.202 C 
BRANCH   3   8
ATOM      8  C   UNL     1      12.664 -33.763 -15.214  1.00  0.00     0.191 C 
BRANCH   8   9
ATOM      9  O   UNL     1      11.442 -33.815 -14.529  1.00  0.00    -0.394 OA
ATOM     10  H   UNL     1      10.956 -32.983 -14.768  1.00  0.00     0.210 HD
ENDBRANCH   8   9
ENDBRANCH   3   8
BRANCH   4  11
ATOM     11  O   UNL     1      11.086 -35.973 -16.416  1.00  0.00    -0.387 OA
ATOM     12  H   UNL     1      10.667 -36.581 -17.081  1.00  0.00     0.211 HD
ENDBRANCH   4  11
BRANCH   6  13
ATOM     13  O   UNL     1      11.514 -35.865 -19.110  1.00  0.00    -0.387 OA
ATOM     14  H   UNL     1      12.447 -35.865 -18.773  1.00  0.00     0.211 HD
ENDBRANCH   6  13
BRANCH   7  15
ATOM     15  O   UNL     1      11.114 -33.629 -20.614  1.00  0.00    -0.385 OA
ATOM     16  H   UNL     1      11.266 -32.733 -21.014  1.00  0.00     0.211 HD
ENDBRANCH   7  15
ENDBRANCH   1   2
BRANCH   1  17
ATOM     17  C   UNL     1      14.666 -32.813 -19.681  1.00  0.00     0.224 C 
ATOM     18  C   UNL     1      14.366 -31.289 -19.719  1.00  0.00     0.208 C 
ATOM     19  O   UNL     1      15.694 -33.016 -18.725  1.00  0.00    -0.337 OA
ATOM     20  C   UNL     1      15.633 -30.683 -19.181  1.00  0.00     0.180 C 
ATOM     21  C   UNL     1      16.127 -31.767 -18.230  1.00  0.00     0.179 C 
BRANCH  17  22
ATOM     22  C   UNL     1      15.210 -33.357 -21.025  1.00  0.00     0.225 C 
BRANCH  22  23
ATOM     23  O   UNL     1      14.152 -33.847 -21.802  1.00  0.00    -0.391 OA
ATOM     24  H   UNL     1      13.548 -34.326 -21.175  1.00  0.00     0.210 HD
ENDBRANCH  22  23
ENDBRANCH  17  22
BRANCH  18  25
ATOM     25  O   UNL     1      14.091 -30.820 -21.014  1.00  0.00    -0.385 OA
ATOM     26  H   UNL     1      13.202 -30.381 -20.974  1.00  0.00     0.211 HD
ENDBRANCH  18  25
BRANCH  20  27
ATOM     27  O   UNL     1      15.394 -29.460 -18.530  1.00  0.00    -0.387 OA
ATOM     28  H   UNL     1      14.928 -29.679 -17.682  1.00  0.00     0.211 HD
ENDBRANCH  20  27
BRANCH  21  29
ATOM     29  C   UNL     1      15.626 -31.598 -16.785  1.00  0.00     0.191 C 
BRANCH  29  30
ATOM     30  O   UNL     1      16.518 -32.222 -15.903  1.00  0.00    -0.394 OA
ATOM     31  H   UNL     1      16.086 -33.074 -15.632  1.00  0.00     0.210 HD
ENDBRANCH  29  30
ENDBRANCH  21  29
ENDBRANCH   1  17
TORSDOF 13
ENDMDL
MODEL 2
REMARK VINA RESULT:    -5.490      3.729      5.833
REMARK INTER + INTRA:          -9.824
REMARK INTER:                  -7.956
REMARK INTRA:                  -1.868
REMARK UNBOUND:                -1.446
REMARK SMILES OC[C@@H]1O[C@@H](O[C@]2(CO)O[C@H](CO)[C@H](O)[C@H]2O)[C@@H](O)[C@@H](O)[C@H]1O
REMARK SMILES IDX 6 1 5 2 3 3 22 4 4 5 20 6 18 7 2 8 1 9 23 11 21 13 19 15
REMARK SMILES IDX 7 17 16 18 10 19 14 20 11 21 8 22 9 23 17 25 15 27 12 29
REMARK SMILES IDX 13 30
REMARK H PARENT 1 10 23 12 21 14 19 16 9 24 17 26 15 28 13 31
REMARK Flexibility Score: inf
ROOT
ATOM      1  O   UNL     1      10.031 -31.350 -18.974  1.00  0.00    -0.313 OA
ENDROOT
BRANCH   1   2
ATOM      2  C   UNL     1       9.574 -31.472 -20.318  1.00  0.00     0.285 C 
ATOM      3  C   UNL     1       8.906 -29.217 -20.372  1.00  0.00     0.178 C 
ATOM      4  C   UNL     1       7.396 -29.559 -20.448  1.00  0.00     0.177 C 
ATOM      5  O   UNL     1       9.674 -30.232 -21.002  1.00  0.00    -0.341 OA
ATOM      6  C   UNL     1       7.112 -30.955 -19.847  1.00  0.00     0.179 C 
ATOM      7  C   UNL     1       8.127 -31.999 -20.360  1.00  0.00     0.202 C 
BRANCH   3   8
ATOM      8  C   UNL     1       9.214 -27.892 -21.084  1.00  0.00     0.191 C 
BRANCH   8   9
ATOM      9  O   UNL     1       8.077 -27.418 -21.754  1.00  0.00    -0.394 OA
ATOM     10  H   UNL     1       8.192 -27.672 -22.706  1.00  0.00     0.210 HD
ENDBRANCH   8   9
ENDBRANCH   3   8
BRANCH   4  11
ATOM     11  O   UNL     1       6.641 -28.585 -19.774  1.00  0.00    -0.387 OA
ATOM     12  H   UNL     1       6.480 -28.934 -18.857  1.00  0.00     0.211 HD
ENDBRANCH   4  11
BRANCH   6  13
ATOM     13  O   UNL     1       7.050 -30.932 -18.440  1.00  0.00    -0.387 OA
ATOM     14  H   UNL     1       7.907 -30.578 -18.092  1.00  0.00     0.211 HD
ENDBRANCH   6  13
BRANCH   7  15
ATOM     15  O   UNL     1       8.030 -33.186 -19.616  1.00  0.00    -0.385 OA
ATOM     16  H   UNL     1       8.935 -33.596 -19.611  1.00  0.00     0.211 HD
ENDBRANCH   7  15
ENDBRANCH   1   2
BRANCH   1  17
ATOM     17  C   UNL     1      11.042 -32.281 -18.590  1.00  0.00     0.224 C 
ATOM     18  C   UNL     1      11.417 -33.266 -19.731  1.00  0.00     0.208 C 
ATOM     19  O   UNL     1      12.202 -31.522 -18.291  1.00  0.00    -0.337 OA
ATOM     20  C   UNL     1      12.912 -33.368 -19.610  1.00  0.00     0.180 C 
ATOM     21  C   UNL     1      13.283 -31.994 -19.066  1.00  0.00     0.179 C 
BRANCH  17  22
ATOM     22  C   UNL     1      10.643 -33.000 -17.277  1.00  0.00     0.225 C 
BRANCH  22  23
ATOM     23  O   UNL     1       9.325 -32.670 -16.936  1.00  0.00    -0.391 OA
ATOM     24  H   UNL     1       8.789 -33.495 -17.077  1.00  0.00     0.210 HD
ENDBRANCH  22  23
ENDBRANCH  17  22
BRANCH  18  25
ATOM     25  O   UNL     1      10.810 -34.525 -19.586  1.00  0.00    -0.385 OA
ATOM     26  H   UNL     1      10.138 -34.602 -20.313  1.00  0.00     0.211 HD
ENDBRANCH  18  25
BRANCH  20  27
ATOM     27  O   UNL     1      13.520 -33.642 -20.848  1.00  0.00    -0.387 OA
ATOM     28  H   UNL     1      13.419 -32.823 -21.399  1.00  0.00     0.211 HD
ENDBRANCH  20  27
BRANCH  21  29
ATOM     29  C   UNL     1      13.606 -30.961 -20.160  1.00  0.00     0.191 C 
BRANCH  29  30
ATOM     30  O   UNL     1      12.647 -29.939 -20.139  1.00  0.00    -0.394 OA
ATOM     31  H   UNL     1      11.975 -30.179 -20.830  1.00  0.00     0.210 HD
ENDBRANCH  29  30
ENDBRANCH  21  29
ENDBRANCH   1  17
TORSDOF 13
ENDMDL
MODEL 3
REMARK VINA RESULT:    -5.441      3.758      6.042
REMARK INTER + INTRA:          -9.750
REMARK INTER:                  -8.174
REMARK INTRA:                  -1.575
REMARK UNBOUND:                -1.446
REMARK SMILES OC[C@@H]1O[C@@H](O[C@]2(CO)O[C@H](CO)[C@H](O)[C@H]2O)[C@@H](O)[C@@H](O)[C@H]1O
REMARK SMILES IDX 6 1 5 2 3 3 22 4 4 5 20 6 18 7 2 8 1 9 23 11 21 13 19 15
REMARK SMILES IDX 7 17 16 18 10 19 14 20 11 21 8 22 9 23 17 25 15 27 12 29
REMARK SMILES IDX 13 30
REMARK H PARENT 1 10 23 12 21 14 19 16 9 24 17 26 15 28 13 31
REMARK Flexibility Score: inf
ROOT
ATOM      1  O   UNL     1      10.084 -31.306 -19.234  1.00  0.00    -0.313 OA
ENDROOT
BRANCH   1   2
ATOM      2  C   UNL     1       9.573 -31.312 -20.564  1.00  0.00     0.285 C 
ATOM      3  C   UNL     1       8.949 -29.049 -20.414  1.00  0.00     0.178 C 
ATOM      4  C   UNL     1       7.431 -29.359 -20.456  1.00  0.00     0.177 C 
ATOM      5  O   UNL     1       9.671 -30.024 -21.152  1.00  0.00    -0.341 OA
ATOM      6  C   UNL     1       7.142 -30.793 -19.957  1.00  0.00     0.179 C 
ATOM      7  C   UNL     1       8.115 -31.810 -20.590  1.00  0.00     0.202 C 
BRANCH   3   8
ATOM      8  C   UNL     1       9.256 -27.677 -21.031  1.00  0.00     0.191 C 
BRANCH   8   9
ATOM      9  O   UNL     1       8.194 -27.256 -21.844  1.00  0.00    -0.394 OA
ATOM     10  H   UNL     1       8.084 -27.957 -22.538  1.00  0.00     0.210 HD
ENDBRANCH   8   9
ENDBRANCH   3   8
BRANCH   4  11
ATOM     11  O   UNL     1       6.722 -28.429 -19.678  1.00  0.00    -0.387 OA
ATOM     12  H   UNL     1       6.587 -28.848 -18.786  1.00  0.00     0.211 HD
ENDBRANCH   4  11
BRANCH   6  13
ATOM     13  O   UNL     1       7.135 -30.881 -18.551  1.00  0.00    -0.387 OA
ATOM     14  H   UNL     1       6.629 -31.691 -18.287  1.00  0.00     0.211 HD
ENDBRANCH   6  13
BRANCH   7  15
ATOM     15  O   UNL     1       8.024 -33.050 -19.938  1.00  0.00    -0.385 OA
ATOM     16  H   UNL     1       8.887 -33.518 -20.090  1.00  0.00     0.211 HD
ENDBRANCH   7  15
ENDBRANCH   1   2
BRANCH   1  17
ATOM     17  C   UNL     1      11.352 -31.938 -19.068  1.00  0.00     0.224 C 
ATOM     18  C   UNL     1      11.625 -32.363 -17.599  1.00  0.00     0.208 C 
ATOM     19  O   UNL     1      11.321 -33.121 -19.849  1.00  0.00    -0.337 OA
ATOM     20  C   UNL     1      12.277 -33.710 -17.753  1.00  0.00     0.180 C 
ATOM     21  C   UNL     1      11.635 -34.230 -19.034  1.00  0.00     0.179 C 
BRANCH  17  22
ATOM     22  C   UNL     1      12.478 -31.056 -19.662  1.00  0.00     0.225 C 
BRANCH  22  23
ATOM     23  O   UNL     1      12.260 -29.714 -19.322  1.00  0.00    -0.391 OA
ATOM     24  H   UNL     1      11.298 -29.538 -19.496  1.00  0.00     0.210 HD
ENDBRANCH  22  23
ENDBRANCH  17  22
BRANCH  18  25
ATOM     25  O   UNL     1      12.469 -31.467 -16.921  1.00  0.00    -0.385 OA
ATOM     26  H   UNL     1      12.992 -30.988 -17.616  1.00  0.00     0.211 HD
ENDBRANCH  18  25
BRANCH  20  27
ATOM     27  O   UNL     1      12.029 -34.541 -16.647  1.00  0.00    -0.387 OA
ATOM     28  H   UNL     1      12.086 -33.963 -15.842  1.00  0.00     0.211 HD
ENDBRANCH  20  27
BRANCH  21  29
ATOM     29  C   UNL     1      10.359 -35.056 -18.796  1.00  0.00     0.191 C 
BRANCH  29  30
ATOM     30  O   UNL     1      10.703 -36.392 -18.552  1.00  0.00    -0.394 OA
ATOM     31  H   UNL     1      11.684 -36.454 -18.696  1.00  0.00     0.210 HD
ENDBRANCH  29  30
ENDBRANCH  21  29
ENDBRANCH   1  17
TORSDOF 13
ENDMDL
MODEL 4
REMARK VINA RESULT:    -5.305      8.862     10.841
REMARK INTER + INTRA:          -9.542
REMARK INTER:                  -8.199
REMARK INTRA:                  -1.344
REMARK UNBOUND:                -1.446
REMARK SMILES OC[C@@H]1O[C@@H](O[C@]2(CO)O[C@H](CO)[C@H](O)[C@H]2O)[C@@H](O)[C@@H](O)[C@H]1O
REMARK SMILES IDX 6 1 5 2 3 3 22 4 4 5 20 6 18 7 2 8 1 9 23 11 21 13 19 15
REMARK SMILES IDX 7 17 16 18 10 19 14 20 11 21 8 22 9 23 17 25 15 27 12 29
REMARK SMILES IDX 13 30
REMARK H PARENT 1 10 23 12 21 14 19 16 9 24 17 26 15 28 13 31
REMARK Flexibility Score: inf
ROOT
ATOM      1  O   UNL     1       8.746 -25.532 -12.430  1.00  0.00    -0.313 OA
ENDROOT
BRANCH   1   2
ATOM      2  C   UNL     1      10.170 -25.507 -12.485  1.00  0.00     0.285 C 
ATOM      3  C   UNL     1      10.304 -27.787 -11.922  1.00  0.00     0.178 C 
ATOM      4  C   UNL     1      10.939 -27.513 -10.535  1.00  0.00     0.177 C 
ATOM      5  O   UNL     1      10.685 -26.779 -12.847  1.00  0.00    -0.341 OA
ATOM      6  C   UNL     1      10.578 -26.098 -10.029  1.00  0.00     0.179 C 
ATOM      7  C   UNL     1      10.763 -25.044 -11.141  1.00  0.00     0.202 C 
BRANCH   3   8
ATOM      8  C   UNL     1      10.765 -29.138 -12.490  1.00  0.00     0.191 C 
BRANCH   8   9
ATOM      9  O   UNL     1      10.222 -30.194 -11.745  1.00  0.00    -0.394 OA
ATOM     10  H   UNL     1      10.927 -30.891 -11.701  1.00  0.00     0.210 HD
ENDBRANCH   8   9
ENDBRANCH   3   8
BRANCH   4  11
ATOM     11  O   UNL     1      10.514 -28.477  -9.605  1.00  0.00    -0.387 OA
ATOM     12  H   UNL     1      11.183 -29.212  -9.633  1.00  0.00     0.211 HD
ENDBRANCH   4  11
BRANCH   6  13
ATOM     13  O   UNL     1       9.288 -26.042  -9.464  1.00  0.00    -0.387 OA
ATOM     14  H   UNL     1       9.368 -26.141  -8.482  1.00  0.00     0.211 HD
ENDBRANCH   6  13
BRANCH   7  15
ATOM     15  O   UNL     1      10.187 -23.821 -10.762  1.00  0.00    -0.385 OA
ATOM     16  H   UNL     1      10.906 -23.285 -10.334  1.00  0.00     0.211 HD
ENDBRANCH   7  15
ENDBRANCH   1   2
BRANCH   1  17
ATOM     17  C   UNL     1       8.085 -24.886 -13.517  1.00  0.00     0.224 C 
ATOM     18  C   UNL     1       9.073 -24.197 -14.497  1.00  0.00     0.208 C 
ATOM     19  O   UNL     1       7.409 -25.899 -14.243  1.00  0.00    -0.337 OA
ATOM     20  C   UNL     1       8.483 -24.509 -15.845  1.00  0.00     0.180 C 
ATOM     21  C   UNL     1       7.811 -25.854 -15.595  1.00  0.00     0.179 C 
BRANCH  17  22
ATOM     22  C   UNL     1       6.989 -23.927 -12.989  1.00  0.00     0.225 C 
BRANCH  22  23
ATOM     23  O   UNL     1       6.523 -24.376 -11.746  1.00  0.00    -0.391 OA
ATOM     24  H   UNL     1       5.726 -24.938 -11.937  1.00  0.00     0.210 HD
ENDBRANCH  22  23
ENDBRANCH  17  22
BRANCH  18  25
ATOM     25  O   UNL     1       9.165 -22.810 -14.294  1.00  0.00    -0.385 OA
ATOM     26  H   UNL     1       9.147 -22.665 -13.312  1.00  0.00     0.211 HD
ENDBRANCH  18  25
BRANCH  20  27
ATOM     27  O   UNL     1       9.468 -24.574 -16.846  1.00  0.00    -0.387 OA
ATOM     28  H   UNL     1      10.295 -24.191 -16.453  1.00  0.00     0.211 HD
ENDBRANCH  20  27
BRANCH  21  29
ATOM     29  C   UNL     1       8.714 -27.063 -15.893  1.00  0.00     0.191 C 
BRANCH  29  30
ATOM     30  O   UNL     1       8.632 -27.388 -17.253  1.00  0.00    -0.394 OA
ATOM     31  H   UNL     1       8.316 -26.566 -17.713  1.00  0.00     0.210 HD
ENDBRANCH  29  30
ENDBRANCH  21  29
ENDBRANCH   1  17
TORSDOF 13
ENDMDL
MODEL 5
REMARK VINA RESULT:    -5.278      2.752      3.883
REMARK INTER + INTRA:          -9.500
REMARK INTER:                  -7.491
REMARK INTRA:                  -2.009
REMARK UNBOUND:                -1.446
REMARK SMILES OC[C@@H]1O[C@@H](O[C@]2(CO)O[C@H](CO)[C@H](O)[C@H]2O)[C@@H](O)[C@@H](O)[C@H]1O
REMARK SMILES IDX 6 1 5 2 3 3 22 4 4 5 20 6 18 7 2 8 1 9 23 11 21 13 19 15
REMARK SMILES IDX 7 17 16 18 10 19 14 20 11 21 8 22 9 23 17 25 15 27 12 29
REMARK SMILES IDX 13 30
REMARK H PARENT 1 10 23 12 21 14 19 16 9 24 17 26 15 28 13 31
REMARK Flexibility Score: inf
ROOT
ATOM      1  O   UNL     1      10.861 -33.185 -18.173  1.00  0.00    -0.313 OA
ENDROOT
BRANCH   1   2
ATOM      2  C   UNL     1      10.827 -32.009 -18.978  1.00  0.00     0.285 C 
ATOM      3  C   UNL     1       9.088 -31.089 -17.689  1.00  0.00     0.178 C 
ATOM      4  C   UNL     1       8.046 -31.193 -18.832  1.00  0.00     0.177 C 
ATOM      5  O   UNL     1      10.388 -30.890 -18.223  1.00  0.00    -0.341 OA
ATOM      6  C   UNL     1       8.434 -32.301 -19.837  1.00  0.00     0.179 C 
ATOM      7  C   UNL     1       9.928 -32.215 -20.213  1.00  0.00     0.202 C 
BRANCH   3   8
ATOM      8  C   UNL     1       8.781 -29.905 -16.760  1.00  0.00     0.191 C 
BRANCH   8   9
ATOM      9  O   UNL     1       7.724 -29.140 -17.273  1.00  0.00    -0.394 OA
ATOM     10  H   UNL     1       7.476 -29.558 -18.138  1.00  0.00     0.210 HD
ENDBRANCH   8   9
ENDBRANCH   3   8
BRANCH   4  11
ATOM     11  O   UNL     1       6.769 -31.448 -18.306  1.00  0.00    -0.387 OA
ATOM     12  H   UNL     1       6.261 -30.596 -18.365  1.00  0.00     0.211 HD
ENDBRANCH   4  11
BRANCH   6  13
ATOM     13  O   UNL     1       8.081 -33.587 -19.381  1.00  0.00    -0.387 OA
ATOM     14  H   UNL     1       8.911 -34.108 -19.232  1.00  0.00     0.211 HD
ENDBRANCH   6  13
BRANCH   7  15
ATOM     15  O   UNL     1      10.329 -33.368 -20.906  1.00  0.00    -0.385 OA
ATOM     16  H   UNL     1       9.532 -33.959 -20.965  1.00  0.00     0.211 HD
ENDBRANCH   7  15
ENDBRANCH   1   2
BRANCH   1  17
ATOM     17  C   UNL     1      12.138 -33.811 -18.070  1.00  0.00     0.224 C 
ATOM     18  C   UNL     1      13.179 -33.223 -19.061  1.00  0.00     0.208 C 
ATOM     19  O   UNL     1      12.613 -33.553 -16.758  1.00  0.00    -0.337 OA
ATOM     20  C   UNL     1      14.435 -33.164 -18.236  1.00  0.00     0.180 C 
ATOM     21  C   UNL     1      13.884 -32.944 -16.832  1.00  0.00     0.179 C 
BRANCH  17  22
ATOM     22  C   UNL     1      11.996 -35.350 -18.184  1.00  0.00     0.225 C 
BRANCH  22  23
ATOM     23  O   UNL     1      11.156 -35.671 -19.259  1.00  0.00    -0.391 OA
ATOM     24  H   UNL     1      10.769 -36.561 -19.051  1.00  0.00     0.210 HD
ENDBRANCH  22  23
ENDBRANCH  17  22
BRANCH  18  25
ATOM     25  O   UNL     1      13.360 -34.024 -20.201  1.00  0.00    -0.385 OA
ATOM     26  H   UNL     1      13.859 -34.830 -19.905  1.00  0.00     0.211 HD
ENDBRANCH  18  25
BRANCH  20  27
ATOM     27  O   UNL     1      15.287 -32.126 -18.651  1.00  0.00    -0.387 OA
ATOM     28  H   UNL     1      15.087 -31.348 -18.070  1.00  0.00     0.211 HD
ENDBRANCH  20  27
BRANCH  21  29
ATOM     29  C   UNL     1      13.754 -31.461 -16.443  1.00  0.00     0.191 C 
BRANCH  29  30
ATOM     30  O   UNL     1      12.431 -31.188 -16.069  1.00  0.00    -0.394 OA
ATOM     31  H   UNL     1      12.394 -30.213 -15.883  1.00  0.00     0.210 HD
ENDBRANCH  29  30
ENDBRANCH  21  29
ENDBRANCH   1  17
TORSDOF 13
ENDMDL
MODEL 6
REMARK VINA RESULT:    -5.277      2.754      4.874
REMARK INTER + INTRA:          -9.499
REMARK INTER:                  -7.500
REMARK INTRA:                  -1.999
REMARK UNBOUND:                -1.446
REMARK SMILES OC[C@@H]1O[C@@H](O[C@]2(CO)O[C@H](CO)[C@H](O)[C@H]2O)[C@@H](O)[C@@H](O)[C@H]1O
REMARK SMILES IDX 6 1 5 2 3 3 22 4 4 5 20 6 18 7 2 8 1 9 23 11 21 13 19 15
REMARK SMILES IDX 7 17 16 18 10 19 14 20 11 21 8 22 9 23 17 25 15 27 12 29
REMARK SMILES IDX 13 30
REMARK H PARENT 1 10 23 12 21 14 19 16 9 24 17 26 15 28 13 31
REMARK Flexibility Score: inf
ROOT
ATOM      1  O   UNL     1      10.534 -33.619 -17.921  1.00  0.00    -0.313 OA
ENDROOT
BRANCH   1   2
ATOM      2  C   UNL     1      10.893 -32.246 -18.054  1.00  0.00     0.285 C 
ATOM      3  C   UNL     1       8.636 -31.591 -18.162  1.00  0.00     0.178 C 
ATOM      4  C   UNL     1       8.727 -31.152 -19.645  1.00  0.00     0.177 C 
ATOM      5  O   UNL     1       9.886 -31.404 -17.514  1.00  0.00    -0.341 OA
ATOM      6  C   UNL     1       9.873 -31.891 -20.374  1.00  0.00     0.179 C 
ATOM      7  C   UNL     1      11.164 -31.890 -19.528  1.00  0.00     0.202 C 
BRANCH   3   8
ATOM      8  C   UNL     1       7.588 -30.767 -17.399  1.00  0.00     0.191 C 
BRANCH   8   9
ATOM      9  O   UNL     1       6.344 -31.413 -17.422  1.00  0.00    -0.394 OA
ATOM     10  H   UNL     1       5.774 -30.936 -16.765  1.00  0.00     0.210 HD
ENDBRANCH   8   9
ENDBRANCH   3   8
BRANCH   4  11
ATOM     11  O   UNL     1       7.508 -31.392 -20.301  1.00  0.00    -0.387 OA
ATOM     12  H   UNL     1       7.297 -32.353 -20.165  1.00  0.00     0.211 HD
ENDBRANCH   4  11
BRANCH   6  13
ATOM     13  O   UNL     1       9.506 -33.193 -20.769  1.00  0.00    -0.387 OA
ATOM     14  H   UNL     1      10.018 -33.432 -21.583  1.00  0.00     0.211 HD
ENDBRANCH   6  13
BRANCH   7  15
ATOM     15  O   UNL     1      12.106 -32.779 -20.068  1.00  0.00    -0.385 OA
ATOM     16  H   UNL     1      12.072 -32.670 -21.055  1.00  0.00     0.211 HD
ENDBRANCH   7  15
ENDBRANCH   1   2
BRANCH   1  17
ATOM     17  C   UNL     1      11.428 -34.406 -17.136  1.00  0.00     0.224 C 
ATOM     18  C   UNL     1      12.753 -33.664 -16.808  1.00  0.00     0.208 C 
ATOM     19  O   UNL     1      10.772 -34.660 -15.904  1.00  0.00    -0.337 OA
ATOM     20  C   UNL     1      13.007 -34.046 -15.375  1.00  0.00     0.180 C 
ATOM     21  C   UNL     1      11.593 -34.232 -14.839  1.00  0.00     0.179 C 
BRANCH  17  22
ATOM     22  C   UNL     1      11.656 -35.788 -17.798  1.00  0.00     0.225 C 
BRANCH  22  23
ATOM     23  O   UNL     1      11.634 -35.655 -19.193  1.00  0.00    -0.391 OA
ATOM     24  H   UNL     1      12.576 -35.750 -19.494  1.00  0.00     0.210 HD
ENDBRANCH  22  23
ENDBRANCH  17  22
BRANCH  18  25
ATOM     25  O   UNL     1      13.818 -34.061 -17.634  1.00  0.00    -0.385 OA
ATOM     26  H   UNL     1      14.378 -34.681 -17.097  1.00  0.00     0.211 HD
ENDBRANCH  18  25
BRANCH  20  27
ATOM     27  O   UNL     1      13.721 -33.050 -14.686  1.00  0.00    -0.387 OA
ATOM     28  H   UNL     1      13.461 -33.127 -13.732  1.00  0.00     0.211 HD
ENDBRANCH  20  27
BRANCH  21  29
ATOM     29  C   UNL     1      10.992 -32.957 -14.221  1.00  0.00     0.191 C 
BRANCH  29  30
ATOM     30  O   UNL     1       9.770 -32.666 -14.842  1.00  0.00    -0.394 OA
ATOM     31  H   UNL     1       9.428 -31.844 -14.402  1.00  0.00     0.210 HD
ENDBRANCH  29  30
ENDBRANCH  21  29
ENDBRANCH   1  17
TORSDOF 13
ENDMDL
MODEL 7
REMARK VINA RESULT:    -5.268      3.859      5.269
REMARK INTER + INTRA:          -9.486
REMARK INTER:                  -7.430
REMARK INTRA:                  -2.057
REMARK UNBOUND:                -1.446
REMARK SMILES OC[C@@H]1O[C@@H](O[C@]2(CO)O[C@H](CO)[C@H](O)[C@H]2O)[C@@H](O)[C@@H](O)[C@H]1O
REMARK SMILES IDX 6 1 5 2 3 3 22 4 4 5 20 6 18 7 2 8 1 9 23 11 21 13 19 15
REMARK SMILES IDX 7 17 16 18 10 19 14 20 11 21 8 22 9 23 17 25 15 27 12 29
REMARK SMILES IDX 13 30
REMARK H PARENT 1 10 23 12 21 14 19 16 9 24 17 26 15 28 13 31
REMARK Flexibility Score: inf
ROOT
ATOM      1  O   UNL     1       9.933 -31.135 -18.847  1.00  0.00    -0.313 OA
ENDROOT
BRANCH   1   2
ATOM      2  C   UNL     1       9.001 -32.064 -18.301  1.00  0.00     0.285 C 
ATOM      3  C   UNL     1      10.725 -33.533 -17.665  1.00  0.00     0.178 C 
ATOM      4  C   UNL     1      10.316 -34.621 -18.690  1.00  0.00     0.177 C 
ATOM      5  O   UNL     1       9.584 -32.803 -17.239  1.00  0.00    -0.341 OA
ATOM      6  C   UNL     1       9.547 -34.003 -19.880  1.00  0.00     0.179 C 
ATOM      7  C   UNL     1       8.468 -33.013 -19.393  1.00  0.00     0.202 C 
BRANCH   3   8
ATOM      8  C   UNL     1      11.372 -34.155 -16.419  1.00  0.00     0.191 C 
BRANCH   8   9
ATOM      9  O   UNL     1      10.923 -35.470 -16.238  1.00  0.00    -0.394 OA
ATOM     10  H   UNL     1      10.630 -35.534 -15.293  1.00  0.00     0.210 HD
ENDBRANCH   8   9
ENDBRANCH   3   8
BRANCH   4  11
ATOM     11  O   UNL     1      11.452 -35.303 -19.157  1.00  0.00    -0.387 OA
ATOM     12  H   UNL     1      11.516 -35.116 -20.131  1.00  0.00     0.211 HD
ENDBRANCH   4  11
BRANCH   6  13
ATOM     13  O   UNL     1      10.407 -33.415 -20.828  1.00  0.00    -0.387 OA
ATOM     14  H   UNL     1       9.943 -32.643 -21.241  1.00  0.00     0.211 HD
ENDBRANCH   6  13
BRANCH   7  15
ATOM     15  O   UNL     1       7.963 -32.265 -20.468  1.00  0.00    -0.385 OA
ATOM     16  H   UNL     1       7.378 -31.563 -20.080  1.00  0.00     0.211 HD
ENDBRANCH   7  15
ENDBRANCH   1   2
BRANCH   1  17
ATOM     17  C   UNL     1       9.523 -29.769 -18.806  1.00  0.00     0.224 C 
ATOM     18  C   UNL     1       8.053 -29.597 -18.337  1.00  0.00     0.208 C 
ATOM     19  O   UNL     1      10.348 -29.126 -17.848  1.00  0.00    -0.337 OA
ATOM     20  C   UNL     1       8.123 -28.392 -17.439  1.00  0.00     0.180 C 
ATOM     21  C   UNL     1       9.538 -28.495 -16.880  1.00  0.00     0.179 C 
BRANCH  17  22
ATOM     22  C   UNL     1       9.812 -29.077 -20.161  1.00  0.00     0.225 C 
BRANCH  22  23
ATOM     23  O   UNL     1       9.548 -29.965 -21.213  1.00  0.00    -0.391 OA
ATOM     24  H   UNL     1      10.426 -30.167 -21.630  1.00  0.00     0.210 HD
ENDBRANCH  22  23
ENDBRANCH  17  22
BRANCH  18  25
ATOM     25  O   UNL     1       7.163 -29.381 -19.403  1.00  0.00    -0.385 OA
ATOM     26  H   UNL     1       6.817 -28.456 -19.302  1.00  0.00     0.211 HD
ENDBRANCH  18  25
BRANCH  20  27
ATOM     27  O   UNL     1       7.141 -28.429 -16.435  1.00  0.00    -0.387 OA
ATOM     28  H   UNL     1       6.267 -28.510 -16.898  1.00  0.00     0.211 HD
ENDBRANCH  20  27
BRANCH  21  29
ATOM     29  C   UNL     1       9.627 -29.281 -15.560  1.00  0.00     0.191 C 
BRANCH  29  30
ATOM     30  O   UNL     1      10.475 -30.384 -15.727  1.00  0.00    -0.394 OA
ATOM     31  H   UNL     1      11.199 -30.278 -15.055  1.00  0.00     0.210 HD
ENDBRANCH  29  30
ENDBRANCH  21  29
ENDBRANCH   1  17
TORSDOF 13
ENDMDL
MODEL 8
REMARK VINA RESULT:    -5.245      3.919      6.208
REMARK INTER + INTRA:          -9.450
REMARK INTER:                  -7.992
REMARK INTRA:                  -1.458
REMARK UNBOUND:                -1.446
REMARK SMILES OC[C@@H]1O[C@@H](O[C@]2(CO)O[C@H](CO)[C@H](O)[C@H]2O)[C@@H](O)[C@@H](O)[C@H]1O
REMARK SMILES IDX 6 1 5 2 3 3 22 4 4 5 20 6 18 7 2 8 1 9 23 11 21 13 19 15
REMARK SMILES IDX 7 17 16 18 10 19 14 20 11 21 8 22 9 23 17 25 15 27 12 29
REMARK SMILES IDX 13 30
REMARK H PARENT 1 10 23 12 21 14 19 16 9 24 17 26 15 28 13 31
REMARK Flexibility Score: inf
ROOT
ATOM      1  O   UNL     1       9.768 -31.175 -18.711  1.00  0.00    -0.313 OA
ENDROOT
BRANCH   1   2
ATOM      2  C   UNL     1      10.511 -31.732 -19.792  1.00  0.00     0.285 C 
ATOM      3  C   UNL     1      10.800 -33.764 -18.642  1.00  0.00     0.178 C 
ATOM      4  C   UNL     1      12.326 -33.566 -18.465  1.00  0.00     0.177 C 
ATOM      5  O   UNL     1      10.357 -33.142 -19.840  1.00  0.00    -0.341 OA
ATOM      6  C   UNL     1      12.701 -32.067 -18.511  1.00  0.00     0.179 C 
ATOM      7  C   UNL     1      12.001 -31.353 -19.686  1.00  0.00     0.202 C 
BRANCH   3   8
ATOM      8  C   UNL     1      10.436 -35.254 -18.730  1.00  0.00     0.191 C 
BRANCH   8   9
ATOM      9  O   UNL     1      11.540 -36.003 -19.161  1.00  0.00    -0.394 OA
ATOM     10  H   UNL     1      11.603 -36.780 -18.547  1.00  0.00     0.210 HD
ENDBRANCH   8   9
ENDBRANCH   3   8
BRANCH   4  11
ATOM     11  O   UNL     1      12.754 -34.130 -17.252  1.00  0.00    -0.387 OA
ATOM     12  H   UNL     1      13.392 -34.856 -17.484  1.00  0.00     0.211 HD
ENDBRANCH   4  11
BRANCH   6  13
ATOM     13  O   UNL     1      12.461 -31.416 -17.285  1.00  0.00    -0.387 OA
ATOM     14  H   UNL     1      12.762 -30.475 -17.363  1.00  0.00     0.211 HD
ENDBRANCH   6  13
BRANCH   7  15
ATOM     15  O   UNL     1      12.131 -29.960 -19.565  1.00  0.00    -0.385 OA
ATOM     16  H   UNL     1      11.865 -29.728 -18.636  1.00  0.00     0.211 HD
ENDBRANCH   7  15
ENDBRANCH   1   2
BRANCH   1  17
ATOM     17  C   UNL     1       8.490 -30.647 -19.063  1.00  0.00     0.224 C 
ATOM     18  C   UNL     1       8.237 -29.236 -18.466  1.00  0.00     0.208 C 
ATOM     19  O   UNL     1       8.479 -30.515 -20.475  1.00  0.00    -0.337 OA
ATOM     20  C   UNL     1       7.552 -28.511 -19.592  1.00  0.00     0.180 C 
ATOM     21  C   UNL     1       8.157 -29.184 -20.818  1.00  0.00     0.179 C 
BRANCH  17  22
ATOM     22  C   UNL     1       7.372 -31.662 -18.714  1.00  0.00     0.225 C 
BRANCH  22  23
ATOM     23  O   UNL     1       7.314 -32.660 -19.695  1.00  0.00    -0.391 OA
ATOM     24  H   UNL     1       7.351 -33.526 -19.210  1.00  0.00     0.210 HD
ENDBRANCH  22  23
ENDBRANCH  17  22
BRANCH  18  25
ATOM     25  O   UNL     1       7.427 -29.267 -17.318  1.00  0.00    -0.385 OA
ATOM     26  H   UNL     1       7.568 -28.405 -16.847  1.00  0.00     0.211 HD
ENDBRANCH  18  25
BRANCH  20  27
ATOM     27  O   UNL     1       7.804 -27.129 -19.554  1.00  0.00    -0.387 OA
ATOM     28  H   UNL     1       8.041 -26.911 -18.616  1.00  0.00     0.211 HD
ENDBRANCH  20  27
BRANCH  21  29
ATOM     29  C   UNL     1       9.419 -28.483 -21.351  1.00  0.00     0.191 C 
BRANCH  29  30
ATOM     30  O   UNL     1       9.049 -27.414 -22.177  1.00  0.00    -0.394 OA
ATOM     31  H   UNL     1       9.803 -27.282 -22.810  1.00  0.00     0.210 HD
ENDBRANCH  29  30
ENDBRANCH  21  29
ENDBRANCH   1  17
TORSDOF 13
ENDMDL
MODEL 9
REMARK VINA RESULT:    -5.206      1.484      5.021
REMARK INTER + INTRA:          -9.390
REMARK INTER:                  -7.360
REMARK INTRA:                  -2.030
REMARK UNBOUND:                -1.446
REMARK SMILES OC[C@@H]1O[C@@H](O[C@]2(CO)O[C@H](CO)[C@H](O)[C@H]2O)[C@@H](O)[C@@H](O)[C@H]1O
REMARK SMILES IDX 6 1 5 2 3 3 22 4 4 5 20 6 18 7 2 8 1 9 23 11 21 13 19 15
REMARK SMILES IDX 7 17 16 18 10 19 14 20 11 21 8 22 9 23 17 25 15 27 12 29
REMARK SMILES IDX 13 30
REMARK H PARENT 1 10 23 12 21 14 19 16 9 24 17 26 15 28 13 31
REMARK Flexibility Score: inf
ROOT
ATOM      1  O   UNL     1      13.069 -32.051 -17.862  1.00  0.00    -0.313 OA
ENDROOT
BRANCH   1   2
ATOM      2  C   UNL     1      14.186 -32.917 -18.046  1.00  0.00     0.285 C 
ATOM      3  C   UNL     1      15.216 -32.126 -16.085  1.00  0.00     0.178 C 
ATOM      4  C   UNL     1      16.373 -31.434 -16.849  1.00  0.00     0.177 C 
ATOM      5  O   UNL     1      14.766 -33.268 -16.799  1.00  0.00    -0.341 OA
ATOM      6  C   UNL     1      15.953 -31.083 -18.294  1.00  0.00     0.179 C 
ATOM      7  C   UNL     1      15.236 -32.271 -18.970  1.00  0.00     0.202 C 
BRANCH   3   8
ATOM      8  C   UNL     1      15.667 -32.595 -14.694  1.00  0.00     0.191 C 
BRANCH   8   9
ATOM      9  O   UNL     1      15.703 -31.516 -13.800  1.00  0.00    -0.394 OA
ATOM     10  H   UNL     1      15.685 -31.911 -12.890  1.00  0.00     0.210 HD
ENDBRANCH   8   9
ENDBRANCH   3   8
BRANCH   4  11
ATOM     11  O   UNL     1      16.778 -30.272 -16.172  1.00  0.00    -0.387 OA
ATOM     12  H   UNL     1      16.387 -29.504 -16.667  1.00  0.00     0.211 HD
ENDBRANCH   4  11
BRANCH   6  13
ATOM     13  O   UNL     1      15.187 -29.903 -18.359  1.00  0.00    -0.387 OA
ATOM     14  H   UNL     1      15.359 -29.369 -17.543  1.00  0.00     0.211 HD
ENDBRANCH   6  13
BRANCH   7  15
ATOM     15  O   UNL     1      14.629 -31.862 -20.168  1.00  0.00    -0.385 OA
ATOM     16  H   UNL     1      13.749 -32.321 -20.215  1.00  0.00     0.211 HD
ENDBRANCH   7  15
ENDBRANCH   1   2
BRANCH   1  17
ATOM     17  C   UNL     1      11.824 -32.557 -18.339  1.00  0.00     0.224 C 
ATOM     18  C   UNL     1      11.989 -33.819 -19.230  1.00  0.00     0.208 C 
ATOM     19  O   UNL     1      11.077 -32.944 -17.197  1.00  0.00    -0.337 OA
ATOM     20  C   UNL     1      10.849 -34.695 -18.789  1.00  0.00     0.180 C 
ATOM     21  C   UNL     1      10.685 -34.293 -17.328  1.00  0.00     0.179 C 
BRANCH  17  22
ATOM     22  C   UNL     1      11.011 -31.432 -19.028  1.00  0.00     0.225 C 
BRANCH  22  23
ATOM     23  O   UNL     1      11.846 -30.697 -19.880  1.00  0.00    -0.391 OA
ATOM     24  H   UNL     1      12.479 -31.351 -20.279  1.00  0.00     0.210 HD
ENDBRANCH  22  23
ENDBRANCH  17  22
BRANCH  18  25
ATOM     25  O   UNL     1      11.904 -33.531 -20.603  1.00  0.00    -0.385 OA
ATOM     26  H   UNL     1      12.532 -32.781 -20.775  1.00  0.00     0.211 HD
ENDBRANCH  18  25
BRANCH  20  27
ATOM     27  O   UNL     1      11.146 -36.060 -18.945  1.00  0.00    -0.387 OA
ATOM     28  H   UNL     1      12.132 -36.144 -18.869  1.00  0.00     0.211 HD
ENDBRANCH  20  27
BRANCH  21  29
ATOM     29  C   UNL     1      11.508 -35.153 -16.353  1.00  0.00     0.191 C 
BRANCH  29  30
ATOM     30  O   UNL     1      12.281 -34.321 -15.531  1.00  0.00    -0.394 OA
ATOM     31  H   UNL     1      13.033 -34.881 -15.204  1.00  0.00     0.210 HD
ENDBRANCH  29  30
ENDBRANCH  21  29
ENDBRANCH   1  17
TORSDOF 13
ENDMDL
