MODEL 1
REMARK VINA RESULT:    -3.157      0.000      0.000
REMARK INTER + INTRA:         -10.368
REMARK INTER:                  -7.956
REMARK INTRA:                  -2.412
REMARK UNBOUND:                -2.412
REMARK SMILES CCCCCCCCCCCCCCCCCCCCCCCCCCCC(=O)[O-]
REMARK SMILES IDX 15 1 16 2 17 3 18 4 19 5 20 6 21 7 22 8 23 9 24 10 25 11
REMARK SMILES IDX 26 12 27 13 28 14 29 15 30 16 14 17 13 18 12 19 11 20 10 21
REMARK SMILES IDX 9 22 8 23 7 24 6 25 5 26 4 27 3 28 2 29 1 30
REMARK H PARENT
REMARK Flexibility Score: inf
ROOT
ATOM      1  C   UNL     1      -1.796  10.766 -37.282  1.00  0.00     0.000 C 
ENDROOT
BRANCH   1   2
ATOM      2  C   UNL     1      -0.776  10.178 -38.271  1.00  0.00     0.000 C 
BRANCH   2   3
ATOM      3  C   UNL     1      -0.813   8.646 -38.434  1.00  0.00     0.000 C 
BRANCH   3   4
ATOM      4  C   UNL     1      -1.898   8.129 -39.401  1.00  0.00     0.000 C 
BRANCH   4   5
ATOM      5  C   UNL     1      -2.508   9.245 -40.270  1.00  0.00     0.000 C 
BRANCH   5   6
ATOM      6  C   UNL     1      -3.990   9.506 -39.938  1.00  0.00     0.000 C 
BRANCH   6   7
ATOM      7  C   UNL     1      -4.619   8.447 -39.006  1.00  0.00     0.000 C 
BRANCH   7   8
ATOM      8  C   UNL     1      -5.079   8.981 -37.630  1.00  0.00     0.000 C 
BRANCH   8   9
ATOM      9  C   UNL     1      -6.606   9.034 -37.434  1.00  0.00     0.000 C 
BRANCH   9  10
ATOM     10  C   UNL     1      -7.371   9.177 -38.761  1.00  0.00     0.000 C 
BRANCH  10  11
ATOM     11  C   UNL     1      -8.172   7.910 -39.104  1.00  0.00     0.000 C 
BRANCH  11  12
ATOM     12  C   UNL     1      -7.441   7.020 -40.126  1.00  0.00     0.006 C 
BRANCH  12  13
ATOM     13  C   UNL     1      -7.796   5.534 -39.968  1.00  0.00     0.053 C 
BRANCH  13  14
ATOM     14  C   UNL     1      -8.177   4.882 -41.264  1.00  0.00     0.041 C 
ATOM     15  O   UNL     1      -7.815   5.378 -42.365  1.00  0.00    -0.550 OA
ATOM     16  O   UNL     1      -8.924   3.709 -41.254  1.00  0.00    -0.550 OA
ENDBRANCH  13  14
ENDBRANCH  12  13
ENDBRANCH  11  12
ENDBRANCH  10  11
ENDBRANCH   9  10
ENDBRANCH   8   9
ENDBRANCH   7   8
ENDBRANCH   6   7
ENDBRANCH   5   6
ENDBRANCH   4   5
ENDBRANCH   3   4
ENDBRANCH   2   3
ENDBRANCH   1   2
BRANCH   1  17
ATOM     17  C   UNL     1      -1.450  12.163 -36.728  1.00  0.00     0.000 C 
BRANCH  17  18
ATOM     18  C   UNL     1      -0.025  12.647 -37.071  1.00  0.00     0.000 C 
BRANCH  18  19
ATOM     19  C   UNL     1       0.003  13.604 -38.274  1.00  0.00     0.000 C 
BRANCH  19  20
ATOM     20  C   UNL     1       1.361  13.581 -39.011  1.00  0.00     0.000 C 
BRANCH  20  21
ATOM     21  C   UNL     1       1.671  12.219 -39.654  1.00  0.00     0.000 C 
BRANCH  21  22
ATOM     22  C   UNL     1       2.527  12.310 -40.932  1.00  0.00    -0.000 C 
BRANCH  22  23
ATOM     23  C   UNL     1       2.824  10.939 -41.580  1.00  0.00    -0.000 C 
BRANCH  23  24
ATOM     24  C   UNL     1       1.685  10.448 -42.491  1.00  0.00    -0.000 C 
BRANCH  24  25
ATOM     25  C   UNL     1       1.713   8.925 -42.698  1.00  0.00    -0.000 C 
BRANCH  25  26
ATOM     26  C   UNL     1       0.607   8.200 -41.916  1.00  0.00    -0.000 C 
BRANCH  26  27
ATOM     27  C   UNL     1       0.521   6.725 -42.334  1.00  0.00    -0.000 C 
BRANCH  27  28
ATOM     28  C   UNL     1       1.392   5.806 -41.459  1.00  0.00    -0.000 C 
BRANCH  28  29
ATOM     29  C   UNL     1       2.688   5.314 -42.131  1.00  0.00    -0.003 C 
ATOM     30  C   UNL     1       3.848   5.164 -41.149  1.00  0.00     0.004 C 
ENDBRANCH  28  29
ENDBRANCH  27  28
ENDBRANCH  26  27
ENDBRANCH  25  26
ENDBRANCH  24  25
ENDBRANCH  23  24
ENDBRANCH  22  23
ENDBRANCH  21  22
ENDBRANCH  20  21
ENDBRANCH  19  20
ENDBRANCH  18  19
ENDBRANCH  17  18
ENDBRANCH   1  17
TORSDOF 26
ENDMDL
MODEL 2
REMARK VINA RESULT:    -3.038      3.333      8.364
REMARK INTER + INTRA:         -10.069
REMARK INTER:                  -7.684
REMARK INTRA:                  -2.385
REMARK UNBOUND:                -2.412
REMARK SMILES CCCCCCCCCCCCCCCCCCCCCCCCCCCC(=O)[O-]
REMARK SMILES IDX 15 1 16 2 17 3 18 4 19 5 20 6 21 7 22 8 23 9 24 10 25 11
REMARK SMILES IDX 26 12 27 13 28 14 29 15 30 16 14 17 13 18 12 19 11 20 10 21
REMARK SMILES IDX 9 22 8 23 7 24 6 25 5 26 4 27 3 28 2 29 1 30
REMARK H PARENT
REMARK Flexibility Score: inf
ROOT
ATOM      1  C   UNL     1      -0.347  12.555 -36.938  1.00  0.00     0.000 C 
ENDROOT
BRANCH   1   2
ATOM      2  C   UNL     1      -0.188  13.409 -38.206  1.00  0.00     0.000 C 
BRANCH   2   3
ATOM      3  C   UNL     1       1.242  13.499 -38.774  1.00  0.00     0.000 C 
BRANCH   3   4
ATOM      4  C   UNL     1       1.614  12.368 -39.754  1.00  0.00     0.000 C 
BRANCH   4   5
ATOM      5  C   UNL     1       2.523  12.845 -40.904  1.00  0.00     0.000 C 
BRANCH   5   6
ATOM      6  C   UNL     1       2.832  11.723 -41.914  1.00  0.00     0.000 C 
BRANCH   6   7
ATOM      7  C   UNL     1       2.343  10.327 -41.468  1.00  0.00     0.000 C 
BRANCH   7   8
ATOM      8  C   UNL     1       1.599   9.519 -42.555  1.00  0.00     0.000 C 
BRANCH   8   9
ATOM      9  C   UNL     1       0.467   8.615 -42.030  1.00  0.00     0.000 C 
BRANCH   9  10
ATOM     10  C   UNL     1       0.610   7.155 -42.493  1.00  0.00     0.000 C 
BRANCH  10  11
ATOM     11  C   UNL     1       0.400   6.161 -41.340  1.00  0.00     0.000 C 
BRANCH  11  12
ATOM     12  C   UNL     1       1.570   5.169 -41.208  1.00  0.00     0.006 C 
BRANCH  12  13
ATOM     13  C   UNL     1       2.732   5.504 -42.155  1.00  0.00     0.053 C 
BRANCH  13  14
ATOM     14  C   UNL     1       4.073   5.155 -41.583  1.00  0.00     0.041 C 
ATOM     15  O   UNL     1       4.164   4.486 -40.518  1.00  0.00    -0.550 OA
ATOM     16  O   UNL     1       5.231   5.556 -42.240  1.00  0.00    -0.550 OA
ENDBRANCH  13  14
ENDBRANCH  12  13
ENDBRANCH  11  12
ENDBRANCH  10  11
ENDBRANCH   9  10
ENDBRANCH   8   9
ENDBRANCH   7   8
ENDBRANCH   6   7
ENDBRANCH   5   6
ENDBRANCH   4   5
ENDBRANCH   3   4
ENDBRANCH   2   3
ENDBRANCH   1   2
BRANCH   1  17
ATOM     17  C   UNL     1      -1.764  12.000 -36.687  1.00  0.00     0.000 C 
BRANCH  17  18
ATOM     18  C   UNL     1      -1.952  10.527 -37.110  1.00  0.00     0.000 C 
BRANCH  18  19
ATOM     19  C   UNL     1      -0.974  10.098 -38.216  1.00  0.00     0.000 C 
BRANCH  19  20
ATOM     20  C   UNL     1      -1.061   8.586 -38.523  1.00  0.00     0.000 C 
BRANCH  20  21
ATOM     21  C   UNL     1      -2.142   8.247 -39.564  1.00  0.00     0.000 C 
BRANCH  21  22
ATOM     22  C   UNL     1      -2.922   9.472 -40.078  1.00  0.00    -0.000 C 
BRANCH  22  23
ATOM     23  C   UNL     1      -4.456   9.289 -40.048  1.00  0.00    -0.000 C 
BRANCH  23  24
ATOM     24  C   UNL     1      -4.991   8.946 -38.646  1.00  0.00    -0.000 C 
BRANCH  24  25
ATOM     25  C   UNL     1      -6.476   8.552 -38.664  1.00  0.00    -0.000 C 
BRANCH  25  26
ATOM     26  C   UNL     1      -6.882   7.828 -39.957  1.00  0.00    -0.000 C 
BRANCH  26  27
ATOM     27  C   UNL     1      -7.885   6.703 -39.660  1.00  0.00    -0.000 C 
BRANCH  27  28
ATOM     28  C   UNL     1      -7.568   5.404 -40.423  1.00  0.00    -0.000 C 
BRANCH  28  29
ATOM     29  C   UNL     1      -8.752   4.429 -40.555  1.00  0.00    -0.003 C 
ATOM     30  C   UNL     1      -9.643   4.403 -39.313  1.00  0.00     0.004 C 
ENDBRANCH  28  29
ENDBRANCH  27  28
ENDBRANCH  26  27
ENDBRANCH  25  26
ENDBRANCH  24  25
ENDBRANCH  23  24
ENDBRANCH  22  23
ENDBRANCH  21  22
ENDBRANCH  20  21
ENDBRANCH  19  20
ENDBRANCH  18  19
ENDBRANCH  17  18
ENDBRANCH   1  17
TORSDOF 26
ENDMDL
MODEL 3
REMARK VINA RESULT:    -2.968      3.168      8.692
REMARK INTER + INTRA:          -9.891
REMARK INTER:                  -7.955
REMARK INTRA:                  -1.936
REMARK UNBOUND:                -2.412
REMARK SMILES CCCCCCCCCCCCCCCCCCCCCCCCCCCC(=O)[O-]
REMARK SMILES IDX 15 1 16 2 17 3 18 4 19 5 20 6 21 7 22 8 23 9 24 10 25 11
REMARK SMILES IDX 26 12 27 13 28 14 29 15 30 16 14 17 13 18 12 19 11 20 10 21
REMARK SMILES IDX 9 22 8 23 7 24 6 25 5 26 4 27 3 28 2 29 1 30
REMARK H PARENT
REMARK Flexibility Score: inf
ROOT
ATOM      1  C   UNL     1       0.219   5.235 -40.510  1.00  0.00     0.000 C 
ENDROOT
BRANCH   1   2
ATOM      2  C   UNL     1       0.496   5.496 -42.000  1.00  0.00     0.000 C 
BRANCH   2   3
ATOM      3  C   UNL     1       1.520   6.608 -42.302  1.00  0.00     0.000 C 
BRANCH   3   4
ATOM      4  C   UNL     1       0.903   8.002 -42.533  1.00  0.00     0.000 C 
BRANCH   4   5
ATOM      5  C   UNL     1       1.705   9.133 -41.860  1.00  0.00     0.000 C 
BRANCH   5   6
ATOM      6  C   UNL     1       1.751  10.413 -42.718  1.00  0.00     0.000 C 
BRANCH   6   7
ATOM      7  C   UNL     1       2.812  11.437 -42.258  1.00  0.00     0.000 C 
BRANCH   7   8
ATOM      8  C   UNL     1       2.782  11.772 -40.749  1.00  0.00     0.000 C 
BRANCH   8   9
ATOM      9  C   UNL     1       2.033  13.069 -40.388  1.00  0.00     0.000 C 
BRANCH   9  10
ATOM     10  C   UNL     1       1.454  13.044 -38.964  1.00  0.00     0.000 C 
BRANCH  10  11
ATOM     11  C   UNL     1       1.116  11.616 -38.503  1.00  0.00     0.000 C 
BRANCH  11  12
ATOM     12  C   UNL     1      -0.195  11.560 -37.699  1.00  0.00     0.006 C 
BRANCH  12  13
ATOM     13  C   UNL     1      -0.900  12.923 -37.632  1.00  0.00     0.053 C 
BRANCH  13  14
ATOM     14  C   UNL     1      -1.777  13.069 -36.423  1.00  0.00     0.041 C 
ATOM     15  O   UNL     1      -2.118  14.210 -36.011  1.00  0.00    -0.550 OA
ATOM     16  O   UNL     1      -2.233  11.936 -35.759  1.00  0.00    -0.550 OA
ENDBRANCH  13  14
ENDBRANCH  12  13
ENDBRANCH  11  12
ENDBRANCH  10  11
ENDBRANCH   9  10
ENDBRANCH   8   9
ENDBRANCH   7   8
ENDBRANCH   6   7
ENDBRANCH   5   6
ENDBRANCH   4   5
ENDBRANCH   3   4
ENDBRANCH   2   3
ENDBRANCH   1   2
BRANCH   1  17
ATOM     17  C   UNL     1      -1.013   5.957 -39.930  1.00  0.00     0.000 C 
BRANCH  17  18
ATOM     18  C   UNL     1      -0.989   7.491 -40.102  1.00  0.00     0.000 C 
BRANCH  18  19
ATOM     19  C   UNL     1      -1.028   8.239 -38.759  1.00  0.00     0.000 C 
BRANCH  19  20
ATOM     20  C   UNL     1      -2.146   9.306 -38.714  1.00  0.00     0.000 C 
BRANCH  20  21
ATOM     21  C   UNL     1      -2.994   9.339 -39.997  1.00  0.00     0.000 C 
BRANCH  21  22
ATOM     22  C   UNL     1      -4.514   9.317 -39.743  1.00  0.00    -0.000 C 
BRANCH  22  23
ATOM     23  C   UNL     1      -4.907   8.699 -38.382  1.00  0.00    -0.000 C 
BRANCH  23  24
ATOM     24  C   UNL     1      -6.384   8.937 -38.021  1.00  0.00    -0.000 C 
BRANCH  24  25
ATOM     25  C   UNL     1      -7.330   8.658 -39.201  1.00  0.00    -0.000 C 
BRANCH  25  26
ATOM     26  C   UNL     1      -7.447   7.161 -39.525  1.00  0.00    -0.000 C 
BRANCH  26  27
ATOM     27  C   UNL     1      -7.436   6.931 -41.044  1.00  0.00    -0.000 C 
BRANCH  27  28
ATOM     28  C   UNL     1      -7.816   5.490 -41.431  1.00  0.00    -0.000 C 
BRANCH  28  29
ATOM     29  C   UNL     1      -8.563   4.705 -40.337  1.00  0.00    -0.003 C 
ATOM     30  C   UNL     1      -9.334   3.505 -40.887  1.00  0.00     0.004 C 
ENDBRANCH  28  29
ENDBRANCH  27  28
ENDBRANCH  26  27
ENDBRANCH  25  26
ENDBRANCH  24  25
ENDBRANCH  23  24
ENDBRANCH  22  23
ENDBRANCH  21  22
ENDBRANCH  20  21
ENDBRANCH  19  20
ENDBRANCH  18  19
ENDBRANCH  17  18
ENDBRANCH   1  17
TORSDOF 26
ENDMDL
MODEL 4
REMARK VINA RESULT:    -2.855      2.486      8.349
REMARK INTER + INTRA:          -9.607
REMARK INTER:                  -8.260
REMARK INTRA:                  -1.347
REMARK UNBOUND:                -2.412
REMARK SMILES CCCCCCCCCCCCCCCCCCCCCCCCCCCC(=O)[O-]
REMARK SMILES IDX 15 1 16 2 17 3 18 4 19 5 20 6 21 7 22 8 23 9 24 10 25 11
REMARK SMILES IDX 26 12 27 13 28 14 29 15 30 16 14 17 13 18 12 19 11 20 10 21
REMARK SMILES IDX 9 22 8 23 7 24 6 25 5 26 4 27 3 28 2 29 1 30
REMARK H PARENT
REMARK Flexibility Score: inf
ROOT
ATOM      1  C   UNL     1      -1.332  10.514 -38.141  1.00  0.00     0.000 C 
ENDROOT
BRANCH   1   2
ATOM      2  C   UNL     1      -2.129  10.940 -36.897  1.00  0.00     0.000 C 
BRANCH   2   3
ATOM      3  C   UNL     1      -1.753  12.310 -36.301  1.00  0.00     0.000 C 
BRANCH   3   4
ATOM      4  C   UNL     1      -0.806  13.153 -37.179  1.00  0.00     0.000 C 
BRANCH   4   5
ATOM      5  C   UNL     1       0.538  12.454 -37.457  1.00  0.00     0.000 C 
BRANCH   5   6
ATOM      6  C   UNL     1       1.206  12.954 -38.753  1.00  0.00     0.000 C 
BRANCH   6   7
ATOM      7  C   UNL     1       1.622  11.824 -39.720  1.00  0.00     0.000 C 
BRANCH   7   8
ATOM      8  C   UNL     1       2.412  12.289 -40.964  1.00  0.00     0.000 C 
BRANCH   8   9
ATOM      9  C   UNL     1       2.862  11.156 -41.906  1.00  0.00     0.000 C 
BRANCH   9  10
ATOM     10  C   UNL     1       1.679  10.425 -42.565  1.00  0.00     0.000 C 
BRANCH  10  11
ATOM     11  C   UNL     1       1.816   8.897 -42.462  1.00  0.00     0.000 C 
BRANCH  11  12
ATOM     12  C   UNL     1       0.516   8.229 -41.980  1.00  0.00     0.006 C 
BRANCH  12  13
ATOM     13  C   UNL     1       0.359   6.798 -42.517  1.00  0.00     0.053 C 
BRANCH  13  14
ATOM     14  C   UNL     1       0.987   5.767 -41.627  1.00  0.00     0.041 C 
ATOM     15  O   UNL     1       0.273   4.995 -40.932  1.00  0.00    -0.550 OA
ATOM     16  O   UNL     1       2.371   5.647 -41.579  1.00  0.00    -0.550 OA
ENDBRANCH  13  14
ENDBRANCH  12  13
ENDBRANCH  11  12
ENDBRANCH  10  11
ENDBRANCH   9  10
ENDBRANCH   8   9
ENDBRANCH   7   8
ENDBRANCH   6   7
ENDBRANCH   5   6
ENDBRANCH   4   5
ENDBRANCH   3   4
ENDBRANCH   2   3
ENDBRANCH   1   2
BRANCH   1  17
ATOM     17  C   UNL     1      -1.047   9.004 -38.259  1.00  0.00     0.000 C 
BRANCH  17  18
ATOM     18  C   UNL     1      -1.863   8.287 -39.356  1.00  0.00     0.000 C 
BRANCH  18  19
ATOM     19  C   UNL     1      -2.695   9.261 -40.207  1.00  0.00     0.000 C 
BRANCH  19  20
ATOM     20  C   UNL     1      -4.153   9.378 -39.706  1.00  0.00     0.000 C 
BRANCH  20  21
ATOM     21  C   UNL     1      -4.473   8.403 -38.560  1.00  0.00     0.000 C 
BRANCH  21  22
ATOM     22  C   UNL     1      -5.328   9.017 -37.435  1.00  0.00    -0.000 C 
BRANCH  22  23
ATOM     23  C   UNL     1      -6.823   8.638 -37.513  1.00  0.00    -0.000 C 
BRANCH  23  24
ATOM     24  C   UNL     1      -7.596   9.458 -38.561  1.00  0.00    -0.000 C 
BRANCH  24  25
ATOM     25  C   UNL     1      -7.462   8.878 -39.978  1.00  0.00    -0.000 C 
BRANCH  25  26
ATOM     26  C   UNL     1      -7.342   7.346 -39.981  1.00  0.00    -0.000 C 
BRANCH  26  27
ATOM     27  C   UNL     1      -7.303   6.806 -41.419  1.00  0.00    -0.000 C 
BRANCH  27  28
ATOM     28  C   UNL     1      -7.941   5.411 -41.550  1.00  0.00    -0.000 C 
BRANCH  28  29
ATOM     29  C   UNL     1      -8.341   4.758 -40.214  1.00  0.00    -0.003 C 
ATOM     30  C   UNL     1      -9.452   3.720 -40.367  1.00  0.00     0.004 C 
ENDBRANCH  28  29
ENDBRANCH  27  28
ENDBRANCH  26  27
ENDBRANCH  25  26
ENDBRANCH  24  25
ENDBRANCH  23  24
ENDBRANCH  22  23
ENDBRANCH  21  22
ENDBRANCH  20  21
ENDBRANCH  19  20
ENDBRANCH  18  19
ENDBRANCH  17  18
ENDBRANCH   1  17
TORSDOF 26
ENDMDL
MODEL 5
REMARK VINA RESULT:    -2.628      3.176      8.921
REMARK INTER + INTRA:          -9.035
REMARK INTER:                  -7.211
REMARK INTRA:                  -1.823
REMARK UNBOUND:                -2.412
REMARK SMILES CCCCCCCCCCCCCCCCCCCCCCCCCCCC(=O)[O-]
REMARK SMILES IDX 15 1 16 2 17 3 18 4 19 5 20 6 21 7 22 8 23 9 24 10 25 11
REMARK SMILES IDX 26 12 27 13 28 14 29 15 30 16 14 17 13 18 12 19 11 20 10 21
REMARK SMILES IDX 9 22 8 23 7 24 6 25 5 26 4 27 3 28 2 29 1 30
REMARK H PARENT
REMARK Flexibility Score: inf
ROOT
ATOM      1  C   UNL     1      -0.630   7.100 -40.112  1.00  0.00     0.000 C 
ENDROOT
BRANCH   1   2
ATOM      2  C   UNL     1      -0.614   5.564 -40.074  1.00  0.00     0.000 C 
BRANCH   2   3
ATOM      3  C   UNL     1       0.077   4.874 -41.267  1.00  0.00     0.000 C 
BRANCH   3   4
ATOM      4  C   UNL     1       1.453   5.464 -41.639  1.00  0.00     0.000 C 
BRANCH   4   5
ATOM      5  C   UNL     1       1.392   6.412 -42.852  1.00  0.00     0.000 C 
BRANCH   5   6
ATOM      6  C   UNL     1       0.892   7.820 -42.474  1.00  0.00     0.000 C 
BRANCH   6   7
ATOM      7  C   UNL     1       1.997   8.900 -42.482  1.00  0.00     0.000 C 
BRANCH   7   8
ATOM      8  C   UNL     1       1.535  10.307 -42.042  1.00  0.00     0.000 C 
BRANCH   8   9
ATOM      9  C   UNL     1       2.658  11.358 -41.949  1.00  0.00     0.000 C 
BRANCH   9  10
ATOM     10  C   UNL     1       2.410  12.395 -40.840  1.00  0.00     0.000 C 
BRANCH  10  11
ATOM     11  C   UNL     1       1.567  11.820 -39.690  1.00  0.00     0.000 C 
BRANCH  11  12
ATOM     12  C   UNL     1       1.075  12.915 -38.727  1.00  0.00     0.006 C 
BRANCH  12  13
ATOM     13  C   UNL     1       0.439  12.335 -37.455  1.00  0.00     0.053 C 
BRANCH  13  14
ATOM     14  C   UNL     1      -0.917  12.908 -37.165  1.00  0.00     0.041 C 
ATOM     15  O   UNL     1      -1.338  13.916 -37.794  1.00  0.00    -0.550 OA
ATOM     16  O   UNL     1      -1.727  12.313 -36.204  1.00  0.00    -0.550 OA
ENDBRANCH  13  14
ENDBRANCH  12  13
ENDBRANCH  11  12
ENDBRANCH  10  11
ENDBRANCH   9  10
ENDBRANCH   8   9
ENDBRANCH   7   8
ENDBRANCH   6   7
ENDBRANCH   5   6
ENDBRANCH   4   5
ENDBRANCH   3   4
ENDBRANCH   2   3
ENDBRANCH   1   2
BRANCH   1  17
ATOM     17  C   UNL     1      -1.299   7.786 -38.904  1.00  0.00     0.000 C 
BRANCH  17  18
ATOM     18  C   UNL     1      -1.099   9.316 -38.852  1.00  0.00     0.000 C 
BRANCH  18  19
ATOM     19  C   UNL     1      -2.409  10.093 -39.065  1.00  0.00     0.000 C 
BRANCH  19  20
ATOM     20  C   UNL     1      -3.295   9.458 -40.161  1.00  0.00     0.000 C 
BRANCH  20  21
ATOM     21  C   UNL     1      -4.800   9.623 -39.884  1.00  0.00     0.000 C 
BRANCH  21  22
ATOM     22  C   UNL     1      -5.321   8.755 -38.723  1.00  0.00    -0.000 C 
BRANCH  22  23
ATOM     23  C   UNL     1      -6.742   9.137 -38.251  1.00  0.00    -0.000 C 
BRANCH  23  24
ATOM     24  C   UNL     1      -7.850   8.452 -39.070  1.00  0.00    -0.000 C 
BRANCH  24  25
ATOM     25  C   UNL     1      -7.490   7.007 -39.453  1.00  0.00    -0.000 C 
BRANCH  25  26
ATOM     26  C   UNL     1      -7.445   6.791 -40.974  1.00  0.00    -0.000 C 
BRANCH  26  27
ATOM     27  C   UNL     1      -8.015   5.414 -41.345  1.00  0.00    -0.000 C 
BRANCH  27  28
ATOM     28  C   UNL     1      -8.397   4.574 -40.113  1.00  0.00    -0.000 C 
BRANCH  28  29
ATOM     29  C   UNL     1      -9.694   3.759 -40.266  1.00  0.00    -0.003 C 
ATOM     30  C   UNL     1      -9.643   2.772 -41.432  1.00  0.00     0.004 C 
ENDBRANCH  28  29
ENDBRANCH  27  28
ENDBRANCH  26  27
ENDBRANCH  25  26
ENDBRANCH  24  25
ENDBRANCH  23  24
ENDBRANCH  22  23
ENDBRANCH  21  22
ENDBRANCH  20  21
ENDBRANCH  19  20
ENDBRANCH  18  19
ENDBRANCH  17  18
ENDBRANCH   1  17
TORSDOF 26
ENDMDL
MODEL 6
REMARK VINA RESULT:    -2.512      3.358      8.135
REMARK INTER + INTRA:          -8.742
REMARK INTER:                  -7.145
REMARK INTRA:                  -1.597
REMARK UNBOUND:                -2.412
REMARK SMILES CCCCCCCCCCCCCCCCCCCCCCCCCCCC(=O)[O-]
REMARK SMILES IDX 15 1 16 2 17 3 18 4 19 5 20 6 21 7 22 8 23 9 24 10 25 11
REMARK SMILES IDX 26 12 27 13 28 14 29 15 30 16 14 17 13 18 12 19 11 20 10 21
REMARK SMILES IDX 9 22 8 23 7 24 6 25 5 26 4 27 3 28 2 29 1 30
REMARK H PARENT
REMARK Flexibility Score: inf
ROOT
ATOM      1  C   UNL     1       0.667  12.229 -37.267  1.00  0.00     0.000 C 
ENDROOT
BRANCH   1   2
ATOM      2  C   UNL     1       1.246  12.057 -38.680  1.00  0.00     0.000 C 
BRANCH   2   3
ATOM      3  C   UNL     1       1.674  13.358 -39.388  1.00  0.00     0.000 C 
BRANCH   3   4
ATOM      4  C   UNL     1       1.938  13.208 -40.900  1.00  0.00     0.000 C 
BRANCH   4   5
ATOM      5  C   UNL     1       3.130  12.285 -41.213  1.00  0.00     0.000 C 
BRANCH   5   6
ATOM      6  C   UNL     1       2.714  10.805 -41.331  1.00  0.00     0.000 C 
BRANCH   6   7
ATOM      7  C   UNL     1       2.000  10.459 -42.657  1.00  0.00     0.000 C 
BRANCH   7   8
ATOM      8  C   UNL     1       1.237   9.116 -42.655  1.00  0.00     0.000 C 
BRANCH   8   9
ATOM      9  C   UNL     1       0.736   8.658 -41.272  1.00  0.00     0.000 C 
BRANCH   9  10
ATOM     10  C   UNL     1      -0.065   7.346 -41.335  1.00  0.00     0.000 C 
BRANCH  10  11
ATOM     11  C   UNL     1       0.570   6.327 -42.296  1.00  0.00     0.000 C 
BRANCH  11  12
ATOM     12  C   UNL     1       1.747   5.576 -41.650  1.00  0.00     0.006 C 
BRANCH  12  13
ATOM     13  C   UNL     1       3.052   5.736 -42.444  1.00  0.00     0.053 C 
BRANCH  13  14
ATOM     14  C   UNL     1       4.250   5.201 -41.716  1.00  0.00     0.041 C 
ATOM     15  O   UNL     1       5.401   5.287 -42.222  1.00  0.00    -0.550 OA
ATOM     16  O   UNL     1       4.094   4.617 -40.464  1.00  0.00    -0.550 OA
ENDBRANCH  13  14
ENDBRANCH  12  13
ENDBRANCH  11  12
ENDBRANCH  10  11
ENDBRANCH   9  10
ENDBRANCH   8   9
ENDBRANCH   7   8
ENDBRANCH   6   7
ENDBRANCH   5   6
ENDBRANCH   4   5
ENDBRANCH   3   4
ENDBRANCH   2   3
ENDBRANCH   1   2
BRANCH   1  17
ATOM     17  C   UNL     1      -0.640  13.043 -37.182  1.00  0.00     0.000 C 
BRANCH  17  18
ATOM     18  C   UNL     1      -1.748  12.378 -36.336  1.00  0.00     0.000 C 
BRANCH  18  19
ATOM     19  C   UNL     1      -2.112  10.971 -36.837  1.00  0.00     0.000 C 
BRANCH  19  20
ATOM     20  C   UNL     1      -1.558  10.690 -38.252  1.00  0.00     0.000 C 
BRANCH  20  21
ATOM     21  C   UNL     1      -1.415   9.188 -38.552  1.00  0.00     0.000 C 
BRANCH  21  22
ATOM     22  C   UNL     1      -2.725   8.510 -38.998  1.00  0.00    -0.000 C 
BRANCH  22  23
ATOM     23  C   UNL     1      -3.450   9.252 -40.143  1.00  0.00    -0.000 C 
BRANCH  23  24
ATOM     24  C   UNL     1      -4.915   9.584 -39.808  1.00  0.00    -0.000 C 
BRANCH  24  25
ATOM     25  C   UNL     1      -5.442   8.776 -38.612  1.00  0.00    -0.000 C 
BRANCH  25  26
ATOM     26  C   UNL     1      -6.923   8.394 -38.760  1.00  0.00    -0.000 C 
BRANCH  26  27
ATOM     27  C   UNL     1      -7.329   8.353 -40.241  1.00  0.00    -0.000 C 
BRANCH  27  28
ATOM     28  C   UNL     1      -7.341   6.926 -40.817  1.00  0.00    -0.000 C 
BRANCH  28  29
ATOM     29  C   UNL     1      -7.716   5.826 -39.806  1.00  0.00    -0.003 C 
ATOM     30  C   UNL     1      -8.512   4.684 -40.436  1.00  0.00     0.004 C 
ENDBRANCH  28  29
ENDBRANCH  27  28
ENDBRANCH  26  27
ENDBRANCH  25  26
ENDBRANCH  24  25
ENDBRANCH  23  24
ENDBRANCH  22  23
ENDBRANCH  21  22
ENDBRANCH  20  21
ENDBRANCH  19  20
ENDBRANCH  18  19
ENDBRANCH  17  18
ENDBRANCH   1  17
TORSDOF 26
ENDMDL
MODEL 7
REMARK VINA RESULT:    -2.504      1.552      2.530
REMARK INTER + INTRA:          -8.723
REMARK INTER:                  -7.454
REMARK INTRA:                  -1.269
REMARK UNBOUND:                -2.412
REMARK SMILES CCCCCCCCCCCCCCCCCCCCCCCCCCCC(=O)[O-]
REMARK SMILES IDX 15 1 16 2 17 3 18 4 19 5 20 6 21 7 22 8 23 9 24 10 25 11
REMARK SMILES IDX 26 12 27 13 28 14 29 15 30 16 14 17 13 18 12 19 11 20 10 21
REMARK SMILES IDX 9 22 8 23 7 24 6 25 5 26 4 27 3 28 2 29 1 30
REMARK H PARENT
REMARK Flexibility Score: inf
ROOT
ATOM      1  C   UNL     1      -2.408  12.921 -35.996  1.00  0.00     0.000 C 
ENDROOT
BRANCH   1   2
ATOM      2  C   UNL     1      -2.594  11.437 -35.641  1.00  0.00     0.000 C 
BRANCH   2   3
ATOM      3  C   UNL     1      -2.878  10.499 -36.831  1.00  0.00     0.000 C 
BRANCH   3   4
ATOM      4  C   UNL     1      -3.719   9.254 -36.479  1.00  0.00     0.000 C 
BRANCH   4   5
ATOM      5  C   UNL     1      -4.921   9.055 -37.422  1.00  0.00     0.000 C 
BRANCH   5   6
ATOM      6  C   UNL     1      -4.490   8.697 -38.858  1.00  0.00     0.000 C 
BRANCH   6   7
ATOM      7  C   UNL     1      -4.891   9.751 -39.913  1.00  0.00     0.000 C 
BRANCH   7   8
ATOM      8  C   UNL     1      -6.392   9.768 -40.279  1.00  0.00     0.000 C 
BRANCH   8   9
ATOM      9  C   UNL     1      -7.333  10.191 -39.135  1.00  0.00     0.000 C 
BRANCH   9  10
ATOM     10  C   UNL     1      -8.403   9.130 -38.822  1.00  0.00     0.000 C 
BRANCH  10  11
ATOM     11  C   UNL     1      -7.795   7.726 -38.671  1.00  0.00     0.000 C 
BRANCH  11  12
ATOM     12  C   UNL     1      -7.582   7.036 -40.030  1.00  0.00     0.006 C 
BRANCH  12  13
ATOM     13  C   UNL     1      -7.747   5.511 -39.946  1.00  0.00     0.053 C 
BRANCH  13  14
ATOM     14  C   UNL     1      -8.135   4.892 -41.256  1.00  0.00     0.041 C 
ATOM     15  O   UNL     1      -8.855   3.858 -41.291  1.00  0.00    -0.550 OA
ATOM     16  O   UNL     1      -7.710   5.471 -42.447  1.00  0.00    -0.550 OA
ENDBRANCH  13  14
ENDBRANCH  12  13
ENDBRANCH  11  12
ENDBRANCH  10  11
ENDBRANCH   9  10
ENDBRANCH   8   9
ENDBRANCH   7   8
ENDBRANCH   6   7
ENDBRANCH   5   6
ENDBRANCH   4   5
ENDBRANCH   3   4
ENDBRANCH   2   3
ENDBRANCH   1   2
BRANCH   1  17
ATOM     17  C   UNL     1      -0.974  13.335 -36.382  1.00  0.00     0.000 C 
BRANCH  17  18
ATOM     18  C   UNL     1      -0.680  13.267 -37.897  1.00  0.00     0.000 C 
BRANCH  18  19
ATOM     19  C   UNL     1       0.709  12.685 -38.206  1.00  0.00     0.000 C 
BRANCH  19  20
ATOM     20  C   UNL     1       0.882  11.252 -37.653  1.00  0.00     0.000 C 
BRANCH  20  21
ATOM     21  C   UNL     1       0.574  10.166 -38.699  1.00  0.00     0.000 C 
BRANCH  21  22
ATOM     22  C   UNL     1      -0.837   9.560 -38.575  1.00  0.00    -0.000 C 
BRANCH  22  23
ATOM     23  C   UNL     1      -0.958   8.141 -39.173  1.00  0.00    -0.000 C 
BRANCH  23  24
ATOM     24  C   UNL     1      -0.590   8.086 -40.666  1.00  0.00    -0.000 C 
BRANCH  24  25
ATOM     25  C   UNL     1       0.074   6.757 -41.059  1.00  0.00    -0.000 C 
BRANCH  25  26
ATOM     26  C   UNL     1       0.645   6.778 -42.486  1.00  0.00    -0.000 C 
BRANCH  26  27
ATOM     27  C   UNL     1       1.952   5.974 -42.562  1.00  0.00    -0.000 C 
BRANCH  27  28
ATOM     28  C   UNL     1       2.280   5.243 -41.248  1.00  0.00    -0.000 C 
BRANCH  28  29
ATOM     29  C   UNL     1       3.778   4.973 -41.019  1.00  0.00    -0.003 C 
ATOM     30  C   UNL     1       4.670   5.628 -42.072  1.00  0.00     0.004 C 
ENDBRANCH  28  29
ENDBRANCH  27  28
ENDBRANCH  26  27
ENDBRANCH  25  26
ENDBRANCH  24  25
ENDBRANCH  23  24
ENDBRANCH  22  23
ENDBRANCH  21  22
ENDBRANCH  20  21
ENDBRANCH  19  20
ENDBRANCH  18  19
ENDBRANCH  17  18
ENDBRANCH   1  17
TORSDOF 26
ENDMDL
MODEL 8
REMARK VINA RESULT:    -2.501      3.833      8.500
REMARK INTER + INTRA:          -8.715
REMARK INTER:                  -7.339
REMARK INTRA:                  -1.377
REMARK UNBOUND:                -2.412
REMARK SMILES CCCCCCCCCCCCCCCCCCCCCCCCCCCC(=O)[O-]
REMARK SMILES IDX 15 1 16 2 17 3 18 4 19 5 20 6 21 7 22 8 23 9 24 10 25 11
REMARK SMILES IDX 26 12 27 13 28 14 29 15 30 16 14 17 13 18 12 19 11 20 10 21
REMARK SMILES IDX 9 22 8 23 7 24 6 25 5 26 4 27 3 28 2 29 1 30
REMARK H PARENT
REMARK Flexibility Score: inf
ROOT
ATOM      1  C   UNL     1      -1.429  13.470 -36.513  1.00  0.00     0.000 C 
ENDROOT
BRANCH   1   2
ATOM      2  C   UNL     1      -0.211  12.611 -36.890  1.00  0.00     0.000 C 
BRANCH   2   3
ATOM      3  C   UNL     1      -0.193  12.079 -38.336  1.00  0.00     0.000 C 
BRANCH   3   4
ATOM      4  C   UNL     1       0.770  10.897 -38.573  1.00  0.00     0.000 C 
BRANCH   4   5
ATOM      5  C   UNL     1       0.116   9.528 -38.309  1.00  0.00     0.000 C 
BRANCH   5   6
ATOM      6  C   UNL     1      -1.388   9.518 -38.647  1.00  0.00     0.000 C 
BRANCH   6   7
ATOM      7  C   UNL     1      -1.770   8.535 -39.776  1.00  0.00     0.000 C 
BRANCH   7   8
ATOM      8  C   UNL     1      -0.592   7.721 -40.356  1.00  0.00     0.000 C 
BRANCH   8   9
ATOM      9  C   UNL     1      -0.691   6.198 -40.147  1.00  0.00     0.000 C 
BRANCH   9  10
ATOM     10  C   UNL     1       0.091   5.400 -41.205  1.00  0.00     0.000 C 
BRANCH  10  11
ATOM     11  C   UNL     1       0.906   6.317 -42.132  1.00  0.00     0.000 C 
BRANCH  11  12
ATOM     12  C   UNL     1       2.268   5.704 -42.502  1.00  0.00     0.006 C 
BRANCH  12  13
ATOM     13  C   UNL     1       3.105   5.345 -41.265  1.00  0.00     0.053 C 
BRANCH  13  14
ATOM     14  C   UNL     1       4.499   4.909 -41.607  1.00  0.00     0.041 C 
ATOM     15  O   UNL     1       4.970   3.836 -41.144  1.00  0.00    -0.550 OA
ATOM     16  O   UNL     1       5.276   5.687 -42.459  1.00  0.00    -0.550 OA
ENDBRANCH  13  14
ENDBRANCH  12  13
ENDBRANCH  11  12
ENDBRANCH  10  11
ENDBRANCH   9  10
ENDBRANCH   8   9
ENDBRANCH   7   8
ENDBRANCH   6   7
ENDBRANCH   5   6
ENDBRANCH   4   5
ENDBRANCH   3   4
ENDBRANCH   2   3
ENDBRANCH   1   2
BRANCH   1  17
ATOM     17  C   UNL     1      -2.512  12.754 -35.680  1.00  0.00     0.000 C 
BRANCH  17  18
ATOM     18  C   UNL     1      -2.448  11.213 -35.747  1.00  0.00     0.000 C 
BRANCH  18  19
ATOM     19  C   UNL     1      -3.298  10.634 -36.890  1.00  0.00     0.000 C 
BRANCH  19  20
ATOM     20  C   UNL     1      -3.955   9.287 -36.509  1.00  0.00     0.000 C 
BRANCH  20  21
ATOM     21  C   UNL     1      -5.156   8.933 -37.402  1.00  0.00     0.000 C 
BRANCH  21  22
ATOM     22  C   UNL     1      -4.838   8.935 -38.909  1.00  0.00    -0.000 C 
BRANCH  22  23
ATOM     23  C   UNL     1      -6.056   9.262 -39.801  1.00  0.00    -0.000 C 
BRANCH  23  24
ATOM     24  C   UNL     1      -7.399   8.933 -39.125  1.00  0.00    -0.000 C 
BRANCH  24  25
ATOM     25  C   UNL     1      -7.845   7.484 -39.377  1.00  0.00    -0.000 C 
BRANCH  25  26
ATOM     26  C   UNL     1      -7.275   6.907 -40.682  1.00  0.00    -0.000 C 
BRANCH  26  27
ATOM     27  C   UNL     1      -8.010   5.616 -41.073  1.00  0.00    -0.000 C 
BRANCH  27  28
ATOM     28  C   UNL     1      -8.482   4.805 -39.853  1.00  0.00    -0.000 C 
BRANCH  28  29
ATOM     29  C   UNL     1      -9.593   3.781 -40.151  1.00  0.00    -0.003 C 
ATOM     30  C   UNL     1      -9.621   3.341 -41.614  1.00  0.00     0.004 C 
ENDBRANCH  28  29
ENDBRANCH  27  28
ENDBRANCH  26  27
ENDBRANCH  25  26
ENDBRANCH  24  25
ENDBRANCH  23  24
ENDBRANCH  22  23
ENDBRANCH  21  22
ENDBRANCH  20  21
ENDBRANCH  19  20
ENDBRANCH  18  19
ENDBRANCH  17  18
ENDBRANCH   1  17
TORSDOF 26
ENDMDL
MODEL 9
REMARK VINA RESULT:    -2.467      1.145      5.148
REMARK INTER + INTRA:          -8.629
REMARK INTER:                  -7.192
REMARK INTRA:                  -1.437
REMARK UNBOUND:                -2.412
REMARK SMILES CCCCCCCCCCCCCCCCCCCCCCCCCCCC(=O)[O-]
REMARK SMILES IDX 15 1 16 2 17 3 18 4 19 5 20 6 21 7 22 8 23 9 24 10 25 11
REMARK SMILES IDX 26 12 27 13 28 14 29 15 30 16 14 17 13 18 12 19 11 20 10 21
REMARK SMILES IDX 9 22 8 23 7 24 6 25 5 26 4 27 3 28 2 29 1 30
REMARK H PARENT
REMARK Flexibility Score: inf
ROOT
ATOM      1  C   UNL     1       1.079   5.824 -41.579  1.00  0.00     0.000 C 
ENDROOT
BRANCH   1   2
ATOM      2  C   UNL     1      -0.028   4.996 -40.906  1.00  0.00     0.000 C 
BRANCH   2   3
ATOM      3  C   UNL     1      -0.844   5.730 -39.824  1.00  0.00     0.000 C 
BRANCH   3   4
ATOM      4  C   UNL     1      -1.050   7.236 -40.087  1.00  0.00     0.000 C 
BRANCH   4   5
ATOM      5  C   UNL     1      -0.684   8.113 -38.874  1.00  0.00     0.000 C 
BRANCH   5   6
ATOM      6  C   UNL     1      -1.567   9.371 -38.769  1.00  0.00     0.000 C 
BRANCH   6   7
ATOM      7  C   UNL     1      -3.082   9.071 -38.723  1.00  0.00     0.000 C 
BRANCH   7   8
ATOM      8  C   UNL     1      -3.875   9.527 -39.968  1.00  0.00     0.000 C 
BRANCH   8   9
ATOM      9  C   UNL     1      -5.400   9.611 -39.770  1.00  0.00     0.000 C 
BRANCH   9  10
ATOM     10  C   UNL     1      -5.952   8.460 -38.912  1.00  0.00     0.000 C 
BRANCH  10  11
ATOM     11  C   UNL     1      -7.402   8.106 -39.284  1.00  0.00     0.000 C 
BRANCH  11  12
ATOM     12  C   UNL     1      -7.473   7.094 -40.441  1.00  0.00     0.006 C 
BRANCH  12  13
ATOM     13  C   UNL     1      -7.826   5.679 -39.961  1.00  0.00     0.053 C 
BRANCH  13  14
ATOM     14  C   UNL     1      -8.298   4.785 -41.070  1.00  0.00     0.041 C 
ATOM     15  O   UNL     1      -8.944   3.732 -40.817  1.00  0.00    -0.550 OA
ATOM     16  O   UNL     1      -8.037   5.128 -42.392  1.00  0.00    -0.550 OA
ENDBRANCH  13  14
ENDBRANCH  12  13
ENDBRANCH  11  12
ENDBRANCH  10  11
ENDBRANCH   9  10
ENDBRANCH   8   9
ENDBRANCH   7   8
ENDBRANCH   6   7
ENDBRANCH   5   6
ENDBRANCH   4   5
ENDBRANCH   3   4
ENDBRANCH   2   3
ENDBRANCH   1   2
BRANCH   1  17
ATOM     17  C   UNL     1       0.621   6.713 -42.752  1.00  0.00     0.000 C 
BRANCH  17  18
ATOM     18  C   UNL     1       0.539   8.218 -42.414  1.00  0.00     0.000 C 
BRANCH  18  19
ATOM     19  C   UNL     1       1.757   9.007 -42.922  1.00  0.00     0.000 C 
BRANCH  19  20
ATOM     20  C   UNL     1       1.738  10.480 -42.455  1.00  0.00     0.000 C 
BRANCH  20  21
ATOM     21  C   UNL     1       2.655  10.737 -41.246  1.00  0.00     0.000 C 
BRANCH  21  22
ATOM     22  C   UNL     1       3.643  11.902 -41.447  1.00  0.00    -0.000 C 
BRANCH  22  23
ATOM     23  C   UNL     1       3.108  13.263 -40.949  1.00  0.00    -0.000 C 
BRANCH  23  24
ATOM     24  C   UNL     1       1.688  13.171 -40.363  1.00  0.00    -0.000 C 
BRANCH  24  25
ATOM     25  C   UNL     1       1.690  13.090 -38.828  1.00  0.00    -0.000 C 
BRANCH  25  26
ATOM     26  C   UNL     1       0.766  11.985 -38.292  1.00  0.00    -0.000 C 
BRANCH  26  27
ATOM     27  C   UNL     1       0.163  12.388 -36.938  1.00  0.00    -0.000 C 
BRANCH  27  28
ATOM     28  C   UNL     1      -0.999  13.388 -37.076  1.00  0.00    -0.000 C 
BRANCH  28  29
ATOM     29  C   UNL     1      -2.096  13.253 -36.004  1.00  0.00    -0.003 C 
ATOM     30  C   UNL     1      -2.555  11.809 -35.802  1.00  0.00     0.004 C 
ENDBRANCH  28  29
ENDBRANCH  27  28
ENDBRANCH  26  27
ENDBRANCH  25  26
ENDBRANCH  24  25
ENDBRANCH  23  24
ENDBRANCH  22  23
ENDBRANCH  21  22
ENDBRANCH  20  21
ENDBRANCH  19  20
ENDBRANCH  18  19
ENDBRANCH  17  18
ENDBRANCH   1  17
TORSDOF 26
ENDMDL
