MODEL 1
REMARK VINA RESULT:    -4.054      0.000      0.000
REMARK INTER + INTRA:          -5.255
REMARK INTER:                  -5.121
REMARK INTRA:                  -0.134
REMARK UNBOUND:                -0.134
REMARK SMILES CCCCC[C@H](C)O
REMARK SMILES IDX 4 1 3 2 2 3 1 4 5 5 6 6 7 7 8 8
REMARK H PARENT 8 9
REMARK Flexibility Score: inf
ROOT
ATOM      1  C   UNL     1     186.137 173.660 188.710  1.00  0.00     0.003 C 
ENDROOT
BRANCH   1   2
ATOM      2  C   UNL     1     187.269 174.697 188.770  1.00  0.00    -0.000 C 
BRANCH   2   3
ATOM      3  C   UNL     1     187.111 175.678 189.942  1.00  0.00    -0.003 C 
ATOM      4  C   UNL     1     188.169 176.782 189.935  1.00  0.00     0.004 C 
ENDBRANCH   2   3
ENDBRANCH   1   2
BRANCH   1   5
ATOM      5  C   UNL     1     186.663 172.303 188.214  1.00  0.00     0.031 C 
BRANCH   5   6
ATOM      6  C   UNL     1     186.261 171.980 186.759  1.00  0.00     0.111 C 
ATOM      7  C   UNL     1     187.329 172.407 185.750  1.00  0.00     0.038 C 
BRANCH   6   8
ATOM      8  O   UNL     1     185.041 172.593 186.431  1.00  0.00    -0.393 OA
ATOM      9  H   UNL     1     184.380 172.299 187.112  1.00  0.00     0.210 HD
ENDBRANCH   6   8
ENDBRANCH   5   6
ENDBRANCH   1   5
TORSDOF 5
ENDMDL
MODEL 2
REMARK VINA RESULT:    -3.647      9.979     10.668
REMARK INTER + INTRA:          -4.741
REMARK INTER:                  -4.580
REMARK INTRA:                  -0.161
REMARK UNBOUND:                -0.134
REMARK SMILES CCCCC[C@H](C)O
REMARK SMILES IDX 4 1 3 2 2 3 1 4 5 5 6 6 7 7 8 8
REMARK H PARENT 8 9
REMARK Flexibility Score: inf
ROOT
ATOM      1  C   UNL     1     180.218 179.678 185.020  1.00  0.00     0.003 C 
ENDROOT
BRANCH   1   2
ATOM      2  C   UNL     1     180.914 178.311 184.931  1.00  0.00    -0.000 C 
BRANCH   2   3
ATOM      3  C   UNL     1     180.668 177.608 183.587  1.00  0.00    -0.003 C 
ATOM      4  C   UNL     1     181.521 176.352 183.413  1.00  0.00     0.004 C 
ENDBRANCH   2   3
ENDBRANCH   1   2
BRANCH   1   5
ATOM      5  C   UNL     1     179.197 179.847 183.882  1.00  0.00     0.031 C 
BRANCH   5   6
ATOM      6  C   UNL     1     179.290 181.212 183.168  1.00  0.00     0.111 C 
ATOM      7  C   UNL     1     179.385 182.380 184.153  1.00  0.00     0.038 C 
BRANCH   6   8
ATOM      8  O   UNL     1     178.187 181.408 182.320  1.00  0.00    -0.393 OA
ATOM      9  H   UNL     1     178.088 182.389 182.202  1.00  0.00     0.210 HD
ENDBRANCH   6   8
ENDBRANCH   5   6
ENDBRANCH   1   5
TORSDOF 5
ENDMDL
MODEL 3
REMARK VINA RESULT:    -3.600     10.290     10.735
REMARK INTER + INTRA:          -4.681
REMARK INTER:                  -4.336
REMARK INTRA:                  -0.345
REMARK UNBOUND:                -0.134
REMARK SMILES CCCCC[C@H](C)O
REMARK SMILES IDX 4 1 3 2 2 3 1 4 5 5 6 6 7 7 8 8
REMARK H PARENT 8 9
REMARK Flexibility Score: inf
ROOT
ATOM      1  C   UNL     1     179.951 180.915 185.295  1.00  0.00     0.003 C 
ENDROOT
BRANCH   1   2
ATOM      2  C   UNL     1     179.621 179.420 185.167  1.00  0.00    -0.000 C 
BRANCH   2   3
ATOM      3  C   UNL     1     180.876 178.535 185.181  1.00  0.00    -0.003 C 
ATOM      4  C   UNL     1     180.931 177.567 183.999  1.00  0.00     0.004 C 
ENDBRANCH   2   3
ENDBRANCH   1   2
BRANCH   1   5
ATOM      5  C   UNL     1     180.066 181.571 183.909  1.00  0.00     0.031 C 
BRANCH   5   6
ATOM      6  C   UNL     1     179.308 180.810 182.801  1.00  0.00     0.111 C 
ATOM      7  C   UNL     1     180.187 180.531 181.579  1.00  0.00     0.038 C 
BRANCH   6   8
ATOM      8  O   UNL     1     178.166 181.522 182.398  1.00  0.00    -0.393 OA
ATOM      9  H   UNL     1     178.440 182.472 182.303  1.00  0.00     0.210 HD
ENDBRANCH   6   8
ENDBRANCH   5   6
ENDBRANCH   1   5
TORSDOF 5
ENDMDL
MODEL 4
REMARK VINA RESULT:    -3.526      9.981     10.419
REMARK INTER + INTRA:          -4.587
REMARK INTER:                  -4.339
REMARK INTRA:                  -0.248
REMARK UNBOUND:                -0.134
REMARK SMILES CCCCC[C@H](C)O
REMARK SMILES IDX 4 1 3 2 2 3 1 4 5 5 6 6 7 7 8 8
REMARK H PARENT 8 9
REMARK Flexibility Score: inf
ROOT
ATOM      1  C   UNL     1     180.214 178.899 183.635  1.00  0.00     0.003 C 
ENDROOT
BRANCH   1   2
ATOM      2  C   UNL     1     180.727 178.438 185.008  1.00  0.00    -0.000 C 
BRANCH   2   3
ATOM      3  C   UNL     1     182.023 179.151 185.424  1.00  0.00    -0.003 C 
ATOM      4  C   UNL     1     181.893 179.879 186.762  1.00  0.00     0.004 C 
ENDBRANCH   2   3
ENDBRANCH   1   2
BRANCH   1   5
ATOM      5  C   UNL     1     178.999 179.830 183.789  1.00  0.00     0.031 C 
BRANCH   5   6
ATOM      6  C   UNL     1     179.221 181.237 183.196  1.00  0.00     0.111 C 
ATOM      7  C   UNL     1     179.339 182.314 184.277  1.00  0.00     0.038 C 
BRANCH   6   8
ATOM      8  O   UNL     1     178.182 181.576 182.314  1.00  0.00    -0.393 OA
ATOM      9  H   UNL     1     178.405 181.166 181.437  1.00  0.00     0.210 HD
ENDBRANCH   6   8
ENDBRANCH   5   6
ENDBRANCH   1   5
TORSDOF 5
ENDMDL
MODEL 5
REMARK VINA RESULT:    -3.491      8.616      9.629
REMARK INTER + INTRA:          -4.543
REMARK INTER:                  -4.436
REMARK INTRA:                  -0.106
REMARK UNBOUND:                -0.134
REMARK SMILES CCCCC[C@H](C)O
REMARK SMILES IDX 4 1 3 2 2 3 1 4 5 5 6 6 7 7 8 8
REMARK H PARENT 8 9
REMARK Flexibility Score: inf
ROOT
ATOM      1  C   UNL     1     180.899 177.534 184.076  1.00  0.00     0.003 C 
ENDROOT
BRANCH   1   2
ATOM      2  C   UNL     1     182.049 176.807 183.362  1.00  0.00    -0.000 C 
BRANCH   2   3
ATOM      3  C   UNL     1     181.552 175.729 182.387  1.00  0.00    -0.003 C 
ATOM      4  C   UNL     1     181.950 174.316 182.816  1.00  0.00     0.004 C 
ENDBRANCH   2   3
ENDBRANCH   1   2
BRANCH   1   5
ATOM      5  C   UNL     1     180.407 178.731 183.244  1.00  0.00     0.031 C 
BRANCH   5   6
ATOM      6  C   UNL     1     179.801 179.866 184.096  1.00  0.00     0.111 C 
ATOM      7  C   UNL     1     179.685 179.487 185.575  1.00  0.00     0.038 C 
BRANCH   6   8
ATOM      8  O   UNL     1     178.536 180.233 183.610  1.00  0.00    -0.393 OA
ATOM      9  H   UNL     1     178.656 181.082 183.109  1.00  0.00     0.210 HD
ENDBRANCH   6   8
ENDBRANCH   5   6
ENDBRANCH   1   5
TORSDOF 5
ENDMDL
MODEL 6
REMARK VINA RESULT:    -3.487      7.353      7.605
REMARK INTER + INTRA:          -4.538
REMARK INTER:                  -4.400
REMARK INTRA:                  -0.138
REMARK UNBOUND:                -0.134
REMARK SMILES CCCCC[C@H](C)O
REMARK SMILES IDX 4 1 3 2 2 3 1 4 5 5 6 6 7 7 8 8
REMARK H PARENT 8 9
REMARK Flexibility Score: inf
ROOT
ATOM      1  C   UNL     1     180.809 176.938 183.494  1.00  0.00     0.003 C 
ENDROOT
BRANCH   1   2
ATOM      2  C   UNL     1     180.849 178.429 183.860  1.00  0.00    -0.000 C 
BRANCH   2   3
ATOM      3  C   UNL     1     180.653 178.674 185.364  1.00  0.00    -0.003 C 
ATOM      4  C   UNL     1     181.823 179.426 185.999  1.00  0.00     0.004 C 
ENDBRANCH   2   3
ENDBRANCH   1   2
BRANCH   1   5
ATOM      5  C   UNL     1     182.231 176.380 183.312  1.00  0.00     0.031 C 
BRANCH   5   6
ATOM      6  C   UNL     1     182.270 175.012 182.599  1.00  0.00     0.111 C 
ATOM      7  C   UNL     1     181.132 174.848 181.589  1.00  0.00     0.038 C 
BRANCH   6   8
ATOM      8  O   UNL     1     182.219 173.962 183.530  1.00  0.00    -0.393 OA
ATOM      9  H   UNL     1     181.313 173.562 183.461  1.00  0.00     0.210 HD
ENDBRANCH   6   8
ENDBRANCH   5   6
ENDBRANCH   1   5
TORSDOF 5
ENDMDL
MODEL 7
REMARK VINA RESULT:    -3.476      7.978      9.168
REMARK INTER + INTRA:          -4.524
REMARK INTER:                  -4.418
REMARK INTRA:                  -0.106
REMARK UNBOUND:                -0.134
REMARK SMILES CCCCC[C@H](C)O
REMARK SMILES IDX 4 1 3 2 2 3 1 4 5 5 6 6 7 7 8 8
REMARK H PARENT 8 9
REMARK Flexibility Score: inf
ROOT
ATOM      1  C   UNL     1     181.761 179.487 186.171  1.00  0.00     0.003 C 
ENDROOT
BRANCH   1   2
ATOM      2  C   UNL     1     180.448 178.950 185.581  1.00  0.00    -0.000 C 
BRANCH   2   3
ATOM      3  C   UNL     1     180.573 178.584 184.094  1.00  0.00    -0.003 C 
ATOM      4  C   UNL     1     180.985 177.128 183.876  1.00  0.00     0.004 C 
ENDBRANCH   2   3
ENDBRANCH   1   2
BRANCH   1   5
ATOM      5  C   UNL     1     181.502 180.721 187.051  1.00  0.00     0.031 C 
BRANCH   5   6
ATOM      6  C   UNL     1     182.530 180.894 188.189  1.00  0.00     0.111 C 
ATOM      7  C   UNL     1     183.312 179.608 188.469  1.00  0.00     0.038 C 
BRANCH   6   8
ATOM      8  O   UNL     1     181.900 181.320 189.370  1.00  0.00    -0.393 OA
ATOM      9  H   UNL     1     181.103 181.846 189.095  1.00  0.00     0.210 HD
ENDBRANCH   6   8
ENDBRANCH   5   6
ENDBRANCH   1   5
TORSDOF 5
ENDMDL
MODEL 8
REMARK VINA RESULT:    -3.472      9.078      9.361
REMARK INTER + INTRA:          -4.518
REMARK INTER:                  -4.340
REMARK INTRA:                  -0.178
REMARK UNBOUND:                -0.134
REMARK SMILES CCCCC[C@H](C)O
REMARK SMILES IDX 4 1 3 2 2 3 1 4 5 5 6 6 7 7 8 8
REMARK H PARENT 8 9
REMARK Flexibility Score: inf
ROOT
ATOM      1  C   UNL     1     180.921 179.014 185.732  1.00  0.00     0.003 C 
ENDROOT
BRANCH   1   2
ATOM      2  C   UNL     1     182.026 179.861 186.380  1.00  0.00    -0.000 C 
BRANCH   2   3
ATOM      3  C   UNL     1     181.467 181.013 187.228  1.00  0.00    -0.003 C 
ATOM      4  C   UNL     1     182.143 181.124 188.595  1.00  0.00     0.004 C 
ENDBRANCH   2   3
ENDBRANCH   1   2
BRANCH   1   5
ATOM      5  C   UNL     1     179.744 179.898 185.285  1.00  0.00     0.031 C 
BRANCH   5   6
ATOM      6  C   UNL     1     179.275 179.616 183.841  1.00  0.00     0.111 C 
ATOM      7  C   UNL     1     180.445 179.388 182.882  1.00  0.00     0.038 C 
BRANCH   6   8
ATOM      8  O   UNL     1     178.480 180.670 183.361  1.00  0.00    -0.393 OA
ATOM      9  H   UNL     1     178.777 181.492 183.834  1.00  0.00     0.210 HD
ENDBRANCH   6   8
ENDBRANCH   5   6
ENDBRANCH   1   5
TORSDOF 5
ENDMDL
MODEL 9
REMARK VINA RESULT:    -3.367     12.390     12.992
REMARK INTER + INTRA:          -4.387
REMARK INTER:                  -4.295
REMARK INTRA:                  -0.092
REMARK UNBOUND:                -0.134
REMARK SMILES CCCCC[C@H](C)O
REMARK SMILES IDX 4 1 3 2 2 3 1 4 5 5 6 6 7 7 8 8
REMARK H PARENT 8 9
REMARK Flexibility Score: inf
ROOT
ATOM      1  C   UNL     1     179.401 181.902 183.384  1.00  0.00     0.003 C 
ENDROOT
BRANCH   1   2
ATOM      2  C   UNL     1     179.615 180.411 183.087  1.00  0.00    -0.000 C 
BRANCH   2   3
ATOM      3  C   UNL     1     179.341 179.519 184.307  1.00  0.00    -0.003 C 
ATOM      4  C   UNL     1     180.529 178.626 184.666  1.00  0.00     0.004 C 
ENDBRANCH   2   3
ENDBRANCH   1   2
BRANCH   1   5
ATOM      5  C   UNL     1     178.271 182.478 182.514  1.00  0.00     0.031 C 
BRANCH   5   6
ATOM      6  C   UNL     1     178.063 183.996 182.697  1.00  0.00     0.111 C 
ATOM      7  C   UNL     1     178.256 184.440 184.150  1.00  0.00     0.038 C 
BRANCH   6   8
ATOM      8  O   UNL     1     176.784 184.381 182.261  1.00  0.00    -0.393 OA
ATOM      9  H   UNL     1     176.806 185.367 182.146  1.00  0.00     0.210 HD
ENDBRANCH   6   8
ENDBRANCH   5   6
ENDBRANCH   1   5
TORSDOF 5
ENDMDL
