MODEL 1
REMARK VINA RESULT:    20.787      0.000      0.000
REMARK INTER + INTRA:          24.199
REMARK INTER:                  22.610
REMARK INTRA:                   1.590
REMARK UNBOUND:                 1.590
REMARK SMILES C[C@@H]1[C@H]2C3=CC[C@@H]4[C@]5(C)CC[C@@H](O)C(C)(C)[C@H]5CC[C@]4(C)[C@@]3(C)CC[C@@]2(C(=O)[O-])CC[C@@H]1C
REMARK SMILES IDX 26 1 30 2 25 3 3 4 31 5 24 6 4 7 2 8 32 9 22 10 5 11 1 12
REMARK SMILES IDX 33 13 23 14 20 15 6 16 7 17 19 18 21 19 8 20 18 21 17 22
REMARK SMILES IDX 10 23 9 24 14 25 11 26 12 27 15 28 16 29 27 30 28 31 29 32
REMARK SMILES IDX 13 33
REMARK H PARENT 13 34
REMARK Flexibility Score: inf
ROOT
ATOM      1  C   UNL     1     -41.536  75.093 -11.619  1.00  0.00     0.017 C 
ATOM      2  C   UNL     1     -41.070  75.512 -10.184  1.00  0.00     0.014 C 
ATOM      3  C   UNL     1     -42.948  74.469 -11.556  1.00  0.00     0.014 C 
ATOM      4  C   UNL     1     -40.516  74.074 -12.260  1.00  0.00     0.030 C 
ATOM      5  C   UNL     1     -39.649  76.070 -10.154  1.00  0.00     0.004 C 
ATOM      6  C   UNL     1     -42.986  73.189 -10.729  1.00  0.00     0.013 C 
ATOM      7  C   UNL     1     -40.722  72.598 -11.823  1.00  0.00    -0.063 C 
ATOM      8  C   UNL     1     -39.021  74.586 -12.130  1.00  0.00    -0.003 C 
ATOM      9  C   UNL     1     -38.669  75.017 -10.682  1.00  0.00    -0.011 C 
ATOM     10  C   UNL     1     -42.078  72.054 -11.312  1.00  0.00    -0.006 C 
ATOM     11  C   UNL     1     -39.859  71.661 -12.288  1.00  0.00    -0.027 C 
ATOM     12  C   UNL     1     -38.680  75.662 -13.187  1.00  0.00     0.008 C 
ATOM     13  C   UNL     1     -37.220  75.509 -10.539  1.00  0.00     0.008 C 
ATOM     14  C   UNL     1     -42.844  71.516 -12.580  1.00  0.00     0.017 C 
ATOM     15  C   UNL     1     -41.811  70.888 -10.215  1.00  0.00    -0.020 C 
ATOM     16  C   UNL     1     -40.080  70.191 -12.094  1.00  0.00     0.032 C 
ATOM     17  C   UNL     1     -40.628  69.877 -10.679  1.00  0.00     0.006 C 
ATOM     18  C   UNL     1     -43.184  70.191  -9.894  1.00  0.00     0.008 C 
ATOM     19  C   UNL     1     -41.314  71.537  -8.876  1.00  0.00     0.012 C 
ATOM     20  C   UNL     1     -40.785  68.307 -10.339  1.00  0.00    -0.025 C 
ATOM     21  C   UNL     1     -43.088  68.772  -9.366  1.00  0.00     0.005 C 
ATOM     22  C   UNL     1     -42.298  67.903 -10.365  1.00  0.00     0.003 C 
ATOM     23  C   UNL     1     -40.030  67.407 -11.373  1.00  0.00     0.010 C 
ATOM     24  C   UNL     1     -40.109  68.051  -8.951  1.00  0.00     0.012 C 
ATOM     25  C   UNL     1     -42.653  66.354 -10.307  1.00  0.00    -0.006 C 
ATOM     26  C   UNL     1     -40.267  65.906 -11.182  1.00  0.00     0.033 C 
ATOM     27  C   UNL     1     -41.757  65.566 -11.315  1.00  0.00     0.120 C 
ATOM     28  C   UNL     1     -42.546  65.737  -8.881  1.00  0.00     0.014 C 
ATOM     29  C   UNL     1     -44.125  66.155 -10.776  1.00  0.00     0.014 C 
ENDROOT
BRANCH   1  30
ATOM     30  C   UNL     1     -41.688  76.329 -12.502  1.00  0.00     0.048 C 
ATOM     31  O   UNL     1     -42.734  77.034 -12.455  1.00  0.00    -0.550 OA
ATOM     32  O   UNL     1     -40.728  76.628 -13.464  1.00  0.00    -0.550 OA
ENDBRANCH   1  30
BRANCH  27  33
ATOM     33  O   UNL     1     -41.936  64.180 -11.152  1.00  0.00    -0.393 OA
ATOM     34  H   UNL     1     -41.671  63.750 -12.006  1.00  0.00     0.210 HD
ENDBRANCH  27  33
TORSDOF 2
ENDMDL
MODEL 2
REMARK VINA RESULT:    22.661      1.861      3.666
REMARK INTER + INTRA:          26.238
REMARK INTER:                  25.264
REMARK INTRA:                   0.973
REMARK UNBOUND:                 1.590
REMARK SMILES C[C@@H]1[C@H]2C3=CC[C@@H]4[C@]5(C)CC[C@@H](O)C(C)(C)[C@H]5CC[C@]4(C)[C@@]3(C)CC[C@@]2(C(=O)[O-])CC[C@@H]1C
REMARK SMILES IDX 26 1 30 2 25 3 3 4 31 5 24 6 4 7 2 8 32 9 22 10 5 11 1 12
REMARK SMILES IDX 33 13 23 14 20 15 6 16 7 17 19 18 21 19 8 20 18 21 17 22
REMARK SMILES IDX 10 23 9 24 14 25 11 26 12 27 15 28 16 29 27 30 28 31 29 32
REMARK SMILES IDX 13 33
REMARK H PARENT 13 34
REMARK Flexibility Score: inf
ROOT
ATOM      1  C   UNL     1     -38.685  74.963 -10.589  1.00  0.00     0.017 C 
ATOM      2  C   UNL     1     -38.969  75.257 -12.100  1.00  0.00     0.014 C 
ATOM      3  C   UNL     1     -37.734  73.753 -10.455  1.00  0.00     0.014 C 
ATOM      4  C   UNL     1     -40.032  74.689  -9.814  1.00  0.00     0.030 C 
ATOM      5  C   UNL     1     -39.963  76.397 -12.313  1.00  0.00     0.004 C 
ATOM      6  C   UNL     1     -38.338  72.469 -11.011  1.00  0.00     0.013 C 
ATOM      7  C   UNL     1     -40.561  73.234  -9.940  1.00  0.00    -0.063 C 
ATOM      8  C   UNL     1     -41.118  75.802 -10.118  1.00  0.00    -0.003 C 
ATOM      9  C   UNL     1     -41.296  76.052 -11.639  1.00  0.00    -0.011 C 
ATOM     10  C   UNL     1     -39.643  72.030 -10.263  1.00  0.00    -0.006 C 
ATOM     11  C   UNL     1     -41.739  72.922  -9.345  1.00  0.00    -0.027 C 
ATOM     12  C   UNL     1     -40.865  77.098  -9.313  1.00  0.00     0.008 C 
ATOM     13  C   UNL     1     -42.351  77.125 -11.950  1.00  0.00     0.008 C 
ATOM     14  C   UNL     1     -39.158  71.459  -8.876  1.00  0.00     0.017 C 
ATOM     15  C   UNL     1     -40.476  70.934 -11.121  1.00  0.00    -0.020 C 
ATOM     16  C   UNL     1     -42.240  71.514  -9.234  1.00  0.00     0.032 C 
ATOM     17  C   UNL     1     -41.971  70.707 -10.529  1.00  0.00     0.006 C 
ATOM     18  C   UNL     1     -39.605  69.627 -11.227  1.00  0.00     0.008 C 
ATOM     19  C   UNL     1     -40.675  71.459 -12.585  1.00  0.00     0.012 C 
ATOM     20  C   UNL     1     -42.583  69.213 -10.544  1.00  0.00    -0.025 C 
ATOM     21  C   UNL     1     -40.379  68.345 -11.470  1.00  0.00     0.005 C 
ATOM     22  C   UNL     1     -41.435  68.163 -10.361  1.00  0.00     0.003 C 
ATOM     23  C   UNL     1     -43.620  68.995  -9.393  1.00  0.00     0.010 C 
ATOM     24  C   UNL     1     -43.366  69.034 -11.888  1.00  0.00     0.012 C 
ATOM     25  C   UNL     1     -41.849  66.651 -10.094  1.00  0.00    -0.006 C 
ATOM     26  C   UNL     1     -44.123  67.554  -9.273  1.00  0.00     0.033 C 
ATOM     27  C   UNL     1     -42.961  66.591  -8.999  1.00  0.00     0.120 C 
ATOM     28  C   UNL     1     -42.300  65.887 -11.374  1.00  0.00     0.014 C 
ATOM     29  C   UNL     1     -40.621  65.885  -9.520  1.00  0.00     0.014 C 
ENDROOT
BRANCH   1  30
ATOM     30  C   UNL     1     -37.930  76.132  -9.960  1.00  0.00     0.048 C 
ATOM     31  O   UNL     1     -38.393  76.734  -8.953  1.00  0.00    -0.550 OA
ATOM     32  O   UNL     1     -36.780  76.632 -10.564  1.00  0.00    -0.550 OA
ENDBRANCH   1  30
BRANCH  27  33
ATOM     33  O   UNL     1     -43.459  65.280  -8.875  1.00  0.00    -0.393 OA
ATOM     34  H   UNL     1     -44.443  65.351  -8.774  1.00  0.00     0.210 HD
ENDBRANCH  27  33
TORSDOF 2
ENDMDL
