MODEL 1
REMARK VINA RESULT:     0.580      0.000      0.000
REMARK INTER + INTRA:           0.580
REMARK INTER:                   0.580
REMARK INTRA:                   0.000
REMARK UNBOUND:                 0.000
REMARK SMILES CC1=CC(=O)[C@H]2C[C@@H]1C2(C)C
REMARK SMILES IDX 1 1 2 2 3 3 4 4 5 5 6 6 7 7 8 8 9 9 10 10 11 11
REMARK H PARENT
REMARK Flexibility Score: inf
ROOT
ATOM      1  C   UNL     1      -6.418   4.668   9.487  1.00  0.00     0.040 C 
ATOM      2  C   UNL     1      -4.996   4.929   9.105  1.00  0.00    -0.066 C 
ATOM      3  C   UNL     1      -4.216   5.825   9.773  1.00  0.00     0.047 C 
ATOM      4  C   UNL     1      -2.811   5.981   9.275  1.00  0.00     0.159 C 
ATOM      5  O   UNL     1      -2.007   6.807   9.781  1.00  0.00    -0.295 OA
ATOM      6  C   UNL     1      -2.424   5.068   8.112  1.00  0.00     0.067 C 
ATOM      7  C   UNL     1      -2.965   3.681   8.524  1.00  0.00     0.021 C 
ATOM      8  C   UNL     1      -4.327   4.142   7.959  1.00  0.00     0.022 C 
ATOM      9  C   UNL     1      -3.549   5.127   7.039  1.00  0.00    -0.019 C 
ATOM     10  C   UNL     1      -4.196   6.505   6.724  1.00  0.00     0.012 C 
ATOM     11  C   UNL     1      -3.124   4.473   5.701  1.00  0.00     0.012 C 
ENDROOT
TORSDOF 0
ENDMDL
MODEL 2
REMARK VINA RESULT:     1.102      1.107      2.953
REMARK INTER + INTRA:           1.102
REMARK INTER:                   1.102
REMARK INTRA:                   0.000
REMARK UNBOUND:                 0.000
REMARK SMILES CC1=CC(=O)[C@H]2C[C@@H]1C2(C)C
REMARK SMILES IDX 1 1 2 2 3 3 4 4 5 5 6 6 7 7 8 8 9 9 10 10 11 11
REMARK H PARENT
REMARK Flexibility Score: inf
ROOT
ATOM      1  C   UNL     1      -3.856   6.373   5.822  1.00  0.00     0.040 C 
ATOM      2  C   UNL     1      -3.685   6.089   7.280  1.00  0.00    -0.066 C 
ATOM      3  C   UNL     1      -2.536   6.392   7.950  1.00  0.00     0.047 C 
ATOM      4  C   UNL     1      -2.510   6.048   9.408  1.00  0.00     0.159 C 
ATOM      5  O   UNL     1      -1.494   6.238  10.125  1.00  0.00    -0.295 OA
ATOM      6  C   UNL     1      -3.804   5.451   9.963  1.00  0.00     0.067 C 
ATOM      7  C   UNL     1      -4.915   6.355   9.386  1.00  0.00     0.021 C 
ATOM      8  C   UNL     1      -4.836   5.486   8.110  1.00  0.00     0.022 C 
ATOM      9  C   UNL     1      -4.288   4.332   8.997  1.00  0.00    -0.019 C 
ATOM     10  C   UNL     1      -3.225   3.376   8.384  1.00  0.00     0.012 C 
ATOM     11  C   UNL     1      -5.420   3.470   9.611  1.00  0.00     0.012 C 
ENDROOT
TORSDOF 0
ENDMDL
MODEL 3
REMARK VINA RESULT:     1.592      1.706      3.285
REMARK INTER + INTRA:           1.592
REMARK INTER:                   1.592
REMARK INTRA:                   0.000
REMARK UNBOUND:                 0.000
REMARK SMILES CC1=CC(=O)[C@H]2C[C@@H]1C2(C)C
REMARK SMILES IDX 1 1 2 2 3 3 4 4 5 5 6 6 7 7 8 8 9 9 10 10 11 11
REMARK H PARENT
REMARK Flexibility Score: inf
ROOT
ATOM      1  C   UNL     1      -1.236   6.780   9.849  1.00  0.00     0.040 C 
ATOM      2  C   UNL     1      -2.309   6.194   8.987  1.00  0.00    -0.066 C 
ATOM      3  C   UNL     1      -2.697   6.772   7.814  1.00  0.00     0.047 C 
ATOM      4  C   UNL     1      -3.785   6.071   7.059  1.00  0.00     0.159 C 
ATOM      5  O   UNL     1      -4.259   6.527   5.986  1.00  0.00    -0.295 OA
ATOM      6  C   UNL     1      -4.279   4.765   7.683  1.00  0.00     0.067 C 
ATOM      7  C   UNL     1      -2.983   4.020   8.073  1.00  0.00     0.021 C 
ATOM      8  C   UNL     1      -2.992   4.865   9.367  1.00  0.00     0.022 C 
ATOM      9  C   UNL     1      -4.532   5.005   9.199  1.00  0.00    -0.019 C 
ATOM     10  C   UNL     1      -5.199   6.341   9.634  1.00  0.00     0.012 C 
ATOM     11  C   UNL     1      -5.307   3.838   9.860  1.00  0.00     0.012 C 
ENDROOT
TORSDOF 0
ENDMDL
MODEL 4
REMARK VINA RESULT:     1.928      1.779      3.132
REMARK INTER + INTRA:           1.928
REMARK INTER:                   1.928
REMARK INTRA:                   0.000
REMARK UNBOUND:                 0.000
REMARK SMILES CC1=CC(=O)[C@H]2C[C@@H]1C2(C)C
REMARK SMILES IDX 1 1 2 2 3 3 4 4 5 5 6 6 7 7 8 8 9 9 10 10 11 11
REMARK H PARENT
REMARK Flexibility Score: inf
ROOT
ATOM      1  C   UNL     1      -1.801   6.487   9.827  1.00  0.00     0.040 C 
ATOM      2  C   UNL     1      -3.076   5.841   9.383  1.00  0.00    -0.066 C 
ATOM      3  C   UNL     1      -4.235   5.959  10.090  1.00  0.00     0.047 C 
ATOM      4  C   UNL     1      -5.430   5.255   9.524  1.00  0.00     0.159 C 
ATOM      5  O   UNL     1      -6.546   5.252  10.104  1.00  0.00    -0.295 OA
ATOM      6  C   UNL     1      -5.198   4.541   8.191  1.00  0.00     0.067 C 
ATOM      7  C   UNL     1      -4.413   5.566   7.345  1.00  0.00     0.021 C 
ATOM      8  C   UNL     1      -3.143   5.051   8.061  1.00  0.00     0.022 C 
ATOM      9  C   UNL     1      -3.889   3.707   8.296  1.00  0.00    -0.019 C 
ATOM     10  C   UNL     1      -3.611   2.934   9.617  1.00  0.00     0.012 C 
ATOM     11  C   UNL     1      -3.720   2.722   7.113  1.00  0.00     0.012 C 
ENDROOT
TORSDOF 0
ENDMDL
MODEL 5
REMARK VINA RESULT:     2.554      2.109      3.138
REMARK INTER + INTRA:           2.554
REMARK INTER:                   2.554
REMARK INTRA:                   0.000
REMARK UNBOUND:                 0.000
REMARK SMILES CC1=CC(=O)[C@H]2C[C@@H]1C2(C)C
REMARK SMILES IDX 1 1 2 2 3 3 4 4 5 5 6 6 7 7 8 8 9 9 10 10 11 11
REMARK H PARENT
REMARK Flexibility Score: inf
ROOT
ATOM      1  C   UNL     1      -4.481   1.872   6.919  1.00  0.00     0.040 C 
ATOM      2  C   UNL     1      -4.720   2.950   7.928  1.00  0.00    -0.066 C 
ATOM      3  C   UNL     1      -5.974   3.316   8.318  1.00  0.00     0.047 C 
ATOM      4  C   UNL     1      -6.057   4.413   9.336  1.00  0.00     0.159 C 
ATOM      5  O   UNL     1      -7.157   4.869   9.744  1.00  0.00    -0.295 OA
ATOM      6  C   UNL     1      -4.714   4.938   9.844  1.00  0.00     0.067 C 
ATOM      7  C   UNL     1      -3.892   3.661  10.125  1.00  0.00     0.021 C 
ATOM      8  C   UNL     1      -3.540   3.662   8.620  1.00  0.00     0.022 C 
ATOM      9  C   UNL     1      -3.788   5.198   8.620  1.00  0.00    -0.019 C 
ATOM     10  C   UNL     1      -4.411   5.841   7.349  1.00  0.00     0.012 C 
ATOM     11  C   UNL     1      -2.520   6.001   9.000  1.00  0.00     0.012 C 
ENDROOT
TORSDOF 0
ENDMDL
MODEL 6
REMARK VINA RESULT:     2.873     20.257     21.914
REMARK INTER + INTRA:           2.873
REMARK INTER:                   2.873
REMARK INTRA:                   0.000
REMARK UNBOUND:                 0.000
REMARK SMILES CC1=CC(=O)[C@H]2C[C@@H]1C2(C)C
REMARK SMILES IDX 1 1 2 2 3 3 4 4 5 5 6 6 7 7 8 8 9 9 10 10 11 11
REMARK H PARENT
REMARK Flexibility Score: inf
ROOT
ATOM      1  C   UNL     1       6.055   9.575  -9.850  1.00  0.00     0.040 C 
ATOM      2  C   UNL     1       7.459   9.107  -9.636  1.00  0.00    -0.066 C 
ATOM      3  C   UNL     1       7.899   7.898 -10.088  1.00  0.00     0.047 C 
ATOM      4  C   UNL     1       9.331   7.564  -9.797  1.00  0.00     0.159 C 
ATOM      5  O   UNL     1       9.844   6.463 -10.125  1.00  0.00    -0.295 OA
ATOM      6  C   UNL     1      10.124   8.655  -9.076  1.00  0.00     0.067 C 
ATOM      7  C   UNL     1       9.754   9.952  -9.829  1.00  0.00     0.021 C 
ATOM      8  C   UNL     1       8.495  10.008  -8.934  1.00  0.00     0.022 C 
ATOM      9  C   UNL     1       9.277   9.174  -7.878  1.00  0.00    -0.019 C 
ATOM     10  C   UNL     1       8.488   8.138  -7.029  1.00  0.00     0.012 C 
ATOM     11  C   UNL     1      10.101  10.064  -6.915  1.00  0.00     0.012 C 
ENDROOT
TORSDOF 0
ENDMDL
MODEL 7
REMARK VINA RESULT:     3.135     21.797     22.881
REMARK INTER + INTRA:           3.135
REMARK INTER:                   3.135
REMARK INTRA:                   0.000
REMARK UNBOUND:                 0.000
REMARK SMILES CC1=CC(=O)[C@H]2C[C@@H]1C2(C)C
REMARK SMILES IDX 1 1 2 2 3 3 4 4 5 5 6 6 7 7 8 8 9 9 10 10 11 11
REMARK H PARENT
REMARK Flexibility Score: inf
ROOT
ATOM      1  C   UNL     1      -9.963  -6.127  -9.685  1.00  0.00     0.040 C 
ATOM      2  C   UNL     1      -9.688  -7.501  -9.159  1.00  0.00    -0.066 C 
ATOM      3  C   UNL     1     -10.069  -7.892  -7.910  1.00  0.00     0.047 C 
ATOM      4  C   UNL     1      -9.723  -9.297  -7.522  1.00  0.00     0.159 C 
ATOM      5  O   UNL     1      -9.983  -9.762  -6.382  1.00  0.00    -0.295 OA
ATOM      6  C   UNL     1      -9.033 -10.125  -8.607  1.00  0.00     0.067 C 
ATOM      7  C   UNL     1      -9.858  -9.839  -9.882  1.00  0.00     0.021 C 
ATOM      8  C   UNL     1      -9.001  -8.562 -10.042  1.00  0.00     0.022 C 
ATOM      9  C   UNL     1      -7.886  -9.275  -9.225  1.00  0.00    -0.019 C 
ATOM     10  C   UNL     1      -7.010  -8.414  -8.271  1.00  0.00     0.012 C 
ATOM     11  C   UNL     1      -6.944 -10.117 -10.120  1.00  0.00     0.012 C 
ENDROOT
TORSDOF 0
ENDMDL
MODEL 8
REMARK VINA RESULT:     3.272      2.067      3.786
REMARK INTER + INTRA:           3.272
REMARK INTER:                   3.272
REMARK INTRA:                   0.000
REMARK UNBOUND:                 0.000
REMARK SMILES CC1=CC(=O)[C@H]2C[C@@H]1C2(C)C
REMARK SMILES IDX 1 1 2 2 3 3 4 4 5 5 6 6 7 7 8 8 9 9 10 10 11 11
REMARK H PARENT
REMARK Flexibility Score: inf
ROOT
ATOM      1  C   UNL     1      -3.760   5.502   6.563  1.00  0.00     0.040 C 
ATOM      2  C   UNL     1      -4.030   4.577   7.708  1.00  0.00    -0.066 C 
ATOM      3  C   UNL     1      -3.310   3.437   7.908  1.00  0.00     0.047 C 
ATOM      4  C   UNL     1      -3.697   2.610   9.096  1.00  0.00     0.159 C 
ATOM      5  O   UNL     1      -3.137   1.515   9.362  1.00  0.00    -0.295 OA
ATOM      6  C   UNL     1      -4.818   3.189   9.960  1.00  0.00     0.067 C 
ATOM      7  C   UNL     1      -4.437   4.676  10.125  1.00  0.00     0.021 C 
ATOM      8  C   UNL     1      -5.113   4.910   8.755  1.00  0.00     0.022 C 
ATOM      9  C   UNL     1      -5.977   3.646   9.028  1.00  0.00    -0.019 C 
ATOM     10  C   UNL     1      -6.355   2.740   7.822  1.00  0.00     0.012 C 
ATOM     11  C   UNL     1      -7.271   3.974   9.813  1.00  0.00     0.012 C 
ENDROOT
TORSDOF 0
ENDMDL
MODEL 9
REMARK VINA RESULT:     3.405     20.043     21.231
REMARK INTER + INTRA:           3.405
REMARK INTER:                   3.405
REMARK INTRA:                   0.000
REMARK UNBOUND:                 0.000
REMARK SMILES CC1=CC(=O)[C@H]2C[C@@H]1C2(C)C
REMARK SMILES IDX 1 1 2 2 3 3 4 4 5 5 6 6 7 7 8 8 9 9 10 10 11 11
REMARK H PARENT
REMARK Flexibility Score: inf
ROOT
ATOM      1  C   UNL     1       5.585   8.234 -10.010  1.00  0.00     0.040 C 
ATOM      2  C   UNL     1       6.912   8.590  -9.419  1.00  0.00    -0.066 C 
ATOM      3  C   UNL     1       7.865   9.264 -10.125  1.00  0.00     0.047 C 
ATOM      4  C   UNL     1       9.146   9.549  -9.402  1.00  0.00     0.159 C 
ATOM      5  O   UNL     1      10.117  10.125  -9.957  1.00  0.00    -0.295 OA
ATOM      6  C   UNL     1       9.190   9.091  -7.943  1.00  0.00     0.067 C 
ATOM      7  C   UNL     1       7.836   9.553  -7.361  1.00  0.00     0.021 C 
ATOM      8  C   UNL     1       7.240   8.254  -7.950  1.00  0.00     0.022 C 
ATOM      9  C   UNL     1       8.662   7.629  -7.866  1.00  0.00    -0.019 C 
ATOM     10  C   UNL     1       9.092   6.630  -8.977  1.00  0.00     0.012 C 
ATOM     11  C   UNL     1       8.938   6.974  -6.490  1.00  0.00     0.012 C 
ENDROOT
TORSDOF 0
ENDMDL
