MODEL 1
REMARK VINA RESULT:    -3.509      0.000      0.000
REMARK INTER + INTRA:          -4.630
REMARK INTER:                  -4.534
REMARK INTRA:                  -0.095
REMARK UNBOUND:                -0.095
REMARK SMILES CCCCCCC(=O)[O-]
REMARK SMILES IDX 5 1 6 2 7 3 8 4 9 5 4 6 3 7 2 8 1 9
REMARK H PARENT
REMARK Flexibility Score: inf
ROOT
ATOM      1  C   UNL     1      42.920  66.666  47.708  1.00  0.00     0.006 C 
ENDROOT
BRANCH   1   2
ATOM      2  C   UNL     1      42.482  65.531  46.778  1.00  0.00     0.053 C 
BRANCH   2   3
ATOM      3  C   UNL     1      41.051  65.173  47.025  1.00  0.00     0.041 C 
ATOM      4  O   UNL     1      40.641  64.006  46.790  1.00  0.00    -0.550 OA
ATOM      5  O   UNL     1      40.158  66.140  47.466  1.00  0.00    -0.550 OA
ENDBRANCH   2   3
ENDBRANCH   1   2
BRANCH   1   6
ATOM      6  C   UNL     1      44.340  66.422  48.241  1.00  0.00     0.000 C 
BRANCH   6   7
ATOM      7  C   UNL     1      44.452  66.657  49.756  1.00  0.00    -0.000 C 
BRANCH   7   8
ATOM      8  C   UNL     1      45.546  65.800  50.408  1.00  0.00    -0.003 C 
ATOM      9  C   UNL     1      45.060  65.194  51.721  1.00  0.00     0.004 C 
ENDBRANCH   7   8
ENDBRANCH   6   7
ENDBRANCH   1   6
TORSDOF 5
ENDMDL
MODEL 2
REMARK VINA RESULT:    -3.500      5.721      7.493
REMARK INTER + INTRA:          -4.618
REMARK INTER:                  -4.463
REMARK INTRA:                  -0.155
REMARK UNBOUND:                -0.095
REMARK SMILES CCCCCCC(=O)[O-]
REMARK SMILES IDX 5 1 6 2 7 3 8 4 9 5 4 6 3 7 2 8 1 9
REMARK H PARENT
REMARK Flexibility Score: inf
ROOT
ATOM      1  C   UNL     1      43.322  64.782  54.281  1.00  0.00     0.006 C 
ENDROOT
BRANCH   1   2
ATOM      2  C   UNL     1      42.989  64.833  55.775  1.00  0.00     0.053 C 
BRANCH   2   3
ATOM      3  C   UNL     1      43.888  63.917  56.544  1.00  0.00     0.041 C 
ATOM      4  O   UNL     1      44.157  64.160  57.750  1.00  0.00    -0.550 OA
ATOM      5  O   UNL     1      44.467  62.823  55.916  1.00  0.00    -0.550 OA
ENDBRANCH   2   3
ENDBRANCH   1   2
BRANCH   1   6
ATOM      6  C   UNL     1      42.921  66.091  53.584  1.00  0.00     0.000 C 
BRANCH   6   7
ATOM      7  C   UNL     1      43.858  66.453  52.421  1.00  0.00    -0.000 C 
BRANCH   7   8
ATOM      8  C   UNL     1      44.851  65.330  52.088  1.00  0.00    -0.003 C 
ATOM      9  C   UNL     1      45.599  65.622  50.791  1.00  0.00     0.004 C 
ENDBRANCH   7   8
ENDBRANCH   6   7
ENDBRANCH   1   6
TORSDOF 5
ENDMDL
MODEL 3
REMARK VINA RESULT:    -3.443     11.317     12.313
REMARK INTER + INTRA:          -4.544
REMARK INTER:                  -4.352
REMARK INTRA:                  -0.193
REMARK UNBOUND:                -0.095
REMARK SMILES CCCCCCC(=O)[O-]
REMARK SMILES IDX 5 1 6 2 7 3 8 4 9 5 4 6 3 7 2 8 1 9
REMARK H PARENT
REMARK Flexibility Score: inf
ROOT
ATOM      1  C   UNL     1      37.206  59.074  55.117  1.00  0.00     0.006 C 
ENDROOT
BRANCH   1   2
ATOM      2  C   UNL     1      36.852  60.050  56.243  1.00  0.00     0.053 C 
BRANCH   2   3
ATOM      3  C   UNL     1      37.183  61.453  55.844  1.00  0.00     0.041 C 
ATOM      4  O   UNL     1      38.373  61.861  55.891  1.00  0.00    -0.550 OA
ATOM      5  O   UNL     1      36.171  62.326  55.470  1.00  0.00    -0.550 OA
ENDBRANCH   2   3
ENDBRANCH   1   2
BRANCH   1   6
ATOM      6  C   UNL     1      37.252  57.629  55.636  1.00  0.00     0.000 C 
BRANCH   6   7
ATOM      7  C   UNL     1      37.649  57.546  57.119  1.00  0.00    -0.000 C 
BRANCH   7   8
ATOM      8  C   UNL     1      37.166  56.252  57.790  1.00  0.00    -0.003 C 
ATOM      9  C   UNL     1      36.883  55.168  56.754  1.00  0.00     0.004 C 
ENDBRANCH   7   8
ENDBRANCH   6   7
ENDBRANCH   1   6
TORSDOF 5
ENDMDL
MODEL 4
REMARK VINA RESULT:    -3.367      4.319      6.187
REMARK INTER + INTRA:          -4.446
REMARK INTER:                  -4.295
REMARK INTRA:                  -0.151
REMARK UNBOUND:                -0.095
REMARK SMILES CCCCCCC(=O)[O-]
REMARK SMILES IDX 5 1 6 2 7 3 8 4 9 5 4 6 3 7 2 8 1 9
REMARK H PARENT
REMARK Flexibility Score: inf
ROOT
ATOM      1  C   UNL     1      43.757  65.529  53.128  1.00  0.00     0.006 C 
ENDROOT
BRANCH   1   2
ATOM      2  C   UNL     1      44.826  65.065  52.134  1.00  0.00     0.053 C 
BRANCH   2   3
ATOM      3  C   UNL     1      45.219  66.186  51.225  1.00  0.00     0.041 C 
ATOM      4  O   UNL     1      45.214  67.373  51.646  1.00  0.00    -0.550 OA
ATOM      5  O   UNL     1      45.543  65.927  49.900  1.00  0.00    -0.550 OA
ENDBRANCH   2   3
ENDBRANCH   1   2
BRANCH   1   6
ATOM      6  C   UNL     1      43.485  64.448  54.185  1.00  0.00     0.000 C 
BRANCH   6   7
ATOM      7  C   UNL     1      42.993  65.035  55.518  1.00  0.00    -0.000 C 
BRANCH   7   8
ATOM      8  C   UNL     1      43.322  64.135  56.718  1.00  0.00    -0.003 C 
ATOM      9  C   UNL     1      44.294  63.026  56.324  1.00  0.00     0.004 C 
ENDBRANCH   7   8
ENDBRANCH   6   7
ENDBRANCH   1   6
TORSDOF 5
ENDMDL
MODEL 5
REMARK VINA RESULT:    -3.340     10.823     11.834
REMARK INTER + INTRA:          -4.412
REMARK INTER:                  -4.339
REMARK INTRA:                  -0.073
REMARK UNBOUND:                -0.095
REMARK SMILES CCCCCCC(=O)[O-]
REMARK SMILES IDX 5 1 6 2 7 3 8 4 9 5 4 6 3 7 2 8 1 9
REMARK H PARENT
REMARK Flexibility Score: inf
ROOT
ATOM      1  C   UNL     1      36.965  59.556  55.489  1.00  0.00     0.006 C 
ENDROOT
BRANCH   1   2
ATOM      2  C   UNL     1      37.459  58.564  56.547  1.00  0.00     0.053 C 
BRANCH   2   3
ATOM      3  C   UNL     1      37.300  57.158  56.062  1.00  0.00     0.041 C 
ATOM      4  O   UNL     1      37.631  56.193  56.800  1.00  0.00    -0.550 OA
ATOM      5  O   UNL     1      36.835  56.914  54.777  1.00  0.00    -0.550 OA
ENDBRANCH   2   3
ENDBRANCH   1   2
BRANCH   1   6
ATOM      6  C   UNL     1      37.405  60.987  55.831  1.00  0.00     0.000 C 
BRANCH   6   7
ATOM      7  C   UNL     1      36.299  62.024  55.572  1.00  0.00    -0.000 C 
BRANCH   7   8
ATOM      8  C   UNL     1      36.782  63.467  55.776  1.00  0.00    -0.003 C 
ATOM      9  C   UNL     1      35.850  64.460  55.088  1.00  0.00     0.004 C 
ENDBRANCH   7   8
ENDBRANCH   6   7
ENDBRANCH   1   6
TORSDOF 5
ENDMDL
MODEL 6
REMARK VINA RESULT:    -3.315      2.629      4.084
REMARK INTER + INTRA:          -4.379
REMARK INTER:                  -4.169
REMARK INTRA:                  -0.211
REMARK UNBOUND:                -0.095
REMARK SMILES CCCCCCC(=O)[O-]
REMARK SMILES IDX 5 1 6 2 7 3 8 4 9 5 4 6 3 7 2 8 1 9
REMARK H PARENT
REMARK Flexibility Score: inf
ROOT
ATOM      1  C   UNL     1      45.402  66.061  50.945  1.00  0.00     0.006 C 
ENDROOT
BRANCH   1   2
ATOM      2  C   UNL     1      44.577  67.258  50.465  1.00  0.00     0.053 C 
BRANCH   2   3
ATOM      3  C   UNL     1      43.933  66.957  49.147  1.00  0.00     0.041 C 
ATOM      4  O   UNL     1      42.764  67.356  48.909  1.00  0.00    -0.550 OA
ATOM      5  O   UNL     1      44.606  66.193  48.204  1.00  0.00    -0.550 OA
ENDBRANCH   2   3
ENDBRANCH   1   2
BRANCH   1   6
ATOM      6  C   UNL     1      44.733  65.382  52.150  1.00  0.00     0.000 C 
BRANCH   6   7
ATOM      7  C   UNL     1      43.582  66.215  52.735  1.00  0.00    -0.000 C 
BRANCH   7   8
ATOM      8  C   UNL     1      43.029  65.626  54.040  1.00  0.00    -0.003 C 
ATOM      9  C   UNL     1      43.632  64.254  54.324  1.00  0.00     0.004 C 
ENDBRANCH   7   8
ENDBRANCH   6   7
ENDBRANCH   1   6
TORSDOF 5
ENDMDL
MODEL 7
REMARK VINA RESULT:    -3.288     10.329     11.234
REMARK INTER + INTRA:          -4.344
REMARK INTER:                  -4.249
REMARK INTRA:                  -0.095
REMARK UNBOUND:                -0.095
REMARK SMILES CCCCCCC(=O)[O-]
REMARK SMILES IDX 5 1 6 2 7 3 8 4 9 5 4 6 3 7 2 8 1 9
REMARK H PARENT
REMARK Flexibility Score: inf
ROOT
ATOM      1  C   UNL     1      36.454  63.442  56.013  1.00  0.00     0.006 C 
ENDROOT
BRANCH   1   2
ATOM      2  C   UNL     1      36.224  62.018  55.498  1.00  0.00     0.053 C 
BRANCH   2   3
ATOM      3  C   UNL     1      37.418  61.160  55.777  1.00  0.00     0.041 C 
ATOM      4  O   UNL     1      38.398  61.627  56.414  1.00  0.00    -0.550 OA
ATOM      5  O   UNL     1      37.469  59.861  55.289  1.00  0.00    -0.550 OA
ENDBRANCH   2   3
ENDBRANCH   1   2
BRANCH   1   6
ATOM      6  C   UNL     1      35.795  64.474  55.086  1.00  0.00     0.000 C 
BRANCH   6   7
ATOM      7  C   UNL     1      34.951  65.504  55.853  1.00  0.00    -0.000 C 
BRANCH   7   8
ATOM      8  C   UNL     1      34.144  66.420  54.921  1.00  0.00    -0.003 C 
ATOM      9  C   UNL     1      32.644  66.224  55.120  1.00  0.00     0.004 C 
ENDBRANCH   7   8
ENDBRANCH   6   7
ENDBRANCH   1   6
TORSDOF 5
ENDMDL
MODEL 8
REMARK VINA RESULT:    -3.225     10.691     11.705
REMARK INTER + INTRA:          -4.263
REMARK INTER:                  -4.017
REMARK INTRA:                  -0.246
REMARK UNBOUND:                -0.095
REMARK SMILES CCCCCCC(=O)[O-]
REMARK SMILES IDX 5 1 6 2 7 3 8 4 9 5 4 6 3 7 2 8 1 9
REMARK H PARENT
REMARK Flexibility Score: inf
ROOT
ATOM      1  C   UNL     1      37.251  59.735  55.502  1.00  0.00     0.006 C 
ENDROOT
BRANCH   1   2
ATOM      2  C   UNL     1      37.285  58.670  56.602  1.00  0.00     0.053 C 
BRANCH   2   3
ATOM      3  C   UNL     1      37.280  57.299  56.004  1.00  0.00     0.041 C 
ATOM      4  O   UNL     1      36.941  57.133  54.803  1.00  0.00    -0.550 OA
ATOM      5  O   UNL     1      37.599  56.198  56.787  1.00  0.00    -0.550 OA
ENDBRANCH   2   3
ENDBRANCH   1   2
BRANCH   1   6
ATOM      6  C   UNL     1      36.191  60.805  55.806  1.00  0.00     0.000 C 
BRANCH   6   7
ATOM      7  C   UNL     1      36.807  62.179  56.113  1.00  0.00    -0.000 C 
BRANCH   7   8
ATOM      8  C   UNL     1      38.341  62.169  56.038  1.00  0.00    -0.003 C 
ATOM      9  C   UNL     1      38.960  62.523  57.387  1.00  0.00     0.004 C 
ENDBRANCH   7   8
ENDBRANCH   6   7
ENDBRANCH   1   6
TORSDOF 5
ENDMDL
MODEL 9
REMARK VINA RESULT:    -3.179     17.279     18.284
REMARK INTER + INTRA:          -4.204
REMARK INTER:                  -3.978
REMARK INTRA:                  -0.225
REMARK UNBOUND:                -0.095
REMARK SMILES CCCCCCC(=O)[O-]
REMARK SMILES IDX 5 1 6 2 7 3 8 4 9 5 4 6 3 7 2 8 1 9
REMARK H PARENT
REMARK Flexibility Score: inf
ROOT
ATOM      1  C   UNL     1      33.805  51.611  49.173  1.00  0.00     0.006 C 
ENDROOT
BRANCH   1   2
ATOM      2  C   UNL     1      32.868  50.448  48.835  1.00  0.00     0.053 C 
BRANCH   2   3
ATOM      3  C   UNL     1      33.647  49.184  48.647  1.00  0.00     0.041 C 
ATOM      4  O   UNL     1      34.868  49.233  48.344  1.00  0.00    -0.550 OA
ATOM      5  O   UNL     1      33.013  47.954  48.757  1.00  0.00    -0.550 OA
ENDBRANCH   2   3
ENDBRANCH   1   2
BRANCH   1   6
ATOM      6  C   UNL     1      33.655  52.027  50.644  1.00  0.00     0.000 C 
BRANCH   6   7
ATOM      7  C   UNL     1      32.304  51.606  51.243  1.00  0.00    -0.000 C 
BRANCH   7   8
ATOM      8  C   UNL     1      32.448  50.944  52.621  1.00  0.00    -0.003 C 
ATOM      9  C   UNL     1      33.267  51.817  53.567  1.00  0.00     0.004 C 
ENDBRANCH   7   8
ENDBRANCH   6   7
ENDBRANCH   1   6
TORSDOF 5
ENDMDL
