MODEL 1
REMARK VINA RESULT:    -3.358      0.000      0.000
REMARK INTER + INTRA:          -8.972
REMARK INTER:                  -6.302
REMARK INTRA:                  -2.670
REMARK UNBOUND:                -2.670
REMARK SMILES CCCCCCCCC=CCCCCCCCC(=O)[O-]
REMARK SMILES IDX 10 1 9 2 11 3 12 4 13 5 14 6 15 7 16 8 17 9 18 10 19 11
REMARK SMILES IDX 20 12 8 13 7 14 6 15 5 16 4 17 3 18 2 19 1 20
REMARK H PARENT
REMARK Flexibility Score: inf
ROOT
ATOM      1  C   UNL     1      61.701  34.840  58.089  1.00  0.00    -0.031 C 
ATOM      2  C   UNL     1      62.313  35.865  58.712  1.00  0.00    -0.031 C 
ENDROOT
BRANCH   1   3
ATOM      3  C   UNL     1      60.322  34.328  58.428  1.00  0.00     0.027 C 
BRANCH   3   4
ATOM      4  C   UNL     1      60.335  32.831  58.767  1.00  0.00     0.004 C 
BRANCH   4   5
ATOM      5  C   UNL     1      60.817  32.567  60.201  1.00  0.00     0.000 C 
BRANCH   5   6
ATOM      6  C   UNL     1      60.642  31.090  60.578  1.00  0.00     0.000 C 
BRANCH   6   7
ATOM      7  C   UNL     1      61.209  30.807  61.976  1.00  0.00     0.000 C 
BRANCH   7   8
ATOM      8  C   UNL     1      62.383  29.817  61.951  1.00  0.00     0.006 C 
BRANCH   8   9
ATOM      9  C   UNL     1      62.111  28.597  61.060  1.00  0.00     0.053 C 
BRANCH   9  10
ATOM     10  C   UNL     1      62.557  27.340  61.739  1.00  0.00     0.041 C 
ATOM     11  O   UNL     1      63.684  26.842  61.473  1.00  0.00    -0.550 OA
ATOM     12  O   UNL     1      61.744  26.734  62.691  1.00  0.00    -0.550 OA
ENDBRANCH   9  10
ENDBRANCH   8   9
ENDBRANCH   7   8
ENDBRANCH   6   7
ENDBRANCH   5   6
ENDBRANCH   4   5
ENDBRANCH   3   4
ENDBRANCH   1   3
BRANCH   2  13
ATOM     13  C   UNL     1      61.759  36.596  59.911  1.00  0.00     0.027 C 
BRANCH  13  14
ATOM     14  C   UNL     1      62.262  36.001  61.237  1.00  0.00     0.004 C 
BRANCH  14  15
ATOM     15  C   UNL     1      63.770  36.195  61.494  1.00  0.00     0.000 C 
BRANCH  15  16
ATOM     16  C   UNL     1      64.599  34.898  61.561  1.00  0.00     0.000 C 
BRANCH  16  17
ATOM     17  C   UNL     1      63.749  33.633  61.355  1.00  0.00    -0.000 C 
BRANCH  17  18
ATOM     18  C   UNL     1      64.494  32.544  60.567  1.00  0.00    -0.000 C 
BRANCH  18  19
ATOM     19  C   UNL     1      64.568  32.849  59.063  1.00  0.00    -0.003 C 
ATOM     20  C   UNL     1      63.917  31.736  58.246  1.00  0.00     0.004 C 
ENDBRANCH  18  19
ENDBRANCH  17  18
ENDBRANCH  16  17
ENDBRANCH  15  16
ENDBRANCH  14  15
ENDBRANCH  13  14
ENDBRANCH   2  13
TORSDOF 15
ENDMDL
MODEL 2
REMARK VINA RESULT:    -3.254      2.948      5.819
REMARK INTER + INTRA:          -8.779
REMARK INTER:                  -5.800
REMARK INTRA:                  -2.978
REMARK UNBOUND:                -2.670
REMARK SMILES CCCCCCCCC=CCCCCCCCC(=O)[O-]
REMARK SMILES IDX 10 1 9 2 11 3 12 4 13 5 14 6 15 7 16 8 17 9 18 10 19 11
REMARK SMILES IDX 20 12 8 13 7 14 6 15 5 16 4 17 3 18 2 19 1 20
REMARK H PARENT
REMARK Flexibility Score: inf
ROOT
ATOM      1  C   UNL     1      60.558  30.746  60.159  1.00  0.00    -0.031 C 
ATOM      2  C   UNL     1      60.972  29.465  60.168  1.00  0.00    -0.031 C 
ENDROOT
BRANCH   1   3
ATOM      3  C   UNL     1      60.772  31.726  61.286  1.00  0.00     0.027 C 
BRANCH   3   4
ATOM      4  C   UNL     1      61.717  32.866  60.881  1.00  0.00     0.004 C 
BRANCH   4   5
ATOM      5  C   UNL     1      61.403  33.407  59.478  1.00  0.00     0.000 C 
BRANCH   5   6
ATOM      6  C   UNL     1      61.337  34.940  59.482  1.00  0.00     0.000 C 
BRANCH   6   7
ATOM      7  C   UNL     1      61.209  35.482  60.912  1.00  0.00     0.000 C 
BRANCH   7   8
ATOM      8  C   UNL     1      62.261  36.555  61.236  1.00  0.00     0.006 C 
BRANCH   8   9
ATOM      9  C   UNL     1      63.570  36.356  60.461  1.00  0.00     0.053 C 
BRANCH   9  10
ATOM     10  C   UNL     1      64.500  35.463  61.220  1.00  0.00     0.041 C 
ATOM     11  O   UNL     1      64.955  35.826  62.338  1.00  0.00    -0.550 OA
ATOM     12  O   UNL     1      64.841  34.215  60.711  1.00  0.00    -0.550 OA
ENDBRANCH   9  10
ENDBRANCH   8   9
ENDBRANCH   7   8
ENDBRANCH   6   7
ENDBRANCH   5   6
ENDBRANCH   4   5
ENDBRANCH   3   4
ENDBRANCH   1   3
BRANCH   2  13
ATOM     13  C   UNL     1      61.624  28.780  61.345  1.00  0.00     0.027 C 
BRANCH  13  14
ATOM     14  C   UNL     1      63.156  28.735  61.214  1.00  0.00     0.004 C 
BRANCH  14  15
ATOM     15  C   UNL     1      63.885  29.967  61.788  1.00  0.00     0.000 C 
BRANCH  15  16
ATOM     16  C   UNL     1      64.751  30.748  60.781  1.00  0.00     0.000 C 
BRANCH  16  17
ATOM     17  C   UNL     1      64.728  30.137  59.370  1.00  0.00    -0.000 C 
BRANCH  17  18
ATOM     18  C   UNL     1      63.995  31.027  58.354  1.00  0.00    -0.000 C 
BRANCH  18  19
ATOM     19  C   UNL     1      63.216  30.215  57.309  1.00  0.00    -0.003 C 
ATOM     20  C   UNL     1      62.081  31.040  56.708  1.00  0.00     0.004 C 
ENDBRANCH  18  19
ENDBRANCH  17  18
ENDBRANCH  16  17
ENDBRANCH  15  16
ENDBRANCH  14  15
ENDBRANCH  13  14
ENDBRANCH   2  13
TORSDOF 15
ENDMDL
MODEL 3
REMARK VINA RESULT:    -3.240      3.451      5.888
REMARK INTER + INTRA:          -8.752
REMARK INTER:                  -5.799
REMARK INTRA:                  -2.953
REMARK UNBOUND:                -2.670
REMARK SMILES CCCCCCCCC=CCCCCCCCC(=O)[O-]
REMARK SMILES IDX 10 1 9 2 11 3 12 4 13 5 14 6 15 7 16 8 17 9 18 10 19 11
REMARK SMILES IDX 20 12 8 13 7 14 6 15 5 16 4 17 3 18 2 19 1 20
REMARK H PARENT
REMARK Flexibility Score: inf
ROOT
ATOM      1  C   UNL     1      62.209  31.327  57.876  1.00  0.00    -0.031 C 
ATOM      2  C   UNL     1      61.292  32.131  58.447  1.00  0.00    -0.031 C 
ENDROOT
BRANCH   1   3
ATOM      3  C   UNL     1      62.371  29.857  58.180  1.00  0.00     0.027 C 
BRANCH   3   4
ATOM      4  C   UNL     1      63.826  29.500  58.518  1.00  0.00     0.004 C 
BRANCH   4   5
ATOM      5  C   UNL     1      64.686  30.749  58.763  1.00  0.00     0.000 C 
BRANCH   5   6
ATOM      6  C   UNL     1      65.184  30.798  60.213  1.00  0.00     0.000 C 
BRANCH   6   7
ATOM      7  C   UNL     1      64.434  31.870  61.017  1.00  0.00     0.000 C 
BRANCH   7   8
ATOM      8  C   UNL     1      64.417  33.236  60.312  1.00  0.00     0.006 C 
BRANCH   8   9
ATOM      9  C   UNL     1      63.808  34.345  61.181  1.00  0.00     0.053 C 
BRANCH   9  10
ATOM     10  C   UNL     1      64.736  35.515  61.265  1.00  0.00     0.041 C 
ATOM     11  O   UNL     1      65.188  36.043  60.213  1.00  0.00    -0.550 OA
ATOM     12  O   UNL     1      65.079  36.048  62.503  1.00  0.00    -0.550 OA
ENDBRANCH   9  10
ENDBRANCH   8   9
ENDBRANCH   7   8
ENDBRANCH   6   7
ENDBRANCH   5   6
ENDBRANCH   4   5
ENDBRANCH   3   4
ENDBRANCH   1   3
BRANCH   2  13
ATOM     13  C   UNL     1      60.351  31.714  59.551  1.00  0.00     0.027 C 
BRANCH  13  14
ATOM     14  C   UNL     1      60.857  32.143  60.938  1.00  0.00     0.004 C 
BRANCH  14  15
ATOM     15  C   UNL     1      60.779  31.044  62.017  1.00  0.00     0.000 C 
BRANCH  15  16
ATOM     16  C   UNL     1      61.758  29.870  61.834  1.00  0.00     0.000 C 
BRANCH  16  17
ATOM     17  C   UNL     1      61.063  28.574  61.383  1.00  0.00    -0.000 C 
BRANCH  17  18
ATOM     18  C   UNL     1      61.849  27.315  61.778  1.00  0.00    -0.000 C 
BRANCH  18  19
ATOM     19  C   UNL     1      63.346  27.426  61.454  1.00  0.00    -0.003 C 
ATOM     20  C   UNL     1      63.784  26.320  60.497  1.00  0.00     0.004 C 
ENDBRANCH  18  19
ENDBRANCH  17  18
ENDBRANCH  16  17
ENDBRANCH  15  16
ENDBRANCH  14  15
ENDBRANCH  13  14
ENDBRANCH   2  13
TORSDOF 15
ENDMDL
MODEL 4
REMARK VINA RESULT:    -3.210     11.338     13.198
REMARK INTER + INTRA:          -8.695
REMARK INTER:                  -6.261
REMARK INTRA:                  -2.434
REMARK UNBOUND:                -2.670
REMARK SMILES CCCCCCCCC=CCCCCCCCC(=O)[O-]
REMARK SMILES IDX 10 1 9 2 11 3 12 4 13 5 14 6 15 7 16 8 17 9 18 10 19 11
REMARK SMILES IDX 20 12 8 13 7 14 6 15 5 16 4 17 3 18 2 19 1 20
REMARK H PARENT
REMARK Flexibility Score: inf
ROOT
ATOM      1  C   UNL     1      57.245  28.944  51.252  1.00  0.00    -0.031 C 
ATOM      2  C   UNL     1      56.008  29.335  51.614  1.00  0.00    -0.031 C 
ENDROOT
BRANCH   1   3
ATOM      3  C   UNL     1      57.630  28.482  49.868  1.00  0.00     0.027 C 
BRANCH   3   4
ATOM      4  C   UNL     1      58.937  29.132  49.391  1.00  0.00     0.004 C 
BRANCH   4   5
ATOM      5  C   UNL     1      60.104  28.134  49.365  1.00  0.00     0.000 C 
BRANCH   5   6
ATOM      6  C   UNL     1      59.591  26.688  49.354  1.00  0.00     0.000 C 
BRANCH   6   7
ATOM      7  C   UNL     1      60.198  25.880  50.510  1.00  0.00     0.000 C 
BRANCH   7   8
ATOM      8  C   UNL     1      60.083  24.363  50.297  1.00  0.00     0.006 C 
BRANCH   8   9
ATOM      9  C   UNL     1      61.439  23.697  50.025  1.00  0.00     0.053 C 
BRANCH   9  10
ATOM     10  C   UNL     1      61.268  22.229  49.796  1.00  0.00     0.041 C 
ATOM     11  O   UNL     1      61.464  21.413  50.736  1.00  0.00    -0.550 OA
ATOM     12  O   UNL     1      60.860  21.759  48.552  1.00  0.00    -0.550 OA
ENDBRANCH   9  10
ENDBRANCH   8   9
ENDBRANCH   7   8
ENDBRANCH   6   7
ENDBRANCH   5   6
ENDBRANCH   4   5
ENDBRANCH   3   4
ENDBRANCH   1   3
BRANCH   2  13
ATOM     13  C   UNL     1      54.793  29.276  50.721  1.00  0.00     0.027 C 
BRANCH  13  14
ATOM     14  C   UNL     1      53.982  27.985  50.928  1.00  0.00     0.004 C 
BRANCH  14  15
ATOM     15  C   UNL     1      54.045  26.994  49.748  1.00  0.00     0.000 C 
BRANCH  15  16
ATOM     16  C   UNL     1      54.946  25.764  49.969  1.00  0.00     0.000 C 
BRANCH  16  17
ATOM     17  C   UNL     1      55.253  25.505  51.453  1.00  0.00    -0.000 C 
BRANCH  17  18
ATOM     18  C   UNL     1      56.761  25.417  51.737  1.00  0.00    -0.000 C 
BRANCH  18  19
ATOM     19  C   UNL     1      57.081  25.400  53.239  1.00  0.00    -0.003 C 
ATOM     20  C   UNL     1      56.305  26.488  53.977  1.00  0.00     0.004 C 
ENDBRANCH  18  19
ENDBRANCH  17  18
ENDBRANCH  16  17
ENDBRANCH  15  16
ENDBRANCH  14  15
ENDBRANCH  13  14
ENDBRANCH   2  13
TORSDOF 15
ENDMDL
MODEL 5
REMARK VINA RESULT:    -3.188     10.675     12.709
REMARK INTER + INTRA:          -8.654
REMARK INTER:                  -5.559
REMARK INTRA:                  -3.095
REMARK UNBOUND:                -2.670
REMARK SMILES CCCCCCCCC=CCCCCCCCC(=O)[O-]
REMARK SMILES IDX 10 1 9 2 11 3 12 4 13 5 14 6 15 7 16 8 17 9 18 10 19 11
REMARK SMILES IDX 20 12 8 13 7 14 6 15 5 16 4 17 3 18 2 19 1 20
REMARK H PARENT
REMARK Flexibility Score: inf
ROOT
ATOM      1  C   UNL     1      59.993  25.718  50.043  1.00  0.00    -0.031 C 
ATOM      2  C   UNL     1      59.285  26.639  49.364  1.00  0.00    -0.031 C 
ENDROOT
BRANCH   1   3
ATOM      3  C   UNL     1      61.403  25.915  50.544  1.00  0.00     0.027 C 
BRANCH   3   4
ATOM      4  C   UNL     1      61.443  26.766  51.821  1.00  0.00     0.004 C 
BRANCH   4   5
ATOM      5  C   UNL     1      62.362  27.988  51.674  1.00  0.00     0.000 C 
BRANCH   5   6
ATOM      6  C   UNL     1      63.254  27.859  50.433  1.00  0.00     0.000 C 
BRANCH   6   7
ATOM      7  C   UNL     1      63.200  29.135  49.581  1.00  0.00     0.000 C 
BRANCH   7   8
ATOM      8  C   UNL     1      63.003  30.404  50.425  1.00  0.00     0.006 C 
BRANCH   8   9
ATOM      9  C   UNL     1      62.005  31.386  49.797  1.00  0.00     0.053 C 
BRANCH   9  10
ATOM     10  C   UNL     1      62.725  32.535  49.166  1.00  0.00     0.041 C 
ATOM     11  O   UNL     1      63.985  32.561  49.148  1.00  0.00    -0.550 OA
ATOM     12  O   UNL     1      62.007  33.566  48.568  1.00  0.00    -0.550 OA
ENDBRANCH   9  10
ENDBRANCH   8   9
ENDBRANCH   7   8
ENDBRANCH   6   7
ENDBRANCH   5   6
ENDBRANCH   4   5
ENDBRANCH   3   4
ENDBRANCH   1   3
BRANCH   2  13
ATOM     13  C   UNL     1      59.824  27.973  48.908  1.00  0.00     0.027 C 
BRANCH  13  14
ATOM     14  C   UNL     1      58.940  29.145  49.370  1.00  0.00     0.004 C 
BRANCH  14  15
ATOM     15  C   UNL     1      59.000  29.434  50.883  1.00  0.00     0.000 C 
BRANCH  15  16
ATOM     16  C   UNL     1      57.705  29.136  51.662  1.00  0.00     0.000 C 
BRANCH  16  17
ATOM     17  C   UNL     1      57.770  27.817  52.451  1.00  0.00    -0.000 C 
BRANCH  17  18
ATOM     18  C   UNL     1      56.613  26.866  52.108  1.00  0.00    -0.000 C 
BRANCH  18  19
ATOM     19  C   UNL     1      55.866  27.281  50.831  1.00  0.00    -0.003 C 
ATOM     20  C   UNL     1      55.693  26.093  49.887  1.00  0.00     0.004 C 
ENDBRANCH  18  19
ENDBRANCH  17  18
ENDBRANCH  16  17
ENDBRANCH  15  16
ENDBRANCH  14  15
ENDBRANCH  13  14
ENDBRANCH   2  13
TORSDOF 15
ENDMDL
MODEL 6
REMARK VINA RESULT:    -3.188      9.961     12.429
REMARK INTER + INTRA:          -8.654
REMARK INTER:                  -5.490
REMARK INTRA:                  -3.164
REMARK UNBOUND:                -2.670
REMARK SMILES CCCCCCCCC=CCCCCCCCC(=O)[O-]
REMARK SMILES IDX 10 1 9 2 11 3 12 4 13 5 14 6 15 7 16 8 17 9 18 10 19 11
REMARK SMILES IDX 20 12 8 13 7 14 6 15 5 16 4 17 3 18 2 19 1 20
REMARK H PARENT
REMARK Flexibility Score: inf
ROOT
ATOM      1  C   UNL     1      57.944  29.366  51.083  1.00  0.00    -0.031 C 
ATOM      2  C   UNL     1      58.161  29.080  49.785  1.00  0.00    -0.031 C 
ENDROOT
BRANCH   1   3
ATOM      3  C   UNL     1      59.029  29.650  52.093  1.00  0.00     0.027 C 
BRANCH   3   4
ATOM      4  C   UNL     1      59.155  28.523  53.128  1.00  0.00     0.004 C 
BRANCH   4   5
ATOM      5  C   UNL     1      60.452  27.720  52.956  1.00  0.00     0.000 C 
BRANCH   5   6
ATOM      6  C   UNL     1      61.665  28.653  52.839  1.00  0.00     0.000 C 
BRANCH   6   7
ATOM      7  C   UNL     1      62.663  28.130  51.796  1.00  0.00     0.000 C 
BRANCH   7   8
ATOM      8  C   UNL     1      63.338  29.260  51.003  1.00  0.00     0.006 C 
BRANCH   8   9
ATOM      9  C   UNL     1      62.411  30.460  50.774  1.00  0.00     0.053 C 
BRANCH   9  10
ATOM     10  C   UNL     1      62.787  31.184  49.520  1.00  0.00     0.041 C 
ATOM     11  O   UNL     1      62.250  32.289  49.240  1.00  0.00    -0.550 OA
ATOM     12  O   UNL     1      63.754  30.655  48.672  1.00  0.00    -0.550 OA
ENDBRANCH   9  10
ENDBRANCH   8   9
ENDBRANCH   7   8
ENDBRANCH   6   7
ENDBRANCH   5   6
ENDBRANCH   4   5
ENDBRANCH   3   4
ENDBRANCH   1   3
BRANCH   2  13
ATOM     13  C   UNL     1      59.523  28.898  49.161  1.00  0.00     0.027 C 
BRANCH  13  14
ATOM     14  C   UNL     1      60.034  27.453  49.294  1.00  0.00     0.004 C 
BRANCH  14  15
ATOM     15  C   UNL     1      58.927  26.379  49.281  1.00  0.00     0.000 C 
BRANCH  15  16
ATOM     16  C   UNL     1      58.882  25.464  50.519  1.00  0.00     0.000 C 
BRANCH  16  17
ATOM     17  C   UNL     1      57.525  25.501  51.242  1.00  0.00    -0.000 C 
BRANCH  17  18
ATOM     18  C   UNL     1      56.375  25.926  50.315  1.00  0.00    -0.000 C 
BRANCH  18  19
ATOM     19  C   UNL     1      55.304  26.751  51.042  1.00  0.00    -0.003 C 
ATOM     20  C   UNL     1      54.660  27.766  50.100  1.00  0.00     0.004 C 
ENDBRANCH  18  19
ENDBRANCH  17  18
ENDBRANCH  16  17
ENDBRANCH  15  16
ENDBRANCH  14  15
ENDBRANCH  13  14
ENDBRANCH   2  13
TORSDOF 15
ENDMDL
MODEL 7
REMARK VINA RESULT:    -3.165     10.654     12.952
REMARK INTER + INTRA:          -8.610
REMARK INTER:                  -5.538
REMARK INTRA:                  -3.072
REMARK UNBOUND:                -2.670
REMARK SMILES CCCCCCCCC=CCCCCCCCC(=O)[O-]
REMARK SMILES IDX 10 1 9 2 11 3 12 4 13 5 14 6 15 7 16 8 17 9 18 10 19 11
REMARK SMILES IDX 20 12 8 13 7 14 6 15 5 16 4 17 3 18 2 19 1 20
REMARK H PARENT
REMARK Flexibility Score: inf
ROOT
ATOM      1  C   UNL     1      54.430  25.815  52.307  1.00  0.00    -0.031 C 
ATOM      2  C   UNL     1      55.469  25.581  53.130  1.00  0.00    -0.031 C 
ENDROOT
BRANCH   1   3
ATOM      3  C   UNL     1      54.335  25.326  50.882  1.00  0.00     0.027 C 
BRANCH   3   4
ATOM      4  C   UNL     1      54.703  26.425  49.875  1.00  0.00     0.004 C 
BRANCH   4   5
ATOM      5  C   UNL     1      53.720  27.605  49.922  1.00  0.00     0.000 C 
BRANCH   5   6
ATOM      6  C   UNL     1      54.438  28.903  50.313  1.00  0.00     0.000 C 
BRANCH   6   7
ATOM      7  C   UNL     1      55.949  28.673  50.465  1.00  0.00     0.000 C 
BRANCH   7   8
ATOM      8  C   UNL     1      56.498  29.205  51.798  1.00  0.00     0.006 C 
BRANCH   8   9
ATOM      9  C   UNL     1      55.397  29.446  52.840  1.00  0.00     0.053 C 
BRANCH   9  10
ATOM     10  C   UNL     1      55.390  30.877  53.276  1.00  0.00     0.041 C 
ATOM     11  O   UNL     1      54.571  31.690  52.769  1.00  0.00    -0.550 OA
ATOM     12  O   UNL     1      56.266  31.310  54.265  1.00  0.00    -0.550 OA
ENDBRANCH   9  10
ENDBRANCH   8   9
ENDBRANCH   7   8
ENDBRANCH   6   7
ENDBRANCH   5   6
ENDBRANCH   4   5
ENDBRANCH   3   4
ENDBRANCH   1   3
BRANCH   2  13
ATOM     13  C   UNL     1      56.744  24.882  52.727  1.00  0.00     0.027 C 
BRANCH  13  14
ATOM     14  C   UNL     1      57.784  25.858  52.151  1.00  0.00     0.004 C 
BRANCH  14  15
ATOM     15  C   UNL     1      58.620  25.289  50.987  1.00  0.00     0.000 C 
BRANCH  15  16
ATOM     16  C   UNL     1      58.492  26.047  49.652  1.00  0.00     0.000 C 
BRANCH  16  17
ATOM     17  C   UNL     1      59.703  26.947  49.355  1.00  0.00    -0.000 C 
BRANCH  17  18
ATOM     18  C   UNL     1      59.310  28.419  49.159  1.00  0.00    -0.000 C 
BRANCH  18  19
ATOM     19  C   UNL     1      60.059  29.363  50.112  1.00  0.00    -0.003 C 
ATOM     20  C   UNL     1      60.224  28.732  51.492  1.00  0.00     0.004 C 
ENDBRANCH  18  19
ENDBRANCH  17  18
ENDBRANCH  16  17
ENDBRANCH  15  16
ENDBRANCH  14  15
ENDBRANCH  13  14
ENDBRANCH   2  13
TORSDOF 15
ENDMDL
MODEL 8
REMARK VINA RESULT:    -3.115      3.549      6.518
REMARK INTER + INTRA:          -8.517
REMARK INTER:                  -5.785
REMARK INTRA:                  -2.732
REMARK UNBOUND:                -2.670
REMARK SMILES CCCCCCCCC=CCCCCCCCC(=O)[O-]
REMARK SMILES IDX 10 1 9 2 11 3 12 4 13 5 14 6 15 7 16 8 17 9 18 10 19 11
REMARK SMILES IDX 20 12 8 13 7 14 6 15 5 16 4 17 3 18 2 19 1 20
REMARK H PARENT
REMARK Flexibility Score: inf
ROOT
ATOM      1  C   UNL     1      64.454  30.408  60.079  1.00  0.00    -0.031 C 
ATOM      2  C   UNL     1      63.708  29.291  60.177  1.00  0.00    -0.031 C 
ENDROOT
BRANCH   1   3
ATOM      3  C   UNL     1      64.525  31.490  61.129  1.00  0.00     0.027 C 
BRANCH   3   4
ATOM      4  C   UNL     1      64.563  32.892  60.504  1.00  0.00     0.004 C 
BRANCH   4   5
ATOM      5  C   UNL     1      64.173  33.985  61.509  1.00  0.00     0.000 C 
BRANCH   5   6
ATOM      6  C   UNL     1      64.536  35.377  60.976  1.00  0.00     0.000 C 
BRANCH   6   7
ATOM      7  C   UNL     1      63.289  36.267  60.868  1.00  0.00     0.000 C 
BRANCH   7   8
ATOM      8  C   UNL     1      61.983  35.459  60.853  1.00  0.00     0.006 C 
BRANCH   8   9
ATOM      9  C   UNL     1      60.734  36.350  60.808  1.00  0.00     0.053 C 
BRANCH   9  10
ATOM     10  C   UNL     1      60.107  36.309  59.450  1.00  0.00     0.041 C 
ATOM     11  O   UNL     1      59.060  36.969  59.215  1.00  0.00    -0.550 OA
ATOM     12  O   UNL     1      60.696  35.567  58.432  1.00  0.00    -0.550 OA
ENDBRANCH   9  10
ENDBRANCH   8   9
ENDBRANCH   7   8
ENDBRANCH   6   7
ENDBRANCH   5   6
ENDBRANCH   4   5
ENDBRANCH   3   4
ENDBRANCH   1   3
BRANCH   2  13
ATOM     13  C   UNL     1      62.750  28.995  61.305  1.00  0.00     0.027 C 
BRANCH  13  14
ATOM     14  C   UNL     1      61.299  29.350  60.942  1.00  0.00     0.004 C 
BRANCH  14  15
ATOM     15  C   UNL     1      60.724  30.557  61.711  1.00  0.00     0.000 C 
BRANCH  15  16
ATOM     16  C   UNL     1      61.046  31.937  61.107  1.00  0.00     0.000 C 
BRANCH  16  17
ATOM     17  C   UNL     1      60.432  32.138  59.711  1.00  0.00    -0.000 C 
BRANCH  17  18
ATOM     18  C   UNL     1      61.493  32.166  58.599  1.00  0.00    -0.000 C 
BRANCH  18  19
ATOM     19  C   UNL     1      61.160  31.214  57.441  1.00  0.00    -0.003 C 
ATOM     20  C   UNL     1      62.400  30.447  56.989  1.00  0.00     0.004 C 
ENDBRANCH  18  19
ENDBRANCH  17  18
ENDBRANCH  16  17
ENDBRANCH  15  16
ENDBRANCH  14  15
ENDBRANCH  13  14
ENDBRANCH   2  13
TORSDOF 15
ENDMDL
MODEL 9
REMARK VINA RESULT:    -3.096      1.493      3.298
REMARK INTER + INTRA:          -8.481
REMARK INTER:                  -5.790
REMARK INTRA:                  -2.691
REMARK UNBOUND:                -2.670
REMARK SMILES CCCCCCCCC=CCCCCCCCC(=O)[O-]
REMARK SMILES IDX 10 1 9 2 11 3 12 4 13 5 14 6 15 7 16 8 17 9 18 10 19 11
REMARK SMILES IDX 20 12 8 13 7 14 6 15 5 16 4 17 3 18 2 19 1 20
REMARK H PARENT
REMARK Flexibility Score: inf
ROOT
ATOM      1  C   UNL     1      64.454  32.102  57.934  1.00  0.00    -0.031 C 
ATOM      2  C   UNL     1      64.170  33.403  57.735  1.00  0.00    -0.031 C 
ENDROOT
BRANCH   1   3
ATOM      3  C   UNL     1      65.731  31.586  58.550  1.00  0.00     0.027 C 
BRANCH   3   4
ATOM      4  C   UNL     1      65.457  30.689  59.766  1.00  0.00     0.004 C 
BRANCH   4   5
ATOM      5  C   UNL     1      63.968  30.663  60.142  1.00  0.00     0.000 C 
BRANCH   5   6
ATOM      6  C   UNL     1      63.785  30.481  61.654  1.00  0.00     0.000 C 
BRANCH   6   7
ATOM      7  C   UNL     1      62.382  29.949  61.980  1.00  0.00     0.000 C 
BRANCH   7   8
ATOM      8  C   UNL     1      62.038  28.669  61.203  1.00  0.00     0.006 C 
BRANCH   8   9
ATOM      9  C   UNL     1      62.976  27.502  61.538  1.00  0.00     0.053 C 
BRANCH   9  10
ATOM     10  C   UNL     1      62.190  26.293  61.937  1.00  0.00     0.041 C 
ATOM     11  O   UNL     1      61.724  26.198  63.104  1.00  0.00    -0.550 OA
ATOM     12  O   UNL     1      61.943  25.284  61.013  1.00  0.00    -0.550 OA
ENDBRANCH   9  10
ENDBRANCH   8   9
ENDBRANCH   7   8
ENDBRANCH   6   7
ENDBRANCH   5   6
ENDBRANCH   4   5
ENDBRANCH   3   4
ENDBRANCH   1   3
BRANCH   2  13
ATOM     13  C   UNL     1      65.124  34.542  58.003  1.00  0.00     0.027 C 
BRANCH  13  14
ATOM     14  C   UNL     1      64.703  35.375  59.225  1.00  0.00     0.004 C 
BRANCH  14  15
ATOM     15  C   UNL     1      64.911  34.672  60.582  1.00  0.00     0.000 C 
BRANCH  15  16
ATOM     16  C   UNL     1      63.623  34.369  61.371  1.00  0.00     0.000 C 
BRANCH  16  17
ATOM     17  C   UNL     1      62.497  35.378  61.089  1.00  0.00    -0.000 C 
BRANCH  17  18
ATOM     18  C   UNL     1      61.231  34.707  60.534  1.00  0.00    -0.000 C 
BRANCH  18  19
ATOM     19  C   UNL     1      61.302  33.174  60.586  1.00  0.00    -0.003 C 
ATOM     20  C   UNL     1      60.944  32.561  59.235  1.00  0.00     0.004 C 
ENDBRANCH  18  19
ENDBRANCH  17  18
ENDBRANCH  16  17
ENDBRANCH  15  16
ENDBRANCH  14  15
ENDBRANCH  13  14
ENDBRANCH   2  13
TORSDOF 15
ENDMDL
