MODEL 1
REMARK VINA RESULT:    -8.348      0.000      0.000
REMARK INTER + INTRA:         -13.029
REMARK INTER:                 -11.276
REMARK INTRA:                  -1.753
REMARK UNBOUND:                -1.753
REMARK SMILES CC[C@@H](CC[C@@H](C)[C@@H]1CC[C@@H]2[C@H]3CC(=O)C4=CC(=O)CC[C@@]4(C)[C@@H]3CC[C@]21C)C(C)C
REMARK SMILES IDX 4 1 3 2 2 3 1 4 29 5 30 6 31 7 5 8 6 9 7 10 8 11 9 12 27 13
REMARK SMILES IDX 10 14 11 15 26 16 28 17 12 18 25 19 24 20 13 21 22 22 14 23
REMARK SMILES IDX 16 24 21 25 23 26 15 27 17 28 20 29 18 30 19 31
REMARK H PARENT
REMARK Flexibility Score: inf
ROOT
ATOM      1  C   UNL     1     128.963 175.186 121.472  1.00  0.00     0.004 C 
ENDROOT
BRANCH   1   2
ATOM      2  C   UNL     1     128.937 173.705 121.981  1.00  0.00    -0.009 C 
BRANCH   2   3
ATOM      3  C   UNL     1     128.238 172.805 120.921  1.00  0.00     0.000 C 
ATOM      4  C   UNL     1     126.796 172.428 121.255  1.00  0.00     0.004 C 
ENDBRANCH   2   3
BRANCH   2   5
ATOM      5  C   UNL     1     128.331 173.627 123.425  1.00  0.00    -0.014 C 
ATOM      6  C   UNL     1     128.838 172.426 124.238  1.00  0.00     0.007 C 
ATOM      7  C   UNL     1     128.476 174.931 124.228  1.00  0.00     0.007 C 
ENDBRANCH   2   5
ENDBRANCH   1   2
BRANCH   1   8
ATOM      8  C   UNL     1     128.382 175.363 120.051  1.00  0.00     0.004 C 
BRANCH   8   9
ATOM      9  C   UNL     1     127.703 176.732 119.771  1.00  0.00    -0.011 C 
ATOM     10  C   UNL     1     127.879 177.097 118.277  1.00  0.00     0.008 C 
BRANCH   9  11
ATOM     11  C   UNL     1     126.171 176.741 120.134  1.00  0.00    -0.002 C 
ATOM     12  C   UNL     1     125.417 177.852 119.343  1.00  0.00     0.005 C 
ATOM     13  C   UNL     1     125.724 176.984 121.615  1.00  0.00    -0.026 C 
ATOM     14  C   UNL     1     124.309 178.401 120.243  1.00  0.00     0.005 C 
ATOM     15  C   UNL     1     124.263 177.424 121.399  1.00  0.00    -0.001 C 
ATOM     16  C   UNL     1     125.649 175.721 122.517  1.00  0.00     0.007 C 
ATOM     17  C   UNL     1     126.606 178.091 122.274  1.00  0.00     0.012 C 
ATOM     18  C   UNL     1     123.541 177.866 122.693  1.00  0.00     0.004 C 
ATOM     19  C   UNL     1     124.938 176.016 123.858  1.00  0.00     0.005 C 
ATOM     20  C   UNL     1     123.526 176.662 123.696  1.00  0.00     0.003 C 
ATOM     21  C   UNL     1     122.104 178.310 122.376  1.00  0.00     0.085 C 
ATOM     22  C   UNL     1     122.836 177.029 125.070  1.00  0.00    -0.000 C 
ATOM     23  C   UNL     1     121.311 178.564 123.619  1.00  0.00     0.159 C 
ATOM     24  C   UNL     1     121.476 177.691 124.803  1.00  0.00     0.005 C 
ATOM     25  C   UNL     1     122.620 175.723 125.901  1.00  0.00     0.020 C 
ATOM     26  C   UNL     1     123.692 178.026 125.897  1.00  0.00     0.017 C 
ATOM     27  O   UNL     1     120.441 179.478 123.612  1.00  0.00    -0.295 OA
ATOM     28  C   UNL     1     120.457 177.573 125.675  1.00  0.00     0.055 C 
ATOM     29  C   UNL     1     121.786 175.943 127.169  1.00  0.00     0.081 C 
ATOM     30  C   UNL     1     120.543 176.717 126.868  1.00  0.00     0.156 C 
ATOM     31  O   UNL     1     119.569 176.664 127.665  1.00  0.00    -0.295 OA
ENDBRANCH   9  11
ENDBRANCH   8   9
ENDBRANCH   1   8
TORSDOF 6
ENDMDL
MODEL 2
REMARK VINA RESULT:    -8.346      1.535      2.531
REMARK INTER + INTRA:         -13.027
REMARK INTER:                 -11.323
REMARK INTRA:                  -1.704
REMARK UNBOUND:                -1.753
REMARK SMILES CC[C@@H](CC[C@@H](C)[C@@H]1CC[C@@H]2[C@H]3CC(=O)C4=CC(=O)CC[C@@]4(C)[C@@H]3CC[C@]21C)C(C)C
REMARK SMILES IDX 4 1 3 2 2 3 1 4 29 5 30 6 31 7 5 8 6 9 7 10 8 11 9 12 27 13
REMARK SMILES IDX 10 14 11 15 26 16 28 17 12 18 25 19 24 20 13 21 22 22 14 23
REMARK SMILES IDX 16 24 21 25 23 26 15 27 17 28 20 29 18 30 19 31
REMARK H PARENT
REMARK Flexibility Score: inf
ROOT
ATOM      1  C   UNL     1     126.911 174.320 121.565  1.00  0.00     0.004 C 
ENDROOT
BRANCH   1   2
ATOM      2  C   UNL     1     128.194 174.536 122.437  1.00  0.00    -0.009 C 
BRANCH   2   3
ATOM      3  C   UNL     1     129.309 173.557 121.970  1.00  0.00     0.000 C 
ATOM      4  C   UNL     1     129.208 173.125 120.508  1.00  0.00     0.004 C 
ENDBRANCH   2   3
BRANCH   2   5
ATOM      5  C   UNL     1     127.843 174.468 123.964  1.00  0.00    -0.014 C 
ATOM      6  C   UNL     1     127.809 175.843 124.647  1.00  0.00     0.007 C 
ATOM      7  C   UNL     1     126.561 173.675 124.268  1.00  0.00     0.007 C 
ENDBRANCH   2   5
ENDBRANCH   1   2
BRANCH   1   8
ATOM      8  C   UNL     1     126.443 175.594 120.825  1.00  0.00     0.004 C 
BRANCH   8   9
ATOM      9  C   UNL     1     125.998 176.772 121.736  1.00  0.00    -0.011 C 
ATOM     10  C   UNL     1     126.449 178.110 121.102  1.00  0.00     0.008 C 
BRANCH   9  11
ATOM     11  C   UNL     1     124.442 176.805 121.976  1.00  0.00    -0.002 C 
ATOM     12  C   UNL     1     123.788 178.001 121.220  1.00  0.00     0.005 C 
ATOM     13  C   UNL     1     123.883 176.945 123.432  1.00  0.00    -0.026 C 
ATOM     14  C   UNL     1     122.625 178.514 122.071  1.00  0.00     0.005 C 
ATOM     15  C   UNL     1     122.458 177.452 123.137  1.00  0.00    -0.001 C 
ATOM     16  C   UNL     1     123.699 175.619 124.219  1.00  0.00     0.007 C 
ATOM     17  C   UNL     1     124.739 177.966 124.247  1.00  0.00     0.012 C 
ATOM     18  C   UNL     1     121.645 177.814 124.402  1.00  0.00     0.004 C 
ATOM     19  C   UNL     1     122.889 175.831 125.519  1.00  0.00     0.005 C 
ATOM     20  C   UNL     1     121.514 176.537 125.298  1.00  0.00     0.003 C 
ATOM     21  C   UNL     1     120.251 178.332 124.008  1.00  0.00     0.085 C 
ATOM     22  C   UNL     1     120.724 176.818 126.639  1.00  0.00    -0.000 C 
ATOM     23  C   UNL     1     119.367 178.514 125.201  1.00  0.00     0.159 C 
ATOM     24  C   UNL     1     119.410 177.545 126.320  1.00  0.00     0.005 C 
ATOM     25  C   UNL     1     120.405 175.459 127.341  1.00  0.00     0.020 C 
ATOM     26  C   UNL     1     121.537 177.715 127.609  1.00  0.00     0.017 C 
ATOM     27  O   UNL     1     118.526 179.455 125.201  1.00  0.00    -0.295 OA
ATOM     28  C   UNL     1     118.320 177.394 127.096  1.00  0.00     0.055 C 
ATOM     29  C   UNL     1     119.476 175.606 128.552  1.00  0.00     0.081 C 
ATOM     30  C   UNL     1     118.284 176.444 128.218  1.00  0.00     0.156 C 
ATOM     31  O   UNL     1     117.247 176.362 128.928  1.00  0.00    -0.295 OA
ENDBRANCH   9  11
ENDBRANCH   8   9
ENDBRANCH   1   8
TORSDOF 6
ENDMDL
MODEL 3
REMARK VINA RESULT:    -8.318      2.846      7.811
REMARK INTER + INTRA:         -12.989
REMARK INTER:                 -12.061
REMARK INTRA:                  -0.928
REMARK UNBOUND:                -1.753
REMARK SMILES CC[C@@H](CC[C@@H](C)[C@@H]1CC[C@@H]2[C@H]3CC(=O)C4=CC(=O)CC[C@@]4(C)[C@@H]3CC[C@]21C)C(C)C
REMARK SMILES IDX 4 1 3 2 2 3 1 4 29 5 30 6 31 7 5 8 6 9 7 10 8 11 9 12 27 13
REMARK SMILES IDX 10 14 11 15 26 16 28 17 12 18 25 19 24 20 13 21 22 22 14 23
REMARK SMILES IDX 16 24 21 25 23 26 15 27 17 28 20 29 18 30 19 31
REMARK H PARENT
REMARK Flexibility Score: inf
ROOT
ATOM      1  C   UNL     1     121.624 174.824 128.572  1.00  0.00     0.004 C 
ENDROOT
BRANCH   1   2
ATOM      2  C   UNL     1     120.288 174.253 127.989  1.00  0.00    -0.009 C 
BRANCH   2   3
ATOM      3  C   UNL     1     119.225 174.162 129.122  1.00  0.00     0.000 C 
ATOM      4  C   UNL     1     118.198 175.292 129.125  1.00  0.00     0.004 C 
ENDBRANCH   2   3
BRANCH   2   5
ATOM      5  C   UNL     1     120.550 172.915 127.212  1.00  0.00    -0.014 C 
ATOM      6  C   UNL     1     120.338 173.037 125.696  1.00  0.00     0.007 C 
ATOM      7  C   UNL     1     121.914 172.277 127.524  1.00  0.00     0.007 C 
ENDBRANCH   2   5
ENDBRANCH   1   2
BRANCH   1   8
ATOM      8  C   UNL     1     122.128 176.089 127.841  1.00  0.00     0.004 C 
BRANCH   8   9
ATOM      9  C   UNL     1     121.026 176.970 127.190  1.00  0.00    -0.011 C 
ATOM     10  C   UNL     1     120.541 178.026 128.213  1.00  0.00     0.008 C 
BRANCH   9  11
ATOM     11  C   UNL     1     121.517 177.697 125.882  1.00  0.00    -0.002 C 
ATOM     12  C   UNL     1     120.404 177.691 124.791  1.00  0.00     0.005 C 
ATOM     13  C   UNL     1     122.775 177.159 125.120  1.00  0.00    -0.026 C 
ATOM     14  C   UNL     1     121.084 177.568 123.427  1.00  0.00     0.005 C 
ATOM     15  C   UNL     1     122.552 177.788 123.731  1.00  0.00    -0.001 C 
ATOM     16  C   UNL     1     124.147 177.702 125.607  1.00  0.00     0.007 C 
ATOM     17  C   UNL     1     122.769 175.598 125.093  1.00  0.00     0.012 C 
ATOM     18  C   UNL     1     123.586 177.350 122.668  1.00  0.00     0.004 C 
ATOM     19  C   UNL     1     125.287 177.341 124.627  1.00  0.00     0.005 C 
ATOM     20  C   UNL     1     125.014 177.775 123.152  1.00  0.00     0.003 C 
ATOM     21  C   UNL     1     123.268 178.005 121.314  1.00  0.00     0.085 C 
ATOM     22  C   UNL     1     126.150 177.337 122.143  1.00  0.00    -0.000 C 
ATOM     23  C   UNL     1     124.349 177.761 120.309  1.00  0.00     0.159 C 
ATOM     24  C   UNL     1     125.771 177.774 120.721  1.00  0.00     0.005 C 
ATOM     25  C   UNL     1     127.493 178.022 122.553  1.00  0.00     0.020 C 
ATOM     26  C   UNL     1     126.345 175.798 122.128  1.00  0.00     0.017 C 
ATOM     27  O   UNL     1     124.034 177.629 119.094  1.00  0.00    -0.295 OA
ATOM     28  C   UNL     1     126.713 178.078 119.807  1.00  0.00     0.055 C 
ATOM     29  C   UNL     1     128.615 177.815 121.529  1.00  0.00     0.081 C 
ATOM     30  C   UNL     1     128.144 178.121 120.144  1.00  0.00     0.156 C 
ATOM     31  O   UNL     1     128.985 178.385 119.245  1.00  0.00    -0.295 OA
ENDBRANCH   9  11
ENDBRANCH   8   9
ENDBRANCH   1   8
TORSDOF 6
ENDMDL
MODEL 4
REMARK VINA RESULT:    -8.258      2.840      7.780
REMARK INTER + INTRA:         -12.907
REMARK INTER:                 -11.528
REMARK INTRA:                  -1.379
REMARK UNBOUND:                -1.753
REMARK SMILES CC[C@@H](CC[C@@H](C)[C@@H]1CC[C@@H]2[C@H]3CC(=O)C4=CC(=O)CC[C@@]4(C)[C@@H]3CC[C@]21C)C(C)C
REMARK SMILES IDX 4 1 3 2 2 3 1 4 29 5 30 6 31 7 5 8 6 9 7 10 8 11 9 12 27 13
REMARK SMILES IDX 10 14 11 15 26 16 28 17 12 18 25 19 24 20 13 21 22 22 14 23
REMARK SMILES IDX 16 24 21 25 23 26 15 27 17 28 20 29 18 30 19 31
REMARK H PARENT
REMARK Flexibility Score: inf
ROOT
ATOM      1  C   UNL     1     121.445 176.327 128.715  1.00  0.00     0.004 C 
ENDROOT
BRANCH   1   2
ATOM      2  C   UNL     1     121.012 174.841 128.482  1.00  0.00    -0.009 C 
BRANCH   2   3
ATOM      3  C   UNL     1     121.969 174.178 127.449  1.00  0.00     0.000 C 
ATOM      4  C   UNL     1     122.130 172.667 127.608  1.00  0.00     0.004 C 
ENDBRANCH   2   3
BRANCH   2   5
ATOM      5  C   UNL     1     119.486 174.758 128.126  1.00  0.00    -0.014 C 
ATOM      6  C   UNL     1     118.643 175.859 128.788  1.00  0.00     0.007 C 
ATOM      7  C   UNL     1     119.208 174.690 126.615  1.00  0.00     0.007 C 
ENDBRANCH   2   5
ENDBRANCH   1   2
BRANCH   1   8
ATOM      8  C   UNL     1     122.115 176.978 127.483  1.00  0.00     0.004 C 
BRANCH   8   9
ATOM      9  C   UNL     1     121.145 177.637 126.464  1.00  0.00    -0.011 C 
ATOM     10  C   UNL     1     120.342 178.757 127.168  1.00  0.00     0.008 C 
BRANCH   9  11
ATOM     11  C   UNL     1     121.889 178.236 125.211  1.00  0.00    -0.002 C 
ATOM     12  C   UNL     1     120.873 178.636 124.099  1.00  0.00     0.005 C 
ATOM     13  C   UNL     1     122.942 177.367 124.445  1.00  0.00    -0.026 C 
ATOM     14  C   UNL     1     121.531 178.373 122.744  1.00  0.00     0.005 C 
ATOM     15  C   UNL     1     122.981 178.103 123.091  1.00  0.00    -0.001 C 
ATOM     16  C   UNL     1     124.396 177.424 124.990  1.00  0.00     0.007 C 
ATOM     17  C   UNL     1     122.447 175.891 124.325  1.00  0.00     0.012 C 
ATOM     18  C   UNL     1     123.865 177.415 122.025  1.00  0.00     0.004 C 
ATOM     19  C   UNL     1     125.401 176.771 124.014  1.00  0.00     0.005 C 
ATOM     20  C   UNL     1     125.335 177.343 122.562  1.00  0.00     0.003 C 
ATOM     21  C   UNL     1     123.820 178.204 120.706  1.00  0.00     0.085 C 
ATOM     22  C   UNL     1     126.313 176.619 121.552  1.00  0.00    -0.000 C 
ATOM     23  C   UNL     1     124.807 177.681 119.711  1.00  0.00     0.159 C 
ATOM     24  C   UNL     1     126.145 177.224 120.151  1.00  0.00     0.005 C 
ATOM     25  C   UNL     1     127.786 176.824 122.029  1.00  0.00     0.020 C 
ATOM     26  C   UNL     1     126.015 175.100 121.449  1.00  0.00     0.017 C 
ATOM     27  O   UNL     1     124.514 177.716 118.483  1.00  0.00    -0.295 OA
ATOM     28  C   UNL     1     127.169 177.260 119.276  1.00  0.00     0.055 C 
ATOM     29  C   UNL     1     128.825 176.324 121.018  1.00  0.00     0.081 C 
ATOM     30  C   UNL     1     128.526 176.832 119.644  1.00  0.00     0.156 C 
ATOM     31  O   UNL     1     129.442 176.862 118.779  1.00  0.00    -0.295 OA
ENDBRANCH   9  11
ENDBRANCH   8   9
ENDBRANCH   1   8
TORSDOF 6
ENDMDL
MODEL 5
REMARK VINA RESULT:    -8.235      0.925      1.454
REMARK INTER + INTRA:         -12.876
REMARK INTER:                 -11.384
REMARK INTRA:                  -1.492
REMARK UNBOUND:                -1.753
REMARK SMILES CC[C@@H](CC[C@@H](C)[C@@H]1CC[C@@H]2[C@H]3CC(=O)C4=CC(=O)CC[C@@]4(C)[C@@H]3CC[C@]21C)C(C)C
REMARK SMILES IDX 4 1 3 2 2 3 1 4 29 5 30 6 31 7 5 8 6 9 7 10 8 11 9 12 27 13
REMARK SMILES IDX 10 14 11 15 26 16 28 17 12 18 25 19 24 20 13 21 22 22 14 23
REMARK SMILES IDX 16 24 21 25 23 26 15 27 17 28 20 29 18 30 19 31
REMARK H PARENT
REMARK Flexibility Score: inf
ROOT
ATOM      1  C   UNL     1     128.589 174.022 120.895  1.00  0.00     0.004 C 
ENDROOT
BRANCH   1   2
ATOM      2  C   UNL     1     128.649 173.142 122.189  1.00  0.00    -0.009 C 
BRANCH   2   3
ATOM      3  C   UNL     1     130.063 172.504 122.316  1.00  0.00     0.000 C 
ATOM      4  C   UNL     1     130.123 171.258 123.199  1.00  0.00     0.004 C 
ENDBRANCH   2   3
BRANCH   2   5
ATOM      5  C   UNL     1     127.454 172.128 122.225  1.00  0.00    -0.014 C 
ATOM      6  C   UNL     1     126.690 172.129 123.557  1.00  0.00     0.007 C 
ATOM      7  C   UNL     1     126.485 172.272 121.039  1.00  0.00     0.007 C 
ENDBRANCH   2   5
ENDBRANCH   1   2
BRANCH   1   8
ATOM      8  C   UNL     1     129.140 175.453 121.092  1.00  0.00     0.004 C 
BRANCH   8   9
ATOM      9  C   UNL     1     128.454 176.557 120.241  1.00  0.00    -0.011 C 
ATOM     10  C   UNL     1     128.834 176.369 118.752  1.00  0.00     0.008 C 
BRANCH   9  11
ATOM     11  C   UNL     1     126.886 176.555 120.385  1.00  0.00    -0.002 C 
ATOM     12  C   UNL     1     126.240 177.626 119.455  1.00  0.00     0.005 C 
ATOM     13  C   UNL     1     126.233 176.844 121.779  1.00  0.00    -0.026 C 
ATOM     14  C   UNL     1     125.011 178.189 120.170  1.00  0.00     0.005 C 
ATOM     15  C   UNL     1     124.813 177.254 121.344  1.00  0.00    -0.001 C 
ATOM     16  C   UNL     1     126.045 175.614 122.709  1.00  0.00     0.007 C 
ATOM     17  C   UNL     1     127.002 177.988 122.513  1.00  0.00     0.012 C 
ATOM     18  C   UNL     1     123.911 177.730 122.507  1.00  0.00     0.004 C 
ATOM     19  C   UNL     1     125.149 175.945 123.925  1.00  0.00     0.005 C 
ATOM     20  C   UNL     1     123.768 176.563 123.542  1.00  0.00     0.003 C 
ATOM     21  C   UNL     1     122.529 178.140 121.974  1.00  0.00     0.085 C 
ATOM     22  C   UNL     1     122.887 176.968 124.791  1.00  0.00    -0.000 C 
ATOM     23  C   UNL     1     121.567 178.426 123.084  1.00  0.00     0.159 C 
ATOM     24  C   UNL     1     121.572 177.599 124.312  1.00  0.00     0.005 C 
ATOM     25  C   UNL     1     122.570 175.690 125.632  1.00  0.00     0.020 C 
ATOM     26  C   UNL     1     123.608 178.007 125.692  1.00  0.00     0.017 C 
ATOM     27  O   UNL     1     120.696 179.326 122.921  1.00  0.00    -0.295 OA
ATOM     28  C   UNL     1     120.441 177.496 125.036  1.00  0.00     0.055 C 
ATOM     29  C   UNL     1     121.564 175.942 126.761  1.00  0.00     0.081 C 
ATOM     30  C   UNL     1     120.368 176.686 126.260  1.00  0.00     0.156 C 
ATOM     31  O   UNL     1     119.292 176.645 126.914  1.00  0.00    -0.295 OA
ENDBRANCH   9  11
ENDBRANCH   8   9
ENDBRANCH   1   8
TORSDOF 6
ENDMDL
MODEL 6
REMARK VINA RESULT:    -8.111      4.452      8.583
REMARK INTER + INTRA:         -12.709
REMARK INTER:                 -10.946
REMARK INTRA:                  -1.763
REMARK UNBOUND:                -1.753
REMARK SMILES CC[C@@H](CC[C@@H](C)[C@@H]1CC[C@@H]2[C@H]3CC(=O)C4=CC(=O)CC[C@@]4(C)[C@@H]3CC[C@]21C)C(C)C
REMARK SMILES IDX 4 1 3 2 2 3 1 4 29 5 30 6 31 7 5 8 6 9 7 10 8 11 9 12 27 13
REMARK SMILES IDX 10 14 11 15 26 16 28 17 12 18 25 19 24 20 13 21 22 22 14 23
REMARK SMILES IDX 16 24 21 25 23 26 15 27 17 28 20 29 18 30 19 31
REMARK H PARENT
REMARK Flexibility Score: inf
ROOT
ATOM      1  C   UNL     1     122.803 178.178 125.822  1.00  0.00     0.004 C 
ENDROOT
BRANCH   1   2
ATOM      2  C   UNL     1     122.603 178.185 124.269  1.00  0.00    -0.009 C 
BRANCH   2   3
ATOM      3  C   UNL     1     121.092 178.358 123.942  1.00  0.00     0.000 C 
ATOM      4  C   UNL     1     120.794 179.316 122.790  1.00  0.00     0.004 C 
ENDBRANCH   2   3
BRANCH   2   5
ATOM      5  C   UNL     1     123.288 176.933 123.617  1.00  0.00    -0.014 C 
ATOM      6  C   UNL     1     123.530 177.086 122.108  1.00  0.00     0.007 C 
ATOM      7  C   UNL     1     124.572 176.487 124.335  1.00  0.00     0.007 C 
ENDBRANCH   2   5
ENDBRANCH   1   2
BRANCH   1   8
ATOM      8  C   UNL     1     121.546 178.609 126.610  1.00  0.00     0.004 C 
BRANCH   8   9
ATOM      9  C   UNL     1     121.272 177.818 127.919  1.00  0.00    -0.011 C 
ATOM     10  C   UNL     1     120.828 178.801 129.030  1.00  0.00     0.008 C 
BRANCH   9  11
ATOM     11  C   UNL     1     120.175 176.702 127.741  1.00  0.00    -0.002 C 
ATOM     12  C   UNL     1     119.495 176.367 129.102  1.00  0.00     0.005 C 
ATOM     13  C   UNL     1     120.581 175.297 127.182  1.00  0.00    -0.026 C 
ATOM     14  C   UNL     1     119.163 174.874 129.107  1.00  0.00     0.005 C 
ATOM     15  C   UNL     1     119.393 174.446 127.673  1.00  0.00    -0.001 C 
ATOM     16  C   UNL     1     120.582 175.156 125.635  1.00  0.00     0.007 C 
ATOM     17  C   UNL     1     121.947 174.844 127.787  1.00  0.00     0.012 C 
ATOM     18  C   UNL     1     119.538 172.935 127.381  1.00  0.00     0.004 C 
ATOM     19  C   UNL     1     120.716 173.680 125.193  1.00  0.00     0.005 C 
ATOM     20  C   UNL     1     119.654 172.730 125.833  1.00  0.00     0.003 C 
ATOM     21  C   UNL     1     118.322 172.168 127.928  1.00  0.00     0.085 C 
ATOM     22  C   UNL     1     119.842 171.211 125.436  1.00  0.00    -0.000 C 
ATOM     23  C   UNL     1     118.330 170.734 127.502  1.00  0.00     0.159 C 
ATOM     24  C   UNL     1     118.778 170.359 126.142  1.00  0.00     0.005 C 
ATOM     25  C   UNL     1     119.680 171.061 123.889  1.00  0.00     0.020 C 
ATOM     26  C   UNL     1     121.235 170.674 125.859  1.00  0.00     0.017 C 
ATOM     27  O   UNL     1     117.869 169.860 128.289  1.00  0.00    -0.295 OA
ATOM     28  C   UNL     1     118.313 169.221 125.591  1.00  0.00     0.055 C 
ATOM     29  C   UNL     1     119.656 169.601 123.422  1.00  0.00     0.081 C 
ATOM     30  C   UNL     1     118.705 168.789 124.241  1.00  0.00     0.156 C 
ATOM     31  O   UNL     1     118.260 167.703 123.784  1.00  0.00    -0.295 OA
ENDBRANCH   9  11
ENDBRANCH   8   9
ENDBRANCH   1   8
TORSDOF 6
ENDMDL
MODEL 7
REMARK VINA RESULT:    -7.935      2.871      8.580
REMARK INTER + INTRA:         -12.470
REMARK INTER:                 -11.952
REMARK INTRA:                  -0.519
REMARK UNBOUND:                -1.753
REMARK SMILES CC[C@@H](CC[C@@H](C)[C@@H]1CC[C@@H]2[C@H]3CC(=O)C4=CC(=O)CC[C@@]4(C)[C@@H]3CC[C@]21C)C(C)C
REMARK SMILES IDX 4 1 3 2 2 3 1 4 29 5 30 6 31 7 5 8 6 9 7 10 8 11 9 12 27 13
REMARK SMILES IDX 10 14 11 15 26 16 28 17 12 18 25 19 24 20 13 21 22 22 14 23
REMARK SMILES IDX 16 24 21 25 23 26 15 27 17 28 20 29 18 30 19 31
REMARK H PARENT
REMARK Flexibility Score: inf
ROOT
ATOM      1  C   UNL     1     118.743 176.270 125.964  1.00  0.00     0.004 C 
ENDROOT
BRANCH   1   2
ATOM      2  C   UNL     1     118.031 177.462 126.687  1.00  0.00    -0.009 C 
BRANCH   2   3
ATOM      3  C   UNL     1     117.208 176.921 127.892  1.00  0.00     0.000 C 
ATOM      4  C   UNL     1     118.026 176.155 128.930  1.00  0.00     0.004 C 
ENDBRANCH   2   3
BRANCH   2   5
ATOM      5  C   UNL     1     117.219 178.327 125.661  1.00  0.00    -0.014 C 
ATOM      6  C   UNL     1     115.713 178.377 125.958  1.00  0.00     0.007 C 
ATOM      7  C   UNL     1     117.785 179.744 125.463  1.00  0.00     0.007 C 
ENDBRANCH   2   5
ENDBRANCH   1   2
BRANCH   1   8
ATOM      8  C   UNL     1     120.273 176.240 126.179  1.00  0.00     0.004 C 
BRANCH   8   9
ATOM      9  C   UNL     1     120.933 177.613 126.486  1.00  0.00    -0.011 C 
ATOM     10  C   UNL     1     121.937 177.451 127.653  1.00  0.00     0.008 C 
BRANCH   9  11
ATOM     11  C   UNL     1     121.675 178.227 125.240  1.00  0.00    -0.002 C 
ATOM     12  C   UNL     1     120.666 178.562 124.100  1.00  0.00     0.005 C 
ATOM     13  C   UNL     1     122.785 177.398 124.510  1.00  0.00    -0.026 C 
ATOM     14  C   UNL     1     121.366 178.310 122.764  1.00  0.00     0.005 C 
ATOM     15  C   UNL     1     122.818 178.113 123.145  1.00  0.00    -0.001 C 
ATOM     16  C   UNL     1     124.222 177.531 125.085  1.00  0.00     0.007 C 
ATOM     17  C   UNL     1     122.362 175.898 124.403  1.00  0.00     0.012 C 
ATOM     18  C   UNL     1     123.757 177.452 122.110  1.00  0.00     0.004 C 
ATOM     19  C   UNL     1     125.278 176.911 124.141  1.00  0.00     0.005 C 
ATOM     20  C   UNL     1     125.216 177.457 122.679  1.00  0.00     0.003 C 
ATOM     21  C   UNL     1     123.704 178.218 120.778  1.00  0.00     0.085 C 
ATOM     22  C   UNL     1     126.249 176.765 121.702  1.00  0.00    -0.000 C 
ATOM     23  C   UNL     1     124.736 177.727 119.812  1.00  0.00     0.159 C 
ATOM     24  C   UNL     1     126.083 177.340 120.287  1.00  0.00     0.005 C 
ATOM     25  C   UNL     1     127.700 177.046 122.206  1.00  0.00     0.020 C 
ATOM     26  C   UNL     1     126.024 175.232 121.617  1.00  0.00     0.017 C 
ATOM     27  O   UNL     1     124.468 177.730 118.578  1.00  0.00    -0.295 OA
ATOM     28  C   UNL     1     127.123 177.411 119.434  1.00  0.00     0.055 C 
ATOM     29  C   UNL     1     128.783 176.581 121.225  1.00  0.00     0.081 C 
ATOM     30  C   UNL     1     128.491 177.053 119.837  1.00  0.00     0.156 C 
ATOM     31  O   UNL     1     129.423 177.112 118.992  1.00  0.00    -0.295 OA
ENDBRANCH   9  11
ENDBRANCH   8   9
ENDBRANCH   1   8
TORSDOF 6
ENDMDL
MODEL 8
REMARK VINA RESULT:    -7.901      3.229      8.965
REMARK INTER + INTRA:         -12.425
REMARK INTER:                 -11.018
REMARK INTRA:                  -1.407
REMARK UNBOUND:                -1.753
REMARK SMILES CC[C@@H](CC[C@@H](C)[C@@H]1CC[C@@H]2[C@H]3CC(=O)C4=CC(=O)CC[C@@]4(C)[C@@H]3CC[C@]21C)C(C)C
REMARK SMILES IDX 4 1 3 2 2 3 1 4 29 5 30 6 31 7 5 8 6 9 7 10 8 11 9 12 27 13
REMARK SMILES IDX 10 14 11 15 26 16 28 17 12 18 25 19 24 20 13 21 22 22 14 23
REMARK SMILES IDX 16 24 21 25 23 26 15 27 17 28 20 29 18 30 19 31
REMARK H PARENT
REMARK Flexibility Score: inf
ROOT
ATOM      1  C   UNL     1     117.839 177.641 126.107  1.00  0.00     0.004 C 
ENDROOT
BRANCH   1   2
ATOM      2  C   UNL     1     117.950 178.823 125.087  1.00  0.00    -0.009 C 
BRANCH   2   3
ATOM      3  C   UNL     1     118.806 179.965 125.707  1.00  0.00     0.000 C 
ATOM      4  C   UNL     1     120.284 179.935 125.320  1.00  0.00     0.004 C 
ENDBRANCH   2   3
BRANCH   2   5
ATOM      5  C   UNL     1     116.528 179.255 124.584  1.00  0.00    -0.014 C 
ATOM      6  C   UNL     1     116.217 178.789 123.154  1.00  0.00     0.007 C 
ATOM      7  C   UNL     1     115.390 178.871 125.545  1.00  0.00     0.007 C 
ENDBRANCH   2   5
ENDBRANCH   1   2
BRANCH   1   8
ATOM      8  C   UNL     1     118.728 176.428 125.748  1.00  0.00     0.004 C 
BRANCH   8   9
ATOM      9  C   UNL     1     120.164 176.452 126.339  1.00  0.00    -0.011 C 
ATOM     10  C   UNL     1     120.155 175.789 127.738  1.00  0.00     0.008 C 
BRANCH   9  11
ATOM     11  C   UNL     1     121.216 175.721 125.422  1.00  0.00    -0.002 C 
ATOM     12  C   UNL     1     121.827 174.486 126.151  1.00  0.00     0.005 C 
ATOM     13  C   UNL     1     122.474 176.500 124.909  1.00  0.00    -0.026 C 
ATOM     14  C   UNL     1     123.287 174.358 125.713  1.00  0.00     0.005 C 
ATOM     15  C   UNL     1     123.405 175.325 124.553  1.00  0.00    -0.001 C 
ATOM     16  C   UNL     1     122.287 177.297 123.589  1.00  0.00     0.007 C 
ATOM     17  C   UNL     1     123.046 177.413 126.039  1.00  0.00     0.012 C 
ATOM     18  C   UNL     1     124.822 175.756 124.110  1.00  0.00     0.004 C 
ATOM     19  C   UNL     1     123.637 177.791 123.021  1.00  0.00     0.005 C 
ATOM     20  C   UNL     1     124.697 176.659 122.837  1.00  0.00     0.003 C 
ATOM     21  C   UNL     1     125.683 174.521 123.802  1.00  0.00     0.085 C 
ATOM     22  C   UNL     1     126.100 177.182 122.326  1.00  0.00    -0.000 C 
ATOM     23  C   UNL     1     126.996 174.895 123.190  1.00  0.00     0.159 C 
ATOM     24  C   UNL     1     127.079 176.005 122.215  1.00  0.00     0.005 C 
ATOM     25  C   UNL     1     125.921 177.840 120.920  1.00  0.00     0.020 C 
ATOM     26  C   UNL     1     126.718 178.219 123.302  1.00  0.00     0.017 C 
ATOM     27  O   UNL     1     128.014 174.195 123.453  1.00  0.00    -0.295 OA
ATOM     28  C   UNL     1     128.074 176.006 121.307  1.00  0.00     0.055 C 
ATOM     29  C   UNL     1     127.251 178.211 120.252  1.00  0.00     0.081 C 
ATOM     30  C   UNL     1     128.214 177.068 120.301  1.00  0.00     0.156 C 
ATOM     31  O   UNL     1     129.179 177.034 119.492  1.00  0.00    -0.295 OA
ENDBRANCH   9  11
ENDBRANCH   8   9
ENDBRANCH   1   8
TORSDOF 6
ENDMDL
MODEL 9
REMARK VINA RESULT:    -7.893      4.639      8.343
REMARK INTER + INTRA:         -12.414
REMARK INTER:                 -11.117
REMARK INTRA:                  -1.298
REMARK UNBOUND:                -1.753
REMARK SMILES CC[C@@H](CC[C@@H](C)[C@@H]1CC[C@@H]2[C@H]3CC(=O)C4=CC(=O)CC[C@@]4(C)[C@@H]3CC[C@]21C)C(C)C
REMARK SMILES IDX 4 1 3 2 2 3 1 4 29 5 30 6 31 7 5 8 6 9 7 10 8 11 9 12 27 13
REMARK SMILES IDX 10 14 11 15 26 16 28 17 12 18 25 19 24 20 13 21 22 22 14 23
REMARK SMILES IDX 16 24 21 25 23 26 15 27 17 28 20 29 18 30 19 31
REMARK H PARENT
REMARK Flexibility Score: inf
ROOT
ATOM      1  C   UNL     1     126.154 177.749 122.652  1.00  0.00     0.004 C 
ENDROOT
BRANCH   1   2
ATOM      2  C   UNL     1     124.842 176.957 122.328  1.00  0.00    -0.009 C 
BRANCH   2   3
ATOM      3  C   UNL     1     124.053 177.697 121.209  1.00  0.00     0.000 C 
ATOM      4  C   UNL     1     124.828 177.896 119.908  1.00  0.00     0.004 C 
ENDBRANCH   2   3
BRANCH   2   5
ATOM      5  C   UNL     1     124.030 176.672 123.639  1.00  0.00    -0.014 C 
ATOM      6  C   UNL     1     124.593 177.387 124.876  1.00  0.00     0.007 C 
ATOM      7  C   UNL     1     122.520 176.929 123.498  1.00  0.00     0.007 C 
ENDBRANCH   2   5
ENDBRANCH   1   2
BRANCH   1   8
ATOM      8  C   UNL     1     127.429 176.876 122.615  1.00  0.00     0.004 C 
BRANCH   8   9
ATOM      9  C   UNL     1     127.253 175.459 122.004  1.00  0.00    -0.011 C 
ATOM     10  C   UNL     1     127.770 175.460 120.545  1.00  0.00     0.008 C 
BRANCH   9  11
ATOM     11  C   UNL     1     128.003 174.342 122.823  1.00  0.00    -0.002 C 
ATOM     12  C   UNL     1     129.370 173.990 122.162  1.00  0.00     0.005 C 
ATOM     13  C   UNL     1     127.328 172.944 123.028  1.00  0.00    -0.026 C 
ATOM     14  C   UNL     1     129.623 172.497 122.373  1.00  0.00     0.005 C 
ATOM     15  C   UNL     1     128.561 172.085 123.372  1.00  0.00    -0.001 C 
ATOM     16  C   UNL     1     126.381 172.820 124.253  1.00  0.00     0.007 C 
ATOM     17  C   UNL     1     126.611 172.488 121.718  1.00  0.00     0.012 C 
ATOM     18  C   UNL     1     128.256 170.577 123.525  1.00  0.00     0.004 C 
ATOM     19  C   UNL     1     125.993 171.350 124.533  1.00  0.00     0.005 C 
ATOM     20  C   UNL     1     127.216 170.391 124.682  1.00  0.00     0.003 C 
ATOM     21  C   UNL     1     129.545 169.802 123.840  1.00  0.00     0.085 C 
ATOM     22  C   UNL     1     126.812 168.877 124.893  1.00  0.00    -0.000 C 
ATOM     23  C   UNL     1     129.267 168.373 124.183  1.00  0.00     0.159 C 
ATOM     24  C   UNL     1     128.078 168.014 124.989  1.00  0.00     0.005 C 
ATOM     25  C   UNL     1     125.994 168.744 126.218  1.00  0.00     0.020 C 
ATOM     26  C   UNL     1     125.962 168.337 123.711  1.00  0.00     0.017 C 
ATOM     27  O   UNL     1     130.105 167.489 123.848  1.00  0.00    -0.295 OA
ATOM     28  C   UNL     1     128.100 166.882 125.719  1.00  0.00     0.055 C 
ATOM     29  C   UNL     1     125.716 167.289 126.614  1.00  0.00     0.081 C 
ATOM     30  C   UNL     1     126.962 166.465 126.551  1.00  0.00     0.156 C 
ATOM     31  O   UNL     1     127.026 165.384 127.193  1.00  0.00    -0.295 OA
ENDBRANCH   9  11
ENDBRANCH   8   9
ENDBRANCH   1   8
TORSDOF 6
ENDMDL
