MODEL 1
REMARK VINA RESULT:    -5.505      0.000      0.000
REMARK INTER + INTRA:          -5.827
REMARK INTER:                  -5.827
REMARK INTRA:                   0.000
REMARK UNBOUND:                 0.000
REMARK SMILES Cc1cc(O)c(C)c(C)c1O
REMARK SMILES IDX 1 1 2 2 3 3 4 4 6 5 8 6 10 7 9 8 7 9 11 10 5 12
REMARK H PARENT 11 11 5 13
REMARK Flexibility Score: inf
ROOT
ATOM      1  C   UNL     1      15.412  -5.219  25.881  1.00  0.00     0.048 C 
ATOM      2  C   UNL     1      16.621  -5.929  26.428  1.00  0.00    -0.005 A 
ATOM      3  C   UNL     1      17.419  -5.283  27.378  1.00  0.00     0.053 A 
ATOM      4  C   UNL     1      18.554  -5.898  27.904  1.00  0.00     0.119 A 
ATOM      5  C   UNL     1      18.934  -7.187  27.462  1.00  0.00    -0.003 A 
ATOM      6  C   UNL     1      18.096  -7.880  26.545  1.00  0.00    -0.002 A 
ATOM      7  C   UNL     1      16.956  -7.234  26.011  1.00  0.00     0.121 A 
ATOM      8  C   UNL     1      18.423  -9.291  26.110  1.00  0.00     0.049 C 
ATOM      9  C   UNL     1      20.204  -7.809  28.001  1.00  0.00     0.049 C 
ENDROOT
BRANCH   7  10
ATOM     10  O   UNL     1      16.171  -7.907  25.068  1.00  0.00    -0.507 OA
ATOM     11  H   UNL     1      15.221  -7.641  24.840  1.00  0.00     0.293 HD
ENDBRANCH   7  10
BRANCH   4  12
ATOM     12  O   UNL     1      19.280  -5.198  28.873  1.00  0.00    -0.508 OA
ATOM     13  H   UNL     1      20.259  -5.361  29.066  1.00  0.00     0.293 HD
ENDBRANCH   4  12
TORSDOF 2
ENDMDL
MODEL 2
REMARK VINA RESULT:    -5.461     12.163     13.535
REMARK INTER + INTRA:          -5.780
REMARK INTER:                  -5.780
REMARK INTRA:                   0.000
REMARK UNBOUND:                 0.000
REMARK SMILES Cc1cc(O)c(C)c(C)c1O
REMARK SMILES IDX 1 1 2 2 3 3 4 4 6 5 8 6 10 7 9 8 7 9 11 10 5 12
REMARK H PARENT 11 11 5 13
REMARK Flexibility Score: inf
ROOT
ATOM      1  C   UNL     1      23.384   5.536  30.512  1.00  0.00     0.048 C 
ATOM      2  C   UNL     1      24.551   4.792  29.921  1.00  0.00    -0.005 A 
ATOM      3  C   UNL     1      25.826   5.365  29.979  1.00  0.00     0.053 A 
ATOM      4  C   UNL     1      26.933   4.716  29.435  1.00  0.00     0.119 A 
ATOM      5  C   UNL     1      26.780   3.468  28.788  1.00  0.00    -0.003 A 
ATOM      6  C   UNL     1      25.501   2.845  28.778  1.00  0.00    -0.002 A 
ATOM      7  C   UNL     1      24.387   3.525  29.323  1.00  0.00     0.121 A 
ATOM      8  C   UNL     1      25.311   1.474  28.169  1.00  0.00     0.049 C 
ATOM      9  C   UNL     1      27.986   2.812  28.151  1.00  0.00     0.049 C 
ENDROOT
BRANCH   7  10
ATOM     10  O   UNL     1      23.124   2.924  29.259  1.00  0.00    -0.507 OA
ATOM     11  H   UNL     1      22.304   3.296  29.721  1.00  0.00     0.293 HD
ENDBRANCH   7  10
BRANCH   4  12
ATOM     12  O   UNL     1      28.178   5.343  29.562  1.00  0.00    -0.508 OA
ATOM     13  H   UNL     1      28.548   5.680  30.440  1.00  0.00     0.293 HD
ENDBRANCH   4  12
TORSDOF 2
ENDMDL
MODEL 3
REMARK VINA RESULT:    -5.161      7.531      8.495
REMARK INTER + INTRA:          -5.462
REMARK INTER:                  -5.462
REMARK INTRA:                   0.000
REMARK UNBOUND:                 0.000
REMARK SMILES Cc1cc(O)c(C)c(C)c1O
REMARK SMILES IDX 1 1 2 2 3 3 4 4 6 5 8 6 10 7 9 8 7 9 11 10 5 12
REMARK H PARENT 11 11 5 13
REMARK Flexibility Score: inf
ROOT
ATOM      1  C   UNL     1      12.483  -2.611  35.554  1.00  0.00     0.048 C 
ATOM      2  C   UNL     1      13.721  -3.039  34.814  1.00  0.00    -0.005 A 
ATOM      3  C   UNL     1      14.783  -2.138  34.681  1.00  0.00     0.053 A 
ATOM      4  C   UNL     1      15.945  -2.488  33.995  1.00  0.00     0.119 A 
ATOM      5  C   UNL     1      16.059  -3.763  33.395  1.00  0.00    -0.003 A 
ATOM      6  C   UNL     1      15.014  -4.711  33.576  1.00  0.00    -0.002 A 
ATOM      7  C   UNL     1      13.837  -4.333  34.264  1.00  0.00     0.121 A 
ATOM      8  C   UNL     1      15.132  -6.113  33.020  1.00  0.00     0.049 C 
ATOM      9  C   UNL     1      17.304  -4.099  32.602  1.00  0.00     0.049 C 
ENDROOT
BRANCH   7  10
ATOM     10  O   UNL     1      12.794  -5.258  34.389  1.00  0.00    -0.507 OA
ATOM     11  H   UNL     1      12.707  -6.084  33.810  1.00  0.00     0.293 HD
ENDBRANCH   7  10
BRANCH   4  12
ATOM     12  O   UNL     1      16.972  -1.541  33.935  1.00  0.00    -0.508 OA
ATOM     13  H   UNL     1      17.223  -1.039  33.095  1.00  0.00     0.293 HD
ENDBRANCH   4  12
TORSDOF 2
ENDMDL
MODEL 4
REMARK VINA RESULT:    -4.962     12.099     13.754
REMARK INTER + INTRA:          -5.252
REMARK INTER:                  -5.252
REMARK INTRA:                   0.000
REMARK UNBOUND:                 0.000
REMARK SMILES Cc1cc(O)c(C)c(C)c1O
REMARK SMILES IDX 1 1 2 2 3 3 4 4 6 5 8 6 10 7 9 8 7 9 11 10 5 12
REMARK H PARENT 11 11 5 13
REMARK Flexibility Score: inf
ROOT
ATOM      1  C   UNL     1      23.386   5.893  30.639  1.00  0.00     0.048 C 
ATOM      2  C   UNL     1      24.292   4.892  29.974  1.00  0.00    -0.005 A 
ATOM      3  C   UNL     1      23.753   3.690  29.505  1.00  0.00     0.053 A 
ATOM      4  C   UNL     1      24.557   2.730  28.893  1.00  0.00     0.119 A 
ATOM      5  C   UNL     1      25.947   2.948  28.756  1.00  0.00    -0.003 A 
ATOM      6  C   UNL     1      26.497   4.193  29.171  1.00  0.00    -0.002 A 
ATOM      7  C   UNL     1      25.668   5.150  29.803  1.00  0.00     0.121 A 
ATOM      8  C   UNL     1      27.964   4.499  28.968  1.00  0.00     0.049 C 
ATOM      9  C   UNL     1      26.810   1.866  28.144  1.00  0.00     0.049 C 
ENDROOT
BRANCH   7  10
ATOM     10  O   UNL     1      26.233   6.348  30.255  1.00  0.00    -0.507 OA
ATOM     11  H   UNL     1      26.660   6.456  31.166  1.00  0.00     0.293 HD
ENDBRANCH   7  10
BRANCH   4  12
ATOM     12  O   UNL     1      23.935   1.568  28.424  1.00  0.00    -0.508 OA
ATOM     13  H   UNL     1      22.936   1.416  28.455  1.00  0.00     0.293 HD
ENDBRANCH   4  12
TORSDOF 2
ENDMDL
MODEL 5
REMARK VINA RESULT:    -4.938      7.165      8.542
REMARK INTER + INTRA:          -5.227
REMARK INTER:                  -5.227
REMARK INTRA:                   0.000
REMARK UNBOUND:                 0.000
REMARK SMILES Cc1cc(O)c(C)c(C)c1O
REMARK SMILES IDX 1 1 2 2 3 3 4 4 6 5 8 6 10 7 9 8 7 9 11 10 5 12
REMARK H PARENT 11 11 5 13
REMARK Flexibility Score: inf
ROOT
ATOM      1  C   UNL     1      16.022  -6.628  32.923  1.00  0.00     0.048 C 
ATOM      2  C   UNL     1      15.505  -5.252  33.248  1.00  0.00    -0.005 A 
ATOM      3  C   UNL     1      16.388  -4.167  33.218  1.00  0.00     0.053 A 
ATOM      4  C   UNL     1      15.955  -2.877  33.522  1.00  0.00     0.119 A 
ATOM      5  C   UNL     1      14.610  -2.647  33.892  1.00  0.00    -0.003 A 
ATOM      6  C   UNL     1      13.688  -3.730  33.864  1.00  0.00    -0.002 A 
ATOM      7  C   UNL     1      14.148  -5.035  33.567  1.00  0.00     0.121 A 
ATOM      8  C   UNL     1      12.224  -3.511  34.173  1.00  0.00     0.049 C 
ATOM      9  C   UNL     1      14.177  -1.249  34.277  1.00  0.00     0.049 C 
ENDROOT
BRANCH   7  10
ATOM     10  O   UNL     1      13.242  -6.100  33.596  1.00  0.00    -0.507 OA
ATOM     11  H   UNL     1      12.253  -5.998  33.406  1.00  0.00     0.293 HD
ENDBRANCH   7  10
BRANCH   4  12
ATOM     12  O   UNL     1      16.893  -1.843  33.438  1.00  0.00    -0.508 OA
ATOM     13  H   UNL     1      16.956  -1.206  32.656  1.00  0.00     0.293 HD
ENDBRANCH   4  12
TORSDOF 2
ENDMDL
MODEL 6
REMARK VINA RESULT:    -4.913      7.079      8.873
REMARK INTER + INTRA:          -5.200
REMARK INTER:                  -5.200
REMARK INTRA:                   0.000
REMARK UNBOUND:                 0.000
REMARK SMILES Cc1cc(O)c(C)c(C)c1O
REMARK SMILES IDX 1 1 2 2 3 3 4 4 6 5 8 6 10 7 9 8 7 9 11 10 5 12
REMARK H PARENT 11 11 5 13
REMARK Flexibility Score: inf
ROOT
ATOM      1  C   UNL     1      17.572  -4.948  32.633  1.00  0.00     0.048 C 
ATOM      2  C   UNL     1      16.196  -4.515  33.063  1.00  0.00    -0.005 A 
ATOM      3  C   UNL     1      15.168  -5.462  33.116  1.00  0.00     0.053 A 
ATOM      4  C   UNL     1      13.876  -5.104  33.498  1.00  0.00     0.119 A 
ATOM      5  C   UNL     1      13.576  -3.759  33.817  1.00  0.00    -0.003 A 
ATOM      6  C   UNL     1      14.626  -2.799  33.829  1.00  0.00    -0.002 A 
ATOM      7  C   UNL     1      15.927  -3.178  33.426  1.00  0.00     0.121 A 
ATOM      8  C   UNL     1      14.364  -1.368  34.244  1.00  0.00     0.049 C 
ATOM      9  C   UNL     1      12.153  -3.382  34.169  1.00  0.00     0.049 C 
ENDROOT
BRANCH   7  10
ATOM     10  O   UNL     1      16.939  -2.211  33.390  1.00  0.00    -0.507 OA
ATOM     11  H   UNL     1      16.769  -1.221  33.505  1.00  0.00     0.293 HD
ENDBRANCH   7  10
BRANCH   4  12
ATOM     12  O   UNL     1      12.913  -6.117  33.555  1.00  0.00    -0.508 OA
ATOM     13  H   UNL     1      11.974  -5.977  33.901  1.00  0.00     0.293 HD
ENDBRANCH   4  12
TORSDOF 2
ENDMDL
MODEL 7
REMARK VINA RESULT:    -4.884      7.169      8.972
REMARK INTER + INTRA:          -5.170
REMARK INTER:                  -5.170
REMARK INTRA:                   0.000
REMARK UNBOUND:                 0.000
REMARK SMILES Cc1cc(O)c(C)c(C)c1O
REMARK SMILES IDX 1 1 2 2 3 3 4 4 6 5 8 6 10 7 9 8 7 9 11 10 5 12
REMARK H PARENT 11 11 5 13
REMARK Flexibility Score: inf
ROOT
ATOM      1  C   UNL     1      27.584  -2.868  27.885  1.00  0.00     0.048 C 
ATOM      2  C   UNL     1      26.274  -3.042  27.164  1.00  0.00    -0.005 A 
ATOM      3  C   UNL     1      25.377  -4.021  27.606  1.00  0.00     0.053 A 
ATOM      4  C   UNL     1      24.158  -4.225  26.962  1.00  0.00     0.119 A 
ATOM      5  C   UNL     1      23.815  -3.454  25.828  1.00  0.00    -0.003 A 
ATOM      6  C   UNL     1      24.689  -2.412  25.407  1.00  0.00    -0.002 A 
ATOM      7  C   UNL     1      25.928  -2.230  26.064  1.00  0.00     0.121 A 
ATOM      8  C   UNL     1      24.321  -1.512  24.249  1.00  0.00     0.049 C 
ATOM      9  C   UNL     1      22.513  -3.734  25.108  1.00  0.00     0.049 C 
ENDROOT
BRANCH   7  10
ATOM     10  O   UNL     1      26.802  -1.237  25.606  1.00  0.00    -0.507 OA
ATOM     11  H   UNL     1      26.538  -0.526  24.937  1.00  0.00     0.293 HD
ENDBRANCH   7  10
BRANCH   4  12
ATOM     12  O   UNL     1      23.305  -5.202  27.486  1.00  0.00    -0.508 OA
ATOM     13  H   UNL     1      23.617  -6.114  27.788  1.00  0.00     0.293 HD
ENDBRANCH   4  12
TORSDOF 2
ENDMDL
MODEL 8
REMARK VINA RESULT:    -4.858      6.768      8.360
REMARK INTER + INTRA:          -5.142
REMARK INTER:                  -5.142
REMARK INTRA:                   0.000
REMARK UNBOUND:                 0.000
REMARK SMILES Cc1cc(O)c(C)c(C)c1O
REMARK SMILES IDX 1 1 2 2 3 3 4 4 6 5 8 6 10 7 9 8 7 9 11 10 5 12
REMARK H PARENT 11 11 5 13
REMARK Flexibility Score: inf
ROOT
ATOM      1  C   UNL     1      25.656  -5.249  28.699  1.00  0.00     0.048 C 
ATOM      2  C   UNL     1      25.293  -4.324  27.568  1.00  0.00    -0.005 A 
ATOM      3  C   UNL     1      26.208  -3.346  27.165  1.00  0.00     0.053 A 
ATOM      4  C   UNL     1      25.910  -2.462  26.130  1.00  0.00     0.119 A 
ATOM      5  C   UNL     1      24.656  -2.525  25.480  1.00  0.00    -0.003 A 
ATOM      6  C   UNL     1      23.741  -3.555  25.836  1.00  0.00    -0.002 A 
ATOM      7  C   UNL     1      24.056  -4.434  26.899  1.00  0.00     0.121 A 
ATOM      8  C   UNL     1      22.423  -3.707  25.110  1.00  0.00     0.049 C 
ATOM      9  C   UNL     1      24.330  -1.515  24.401  1.00  0.00     0.049 C 
ENDROOT
BRANCH   7  10
ATOM     10  O   UNL     1      23.124  -5.409  27.274  1.00  0.00    -0.507 OA
ATOM     11  H   UNL     1      22.421  -5.264  27.988  1.00  0.00     0.293 HD
ENDBRANCH   7  10
BRANCH   4  12
ATOM     12  O   UNL     1      26.892  -1.534  25.768  1.00  0.00    -0.508 OA
ATOM     13  H   UNL     1      27.638  -1.734  25.116  1.00  0.00     0.293 HD
ENDBRANCH   4  12
TORSDOF 2
ENDMDL
MODEL 9
REMARK VINA RESULT:    -4.802      7.669      9.045
REMARK INTER + INTRA:          -5.083
REMARK INTER:                  -5.083
REMARK INTRA:                   0.000
REMARK UNBOUND:                 0.000
REMARK SMILES Cc1cc(O)c(C)c(C)c1O
REMARK SMILES IDX 1 1 2 2 3 3 4 4 6 5 8 6 10 7 9 8 7 9 11 10 5 12
REMARK H PARENT 11 11 5 13
REMARK Flexibility Score: inf
ROOT
ATOM      1  C   UNL     1      24.555  -5.342  27.469  1.00  0.00     0.048 C 
ATOM      2  C   UNL     1      24.979  -3.951  27.082  1.00  0.00    -0.005 A 
ATOM      3  C   UNL     1      25.800  -3.222  27.948  1.00  0.00     0.053 A 
ATOM      4  C   UNL     1      26.209  -1.927  27.635  1.00  0.00     0.119 A 
ATOM      5  C   UNL     1      25.775  -1.314  26.437  1.00  0.00    -0.003 A 
ATOM      6  C   UNL     1      24.993  -2.067  25.517  1.00  0.00    -0.002 A 
ATOM      7  C   UNL     1      24.577  -3.376  25.859  1.00  0.00     0.121 A 
ATOM      8  C   UNL     1      24.577  -1.478  24.188  1.00  0.00     0.049 C 
ATOM      9  C   UNL     1      26.181   0.115  26.147  1.00  0.00     0.049 C 
ENDROOT
BRANCH   7  10
ATOM     10  O   UNL     1      23.762  -4.086  24.969  1.00  0.00    -0.507 OA
ATOM     11  H   UNL     1      22.818  -3.808  24.733  1.00  0.00     0.293 HD
ENDBRANCH   7  10
BRANCH   4  12
ATOM     12  O   UNL     1      27.055  -1.278  28.541  1.00  0.00    -0.508 OA
ATOM     13  H   UNL     1      27.973  -1.618  28.792  1.00  0.00     0.293 HD
ENDBRANCH   4  12
TORSDOF 2
ENDMDL
