MODEL 1
REMARK VINA RESULT:    -4.530      0.000      0.000
REMARK INTER + INTRA:          -5.612
REMARK INTER:                  -5.325
REMARK INTRA:                  -0.288
REMARK UNBOUND:                -0.288
REMARK SMILES O=c1c(O)c(-c2ccc(O)c(O)c2)oc2cc(O)ccc12
REMARK SMILES IDX 5 1 3 2 2 3 1 4 21 5 15 6 14 7 16 8 17 9 19 10 20 11 6 12
REMARK SMILES IDX 7 13 8 14 9 15 13 16 11 17 10 18 12 20 4 22 18 24
REMARK H PARENT 10 19 12 21 4 23 18 25
REMARK Flexibility Score: inf
ROOT
ATOM      1  C   UNL     1      -5.890 -11.687  23.897  1.00  0.00     0.180 A 
ATOM      2  C   UNL     1      -6.734 -10.913  24.721  1.00  0.00     0.208 A 
ATOM      3  C   UNL     1      -7.356  -9.779  24.174  1.00  0.00     0.235 A 
ATOM      4  O   UNL     1      -8.125  -9.077  24.887  1.00  0.00    -0.285 OA
ATOM      5  C   UNL     1      -7.109  -9.433  22.837  1.00  0.00     0.069 A 
ATOM      6  C   UNL     1      -6.232 -10.246  22.086  1.00  0.00     0.142 A 
ATOM      7  O   UNL     1      -5.670 -11.316  22.638  1.00  0.00    -0.452 OA
ATOM      8  C   UNL     1      -5.953  -9.929  20.752  1.00  0.00     0.094 A 
ATOM      9  C   UNL     1      -6.540  -8.809  20.156  1.00  0.00     0.119 A 
ATOM     10  C   UNL     1      -7.413  -8.000  20.897  1.00  0.00     0.047 A 
ATOM     11  C   UNL     1      -7.697  -8.307  22.231  1.00  0.00     0.020 A 
ENDROOT
BRANCH   1  12
ATOM     12  C   UNL     1      -5.212 -12.906  24.393  1.00  0.00     0.025 A 
ATOM     13  C   UNL     1      -5.933 -14.106  24.489  1.00  0.00     0.016 A 
ATOM     14  C   UNL     1      -5.319 -15.265  24.975  1.00  0.00     0.051 A 
ATOM     15  C   UNL     1      -3.984 -15.237  25.386  1.00  0.00     0.157 A 
ATOM     16  C   UNL     1      -3.874 -12.876  24.828  1.00  0.00     0.062 A 
ATOM     17  C   UNL     1      -3.258 -14.037  25.318  1.00  0.00     0.158 A 
BRANCH  15  18
ATOM     18  O   UNL     1      -3.398 -16.409  25.864  1.00  0.00    -0.504 OA
ATOM     19  H   UNL     1      -3.810 -17.320  25.703  1.00  0.00     0.293 HD
ENDBRANCH  15  18
BRANCH  17  20
ATOM     20  O   UNL     1      -1.930 -13.999  25.741  1.00  0.00    -0.504 OA
ATOM     21  H   UNL     1      -1.193 -13.639  25.145  1.00  0.00     0.293 HD
ENDBRANCH  17  20
ENDBRANCH   1  12
BRANCH   2  22
ATOM     22  O   UNL     1      -6.923 -11.255  26.062  1.00  0.00    -0.502 OA
ATOM     23  H   UNL     1      -7.364 -10.627  26.724  1.00  0.00     0.293 HD
ENDBRANCH   2  22
BRANCH   9  24
ATOM     24  O   UNL     1      -6.251  -8.507  18.827  1.00  0.00    -0.508 OA
ATOM     25  H   UNL     1      -5.298  -8.497  18.481  1.00  0.00     0.293 HD
ENDBRANCH   9  24
TORSDOF 5
ENDMDL
MODEL 2
REMARK VINA RESULT:    -4.143     20.816     22.478
REMARK INTER + INTRA:          -5.157
REMARK INTER:                  -5.544
REMARK INTRA:                   0.387
REMARK UNBOUND:                -0.288
REMARK SMILES O=c1c(O)c(-c2ccc(O)c(O)c2)oc2cc(O)ccc12
REMARK SMILES IDX 5 1 3 2 2 3 1 4 21 5 15 6 14 7 16 8 17 9 19 10 20 11 6 12
REMARK SMILES IDX 7 13 8 14 9 15 13 16 11 17 10 18 12 20 4 22 18 24
REMARK H PARENT 10 19 12 21 4 23 18 25
REMARK Flexibility Score: inf
ROOT
ATOM      1  C   UNL     1      11.019 -15.870  10.431  1.00  0.00     0.180 A 
ATOM      2  C   UNL     1      10.416 -15.116   9.403  1.00  0.00     0.208 A 
ATOM      3  C   UNL     1      10.147 -15.743   8.175  1.00  0.00     0.235 A 
ATOM      4  O   UNL     1       9.598 -15.094   7.244  1.00  0.00    -0.285 OA
ATOM      5  C   UNL     1      10.499 -17.090   7.996  1.00  0.00     0.069 A 
ATOM      6  C   UNL     1      11.121 -17.768   9.067  1.00  0.00     0.142 A 
ATOM      7  O   UNL     1      11.351 -17.140  10.215  1.00  0.00    -0.452 OA
ATOM      8  C   UNL     1      11.496 -19.108   8.924  1.00  0.00     0.094 A 
ATOM      9  C   UNL     1      11.257 -19.783   7.723  1.00  0.00     0.119 A 
ATOM     10  C   UNL     1      10.638 -19.114   6.658  1.00  0.00     0.047 A 
ATOM     11  C   UNL     1      10.260 -17.774   6.790  1.00  0.00     0.020 A 
ENDROOT
BRANCH   1  12
ATOM     12  C   UNL     1      11.319 -15.287  11.759  1.00  0.00     0.025 A 
ATOM     13  C   UNL     1      11.462 -16.134  12.869  1.00  0.00     0.016 A 
ATOM     14  C   UNL     1      11.724 -15.603  14.135  1.00  0.00     0.051 A 
ATOM     15  C   UNL     1      11.832 -14.221  14.314  1.00  0.00     0.157 A 
ATOM     16  C   UNL     1      11.407 -13.895  11.945  1.00  0.00     0.062 A 
ATOM     17  C   UNL     1      11.668 -13.361  13.216  1.00  0.00     0.158 A 
BRANCH  15  18
ATOM     18  O   UNL     1      12.096 -13.722  15.589  1.00  0.00    -0.504 OA
ATOM     19  H   UNL     1      11.584 -14.033  16.405  1.00  0.00     0.293 HD
ENDBRANCH  15  18
BRANCH  17  20
ATOM     20  O   UNL     1      11.760 -11.981  13.390  1.00  0.00    -0.504 OA
ATOM     21  H   UNL     1      12.173 -11.576  14.222  1.00  0.00     0.293 HD
ENDBRANCH  17  20
ENDBRANCH   1  12
BRANCH   2  22
ATOM     22  O   UNL     1      10.121 -13.765   9.594  1.00  0.00    -0.502 OA
ATOM     23  H   UNL     1      10.800 -13.109   9.962  1.00  0.00     0.293 HD
ENDBRANCH   2  22
BRANCH   9  24
ATOM     24  O   UNL     1      11.637 -21.117   7.598  1.00  0.00    -0.508 OA
ATOM     25  H   UNL     1      12.484 -21.384   7.108  1.00  0.00     0.293 HD
ENDBRANCH   9  24
TORSDOF 5
ENDMDL
MODEL 3
REMARK VINA RESULT:    -4.129     14.836     18.001
REMARK INTER + INTRA:          -5.140
REMARK INTER:                  -4.943
REMARK INTRA:                  -0.198
REMARK UNBOUND:                -0.288
REMARK SMILES O=c1c(O)c(-c2ccc(O)c(O)c2)oc2cc(O)ccc12
REMARK SMILES IDX 5 1 3 2 2 3 1 4 21 5 15 6 14 7 16 8 17 9 19 10 20 11 6 12
REMARK SMILES IDX 7 13 8 14 9 15 13 16 11 17 10 18 12 20 4 22 18 24
REMARK H PARENT 10 19 12 21 4 23 18 25
REMARK Flexibility Score: inf
ROOT
ATOM      1  C   UNL     1      -3.439  -3.768   8.541  1.00  0.00     0.180 A 
ATOM      2  C   UNL     1      -3.959  -4.780   7.708  1.00  0.00     0.208 A 
ATOM      3  C   UNL     1      -3.091  -5.435   6.819  1.00  0.00     0.235 A 
ATOM      4  O   UNL     1      -3.530  -6.352   6.072  1.00  0.00    -0.285 OA
ATOM      5  C   UNL     1      -1.741  -5.056   6.766  1.00  0.00     0.069 A 
ATOM      6  C   UNL     1      -1.304  -4.017   7.616  1.00  0.00     0.142 A 
ATOM      7  O   UNL     1      -2.155  -3.428   8.449  1.00  0.00    -0.452 OA
ATOM      8  C   UNL     1       0.033  -3.604   7.587  1.00  0.00     0.094 A 
ATOM      9  C   UNL     1       0.942  -4.217   6.719  1.00  0.00     0.119 A 
ATOM     10  C   UNL     1       0.512  -5.251   5.875  1.00  0.00     0.047 A 
ATOM     11  C   UNL     1      -0.822  -5.670   5.896  1.00  0.00     0.020 A 
ENDROOT
BRANCH   1  12
ATOM     12  C   UNL     1      -4.285  -3.042   9.516  1.00  0.00     0.025 A 
ATOM     13  C   UNL     1      -4.481  -1.661   9.366  1.00  0.00     0.016 A 
ATOM     14  C   UNL     1      -5.258  -0.952  10.287  1.00  0.00     0.051 A 
ATOM     15  C   UNL     1      -5.836  -1.609  11.377  1.00  0.00     0.157 A 
ATOM     16  C   UNL     1      -4.849  -3.697  10.626  1.00  0.00     0.062 A 
ATOM     17  C   UNL     1      -5.628  -2.986  11.552  1.00  0.00     0.158 A 
BRANCH  15  18
ATOM     18  O   UNL     1      -6.609  -0.876  12.277  1.00  0.00    -0.504 OA
ATOM     19  H   UNL     1      -6.495  -0.964  13.280  1.00  0.00     0.293 HD
ENDBRANCH  15  18
BRANCH  17  20
ATOM     20  O   UNL     1      -6.189  -3.645  12.645  1.00  0.00    -0.504 OA
ATOM     21  H   UNL     1      -5.997  -3.354  13.597  1.00  0.00     0.293 HD
ENDBRANCH  17  20
ENDBRANCH   1  12
BRANCH   2  22
ATOM     22  O   UNL     1      -5.317  -5.102   7.747  1.00  0.00    -0.502 OA
ATOM     23  H   UNL     1      -5.648  -6.060   7.724  1.00  0.00     0.293 HD
ENDBRANCH   2  22
BRANCH   9  24
ATOM     24  O   UNL     1       2.268  -3.793   6.703  1.00  0.00    -0.508 OA
ATOM     25  H   UNL     1       2.827  -3.769   7.549  1.00  0.00     0.293 HD
ENDBRANCH   9  24
TORSDOF 5
ENDMDL
MODEL 4
REMARK VINA RESULT:    -4.084      2.444      3.714
REMARK INTER + INTRA:          -5.087
REMARK INTER:                  -4.799
REMARK INTRA:                  -0.289
REMARK UNBOUND:                -0.288
REMARK SMILES O=c1c(O)c(-c2ccc(O)c(O)c2)oc2cc(O)ccc12
REMARK SMILES IDX 5 1 3 2 2 3 1 4 21 5 15 6 14 7 16 8 17 9 19 10 20 11 6 12
REMARK SMILES IDX 7 13 8 14 9 15 13 16 11 17 10 18 12 20 4 22 18 24
REMARK H PARENT 10 19 12 21 4 23 18 25
REMARK Flexibility Score: inf
ROOT
ATOM      1  C   UNL     1      -6.180 -10.965  21.875  1.00  0.00     0.180 A 
ATOM      2  C   UNL     1      -4.928 -10.996  21.226  1.00  0.00     0.208 A 
ATOM      3  C   UNL     1      -4.539  -9.887  20.457  1.00  0.00     0.235 A 
ATOM      4  O   UNL     1      -3.419  -9.886  19.876  1.00  0.00    -0.285 OA
ATOM      5  C   UNL     1      -5.407  -8.792  20.336  1.00  0.00     0.069 A 
ATOM      6  C   UNL     1      -6.653  -8.849  20.997  1.00  0.00     0.142 A 
ATOM      7  O   UNL     1      -6.980  -9.913  21.723  1.00  0.00    -0.452 OA
ATOM      8  C   UNL     1      -7.551  -7.781  20.893  1.00  0.00     0.094 A 
ATOM      9  C   UNL     1      -7.220  -6.652  20.137  1.00  0.00     0.119 A 
ATOM     10  C   UNL     1      -5.982  -6.590  19.481  1.00  0.00     0.047 A 
ATOM     11  C   UNL     1      -5.079  -7.653  19.577  1.00  0.00     0.020 A 
ENDROOT
BRANCH   1  12
ATOM     12  C   UNL     1      -6.654 -12.087  22.718  1.00  0.00     0.025 A 
ATOM     13  C   UNL     1      -7.644 -12.951  22.224  1.00  0.00     0.016 A 
ATOM     14  C   UNL     1      -8.122 -14.003  23.010  1.00  0.00     0.051 A 
ATOM     15  C   UNL     1      -7.631 -14.197  24.304  1.00  0.00     0.157 A 
ATOM     16  C   UNL     1      -6.177 -12.272  24.028  1.00  0.00     0.062 A 
ATOM     17  C   UNL     1      -6.657 -13.326  24.819  1.00  0.00     0.158 A 
BRANCH  15  18
ATOM     18  O   UNL     1      -8.125 -15.257  25.064  1.00  0.00    -0.504 OA
ATOM     19  H   UNL     1      -8.950 -15.164  25.644  1.00  0.00     0.293 HD
ENDBRANCH  15  18
BRANCH  17  20
ATOM     20  O   UNL     1      -6.174 -13.505  26.115  1.00  0.00    -0.504 OA
ATOM     21  H   UNL     1      -6.494 -12.931  26.886  1.00  0.00     0.293 HD
ENDBRANCH  17  20
ENDBRANCH   1  12
BRANCH   2  22
ATOM     22  O   UNL     1      -4.106 -12.120  21.325  1.00  0.00    -0.502 OA
ATOM     23  H   UNL     1      -3.562 -12.322  22.156  1.00  0.00     0.293 HD
ENDBRANCH   2  22
BRANCH   9  24
ATOM     24  O   UNL     1      -8.125  -5.598  20.045  1.00  0.00    -0.508 OA
ATOM     25  H   UNL     1      -8.583  -5.367  19.169  1.00  0.00     0.293 HD
ENDBRANCH   9  24
TORSDOF 5
ENDMDL
MODEL 5
REMARK VINA RESULT:    -4.011     14.926     17.761
REMARK INTER + INTRA:          -5.002
REMARK INTER:                  -5.022
REMARK INTRA:                   0.019
REMARK UNBOUND:                -0.288
REMARK SMILES O=c1c(O)c(-c2ccc(O)c(O)c2)oc2cc(O)ccc12
REMARK SMILES IDX 5 1 3 2 2 3 1 4 21 5 15 6 14 7 16 8 17 9 19 10 20 11 6 12
REMARK SMILES IDX 7 13 8 14 9 15 13 16 11 17 10 18 12 20 4 22 18 24
REMARK H PARENT 10 19 12 21 4 23 18 25
REMARK Flexibility Score: inf
ROOT
ATOM      1  C   UNL     1      -4.011  -4.249   7.919  1.00  0.00     0.180 A 
ATOM      2  C   UNL     1      -5.159  -4.565   7.162  1.00  0.00     0.208 A 
ATOM      3  C   UNL     1      -6.424  -4.365   7.738  1.00  0.00     0.235 A 
ATOM      4  O   UNL     1      -7.465  -4.629   7.077  1.00  0.00    -0.285 OA
ATOM      5  C   UNL     1      -6.516  -3.879   9.051  1.00  0.00     0.069 A 
ATOM      6  C   UNL     1      -5.319  -3.611   9.751  1.00  0.00     0.142 A 
ATOM      7  O   UNL     1      -4.141  -3.805   9.167  1.00  0.00    -0.452 OA
ATOM      8  C   UNL     1      -5.368  -3.134  11.066  1.00  0.00     0.094 A 
ATOM      9  C   UNL     1      -6.600  -2.920  11.693  1.00  0.00     0.119 A 
ATOM     10  C   UNL     1      -7.790  -3.184  11.000  1.00  0.00     0.047 A 
ATOM     11  C   UNL     1      -7.752  -3.662   9.687  1.00  0.00     0.020 A 
ENDROOT
BRANCH   1  12
ATOM     12  C   UNL     1      -2.643  -4.415   7.377  1.00  0.00     0.025 A 
ATOM     13  C   UNL     1      -2.265  -5.647   6.822  1.00  0.00     0.016 A 
ATOM     14  C   UNL     1      -0.972  -5.833   6.324  1.00  0.00     0.051 A 
ATOM     15  C   UNL     1      -0.036  -4.797   6.386  1.00  0.00     0.157 A 
ATOM     16  C   UNL     1      -1.693  -3.381   7.458  1.00  0.00     0.062 A 
ATOM     17  C   UNL     1      -0.394  -3.567   6.959  1.00  0.00     0.158 A 
BRANCH  15  18
ATOM     18  O   UNL     1       1.245  -5.011   5.878  1.00  0.00    -0.504 OA
ATOM     19  H   UNL     1       2.062  -5.045   6.476  1.00  0.00     0.293 HD
ENDBRANCH  15  18
BRANCH  17  20
ATOM     20  O   UNL     1       0.540  -2.534   7.038  1.00  0.00    -0.504 OA
ATOM     21  H   UNL     1       1.011  -2.181   6.214  1.00  0.00     0.293 HD
ENDBRANCH  17  20
ENDBRANCH   1  12
BRANCH   2  22
ATOM     22  O   UNL     1      -5.035  -5.092   5.875  1.00  0.00    -0.502 OA
ATOM     23  H   UNL     1      -4.177  -5.516   5.543  1.00  0.00     0.293 HD
ENDBRANCH   2  22
BRANCH   9  24
ATOM     24  O   UNL     1      -6.631  -2.445  13.001  1.00  0.00    -0.508 OA
ATOM     25  H   UNL     1      -6.170  -2.941  13.757  1.00  0.00     0.293 HD
ENDBRANCH   9  24
TORSDOF 5
ENDMDL
MODEL 6
REMARK VINA RESULT:    -3.963      1.843      2.338
REMARK INTER + INTRA:          -4.945
REMARK INTER:                  -4.877
REMARK INTRA:                  -0.068
REMARK UNBOUND:                -0.288
REMARK SMILES O=c1c(O)c(-c2ccc(O)c(O)c2)oc2cc(O)ccc12
REMARK SMILES IDX 5 1 3 2 2 3 1 4 21 5 15 6 14 7 16 8 17 9 19 10 20 11 6 12
REMARK SMILES IDX 7 13 8 14 9 15 13 16 11 17 10 18 12 20 4 22 18 24
REMARK H PARENT 10 19 12 21 4 23 18 25
REMARK Flexibility Score: inf
ROOT
ATOM      1  C   UNL     1      -6.292 -12.237  23.133  1.00  0.00     0.180 A 
ATOM      2  C   UNL     1      -7.144 -11.142  23.387  1.00  0.00     0.208 A 
ATOM      3  C   UNL     1      -6.967  -9.963  22.645  1.00  0.00     0.235 A 
ATOM      4  O   UNL     1      -7.723  -8.973  22.845  1.00  0.00    -0.285 OA
ATOM      5  C   UNL     1      -5.940  -9.895  21.690  1.00  0.00     0.069 A 
ATOM      6  C   UNL     1      -5.115 -11.027  21.513  1.00  0.00     0.142 A 
ATOM      7  O   UNL     1      -5.321 -12.127  22.229  1.00  0.00    -0.452 OA
ATOM      8  C   UNL     1      -4.075 -10.996  20.578  1.00  0.00     0.094 A 
ATOM      9  C   UNL     1      -3.848  -9.848  19.813  1.00  0.00     0.119 A 
ATOM     10  C   UNL     1      -4.667  -8.722  19.985  1.00  0.00     0.047 A 
ATOM     11  C   UNL     1      -5.708  -8.743  20.918  1.00  0.00     0.020 A 
ENDROOT
BRANCH   1  12
ATOM     12  C   UNL     1      -6.426 -13.521  23.860  1.00  0.00     0.025 A 
ATOM     13  C   UNL     1      -7.650 -14.207  23.829  1.00  0.00     0.016 A 
ATOM     14  C   UNL     1      -7.806 -15.409  24.525  1.00  0.00     0.051 A 
ATOM     15  C   UNL     1      -6.749 -15.934  25.273  1.00  0.00     0.157 A 
ATOM     16  C   UNL     1      -5.371 -14.040  24.632  1.00  0.00     0.062 A 
ATOM     17  C   UNL     1      -5.526 -15.245  25.332  1.00  0.00     0.158 A 
BRANCH  15  18
ATOM     18  O   UNL     1      -6.933 -17.136  25.955  1.00  0.00    -0.504 OA
ATOM     19  H   UNL     1      -7.299 -17.963  25.498  1.00  0.00     0.293 HD
ENDBRANCH  15  18
BRANCH  17  20
ATOM     20  O   UNL     1      -4.472 -15.756  26.089  1.00  0.00    -0.504 OA
ATOM     21  H   UNL     1      -4.195 -15.333  26.967  1.00  0.00     0.293 HD
ENDBRANCH  17  20
ENDBRANCH   1  12
BRANCH   2  22
ATOM     22  O   UNL     1      -8.125 -11.222  24.377  1.00  0.00    -0.502 OA
ATOM     23  H   UNL     1      -8.923 -11.842  24.301  1.00  0.00     0.293 HD
ENDBRANCH   2  22
BRANCH   9  24
ATOM     24  O   UNL     1      -2.809  -9.834  18.886  1.00  0.00    -0.508 OA
ATOM     25  H   UNL     1      -2.257 -10.663  18.696  1.00  0.00     0.293 HD
ENDBRANCH   9  24
TORSDOF 5
ENDMDL
MODEL 7
REMARK VINA RESULT:    -3.916     19.861     21.782
REMARK INTER + INTRA:          -4.891
REMARK INTER:                  -5.027
REMARK INTRA:                   0.136
REMARK UNBOUND:                -0.288
REMARK SMILES O=c1c(O)c(-c2ccc(O)c(O)c2)oc2cc(O)ccc12
REMARK SMILES IDX 5 1 3 2 2 3 1 4 21 5 15 6 14 7 16 8 17 9 19 10 20 11 6 12
REMARK SMILES IDX 7 13 8 14 9 15 13 16 11 17 10 18 12 20 4 22 18 24
REMARK H PARENT 10 19 12 21 4 23 18 25
REMARK Flexibility Score: inf
ROOT
ATOM      1  C   UNL     1      11.002 -15.738  11.294  1.00  0.00     0.180 A 
ATOM      2  C   UNL     1      11.391 -16.799  12.138  1.00  0.00     0.208 A 
ATOM      3  C   UNL     1      11.763 -16.508  13.461  1.00  0.00     0.235 A 
ATOM      4  O   UNL     1      12.103 -17.441  14.239  1.00  0.00    -0.285 OA
ATOM      5  C   UNL     1      11.759 -15.175  13.902  1.00  0.00     0.069 A 
ATOM      6  C   UNL     1      11.381 -14.169  12.987  1.00  0.00     0.142 A 
ATOM      7  O   UNL     1      11.027 -14.487  11.746  1.00  0.00    -0.452 OA
ATOM      8  C   UNL     1      11.373 -12.827  13.386  1.00  0.00     0.094 A 
ATOM      9  C   UNL     1      11.738 -12.477  14.689  1.00  0.00     0.119 A 
ATOM     10  C   UNL     1      12.113 -13.474  15.601  1.00  0.00     0.047 A 
ATOM     11  C   UNL     1      12.125 -14.817  15.212  1.00  0.00     0.020 A 
ENDROOT
BRANCH   1  12
ATOM     12  C   UNL     1      10.580 -15.964   9.893  1.00  0.00     0.025 A 
ATOM     13  C   UNL     1      11.318 -16.840   9.082  1.00  0.00     0.016 A 
ATOM     14  C   UNL     1      10.950 -17.053   7.750  1.00  0.00     0.051 A 
ATOM     15  C   UNL     1       9.851 -16.384   7.206  1.00  0.00     0.157 A 
ATOM     16  C   UNL     1       9.486 -15.276   9.336  1.00  0.00     0.062 A 
ATOM     17  C   UNL     1       9.117 -15.487   7.999  1.00  0.00     0.158 A 
BRANCH  15  18
ATOM     18  O   UNL     1       9.506 -16.618   5.875  1.00  0.00    -0.504 OA
ATOM     19  H   UNL     1       9.597 -15.904   5.162  1.00  0.00     0.293 HD
ENDBRANCH  15  18
BRANCH  17  20
ATOM     20  O   UNL     1       8.028 -14.805   7.458  1.00  0.00    -0.504 OA
ATOM     21  H   UNL     1       7.928 -14.671   6.459  1.00  0.00     0.293 HD
ENDBRANCH  17  20
ENDBRANCH   1  12
BRANCH   2  22
ATOM     22  O   UNL     1      11.431 -18.109  11.657  1.00  0.00    -0.502 OA
ATOM     23  H   UNL     1      11.152 -18.348  10.713  1.00  0.00     0.293 HD
ENDBRANCH   2  22
BRANCH   9  24
ATOM     24  O   UNL     1      11.725 -11.137  15.070  1.00  0.00    -0.508 OA
ATOM     25  H   UNL     1      11.609 -10.863  16.040  1.00  0.00     0.293 HD
ENDBRANCH   9  24
TORSDOF 5
ENDMDL
MODEL 8
REMARK VINA RESULT:    -3.700      1.381      2.967
REMARK INTER + INTRA:          -4.636
REMARK INTER:                  -4.384
REMARK INTRA:                  -0.253
REMARK UNBOUND:                -0.288
REMARK SMILES O=c1c(O)c(-c2ccc(O)c(O)c2)oc2cc(O)ccc12
REMARK SMILES IDX 5 1 3 2 2 3 1 4 21 5 15 6 14 7 16 8 17 9 19 10 20 11 6 12
REMARK SMILES IDX 7 13 8 14 9 15 13 16 11 17 10 18 12 20 4 22 18 24
REMARK H PARENT 10 19 12 21 4 23 18 25
REMARK Flexibility Score: inf
ROOT
ATOM      1  C   UNL     1      -5.814 -11.961  24.014  1.00  0.00     0.180 A 
ATOM      2  C   UNL     1      -6.144 -11.822  22.650  1.00  0.00     0.208 A 
ATOM      3  C   UNL     1      -6.806 -10.656  22.231  1.00  0.00     0.235 A 
ATOM      4  O   UNL     1      -7.102 -10.503  21.014  1.00  0.00    -0.285 OA
ATOM      5  C   UNL     1      -7.140  -9.674  23.176  1.00  0.00     0.069 A 
ATOM      6  C   UNL     1      -6.796  -9.900  24.527  1.00  0.00     0.142 A 
ATOM      7  O   UNL     1      -6.161 -11.013  24.881  1.00  0.00    -0.452 OA
ATOM      8  C   UNL     1      -7.119  -8.949  25.501  1.00  0.00     0.094 A 
ATOM      9  C   UNL     1      -7.783  -7.771  25.143  1.00  0.00     0.119 A 
ATOM     10  C   UNL     1      -8.124  -7.542  23.803  1.00  0.00     0.047 A 
ATOM     11  C   UNL     1      -7.807  -8.487  22.822  1.00  0.00     0.020 A 
ENDROOT
BRANCH   1  12
ATOM     12  C   UNL     1      -5.101 -13.151  24.532  1.00  0.00     0.025 A 
ATOM     13  C   UNL     1      -5.801 -14.355  24.703  1.00  0.00     0.016 A 
ATOM     14  C   UNL     1      -5.153 -15.485  25.210  1.00  0.00     0.051 A 
ATOM     15  C   UNL     1      -3.803 -15.425  25.566  1.00  0.00     0.157 A 
ATOM     16  C   UNL     1      -3.748 -13.087  24.911  1.00  0.00     0.062 A 
ATOM     17  C   UNL     1      -3.097 -14.220  25.422  1.00  0.00     0.158 A 
BRANCH  15  18
ATOM     18  O   UNL     1      -3.183 -16.570  26.067  1.00  0.00    -0.504 OA
ATOM     19  H   UNL     1      -3.501 -17.028  26.912  1.00  0.00     0.293 HD
ENDBRANCH  15  18
BRANCH  17  20
ATOM     20  O   UNL     1      -1.753 -14.149  25.789  1.00  0.00    -0.504 OA
ATOM     21  H   UNL     1      -1.322 -14.862  26.366  1.00  0.00     0.293 HD
ENDBRANCH  17  20
ENDBRANCH   1  12
BRANCH   2  22
ATOM     22  O   UNL     1      -5.842 -12.838  21.741  1.00  0.00    -0.502 OA
ATOM     23  H   UNL     1      -6.544 -13.251  21.138  1.00  0.00     0.293 HD
ENDBRANCH   2  22
BRANCH   9  24
ATOM     24  O   UNL     1      -8.097  -6.835  26.125  1.00  0.00    -0.508 OA
ATOM     25  H   UNL     1      -7.584  -5.964  26.211  1.00  0.00     0.293 HD
ENDBRANCH   9  24
TORSDOF 5
ENDMDL
