MODEL 1
REMARK VINA RESULT:    22.706      0.000      0.000
REMARK INTER + INTRA:          26.423
REMARK INTER:                  26.688
REMARK INTRA:                  -0.265
REMARK UNBOUND:                -0.265
REMARK SMILES O=c1cc(-c2ccc(O)c(O)c2)oc2cc(O)cc(O)c12
REMARK SMILES IDX 4 1 3 2 2 3 1 4 21 5 19 6 18 7 16 8 15 9 14 10 13 11 5 12
REMARK SMILES IDX 6 13 7 14 8 15 12 16 10 17 9 18 11 20 20 22 17 24
REMARK H PARENT 9 19 11 21 20 23 17 25
REMARK Flexibility Score: inf
ROOT
ATOM      1  C   UNL     1      -6.542  -7.757  15.829  1.00  0.00     0.138 A 
ATOM      2  C   UNL     1      -7.435  -8.035  14.781  1.00  0.00     0.100 A 
ATOM      3  C   UNL     1      -7.704  -9.362  14.442  1.00  0.00     0.197 A 
ATOM      4  O   UNL     1      -8.507  -9.601  13.500  1.00  0.00    -0.289 OA
ATOM      5  C   UNL     1      -7.074 -10.402  15.152  1.00  0.00     0.107 A 
ATOM      6  C   UNL     1      -7.291 -11.773  14.873  1.00  0.00     0.134 A 
ATOM      7  C   UNL     1      -6.620 -12.749  15.624  1.00  0.00     0.093 A 
ATOM      8  C   UNL     1      -5.735 -12.381  16.645  1.00  0.00     0.123 A 
ATOM      9  C   UNL     1      -5.518 -11.030  16.923  1.00  0.00     0.094 A 
ATOM     10  C   UNL     1      -6.178 -10.042  16.187  1.00  0.00     0.146 A 
ATOM     11  O   UNL     1      -5.955  -8.763  16.473  1.00  0.00    -0.456 OA
ENDROOT
BRANCH   1  12
ATOM     12  C   UNL     1      -6.218  -6.364  16.232  1.00  0.00     0.021 A 
ATOM     13  C   UNL     1      -4.914  -5.849  16.127  1.00  0.00     0.016 A 
ATOM     14  C   UNL     1      -4.642  -4.533  16.505  1.00  0.00     0.051 A 
ATOM     15  C   UNL     1      -5.659  -3.702  16.987  1.00  0.00     0.157 A 
ATOM     16  C   UNL     1      -7.241  -5.525  16.704  1.00  0.00     0.062 A 
ATOM     17  C   UNL     1      -6.977  -4.204  17.087  1.00  0.00     0.158 A 
BRANCH  15  18
ATOM     18  O   UNL     1      -5.318  -2.397  17.351  1.00  0.00    -0.504 OA
ATOM     19  H   UNL     1      -4.422  -1.973  17.158  1.00  0.00     0.293 HD
ENDBRANCH  15  18
BRANCH  17  20
ATOM     20  O   UNL     1      -8.044  -3.434  17.553  1.00  0.00    -0.504 OA
ATOM     21  H   UNL     1      -8.137  -2.442  17.392  1.00  0.00     0.293 HD
ENDBRANCH  17  20
ENDBRANCH   1  12
BRANCH   6  22
ATOM     22  O   UNL     1      -8.166 -12.170  13.862  1.00  0.00    -0.507 OA
ATOM     23  H   UNL     1      -7.834 -12.614  13.014  1.00  0.00     0.293 HD
ENDBRANCH   6  22
BRANCH   8  24
ATOM     24  O   UNL     1      -5.068 -13.351  17.390  1.00  0.00    -0.508 OA
ATOM     25  H   UNL     1      -4.425 -14.003  16.956  1.00  0.00     0.293 HD
ENDBRANCH   8  24
TORSDOF 5
ENDMDL
MODEL 2
REMARK VINA RESULT:    23.043      1.148      2.644
REMARK INTER + INTRA:          26.820
REMARK INTER:                  27.089
REMARK INTRA:                  -0.269
REMARK UNBOUND:                -0.265
REMARK SMILES O=c1cc(-c2ccc(O)c(O)c2)oc2cc(O)cc(O)c12
REMARK SMILES IDX 4 1 3 2 2 3 1 4 21 5 19 6 18 7 16 8 15 9 14 10 13 11 5 12
REMARK SMILES IDX 6 13 7 14 8 15 12 16 10 17 9 18 11 20 20 22 17 24
REMARK H PARENT 9 19 11 21 20 23 17 25
REMARK Flexibility Score: inf
ROOT
ATOM      1  C   UNL     1      -6.227  -7.531  16.467  1.00  0.00     0.138 A 
ATOM      2  C   UNL     1      -5.822  -8.450  17.449  1.00  0.00     0.100 A 
ATOM      3  C   UNL     1      -6.069  -9.810  17.259  1.00  0.00     0.197 A 
ATOM      4  O   UNL     1      -5.703 -10.627  18.147  1.00  0.00    -0.289 OA
ATOM      5  C   UNL     1      -6.724 -10.242  16.090  1.00  0.00     0.107 A 
ATOM      6  C   UNL     1      -7.012 -11.601  15.819  1.00  0.00     0.134 A 
ATOM      7  C   UNL     1      -7.673 -11.948  14.632  1.00  0.00     0.093 A 
ATOM      8  C   UNL     1      -8.052 -10.962  13.712  1.00  0.00     0.123 A 
ATOM      9  C   UNL     1      -7.769  -9.621  13.974  1.00  0.00     0.094 A 
ATOM     10  C   UNL     1      -7.110  -9.254  15.152  1.00  0.00     0.146 A 
ATOM     11  O   UNL     1      -6.852  -7.970  15.377  1.00  0.00    -0.456 OA
ENDROOT
BRANCH   1  12
ATOM     12  C   UNL     1      -5.990  -6.072  16.615  1.00  0.00     0.021 A 
ATOM     13  C   UNL     1      -4.726  -5.500  16.386  1.00  0.00     0.016 A 
ATOM     14  C   UNL     1      -4.537  -4.125  16.524  1.00  0.00     0.051 A 
ATOM     15  C   UNL     1      -5.599  -3.289  16.884  1.00  0.00     0.157 A 
ATOM     16  C   UNL     1      -7.060  -5.229  16.964  1.00  0.00     0.062 A 
ATOM     17  C   UNL     1      -6.878  -3.848  17.105  1.00  0.00     0.158 A 
BRANCH  15  18
ATOM     18  O   UNL     1      -5.341  -1.921  17.008  1.00  0.00    -0.504 OA
ATOM     19  H   UNL     1      -4.747  -1.400  16.379  1.00  0.00     0.293 HD
ENDBRANCH  15  18
BRANCH  17  20
ATOM     20  O   UNL     1      -7.987  -3.077  17.462  1.00  0.00    -0.504 OA
ATOM     21  H   UNL     1      -8.447  -3.131  18.359  1.00  0.00     0.293 HD
ENDBRANCH  17  20
ENDBRANCH   1  12
BRANCH   6  22
ATOM     22  O   UNL     1      -6.648 -12.604  16.717  1.00  0.00    -0.507 OA
ATOM     23  H   UNL     1      -7.331 -13.238  17.113  1.00  0.00     0.293 HD
ENDBRANCH   6  22
BRANCH   8  24
ATOM     24  O   UNL     1      -8.709 -11.307  12.532  1.00  0.00    -0.508 OA
ATOM     25  H   UNL     1      -8.290 -11.144  11.625  1.00  0.00     0.293 HD
ENDBRANCH   8  24
TORSDOF 5
ENDMDL
MODEL 3
REMARK VINA RESULT:    23.343      1.454      7.339
REMARK INTER + INTRA:          27.173
REMARK INTER:                  27.438
REMARK INTRA:                  -0.265
REMARK UNBOUND:                -0.265
REMARK SMILES O=c1cc(-c2ccc(O)c(O)c2)oc2cc(O)cc(O)c12
REMARK SMILES IDX 4 1 3 2 2 3 1 4 21 5 19 6 18 7 16 8 15 9 14 10 13 11 5 12
REMARK SMILES IDX 6 13 7 14 8 15 12 16 10 17 9 18 11 20 20 22 17 24
REMARK H PARENT 9 19 11 21 20 23 17 25
REMARK Flexibility Score: inf
ROOT
ATOM      1  C   UNL     1      -6.317  -7.262  16.415  1.00  0.00     0.138 A 
ATOM      2  C   UNL     1      -5.093  -6.611  16.186  1.00  0.00     0.100 A 
ATOM      3  C   UNL     1      -5.002  -5.233  16.384  1.00  0.00     0.197 A 
ATOM      4  O   UNL     1      -3.900  -4.657  16.175  1.00  0.00    -0.289 OA
ATOM      5  C   UNL     1      -6.137  -4.514  16.807  1.00  0.00     0.107 A 
ATOM      6  C   UNL     1      -6.130  -3.116  17.033  1.00  0.00     0.134 A 
ATOM      7  C   UNL     1      -7.306  -2.474  17.449  1.00  0.00     0.093 A 
ATOM      8  C   UNL     1      -8.487  -3.202  17.642  1.00  0.00     0.123 A 
ATOM      9  C   UNL     1      -8.497  -4.580  17.422  1.00  0.00     0.094 A 
ATOM     10  C   UNL     1      -7.336  -5.240  17.007  1.00  0.00     0.146 A 
ATOM     11  O   UNL     1      -7.373  -6.553  16.805  1.00  0.00    -0.456 OA
ENDROOT
BRANCH   1  12
ATOM     12  C   UNL     1      -6.472  -8.727  16.220  1.00  0.00     0.021 A 
ATOM     13  C   UNL     1      -6.151  -9.646  17.234  1.00  0.00     0.016 A 
ATOM     14  C   UNL     1      -6.317 -11.016  17.025  1.00  0.00     0.051 A 
ATOM     15  C   UNL     1      -6.812 -11.499  15.809  1.00  0.00     0.157 A 
ATOM     16  C   UNL     1      -6.982  -9.212  15.004  1.00  0.00     0.062 A 
ATOM     17  C   UNL     1      -7.151 -10.585  14.785  1.00  0.00     0.158 A 
BRANCH  15  18
ATOM     18  O   UNL     1      -6.951 -12.882  15.664  1.00  0.00    -0.504 OA
ATOM     19  H   UNL     1      -6.187 -13.507  15.455  1.00  0.00     0.293 HD
ENDBRANCH  15  18
BRANCH  17  20
ATOM     20  O   UNL     1      -7.656 -10.992  13.548  1.00  0.00    -0.504 OA
ATOM     21  H   UNL     1      -8.578 -11.380  13.415  1.00  0.00     0.293 HD
ENDBRANCH  17  20
ENDBRANCH   1  12
BRANCH   6  22
ATOM     22  O   UNL     1      -4.970  -2.365  16.848  1.00  0.00    -0.507 OA
ATOM     23  H   UNL     1      -4.049  -2.778  16.935  1.00  0.00     0.293 HD
ENDBRANCH   6  22
BRANCH   8  24
ATOM     24  O   UNL     1      -9.654  -2.564  18.055  1.00  0.00    -0.508 OA
ATOM     25  H   UNL     1     -10.567  -2.877  17.747  1.00  0.00     0.293 HD
ENDBRANCH   8  24
TORSDOF 5
ENDMDL
