MODEL 1
REMARK VINA RESULT:    -7.327      0.000      0.000
REMARK INTER + INTRA:         -10.063
REMARK INTER:                  -9.040
REMARK INTRA:                  -1.023
REMARK UNBOUND:                -1.023
REMARK SMILES CC(C)=CCC[C@H](C)c1ccc(C)cc1
REMARK SMILES IDX 6 1 7 2 8 3 9 4 13 5 12 6 11 7 14 8 10 9 15 10 5 11 4 12
REMARK SMILES IDX 2 13 1 14 3 15
REMARK H PARENT
REMARK Flexibility Score: inf
ROOT
ATOM      1  C   UNL     1      16.513   0.002  -2.215  1.00  0.00     0.012 C 
ENDROOT
BRANCH   1   2
ATOM      2  C   UNL     1      16.612  -1.329  -1.433  1.00  0.00     0.016 C 
ATOM      3  C   UNL     1      15.577  -2.365  -1.898  1.00  0.00     0.013 C 
BRANCH   2   4
ATOM      4  C   UNL     1      16.470  -1.072   0.057  1.00  0.00    -0.045 A 
ATOM      5  C   UNL     1      16.036  -0.354   4.295  1.00  0.00     0.044 C 
ATOM      6  C   UNL     1      16.202  -0.630   2.830  1.00  0.00    -0.051 A 
ATOM      7  C   UNL     1      17.321  -0.142   2.140  1.00  0.00     0.004 A 
ATOM      8  C   UNL     1      15.207  -1.321   2.123  1.00  0.00     0.004 A 
ATOM      9  C   UNL     1      17.459  -0.366   0.768  1.00  0.00     0.004 A 
ATOM     10  C   UNL     1      15.342  -1.546   0.750  1.00  0.00     0.004 A 
ENDBRANCH   2   4
ENDBRANCH   1   2
BRANCH   1  11
ATOM     11  C   UNL     1      15.343   0.049  -3.221  1.00  0.00     0.028 C 
BRANCH  11  12
ATOM     12  C   UNL     1      14.488   1.283  -3.050  1.00  0.00    -0.028 C 
ATOM     13  C   UNL     1      13.342   1.327  -2.335  1.00  0.00    -0.080 C 
ATOM     14  C   UNL     1      12.586   2.629  -2.269  1.00  0.00     0.039 C 
ATOM     15  C   UNL     1      12.820   0.126  -1.580  1.00  0.00     0.039 C 
ENDBRANCH  11  12
ENDBRANCH   1  11
TORSDOF 4
ENDMDL
MODEL 2
REMARK VINA RESULT:    -6.929      2.294      4.976
REMARK INTER + INTRA:          -9.572
REMARK INTER:                  -8.593
REMARK INTRA:                  -0.979
REMARK UNBOUND:                -1.023
REMARK SMILES CC(C)=CCC[C@H](C)c1ccc(C)cc1
REMARK SMILES IDX 6 1 7 2 8 3 9 4 13 5 12 6 11 7 14 8 10 9 15 10 5 11 4 12
REMARK SMILES IDX 2 13 1 14 3 15
REMARK H PARENT
REMARK Flexibility Score: inf
ROOT
ATOM      1  C   UNL     1      15.526  -2.442  -1.528  1.00  0.00     0.012 C 
ENDROOT
BRANCH   1   2
ATOM      2  C   UNL     1      16.114  -1.042  -1.827  1.00  0.00     0.016 C 
ATOM      3  C   UNL     1      17.192  -0.626  -0.815  1.00  0.00     0.013 C 
BRANCH   2   4
ATOM      4  C   UNL     1      15.004  -0.007  -1.872  1.00  0.00    -0.045 A 
ATOM      5  C   UNL     1      11.857   2.948  -2.030  1.00  0.00     0.044 C 
ATOM      6  C   UNL     1      12.929   1.901  -1.986  1.00  0.00    -0.051 A 
ATOM      7  C   UNL     1      13.125   1.136  -0.827  1.00  0.00     0.004 A 
ATOM      8  C   UNL     1      13.789   1.723  -3.079  1.00  0.00     0.004 A 
ATOM      9  C   UNL     1      14.148   0.185  -0.771  1.00  0.00     0.004 A 
ATOM     10  C   UNL     1      14.813   0.773  -3.026  1.00  0.00     0.004 A 
ENDBRANCH   2   4
ENDBRANCH   1   2
BRANCH   1  11
ATOM     11  C   UNL     1      14.623  -2.992  -2.653  1.00  0.00     0.028 C 
BRANCH  11  12
ATOM     12  C   UNL     1      13.741  -4.123  -2.179  1.00  0.00    -0.028 C 
ATOM     13  C   UNL     1      12.507  -3.961  -1.651  1.00  0.00    -0.080 C 
ATOM     14  C   UNL     1      11.750  -5.186  -1.206  1.00  0.00     0.039 C 
ATOM     15  C   UNL     1      11.859  -2.601  -1.527  1.00  0.00     0.039 C 
ENDBRANCH  11  12
ENDBRANCH   1  11
TORSDOF 4
ENDMDL
MODEL 3
REMARK VINA RESULT:    -6.917      2.027      3.272
REMARK INTER + INTRA:          -9.557
REMARK INTER:                  -8.675
REMARK INTRA:                  -0.882
REMARK UNBOUND:                -1.023
REMARK SMILES CC(C)=CCC[C@H](C)c1ccc(C)cc1
REMARK SMILES IDX 6 1 7 2 8 3 9 4 13 5 12 6 11 7 14 8 10 9 15 10 5 11 4 12
REMARK SMILES IDX 2 13 1 14 3 15
REMARK H PARENT
REMARK Flexibility Score: inf
ROOT
ATOM      1  C   UNL     1      15.635  -2.650  -1.721  1.00  0.00     0.012 C 
ENDROOT
BRANCH   1   2
ATOM      2  C   UNL     1      15.647  -1.152  -1.334  1.00  0.00     0.016 C 
ATOM      3  C   UNL     1      16.777  -0.373  -2.024  1.00  0.00     0.013 C 
BRANCH   2   4
ATOM      4  C   UNL     1      15.746  -1.002   0.174  1.00  0.00    -0.045 A 
ATOM      5  C   UNL     1      15.997  -0.586   4.466  1.00  0.00     0.044 C 
ATOM      6  C   UNL     1      15.926  -0.757   2.978  1.00  0.00    -0.051 A 
ATOM      7  C   UNL     1      16.934  -0.233   2.156  1.00  0.00     0.004 A 
ATOM      8  C   UNL     1      14.817  -1.384   2.391  1.00  0.00     0.004 A 
ATOM      9  C   UNL     1      16.850  -0.360   0.767  1.00  0.00     0.004 A 
ATOM     10  C   UNL     1      14.730  -1.511   1.001  1.00  0.00     0.004 A 
ENDBRANCH   2   4
ENDBRANCH   1   2
BRANCH   1  11
ATOM     11  C   UNL     1      14.510  -3.031  -2.707  1.00  0.00     0.028 C 
BRANCH  11  12
ATOM     12  C   UNL     1      13.658  -4.168  -2.195  1.00  0.00    -0.028 C 
ATOM     13  C   UNL     1      12.487  -4.011  -1.538  1.00  0.00    -0.080 C 
ATOM     14  C   UNL     1      11.756  -5.243  -1.071  1.00  0.00     0.039 C 
ATOM     15  C   UNL     1      11.881  -2.649  -1.292  1.00  0.00     0.039 C 
ENDBRANCH  11  12
ENDBRANCH   1  11
TORSDOF 4
ENDMDL
MODEL 4
REMARK VINA RESULT:    -6.900      2.184      5.123
REMARK INTER + INTRA:          -9.536
REMARK INTER:                  -8.538
REMARK INTRA:                  -0.998
REMARK UNBOUND:                -1.023
REMARK SMILES CC(C)=CCC[C@H](C)c1ccc(C)cc1
REMARK SMILES IDX 6 1 7 2 8 3 9 4 13 5 12 6 11 7 14 8 10 9 15 10 5 11 4 12
REMARK SMILES IDX 2 13 1 14 3 15
REMARK H PARENT
REMARK Flexibility Score: inf
ROOT
ATOM      1  C   UNL     1      15.231  -0.932  -0.364  1.00  0.00     0.012 C 
ENDROOT
BRANCH   1   2
ATOM      2  C   UNL     1      14.830  -0.412  -1.765  1.00  0.00     0.016 C 
ATOM      3  C   UNL     1      16.043   0.014  -2.606  1.00  0.00     0.013 C 
BRANCH   2   4
ATOM      4  C   UNL     1      13.847   0.738  -1.636  1.00  0.00    -0.045 A 
ATOM      5  C   UNL     1      11.057   4.019  -1.298  1.00  0.00     0.044 C 
ATOM      6  C   UNL     1      12.002   2.861  -1.421  1.00  0.00    -0.051 A 
ATOM      7  C   UNL     1      12.321   2.085  -0.298  1.00  0.00     0.004 A 
ATOM      8  C   UNL     1      12.626   2.585  -2.647  1.00  0.00     0.004 A 
ATOM      9  C   UNL     1      13.230   1.028  -0.404  1.00  0.00     0.004 A 
ATOM     10  C   UNL     1      13.535   1.529  -2.755  1.00  0.00     0.004 A 
ENDBRANCH   2   4
ENDBRANCH   1   2
BRANCH   1  11
ATOM     11  C   UNL     1      14.480  -2.210   0.065  1.00  0.00     0.028 C 
BRANCH  11  12
ATOM     12  C   UNL     1      13.995  -3.015  -1.118  1.00  0.00    -0.028 C 
ATOM     13  C   UNL     1      12.695  -3.174  -1.453  1.00  0.00    -0.080 C 
ATOM     14  C   UNL     1      12.363  -4.023  -2.654  1.00  0.00     0.039 C 
ATOM     15  C   UNL     1      11.580  -2.505  -0.684  1.00  0.00     0.039 C 
ENDBRANCH  11  12
ENDBRANCH   1  11
TORSDOF 4
ENDMDL
MODEL 5
REMARK VINA RESULT:    -6.882      2.299      5.077
REMARK INTER + INTRA:          -9.514
REMARK INTER:                  -8.552
REMARK INTRA:                  -0.962
REMARK UNBOUND:                -1.023
REMARK SMILES CC(C)=CCC[C@H](C)c1ccc(C)cc1
REMARK SMILES IDX 6 1 7 2 8 3 9 4 13 5 12 6 11 7 14 8 10 9 15 10 5 11 4 12
REMARK SMILES IDX 2 13 1 14 3 15
REMARK H PARENT
REMARK Flexibility Score: inf
ROOT
ATOM      1  C   UNL     1      16.615  -1.684  -1.515  1.00  0.00     0.012 C 
ENDROOT
BRANCH   1   2
ATOM      2  C   UNL     1      15.449  -1.488  -2.512  1.00  0.00     0.016 C 
ATOM      3  C   UNL     1      15.009  -0.020  -2.626  1.00  0.00     0.013 C 
BRANCH   2   4
ATOM      4  C   UNL     1      14.272  -2.364  -2.120  1.00  0.00    -0.045 A 
ATOM      5  C   UNL     1      10.909  -4.829  -0.991  1.00  0.00     0.044 C 
ATOM      6  C   UNL     1      12.065  -3.970  -1.412  1.00  0.00    -0.051 A 
ATOM      7  C   UNL     1      13.214  -4.551  -1.967  1.00  0.00     0.004 A 
ATOM      8  C   UNL     1      12.033  -2.585  -1.192  1.00  0.00     0.004 A 
ATOM      9  C   UNL     1      14.306  -3.756  -2.325  1.00  0.00     0.004 A 
ATOM     10  C   UNL     1      13.124  -1.788  -1.549  1.00  0.00     0.004 A 
ENDBRANCH   2   4
ENDBRANCH   1   2
BRANCH   1  11
ATOM     11  C   UNL     1      17.113  -0.372  -0.872  1.00  0.00     0.028 C 
BRANCH  11  12
ATOM     12  C   UNL     1      17.301  -0.500   0.622  1.00  0.00    -0.028 C 
ATOM     13  C   UNL     1      16.326  -0.297   1.536  1.00  0.00    -0.080 C 
ATOM     14  C   UNL     1      16.670  -0.445   2.996  1.00  0.00     0.039 C 
ATOM     15  C   UNL     1      14.908   0.039   1.137  1.00  0.00     0.039 C 
ENDBRANCH  11  12
ENDBRANCH   1  11
TORSDOF 4
ENDMDL
MODEL 6
REMARK VINA RESULT:    -6.807      1.181      2.032
REMARK INTER + INTRA:          -9.421
REMARK INTER:                  -8.430
REMARK INTRA:                  -0.992
REMARK UNBOUND:                -1.023
REMARK SMILES CC(C)=CCC[C@H](C)c1ccc(C)cc1
REMARK SMILES IDX 6 1 7 2 8 3 9 4 13 5 12 6 11 7 14 8 10 9 15 10 5 11 4 12
REMARK SMILES IDX 2 13 1 14 3 15
REMARK H PARENT
REMARK Flexibility Score: inf
ROOT
ATOM      1  C   UNL     1      14.597  -1.805  -1.192  1.00  0.00     0.012 C 
ENDROOT
BRANCH   1   2
ATOM      2  C   UNL     1      15.694  -0.815  -0.734  1.00  0.00     0.016 C 
ATOM      3  C   UNL     1      17.067  -1.130  -1.347  1.00  0.00     0.013 C 
BRANCH   2   4
ATOM      4  C   UNL     1      15.783  -0.798   0.782  1.00  0.00    -0.045 A 
ATOM      5  C   UNL     1      16.065  -0.733   5.092  1.00  0.00     0.044 C 
ATOM      6  C   UNL     1      15.950  -0.729   3.597  1.00  0.00    -0.051 A 
ATOM      7  C   UNL     1      14.890  -1.397   2.967  1.00  0.00     0.004 A 
ATOM      8  C   UNL     1      16.937  -0.115   2.813  1.00  0.00     0.004 A 
ATOM      9  C   UNL     1      14.802  -1.426   1.572  1.00  0.00     0.004 A 
ATOM     10  C   UNL     1      16.852  -0.142   1.418  1.00  0.00     0.004 A 
ENDBRANCH   2   4
ENDBRANCH   1   2
BRANCH   1  11
ATOM     11  C   UNL     1      13.234  -1.139  -1.474  1.00  0.00     0.028 C 
BRANCH  11  12
ATOM     12  C   UNL     1      13.377   0.301  -1.909  1.00  0.00    -0.028 C 
ATOM     13  C   UNL     1      13.010   1.366  -1.163  1.00  0.00    -0.080 C 
ATOM     14  C   UNL     1      13.199   2.746  -1.739  1.00  0.00     0.039 C 
ATOM     15  C   UNL     1      12.451   1.213   0.233  1.00  0.00     0.039 C 
ENDBRANCH  11  12
ENDBRANCH   1  11
TORSDOF 4
ENDMDL
MODEL 7
REMARK VINA RESULT:    -6.757      2.833      5.421
REMARK INTER + INTRA:          -9.359
REMARK INTER:                  -8.340
REMARK INTRA:                  -1.019
REMARK UNBOUND:                -1.023
REMARK SMILES CC(C)=CCC[C@H](C)c1ccc(C)cc1
REMARK SMILES IDX 6 1 7 2 8 3 9 4 13 5 12 6 11 7 14 8 10 9 15 10 5 11 4 12
REMARK SMILES IDX 2 13 1 14 3 15
REMARK H PARENT
REMARK Flexibility Score: inf
ROOT
ATOM      1  C   UNL     1      13.958  -0.145  -1.491  1.00  0.00     0.012 C 
ENDROOT
BRANCH   1   2
ATOM      2  C   UNL     1      14.564  -1.565  -1.589  1.00  0.00     0.016 C 
ATOM      3  C   UNL     1      15.425  -1.754  -2.847  1.00  0.00     0.013 C 
BRANCH   2   4
ATOM      4  C   UNL     1      13.462  -2.609  -1.541  1.00  0.00    -0.045 A 
ATOM      5  C   UNL     1      10.347  -5.600  -1.420  1.00  0.00     0.044 C 
ATOM      6  C   UNL     1      11.436  -4.569  -1.432  1.00  0.00    -0.051 A 
ATOM      7  C   UNL     1      11.166  -3.249  -1.042  1.00  0.00     0.004 A 
ATOM      8  C   UNL     1      12.717  -4.899  -1.897  1.00  0.00     0.004 A 
ATOM      9  C   UNL     1      12.171  -2.279  -1.089  1.00  0.00     0.004 A 
ATOM     10  C   UNL     1      13.724  -3.930  -1.945  1.00  0.00     0.004 A 
ENDBRANCH   2   4
ENDBRANCH   1   2
BRANCH   1  11
ATOM     11  C   UNL     1      14.234   0.559  -0.145  1.00  0.00     0.028 C 
BRANCH  11  12
ATOM     12  C   UNL     1      15.361  -0.091   0.623  1.00  0.00    -0.028 C 
ATOM     13  C   UNL     1      15.190  -0.915   1.681  1.00  0.00    -0.080 C 
ATOM     14  C   UNL     1      16.414  -1.476   2.358  1.00  0.00     0.039 C 
ATOM     15  C   UNL     1      13.818  -1.312   2.176  1.00  0.00     0.039 C 
ENDBRANCH  11  12
ENDBRANCH   1  11
TORSDOF 4
ENDMDL
MODEL 8
REMARK VINA RESULT:    -6.747      2.755      4.416
REMARK INTER + INTRA:          -9.348
REMARK INTER:                  -8.435
REMARK INTRA:                  -0.913
REMARK UNBOUND:                -1.023
REMARK SMILES CC(C)=CCC[C@H](C)c1ccc(C)cc1
REMARK SMILES IDX 6 1 7 2 8 3 9 4 13 5 12 6 11 7 14 8 10 9 15 10 5 11 4 12
REMARK SMILES IDX 2 13 1 14 3 15
REMARK H PARENT
REMARK Flexibility Score: inf
ROOT
ATOM      1  C   UNL     1      14.704  -0.422  -2.886  1.00  0.00     0.012 C 
ENDROOT
BRANCH   1   2
ATOM      2  C   UNL     1      14.813  -1.250  -1.583  1.00  0.00     0.016 C 
ATOM      3  C   UNL     1      16.197  -1.894  -1.408  1.00  0.00     0.013 C 
BRANCH   2   4
ATOM      4  C   UNL     1      13.727  -2.311  -1.544  1.00  0.00    -0.045 A 
ATOM      5  C   UNL     1      10.618  -5.308  -1.421  1.00  0.00     0.044 C 
ATOM      6  C   UNL     1      11.691  -4.262  -1.494  1.00  0.00    -0.051 A 
ATOM      7  C   UNL     1      13.000  -4.614  -1.854  1.00  0.00     0.004 A 
ATOM      8  C   UNL     1      11.410  -2.935  -1.138  1.00  0.00     0.004 A 
ATOM      9  C   UNL     1      14.009  -3.648  -1.886  1.00  0.00     0.004 A 
ATOM     10  C   UNL     1      12.417  -1.966  -1.170  1.00  0.00     0.004 A 
ENDBRANCH   2   4
ENDBRANCH   1   2
BRANCH   1  11
ATOM     11  C   UNL     1      14.891   1.095  -2.678  1.00  0.00     0.028 C 
BRANCH  11  12
ATOM     12  C   UNL     1      13.597   1.860  -2.828  1.00  0.00    -0.028 C 
ATOM     13  C   UNL     1      12.764   2.162  -1.807  1.00  0.00    -0.080 C 
ATOM     14  C   UNL     1      11.497   2.918  -2.114  1.00  0.00     0.039 C 
ATOM     15  C   UNL     1      13.083   1.796  -0.376  1.00  0.00     0.039 C 
ENDBRANCH  11  12
ENDBRANCH   1  11
TORSDOF 4
ENDMDL
MODEL 9
REMARK VINA RESULT:    -6.678      1.171      5.294
REMARK INTER + INTRA:          -9.262
REMARK INTER:                  -8.394
REMARK INTRA:                  -0.868
REMARK UNBOUND:                -1.023
REMARK SMILES CC(C)=CCC[C@H](C)c1ccc(C)cc1
REMARK SMILES IDX 6 1 7 2 8 3 9 4 13 5 12 6 11 7 14 8 10 9 15 10 5 11 4 12
REMARK SMILES IDX 2 13 1 14 3 15
REMARK H PARENT
REMARK Flexibility Score: inf
ROOT
ATOM      1  C   UNL     1      16.743  -0.031  -0.201  1.00  0.00     0.012 C 
ENDROOT
BRANCH   1   2
ATOM      2  C   UNL     1      15.755  -0.448  -1.316  1.00  0.00     0.016 C 
ATOM      3  C   UNL     1      16.429  -0.556  -2.692  1.00  0.00     0.013 C 
BRANCH   2   4
ATOM      4  C   UNL     1      14.589   0.524  -1.372  1.00  0.00    -0.045 A 
ATOM      5  C   UNL     1      11.280   3.293  -1.565  1.00  0.00     0.044 C 
ATOM      6  C   UNL     1      12.409   2.308  -1.502  1.00  0.00    -0.051 A 
ATOM      7  C   UNL     1      12.810   1.769  -0.271  1.00  0.00     0.004 A 
ATOM      8  C   UNL     1      13.116   1.968  -2.664  1.00  0.00     0.004 A 
ATOM      9  C   UNL     1      13.886   0.879  -0.206  1.00  0.00     0.004 A 
ATOM     10  C   UNL     1      14.193   1.078  -2.602  1.00  0.00     0.004 A 
ENDBRANCH   2   4
ENDBRANCH   1   2
BRANCH   1  11
ATOM     11  C   UNL     1      17.058  -1.157   0.806  1.00  0.00     0.028 C 
BRANCH  11  12
ATOM     12  C   UNL     1      17.024  -0.675   2.237  1.00  0.00    -0.028 C 
ATOM     13  C   UNL     1      15.944  -0.758   3.047  1.00  0.00    -0.080 C 
ATOM     14  C   UNL     1      16.055  -0.216   4.449  1.00  0.00     0.039 C 
ATOM     15  C   UNL     1      14.652  -1.402   2.599  1.00  0.00     0.039 C 
ENDBRANCH  11  12
ENDBRANCH   1  11
TORSDOF 4
ENDMDL
