MODEL 1
REMARK VINA RESULT:    -3.838      0.000      0.000
REMARK INTER + INTRA:          -5.139
REMARK INTER:                  -4.960
REMARK INTRA:                  -0.179
REMARK UNBOUND:                -0.179
REMARK SMILES CCCCCCC(=O)[O-]
REMARK SMILES IDX 5 1 6 2 7 3 8 4 9 5 4 6 3 7 2 8 1 9
REMARK H PARENT
REMARK Flexibility Score: inf
ROOT
ATOM      1  C   UNL     1     -21.533 -31.122  12.024  1.00  0.00     0.006 C 
ENDROOT
BRANCH   1   2
ATOM      2  C   UNL     1     -22.934 -31.544  11.575  1.00  0.00     0.053 C 
BRANCH   2   3
ATOM      3  C   UNL     1     -22.913 -32.940  11.035  1.00  0.00     0.041 C 
ATOM      4  O   UNL     1     -23.869 -33.724  11.271  1.00  0.00    -0.550 OA
ATOM      5  O   UNL     1     -21.862 -33.358  10.230  1.00  0.00    -0.550 OA
ENDBRANCH   2   3
ENDBRANCH   1   2
BRANCH   1   6
ATOM      6  C   UNL     1     -21.430 -31.095  13.554  1.00  0.00     0.000 C 
BRANCH   6   7
ATOM      7  C   UNL     1     -21.225 -29.665  14.067  1.00  0.00    -0.000 C 
BRANCH   7   8
ATOM      8  C   UNL     1     -21.614 -29.551  15.545  1.00  0.00    -0.003 C 
ATOM      9  C   UNL     1     -22.212 -30.858  16.060  1.00  0.00     0.004 C 
ENDBRANCH   7   8
ENDBRANCH   6   7
ENDBRANCH   1   6
TORSDOF 5
ENDMDL
MODEL 2
REMARK VINA RESULT:    -3.796      7.539      8.793
REMARK INTER + INTRA:          -5.084
REMARK INTER:                  -4.779
REMARK INTRA:                  -0.305
REMARK UNBOUND:                -0.179
REMARK SMILES CCCCCCC(=O)[O-]
REMARK SMILES IDX 5 1 6 2 7 3 8 4 9 5 4 6 3 7 2 8 1 9
REMARK H PARENT
REMARK Flexibility Score: inf
ROOT
ATOM      1  C   UNL     1     -26.648 -28.339   8.899  1.00  0.00     0.006 C 
ENDROOT
BRANCH   1   2
ATOM      2  C   UNL     1     -26.901 -27.012   9.619  1.00  0.00     0.053 C 
BRANCH   2   3
ATOM      3  C   UNL     1     -25.833 -26.021   9.281  1.00  0.00     0.041 C 
ATOM      4  O   UNL     1     -25.183 -26.131   8.207  1.00  0.00    -0.550 OA
ATOM      5  O   UNL     1     -25.588 -24.946  10.126  1.00  0.00    -0.550 OA
ENDBRANCH   2   3
ENDBRANCH   1   2
BRANCH   1   6
ATOM      6  C   UNL     1     -27.799 -28.674   7.943  1.00  0.00     0.000 C 
BRANCH   6   7
ATOM      7  C   UNL     1     -27.309 -29.530   6.769  1.00  0.00    -0.000 C 
BRANCH   7   8
ATOM      8  C   UNL     1     -25.803 -29.346   6.546  1.00  0.00    -0.003 C 
ATOM      9  C   UNL     1     -25.529 -28.515   5.295  1.00  0.00     0.004 C 
ENDBRANCH   7   8
ENDBRANCH   6   7
ENDBRANCH   1   6
TORSDOF 5
ENDMDL
MODEL 3
REMARK VINA RESULT:    -3.749      9.348     10.200
REMARK INTER + INTRA:          -5.024
REMARK INTER:                  -4.799
REMARK INTRA:                  -0.225
REMARK UNBOUND:                -0.179
REMARK SMILES CCCCCCC(=O)[O-]
REMARK SMILES IDX 5 1 6 2 7 3 8 4 9 5 4 6 3 7 2 8 1 9
REMARK H PARENT
REMARK Flexibility Score: inf
ROOT
ATOM      1  C   UNL     1     -19.863 -20.695   9.888  1.00  0.00     0.006 C 
ENDROOT
BRANCH   1   2
ATOM      2  C   UNL     1     -20.232 -21.888   9.002  1.00  0.00     0.053 C 
BRANCH   2   3
ATOM      3  C   UNL     1     -21.676 -21.829   8.617  1.00  0.00     0.041 C 
ATOM      4  O   UNL     1     -22.080 -20.955   7.805  1.00  0.00    -0.550 OA
ATOM      5  O   UNL     1     -22.568 -22.769   9.117  1.00  0.00    -0.550 OA
ENDBRANCH   2   3
ENDBRANCH   1   2
BRANCH   1   6
ATOM      6  C   UNL     1     -19.130 -21.154  11.153  1.00  0.00     0.000 C 
BRANCH   6   7
ATOM      7  C   UNL     1     -19.334 -22.654  11.395  1.00  0.00    -0.000 C 
BRANCH   7   8
ATOM      8  C   UNL     1     -19.548 -22.946  12.884  1.00  0.00    -0.003 C 
ATOM      9  C   UNL     1     -20.979 -23.406  13.156  1.00  0.00     0.004 C 
ENDBRANCH   7   8
ENDBRANCH   6   7
ENDBRANCH   1   6
TORSDOF 5
ENDMDL
MODEL 4
REMARK VINA RESULT:    -3.727     11.556     12.768
REMARK INTER + INTRA:          -4.995
REMARK INTER:                  -4.751
REMARK INTRA:                  -0.244
REMARK UNBOUND:                -0.179
REMARK SMILES CCCCCCC(=O)[O-]
REMARK SMILES IDX 5 1 6 2 7 3 8 4 9 5 4 6 3 7 2 8 1 9
REMARK H PARENT
REMARK Flexibility Score: inf
ROOT
ATOM      1  C   UNL     1     -30.233 -23.104  17.411  1.00  0.00     0.006 C 
ENDROOT
BRANCH   1   2
ATOM      2  C   UNL     1     -29.231 -21.972  17.649  1.00  0.00     0.053 C 
BRANCH   2   3
ATOM      3  C   UNL     1     -29.917 -20.644  17.591  1.00  0.00     0.041 C 
ATOM      4  O   UNL     1     -29.716 -19.787  18.492  1.00  0.00    -0.550 OA
ATOM      5  O   UNL     1     -30.741 -20.332  16.517  1.00  0.00    -0.550 OA
ENDBRANCH   2   3
ENDBRANCH   1   2
BRANCH   1   6
ATOM      6  C   UNL     1     -29.772 -24.016  16.268  1.00  0.00     0.000 C 
BRANCH   6   7
ATOM      7  C   UNL     1     -28.255 -23.928  16.069  1.00  0.00    -0.000 C 
BRANCH   7   8
ATOM      8  C   UNL     1     -27.664 -25.301  15.730  1.00  0.00    -0.003 C 
ATOM      9  C   UNL     1     -27.379 -26.106  16.996  1.00  0.00     0.004 C 
ENDBRANCH   7   8
ENDBRANCH   6   7
ENDBRANCH   1   6
TORSDOF 5
ENDMDL
MODEL 5
REMARK VINA RESULT:    -3.715      7.438      9.123
REMARK INTER + INTRA:          -4.979
REMARK INTER:                  -4.811
REMARK INTRA:                  -0.168
REMARK UNBOUND:                -0.179
REMARK SMILES CCCCCCC(=O)[O-]
REMARK SMILES IDX 5 1 6 2 7 3 8 4 9 5 4 6 3 7 2 8 1 9
REMARK H PARENT
REMARK Flexibility Score: inf
ROOT
ATOM      1  C   UNL     1     -25.623 -29.441   6.220  1.00  0.00     0.006 C 
ENDROOT
BRANCH   1   2
ATOM      2  C   UNL     1     -27.015 -29.452   6.857  1.00  0.00     0.053 C 
BRANCH   2   3
ATOM      3  C   UNL     1     -26.976 -28.825   8.214  1.00  0.00     0.041 C 
ATOM      4  O   UNL     1     -26.051 -29.112   9.019  1.00  0.00    -0.550 OA
ATOM      5  O   UNL     1     -27.934 -27.886   8.574  1.00  0.00    -0.550 OA
ENDBRANCH   2   3
ENDBRANCH   1   2
BRANCH   1   6
ATOM      6  C   UNL     1     -25.486 -28.293   5.214  1.00  0.00     0.000 C 
BRANCH   6   7
ATOM      7  C   UNL     1     -24.112 -28.316   4.535  1.00  0.00    -0.000 C 
BRANCH   7   8
ATOM      8  C   UNL     1     -24.081 -29.335   3.391  1.00  0.00    -0.003 C 
ATOM      9  C   UNL     1     -22.765 -30.110   3.378  1.00  0.00     0.004 C 
ENDBRANCH   7   8
ENDBRANCH   6   7
ENDBRANCH   1   6
TORSDOF 5
ENDMDL
MODEL 6
REMARK VINA RESULT:    -3.705      4.346      5.616
REMARK INTER + INTRA:          -4.968
REMARK INTER:                  -4.603
REMARK INTRA:                  -0.364
REMARK UNBOUND:                -0.179
REMARK SMILES CCCCCCC(=O)[O-]
REMARK SMILES IDX 5 1 6 2 7 3 8 4 9 5 4 6 3 7 2 8 1 9
REMARK H PARENT
REMARK Flexibility Score: inf
ROOT
ATOM      1  C   UNL     1     -20.721 -27.891  16.498  1.00  0.00     0.006 C 
ENDROOT
BRANCH   1   2
ATOM      2  C   UNL     1     -21.647 -28.919  15.842  1.00  0.00     0.053 C 
BRANCH   2   3
ATOM      3  C   UNL     1     -21.576 -30.225  16.568  1.00  0.00     0.041 C 
ATOM      4  O   UNL     1     -21.019 -30.294  17.696  1.00  0.00    -0.550 OA
ATOM      5  O   UNL     1     -22.168 -31.357  16.022  1.00  0.00    -0.550 OA
ENDBRANCH   2   3
ENDBRANCH   1   2
BRANCH   1   6
ATOM      6  C   UNL     1     -21.513 -26.680  17.005  1.00  0.00     0.000 C 
BRANCH   6   7
ATOM      7  C   UNL     1     -23.014 -26.859  16.753  1.00  0.00    -0.000 C 
BRANCH   7   8
ATOM      8  C   UNL     1     -23.805 -26.773  18.063  1.00  0.00    -0.003 C 
ATOM      9  C   UNL     1     -23.426 -27.908  19.011  1.00  0.00     0.004 C 
ENDBRANCH   7   8
ENDBRANCH   6   7
ENDBRANCH   1   6
TORSDOF 5
ENDMDL
MODEL 7
REMARK VINA RESULT:    -3.693     10.254     11.364
REMARK INTER + INTRA:          -4.951
REMARK INTER:                  -4.709
REMARK INTRA:                  -0.242
REMARK UNBOUND:                -0.179
REMARK SMILES CCCCCCC(=O)[O-]
REMARK SMILES IDX 5 1 6 2 7 3 8 4 9 5 4 6 3 7 2 8 1 9
REMARK H PARENT
REMARK Flexibility Score: inf
ROOT
ATOM      1  C   UNL     1     -29.073 -23.403  16.260  1.00  0.00     0.006 C 
ENDROOT
BRANCH   1   2
ATOM      2  C   UNL     1     -27.640 -23.906  16.066  1.00  0.00     0.053 C 
BRANCH   2   3
ATOM      3  C   UNL     1     -27.617 -25.399  15.971  1.00  0.00     0.041 C 
ATOM      4  O   UNL     1     -27.117 -26.085  16.902  1.00  0.00    -0.550 OA
ATOM      5  O   UNL     1     -28.190 -26.035  14.878  1.00  0.00    -0.550 OA
ENDBRANCH   2   3
ENDBRANCH   1   2
BRANCH   1   6
ATOM      6  C   UNL     1     -29.588 -23.736  17.665  1.00  0.00     0.000 C 
BRANCH   6   7
ATOM      7  C   UNL     1     -30.345 -22.548  18.271  1.00  0.00    -0.000 C 
BRANCH   7   8
ATOM      8  C   UNL     1     -30.010 -21.248  17.530  1.00  0.00    -0.003 C 
ATOM      9  C   UNL     1     -29.612 -20.144  18.507  1.00  0.00     0.004 C 
ENDBRANCH   7   8
ENDBRANCH   6   7
ENDBRANCH   1   6
TORSDOF 5
ENDMDL
MODEL 8
REMARK VINA RESULT:    -3.690     12.972     13.619
REMARK INTER + INTRA:          -4.947
REMARK INTER:                  -4.799
REMARK INTRA:                  -0.148
REMARK UNBOUND:                -0.179
REMARK SMILES CCCCCCC(=O)[O-]
REMARK SMILES IDX 5 1 6 2 7 3 8 4 9 5 4 6 3 7 2 8 1 9
REMARK H PARENT
REMARK Flexibility Score: inf
ROOT
ATOM      1  C   UNL     1     -19.528 -26.117   0.087  1.00  0.00     0.006 C 
ENDROOT
BRANCH   1   2
ATOM      2  C   UNL     1     -19.256 -26.720   1.468  1.00  0.00     0.053 C 
BRANCH   2   3
ATOM      3  C   UNL     1     -17.876 -27.297   1.525  1.00  0.00     0.041 C 
ATOM      4  O   UNL     1     -17.548 -28.233   0.750  1.00  0.00    -0.550 OA
ATOM      5  O   UNL     1     -16.938 -26.767   2.402  1.00  0.00    -0.550 OA
ENDBRANCH   2   3
ENDBRANCH   1   2
BRANCH   1   6
ATOM      6  C   UNL     1     -21.029 -25.901  -0.134  1.00  0.00     0.000 C 
BRANCH   6   7
ATOM      7  C   UNL     1     -21.474 -24.535   0.400  1.00  0.00    -0.000 C 
BRANCH   7   8
ATOM      8  C   UNL     1     -22.482 -24.694   1.544  1.00  0.00    -0.003 C 
ATOM      9  C   UNL     1     -22.950 -23.334   2.059  1.00  0.00     0.004 C 
ENDBRANCH   7   8
ENDBRANCH   6   7
ENDBRANCH   1   6
TORSDOF 5
ENDMDL
MODEL 9
REMARK VINA RESULT:    -3.669      8.867      9.935
REMARK INTER + INTRA:          -4.920
REMARK INTER:                  -4.719
REMARK INTRA:                  -0.201
REMARK UNBOUND:                -0.179
REMARK SMILES CCCCCCC(=O)[O-]
REMARK SMILES IDX 5 1 6 2 7 3 8 4 9 5 4 6 3 7 2 8 1 9
REMARK H PARENT
REMARK Flexibility Score: inf
ROOT
ATOM      1  C   UNL     1     -19.792 -22.464  12.778  1.00  0.00     0.006 C 
ENDROOT
BRANCH   1   2
ATOM      2  C   UNL     1     -19.190 -22.266  11.385  1.00  0.00     0.053 C 
BRANCH   2   3
ATOM      3  C   UNL     1     -19.479 -20.888  10.880  1.00  0.00     0.041 C 
ATOM      4  O   UNL     1     -19.839 -20.713   9.685  1.00  0.00    -0.550 OA
ATOM      5  O   UNL     1     -19.400 -19.801  11.741  1.00  0.00    -0.550 OA
ENDBRANCH   2   3
ENDBRANCH   1   2
BRANCH   1   6
ATOM      6  C   UNL     1     -19.851 -23.951  13.147  1.00  0.00     0.000 C 
BRANCH   6   7
ATOM      7  C   UNL     1     -19.526 -24.164  14.630  1.00  0.00    -0.000 C 
BRANCH   7   8
ATOM      8  C   UNL     1     -18.456 -25.248  14.808  1.00  0.00    -0.003 C 
ATOM      9  C   UNL     1     -17.675 -25.469  13.514  1.00  0.00     0.004 C 
ENDBRANCH   7   8
ENDBRANCH   6   7
ENDBRANCH   1   6
TORSDOF 5
ENDMDL
