MODEL 1
REMARK VINA RESULT:    -2.550      0.000      0.000
REMARK INTER + INTRA:          -3.141
REMARK INTER:                  -3.072
REMARK INTRA:                  -0.069
REMARK UNBOUND:                -0.069
REMARK SMILES CCCCCO
REMARK SMILES IDX 4 1 3 2 2 3 1 4 5 5 6 6
REMARK H PARENT 6 7
REMARK Flexibility Score: inf
ROOT
ATOM      1  C   UNL     1     145.883 141.096 119.510  1.00  0.00     0.028 C 
ENDROOT
BRANCH   1   2
ATOM      2  C   UNL     1     145.216 142.289 118.809  1.00  0.00     0.002 C 
BRANCH   2   3
ATOM      3  C   UNL     1     144.453 143.197 119.786  1.00  0.00    -0.003 C 
ATOM      4  C   UNL     1     144.926 144.649 119.736  1.00  0.00     0.004 C 
ENDBRANCH   2   3
ENDBRANCH   1   2
BRANCH   1   5
ATOM      5  C   UNL     1     145.609 141.119 121.014  1.00  0.00     0.156 C 
BRANCH   5   6
ATOM      6  O   UNL     1     146.805 140.904 121.710  1.00  0.00    -0.396 OA
ATOM      7  H   UNL     1     147.335 141.737 121.609  1.00  0.00     0.210 HD
ENDBRANCH   5   6
ENDBRANCH   1   5
TORSDOF 4
ENDMDL
MODEL 2
REMARK VINA RESULT:    -2.541     11.207     11.912
REMARK INTER + INTRA:          -3.130
REMARK INTER:                  -3.064
REMARK INTRA:                  -0.066
REMARK UNBOUND:                -0.069
REMARK SMILES CCCCCO
REMARK SMILES IDX 4 1 3 2 2 3 1 4 5 5 6 6
REMARK H PARENT 6 7
REMARK Flexibility Score: inf
ROOT
ATOM      1  C   UNL     1     143.665 129.858 119.525  1.00  0.00     0.028 C 
ENDROOT
BRANCH   1   2
ATOM      2  C   UNL     1     144.665 130.868 118.943  1.00  0.00     0.002 C 
BRANCH   2   3
ATOM      3  C   UNL     1     145.441 131.625 120.032  1.00  0.00    -0.003 C 
ATOM      4  C   UNL     1     146.923 131.790 119.695  1.00  0.00     0.004 C 
ENDBRANCH   2   3
ENDBRANCH   1   2
BRANCH   1   5
ATOM      5  C   UNL     1     143.565 129.996 121.043  1.00  0.00     0.156 C 
BRANCH   5   6
ATOM      6  O   UNL     1     143.752 128.743 121.640  1.00  0.00    -0.396 OA
ATOM      7  H   UNL     1     144.317 128.901 122.440  1.00  0.00     0.210 HD
ENDBRANCH   5   6
ENDBRANCH   1   5
TORSDOF 4
ENDMDL
MODEL 3
REMARK VINA RESULT:    -2.538      1.944      2.966
REMARK INTER + INTRA:          -3.126
REMARK INTER:                  -3.067
REMARK INTRA:                  -0.060
REMARK UNBOUND:                -0.069
REMARK SMILES CCCCCO
REMARK SMILES IDX 4 1 3 2 2 3 1 4 5 5 6 6
REMARK H PARENT 6 7
REMARK Flexibility Score: inf
ROOT
ATOM      1  C   UNL     1     144.864 144.790 121.142  1.00  0.00     0.028 C 
ENDROOT
BRANCH   1   2
ATOM      2  C   UNL     1     144.771 144.070 119.788  1.00  0.00     0.002 C 
BRANCH   2   3
ATOM      3  C   UNL     1     144.796 142.540 119.931  1.00  0.00    -0.003 C 
ATOM      4  C   UNL     1     145.191 141.832 118.635  1.00  0.00     0.004 C 
ENDBRANCH   2   3
ENDBRANCH   1   2
BRANCH   1   5
ATOM      5  C   UNL     1     145.240 143.816 122.258  1.00  0.00     0.156 C 
BRANCH   5   6
ATOM      6  O   UNL     1     146.448 144.216 122.841  1.00  0.00    -0.396 OA
ATOM      7  H   UNL     1     146.462 143.817 123.749  1.00  0.00     0.210 HD
ENDBRANCH   5   6
ENDBRANCH   1   5
TORSDOF 4
ENDMDL
MODEL 4
REMARK VINA RESULT:    -2.533     20.380     20.747
REMARK INTER + INTRA:          -3.120
REMARK INTER:                  -3.111
REMARK INTRA:                  -0.010
REMARK UNBOUND:                -0.069
REMARK SMILES CCCCCO
REMARK SMILES IDX 4 1 3 2 2 3 1 4 5 5 6 6
REMARK H PARENT 6 7
REMARK Flexibility Score: inf
ROOT
ATOM      1  C   UNL     1     129.569 128.638 120.574  1.00  0.00     0.028 C 
ENDROOT
BRANCH   1   2
ATOM      2  C   UNL     1     128.976 130.018 120.256  1.00  0.00     0.002 C 
BRANCH   2   3
ATOM      3  C   UNL     1     127.469 129.959 119.964  1.00  0.00    -0.003 C 
ATOM      4  C   UNL     1     127.066 130.816 118.763  1.00  0.00     0.004 C 
ENDBRANCH   2   3
ENDBRANCH   1   2
BRANCH   1   5
ATOM      5  C   UNL     1     131.092 128.704 120.678  1.00  0.00     0.156 C 
BRANCH   5   6
ATOM      6  O   UNL     1     131.529 127.853 121.700  1.00  0.00    -0.396 OA
ATOM      7  H   UNL     1     132.508 127.993 121.777  1.00  0.00     0.210 HD
ENDBRANCH   5   6
ENDBRANCH   1   5
TORSDOF 4
ENDMDL
MODEL 5
REMARK VINA RESULT:    -2.518     10.735     11.122
REMARK INTER + INTRA:          -3.103
REMARK INTER:                  -3.047
REMARK INTRA:                  -0.056
REMARK UNBOUND:                -0.069
REMARK SMILES CCCCCO
REMARK SMILES IDX 4 1 3 2 2 3 1 4 5 5 6 6
REMARK H PARENT 6 7
REMARK Flexibility Score: inf
ROOT
ATOM      1  C   UNL     1     146.786 132.049 121.243  1.00  0.00     0.028 C 
ENDROOT
BRANCH   1   2
ATOM      2  C   UNL     1     146.359 131.759 119.797  1.00  0.00     0.002 C 
BRANCH   2   3
ATOM      3  C   UNL     1     144.833 131.768 119.618  1.00  0.00    -0.003 C 
ATOM      4  C   UNL     1     144.335 130.626 118.732  1.00  0.00     0.004 C 
ENDBRANCH   2   3
ENDBRANCH   1   2
BRANCH   1   5
ATOM      5  C   UNL     1     145.954 131.237 122.235  1.00  0.00     0.156 C 
BRANCH   5   6
ATOM      6  O   UNL     1     146.744 130.221 122.786  1.00  0.00    -0.396 OA
ATOM      7  H   UNL     1     146.585 129.416 122.228  1.00  0.00     0.210 HD
ENDBRANCH   5   6
ENDBRANCH   1   5
TORSDOF 4
ENDMDL
MODEL 6
REMARK VINA RESULT:    -2.509     17.399     17.950
REMARK INTER + INTRA:          -3.091
REMARK INTER:                  -3.051
REMARK INTRA:                  -0.040
REMARK UNBOUND:                -0.069
REMARK SMILES CCCCCO
REMARK SMILES IDX 4 1 3 2 2 3 1 4 5 5 6 6
REMARK H PARENT 6 7
REMARK Flexibility Score: inf
ROOT
ATOM      1  C   UNL     1     127.409 143.023 120.278  1.00  0.00     0.028 C 
ENDROOT
BRANCH   1   2
ATOM      2  C   UNL     1     128.425 143.724 119.365  1.00  0.00     0.002 C 
BRANCH   2   3
ATOM      3  C   UNL     1     127.809 144.899 118.589  1.00  0.00    -0.003 C 
ATOM      4  C   UNL     1     127.080 145.890 119.496  1.00  0.00     0.004 C 
ENDBRANCH   2   3
ENDBRANCH   1   2
BRANCH   1   5
ATOM      5  C   UNL     1     127.917 142.957 121.718  1.00  0.00     0.156 C 
BRANCH   5   6
ATOM      6  O   UNL     1     127.224 141.958 122.413  1.00  0.00    -0.396 OA
ATOM      7  H   UNL     1     127.094 142.303 123.334  1.00  0.00     0.210 HD
ENDBRANCH   5   6
ENDBRANCH   1   5
TORSDOF 4
ENDMDL
MODEL 7
REMARK VINA RESULT:    -2.493     23.280     23.782
REMARK INTER + INTRA:          -3.073
REMARK INTER:                  -3.035
REMARK INTRA:                  -0.037
REMARK UNBOUND:                -0.069
REMARK SMILES CCCCCO
REMARK SMILES IDX 4 1 3 2 2 3 1 4 5 5 6 6
REMARK H PARENT 6 7
REMARK Flexibility Score: inf
ROOT
ATOM      1  C   UNL     1     128.206 144.316 135.336  1.00  0.00     0.028 C 
ENDROOT
BRANCH   1   2
ATOM      2  C   UNL     1     126.875 145.081 135.393  1.00  0.00     0.002 C 
BRANCH   2   3
ATOM      3  C   UNL     1     126.876 146.332 134.502  1.00  0.00    -0.003 C 
ATOM      4  C   UNL     1     128.278 146.895 134.273  1.00  0.00     0.004 C 
ENDBRANCH   2   3
ENDBRANCH   1   2
BRANCH   1   5
ATOM      5  C   UNL     1     128.310 143.307 136.479  1.00  0.00     0.156 C 
BRANCH   5   6
ATOM      6  O   UNL     1     127.612 143.790 137.594  1.00  0.00    -0.396 OA
ATOM      7  H   UNL     1     128.206 143.644 138.375  1.00  0.00     0.210 HD
ENDBRANCH   5   6
ENDBRANCH   1   5
TORSDOF 4
ENDMDL
MODEL 8
REMARK VINA RESULT:    -2.478     17.913     18.456
REMARK INTER + INTRA:          -3.055
REMARK INTER:                  -3.016
REMARK INTRA:                  -0.039
REMARK UNBOUND:                -0.069
REMARK SMILES CCCCCO
REMARK SMILES IDX 4 1 3 2 2 3 1 4 5 5 6 6
REMARK H PARENT 6 7
REMARK Flexibility Score: inf
ROOT
ATOM      1  C   UNL     1     132.078 128.478 119.545  1.00  0.00     0.028 C 
ENDROOT
BRANCH   1   2
ATOM      2  C   UNL     1     133.223 128.228 118.554  1.00  0.00     0.002 C 
BRANCH   2   3
ATOM      3  C   UNL     1     133.953 129.520 118.157  1.00  0.00    -0.003 C 
ATOM      4  C   UNL     1     135.332 129.643 118.806  1.00  0.00     0.004 C 
ENDBRANCH   2   3
ENDBRANCH   1   2
BRANCH   1   5
ATOM      5  C   UNL     1     132.565 128.361 120.989  1.00  0.00     0.156 C 
BRANCH   5   6
ATOM      6  O   UNL     1     131.499 127.978 121.812  1.00  0.00    -0.396 OA
ATOM      7  H   UNL     1     130.700 127.937 121.227  1.00  0.00     0.210 HD
ENDBRANCH   5   6
ENDBRANCH   1   5
TORSDOF 4
ENDMDL
MODEL 9
REMARK VINA RESULT:    -2.444     17.311     18.094
REMARK INTER + INTRA:          -3.013
REMARK INTER:                  -2.917
REMARK INTRA:                  -0.096
REMARK UNBOUND:                -0.069
REMARK SMILES CCCCCO
REMARK SMILES IDX 4 1 3 2 2 3 1 4 5 5 6 6
REMARK H PARENT 6 7
REMARK Flexibility Score: inf
ROOT
ATOM      1  C   UNL     1     128.058 146.024 120.611  1.00  0.00     0.028 C 
ENDROOT
BRANCH   1   2
ATOM      2  C   UNL     1     127.207 145.616 119.399  1.00  0.00     0.002 C 
BRANCH   2   3
ATOM      3  C   UNL     1     127.875 144.524 118.550  1.00  0.00    -0.003 C 
ATOM      4  C   UNL     1     129.018 143.821 119.283  1.00  0.00     0.004 C 
ENDBRANCH   2   3
ENDBRANCH   1   2
BRANCH   1   5
ATOM      5  C   UNL     1     127.252 145.930 121.906  1.00  0.00     0.156 C 
BRANCH   5   6
ATOM      6  O   UNL     1     127.364 144.638 122.434  1.00  0.00    -0.396 OA
ATOM      7  H   UNL     1     128.298 144.554 122.759  1.00  0.00     0.210 HD
ENDBRANCH   5   6
ENDBRANCH   1   5
TORSDOF 4
ENDMDL
