MODEL 1
REMARK VINA RESULT:    -5.495      0.000      0.000
REMARK INTER + INTRA:         -10.293
REMARK INTER:                  -8.386
REMARK INTRA:                  -1.906
REMARK UNBOUND:                -1.906
REMARK SMILES CC(=O)CCC=C(C)CCC=C(C)CCC=C(C)C
REMARK SMILES IDX 10 1 11 2 12 3 13 4 14 5 15 6 16 7 18 8 17 9 19 10 9 11 7 12
REMARK SMILES IDX 6 13 8 14 5 15 4 16 2 17 3 18 1 19
REMARK H PARENT
REMARK Flexibility Score: inf
ROOT
ATOM      1  C   UNL     1       6.800 -17.130  24.662  1.00  0.00     0.032 C 
ENDROOT
BRANCH   1   2
ATOM      2  C   UNL     1       6.818 -18.132  23.532  1.00  0.00    -0.028 C 
ATOM      3  C   UNL     1       7.853 -18.318  22.681  1.00  0.00    -0.077 C 
ATOM      4  C   UNL     1       9.150 -17.556  22.819  1.00  0.00     0.039 C 
BRANCH   3   5
ATOM      5  C   UNL     1       7.710 -19.328  21.563  1.00  0.00     0.034 C 
BRANCH   5   6
ATOM      6  C   UNL     1       7.408 -20.732  22.100  1.00  0.00     0.032 C 
BRANCH   6   7
ATOM      7  C   UNL     1       8.624 -21.329  22.773  1.00  0.00    -0.028 C 
ATOM      8  C   UNL     1       7.667 -21.151  25.082  1.00  0.00     0.039 C 
ATOM      9  C   UNL     1       8.762 -21.500  24.107  1.00  0.00    -0.080 C 
ATOM     10  C   UNL     1      10.050 -22.050  24.662  1.00  0.00     0.039 C 
ENDBRANCH   6   7
ENDBRANCH   5   6
ENDBRANCH   3   5
ENDBRANCH   1   2
BRANCH   1  11
ATOM     11  C   UNL     1       6.030 -15.862  24.272  1.00  0.00     0.034 C 
BRANCH  11  12
ATOM     12  C   UNL     1       6.959 -14.737  23.851  1.00  0.00    -0.077 C 
ATOM     13  C   UNL     1       6.768 -14.005  22.730  1.00  0.00    -0.028 C 
ATOM     14  C   UNL     1       8.131 -14.392  24.735  1.00  0.00     0.039 C 
BRANCH  13  15
ATOM     15  C   UNL     1       5.680 -14.252  21.715  1.00  0.00     0.035 C 
BRANCH  15  16
ATOM     16  C   UNL     1       6.025 -13.588  20.378  1.00  0.00     0.079 C 
BRANCH  16  17
ATOM     17  C   UNL     1       6.661 -14.577  19.440  1.00  0.00     0.130 C 
ATOM     18  O   UNL     1       6.804 -14.291  18.262  1.00  0.00    -0.300 OA
ATOM     19  C   UNL     1       7.136 -15.905  19.948  1.00  0.00     0.087 C 
ENDBRANCH  16  17
ENDBRANCH  15  16
ENDBRANCH  13  15
ENDBRANCH  11  12
ENDBRANCH   1  11
TORSDOF 9
ENDMDL
MODEL 2
REMARK VINA RESULT:    -5.368      2.480      3.742
REMARK INTER + INTRA:         -10.098
REMARK INTER:                  -8.216
REMARK INTRA:                  -1.882
REMARK UNBOUND:                -1.906
REMARK SMILES CC(=O)CCC=C(C)CCC=C(C)CCC=C(C)C
REMARK SMILES IDX 10 1 11 2 12 3 13 4 14 5 15 6 16 7 18 8 17 9 19 10 9 11 7 12
REMARK SMILES IDX 6 13 8 14 5 15 4 16 2 17 3 18 1 19
REMARK H PARENT
REMARK Flexibility Score: inf
ROOT
ATOM      1  C   UNL     1       7.113 -17.295  24.397  1.00  0.00     0.032 C 
ENDROOT
BRANCH   1   2
ATOM      2  C   UNL     1       6.910 -18.164  23.179  1.00  0.00    -0.028 C 
ATOM      3  C   UNL     1       7.857 -18.423  22.248  1.00  0.00    -0.077 C 
ATOM      4  C   UNL     1       9.266 -17.894  22.371  1.00  0.00     0.039 C 
BRANCH   3   5
ATOM      5  C   UNL     1       7.495 -19.277  21.051  1.00  0.00     0.034 C 
BRANCH   5   6
ATOM      6  C   UNL     1       7.048 -20.682  21.471  1.00  0.00     0.032 C 
BRANCH   6   7
ATOM      7  C   UNL     1       8.240 -21.575  21.735  1.00  0.00    -0.028 C 
ATOM      8  C   UNL     1       8.053 -21.402  24.228  1.00  0.00     0.039 C 
ATOM      9  C   UNL     1       8.714 -21.886  22.963  1.00  0.00    -0.080 C 
ATOM     10  C   UNL     1       9.949 -22.737  23.095  1.00  0.00     0.039 C 
ENDBRANCH   6   7
ENDBRANCH   5   6
ENDBRANCH   3   5
ENDBRANCH   1   2
BRANCH   1  11
ATOM     11  C   UNL     1       6.212 -16.055  24.354  1.00  0.00     0.034 C 
BRANCH  11  12
ATOM     12  C   UNL     1       6.799 -14.952  23.491  1.00  0.00    -0.077 C 
ATOM     13  C   UNL     1       8.009 -14.396  23.730  1.00  0.00    -0.028 C 
ATOM     14  C   UNL     1       6.021 -14.475  22.291  1.00  0.00     0.039 C 
BRANCH  13  15
ATOM     15  C   UNL     1       8.888 -14.720  24.912  1.00  0.00     0.035 C 
BRANCH  15  16
ATOM     16  C   UNL     1      10.280 -15.161  24.447  1.00  0.00     0.079 C 
BRANCH  16  17
ATOM     17  C   UNL     1      10.825 -16.237  25.345  1.00  0.00     0.130 C 
ATOM     18  O   UNL     1      11.923 -16.721  25.116  1.00  0.00    -0.300 OA
ATOM     19  C   UNL     1      10.038 -16.705  26.531  1.00  0.00     0.087 C 
ENDBRANCH  16  17
ENDBRANCH  15  16
ENDBRANCH  13  15
ENDBRANCH  11  12
ENDBRANCH   1  11
TORSDOF 9
ENDMDL
MODEL 3
REMARK VINA RESULT:    -5.358      2.351      5.923
REMARK INTER + INTRA:         -10.083
REMARK INTER:                  -8.071
REMARK INTRA:                  -2.012
REMARK UNBOUND:                -1.906
REMARK SMILES CC(=O)CCC=C(C)CCC=C(C)CCC=C(C)C
REMARK SMILES IDX 10 1 11 2 12 3 13 4 14 5 15 6 16 7 18 8 17 9 19 10 9 11 7 12
REMARK SMILES IDX 6 13 8 14 5 15 4 16 2 17 3 18 1 19
REMARK H PARENT
REMARK Flexibility Score: inf
ROOT
ATOM      1  C   UNL     1       7.604 -20.051  26.872  1.00  0.00     0.032 C 
ENDROOT
BRANCH   1   2
ATOM      2  C   UNL     1       7.151 -18.650  26.534  1.00  0.00    -0.028 C 
ATOM      3  C   UNL     1       7.974 -17.636  26.182  1.00  0.00    -0.077 C 
ATOM      4  C   UNL     1       9.465 -17.828  26.038  1.00  0.00     0.039 C 
BRANCH   3   5
ATOM      5  C   UNL     1       7.380 -16.269  25.916  1.00  0.00     0.034 C 
BRANCH   5   6
ATOM      6  C   UNL     1       6.367 -16.304  24.766  1.00  0.00     0.032 C 
BRANCH   6   7
ATOM      7  C   UNL     1       7.061 -16.491  23.435  1.00  0.00    -0.028 C 
ATOM      8  C   UNL     1       6.387 -14.243  22.557  1.00  0.00     0.039 C 
ATOM      9  C   UNL     1       7.058 -15.587  22.430  1.00  0.00    -0.080 C 
ATOM     10  C   UNL     1       7.735 -15.917  21.125  1.00  0.00     0.039 C 
ENDBRANCH   6   7
ENDBRANCH   5   6
ENDBRANCH   3   5
ENDBRANCH   1   2
BRANCH   1  11
ATOM     11  C   UNL     1       7.290 -21.029  25.732  1.00  0.00     0.034 C 
BRANCH  11  12
ATOM     12  C   UNL     1       8.432 -21.129  24.736  1.00  0.00    -0.077 C 
ATOM     13  C   UNL     1       8.346 -20.665  23.469  1.00  0.00    -0.028 C 
ATOM     14  C   UNL     1       9.735 -21.740  25.183  1.00  0.00     0.039 C 
BRANCH  13  15
ATOM     15  C   UNL     1       7.103 -20.076  22.849  1.00  0.00     0.035 C 
BRANCH  15  16
ATOM     16  C   UNL     1       6.759 -20.790  21.539  1.00  0.00     0.079 C 
BRANCH  16  17
ATOM     17  C   UNL     1       7.908 -20.713  20.572  1.00  0.00     0.130 C 
ATOM     18  O   UNL     1       8.420 -21.740  20.154  1.00  0.00    -0.300 OA
ATOM     19  C   UNL     1       8.417 -19.384  20.104  1.00  0.00     0.087 C 
ENDBRANCH  16  17
ENDBRANCH  15  16
ENDBRANCH  13  15
ENDBRANCH  11  12
ENDBRANCH   1  11
TORSDOF 9
ENDMDL
MODEL 4
REMARK VINA RESULT:    -5.340      2.567      5.490
REMARK INTER + INTRA:         -10.055
REMARK INTER:                  -7.315
REMARK INTRA:                  -2.740
REMARK UNBOUND:                -1.906
REMARK SMILES CC(=O)CCC=C(C)CCC=C(C)CCC=C(C)C
REMARK SMILES IDX 10 1 11 2 12 3 13 4 14 5 15 6 16 7 18 8 17 9 19 10 9 11 7 12
REMARK SMILES IDX 6 13 8 14 5 15 4 16 2 17 3 18 1 19
REMARK H PARENT
REMARK Flexibility Score: inf
ROOT
ATOM      1  C   UNL     1       9.088 -21.837  23.641  1.00  0.00     0.032 C 
ENDROOT
BRANCH   1   2
ATOM      2  C   UNL     1       9.480 -21.456  25.049  1.00  0.00    -0.028 C 
ATOM      3  C   UNL     1       8.613 -21.074  26.015  1.00  0.00    -0.077 C 
ATOM      4  C   UNL     1       7.121 -21.043  25.786  1.00  0.00     0.039 C 
BRANCH   3   5
ATOM      5  C   UNL     1       9.156 -20.675  27.371  1.00  0.00     0.034 C 
BRANCH   5   6
ATOM      6  C   UNL     1      10.500 -19.948  27.253  1.00  0.00     0.032 C 
BRANCH   6   7
ATOM      7  C   UNL     1      10.298 -18.468  27.014  1.00  0.00    -0.028 C 
ATOM      8  C   UNL     1      11.580 -18.450  24.860  1.00  0.00     0.039 C 
ATOM      9  C   UNL     1      10.795 -17.781  25.960  1.00  0.00    -0.080 C 
ATOM     10  C   UNL     1      10.576 -16.294  25.866  1.00  0.00     0.039 C 
ENDBRANCH   6   7
ENDBRANCH   5   6
ENDBRANCH   3   5
ENDBRANCH   1   2
BRANCH   1  11
ATOM     11  C   UNL     1       9.222 -20.646  22.684  1.00  0.00     0.034 C 
BRANCH  11  12
ATOM     12  C   UNL     1       7.869 -20.102  22.259  1.00  0.00    -0.077 C 
ATOM     13  C   UNL     1       7.386 -18.913  22.688  1.00  0.00    -0.028 C 
ATOM     14  C   UNL     1       7.037 -20.900  21.288  1.00  0.00     0.039 C 
BRANCH  13  15
ATOM     15  C   UNL     1       8.065 -18.020  23.696  1.00  0.00     0.035 C 
BRANCH  15  16
ATOM     16  C   UNL     1       7.074 -17.564  24.771  1.00  0.00     0.079 C 
BRANCH  16  17
ATOM     17  C   UNL     1       6.514 -16.209  24.439  1.00  0.00     0.130 C 
ATOM     18  O   UNL     1       5.307 -16.029  24.461  1.00  0.00    -0.300 OA
ATOM     19  C   UNL     1       7.431 -15.073  24.101  1.00  0.00     0.087 C 
ENDBRANCH  16  17
ENDBRANCH  15  16
ENDBRANCH  13  15
ENDBRANCH  11  12
ENDBRANCH   1  11
TORSDOF 9
ENDMDL
MODEL 5
REMARK VINA RESULT:    -5.315      3.114      6.049
REMARK INTER + INTRA:         -10.018
REMARK INTER:                  -7.498
REMARK INTRA:                  -2.520
REMARK UNBOUND:                -1.906
REMARK SMILES CC(=O)CCC=C(C)CCC=C(C)CCC=C(C)C
REMARK SMILES IDX 10 1 11 2 12 3 13 4 14 5 15 6 16 7 18 8 17 9 19 10 9 11 7 12
REMARK SMILES IDX 6 13 8 14 5 15 4 16 2 17 3 18 1 19
REMARK H PARENT
REMARK Flexibility Score: inf
ROOT
ATOM      1  C   UNL     1      10.250 -21.114  25.244  1.00  0.00     0.032 C 
ENDROOT
BRANCH   1   2
ATOM      2  C   UNL     1      10.630 -19.674  24.993  1.00  0.00    -0.028 C 
ATOM      3  C   UNL     1      10.643 -18.703  25.935  1.00  0.00    -0.077 C 
ATOM      4  C   UNL     1      10.321 -18.988  27.383  1.00  0.00     0.039 C 
BRANCH   3   5
ATOM      5  C   UNL     1      11.001 -17.290  25.527  1.00  0.00     0.034 C 
BRANCH   5   6
ATOM      6  C   UNL     1       9.946 -16.280  25.990  1.00  0.00     0.032 C 
BRANCH   6   7
ATOM      7  C   UNL     1       8.871 -16.097  24.942  1.00  0.00    -0.028 C 
ATOM      8  C   UNL     1       7.114 -17.299  26.263  1.00  0.00     0.039 C 
ATOM      9  C   UNL     1       7.608 -16.568  25.041  1.00  0.00    -0.080 C 
ATOM     10  C   UNL     1       6.645 -16.374  23.899  1.00  0.00     0.039 C 
ENDBRANCH   6   7
ENDBRANCH   5   6
ENDBRANCH   3   5
ENDBRANCH   1   2
BRANCH   1  11
ATOM     11  C   UNL     1       9.091 -21.551  24.338  1.00  0.00     0.034 C 
BRANCH  11  12
ATOM     12  C   UNL     1       7.807 -20.804  24.654  1.00  0.00    -0.077 C 
ATOM     13  C   UNL     1       7.146 -20.058  23.739  1.00  0.00    -0.028 C 
ATOM     14  C   UNL     1       7.218 -20.923  26.036  1.00  0.00     0.039 C 
BRANCH  13  15
ATOM     15  C   UNL     1       7.624 -19.795  22.333  1.00  0.00     0.035 C 
BRANCH  15  16
ATOM     16  C   UNL     1       6.942 -20.742  21.342  1.00  0.00     0.079 C 
BRANCH  16  17
ATOM     17  C   UNL     1       7.957 -21.599  20.638  1.00  0.00     0.130 C 
ATOM     18  O   UNL     1       8.210 -22.715  21.064  1.00  0.00    -0.300 OA
ATOM     19  C   UNL     1       8.648 -21.098  19.406  1.00  0.00     0.087 C 
ENDBRANCH  16  17
ENDBRANCH  15  16
ENDBRANCH  13  15
ENDBRANCH  11  12
ENDBRANCH   1  11
TORSDOF 9
ENDMDL
MODEL 6
REMARK VINA RESULT:    -5.286      2.556      4.300
REMARK INTER + INTRA:          -9.973
REMARK INTER:                  -7.187
REMARK INTRA:                  -2.786
REMARK UNBOUND:                -1.906
REMARK SMILES CC(=O)CCC=C(C)CCC=C(C)CCC=C(C)C
REMARK SMILES IDX 10 1 11 2 12 3 13 4 14 5 15 6 16 7 18 8 17 9 19 10 9 11 7 12
REMARK SMILES IDX 6 13 8 14 5 15 4 16 2 17 3 18 1 19
REMARK H PARENT
REMARK Flexibility Score: inf
ROOT
ATOM      1  C   UNL     1       7.875 -14.388  24.772  1.00  0.00     0.032 C 
ENDROOT
BRANCH   1   2
ATOM      2  C   UNL     1       8.857 -15.323  25.438  1.00  0.00    -0.028 C 
ATOM      3  C   UNL     1      10.054 -15.682  24.920  1.00  0.00    -0.077 C 
ATOM      4  C   UNL     1      10.562 -15.122  23.613  1.00  0.00     0.039 C 
BRANCH   3   5
ATOM      5  C   UNL     1      10.916 -16.668  25.681  1.00  0.00     0.034 C 
BRANCH   5   6
ATOM      6  C   UNL     1      10.098 -17.466  26.703  1.00  0.00     0.032 C 
BRANCH   6   7
ATOM      7  C   UNL     1       9.726 -18.827  26.158  1.00  0.00    -0.028 C 
ATOM      8  C   UNL     1       7.270 -18.520  26.550  1.00  0.00     0.039 C 
ATOM      9  C   UNL     1       8.468 -19.320  26.106  1.00  0.00    -0.080 C 
ATOM     10  C   UNL     1       8.233 -20.718  25.597  1.00  0.00     0.039 C 
ENDBRANCH   6   7
ENDBRANCH   5   6
ENDBRANCH   3   5
ENDBRANCH   1   2
BRANCH   1  11
ATOM     11  C   UNL     1       6.694 -15.157  24.167  1.00  0.00     0.034 C 
BRANCH  11  12
ATOM     12  C   UNL     1       6.867 -15.389  22.677  1.00  0.00    -0.077 C 
ATOM     13  C   UNL     1       7.276 -16.570  22.158  1.00  0.00    -0.028 C 
ATOM     14  C   UNL     1       6.537 -14.269  21.723  1.00  0.00     0.039 C 
BRANCH  13  15
ATOM     15  C   UNL     1       7.694 -17.769  22.971  1.00  0.00     0.035 C 
BRANCH  15  16
ATOM     16  C   UNL     1       8.897 -18.467  22.328  1.00  0.00     0.079 C 
BRANCH  16  17
ATOM     17  C   UNL     1       8.486 -19.772  21.705  1.00  0.00     0.130 C 
ATOM     18  O   UNL     1       9.262 -20.367  20.974  1.00  0.00    -0.300 OA
ATOM     19  C   UNL     1       7.136 -20.356  21.991  1.00  0.00     0.087 C 
ENDBRANCH  16  17
ENDBRANCH  15  16
ENDBRANCH  13  15
ENDBRANCH  11  12
ENDBRANCH   1  11
TORSDOF 9
ENDMDL
MODEL 7
REMARK VINA RESULT:    -5.284      2.729      6.316
REMARK INTER + INTRA:          -9.970
REMARK INTER:                  -8.107
REMARK INTRA:                  -1.863
REMARK UNBOUND:                -1.906
REMARK SMILES CC(=O)CCC=C(C)CCC=C(C)CCC=C(C)C
REMARK SMILES IDX 10 1 11 2 12 3 13 4 14 5 15 6 16 7 18 8 17 9 19 10 9 11 7 12
REMARK SMILES IDX 6 13 8 14 5 15 4 16 2 17 3 18 1 19
REMARK H PARENT
REMARK Flexibility Score: inf
ROOT
ATOM      1  C   UNL     1       7.199 -18.839  23.227  1.00  0.00     0.032 C 
ENDROOT
BRANCH   1   2
ATOM      2  C   UNL     1       7.338 -17.336  23.188  1.00  0.00    -0.028 C 
ATOM      3  C   UNL     1       7.130 -16.513  24.242  1.00  0.00    -0.077 C 
ATOM      4  C   UNL     1       6.781 -17.041  25.613  1.00  0.00     0.039 C 
BRANCH   3   5
ATOM      5  C   UNL     1       7.262 -15.018  24.042  1.00  0.00     0.034 C 
BRANCH   5   6
ATOM      6  C   UNL     1       8.426 -14.437  24.852  1.00  0.00     0.032 C 
BRANCH   6   7
ATOM      7  C   UNL     1       9.739 -14.617  24.122  1.00  0.00    -0.028 C 
ATOM      8  C   UNL     1      10.550 -16.436  25.643  1.00  0.00     0.039 C 
ATOM      9  C   UNL     1      10.707 -15.491  24.479  1.00  0.00    -0.080 C 
ATOM     10  C   UNL     1      12.000 -15.532  23.707  1.00  0.00     0.039 C 
ENDBRANCH   6   7
ENDBRANCH   5   6
ENDBRANCH   3   5
ENDBRANCH   1   2
BRANCH   1  11
ATOM     11  C   UNL     1       8.538 -19.515  23.547  1.00  0.00     0.034 C 
BRANCH  11  12
ATOM     12  C   UNL     1       8.351 -20.855  24.236  1.00  0.00    -0.077 C 
ATOM     13  C   UNL     1       8.948 -21.992  23.810  1.00  0.00    -0.028 C 
ATOM     14  C   UNL     1       7.491 -20.922  25.473  1.00  0.00     0.039 C 
BRANCH  13  15
ATOM     15  C   UNL     1       9.793 -22.107  22.566  1.00  0.00     0.035 C 
BRANCH  15  16
ATOM     16  C   UNL     1       9.011 -22.792  21.441  1.00  0.00     0.079 C 
BRANCH  16  17
ATOM     17  C   UNL     1       8.251 -21.781  20.628  1.00  0.00     0.130 C 
ATOM     18  O   UNL     1       7.087 -21.533  20.902  1.00  0.00    -0.300 OA
ATOM     19  C   UNL     1       8.919 -21.063  19.495  1.00  0.00     0.087 C 
ENDBRANCH  16  17
ENDBRANCH  15  16
ENDBRANCH  13  15
ENDBRANCH  11  12
ENDBRANCH   1  11
TORSDOF 9
ENDMDL
MODEL 8
REMARK VINA RESULT:    -5.248      2.777      4.625
REMARK INTER + INTRA:          -9.915
REMARK INTER:                  -7.562
REMARK INTRA:                  -2.353
REMARK UNBOUND:                -1.906
REMARK SMILES CC(=O)CCC=C(C)CCC=C(C)CCC=C(C)C
REMARK SMILES IDX 10 1 11 2 12 3 13 4 14 5 15 6 16 7 18 8 17 9 19 10 9 11 7 12
REMARK SMILES IDX 6 13 8 14 5 15 4 16 2 17 3 18 1 19
REMARK H PARENT
REMARK Flexibility Score: inf
ROOT
ATOM      1  C   UNL     1       7.405 -15.033  23.834  1.00  0.00     0.032 C 
ENDROOT
BRANCH   1   2
ATOM      2  C   UNL     1       7.109 -16.510  23.719  1.00  0.00    -0.028 C 
ATOM      3  C   UNL     1       7.553 -17.311  22.723  1.00  0.00    -0.077 C 
ATOM      4  C   UNL     1       8.457 -16.799  21.627  1.00  0.00     0.039 C 
BRANCH   3   5
ATOM      5  C   UNL     1       7.137 -18.767  22.713  1.00  0.00     0.034 C 
BRANCH   5   6
ATOM      6  C   UNL     1       8.202 -19.657  22.060  1.00  0.00     0.032 C 
BRANCH   6   7
ATOM      7  C   UNL     1       9.061 -20.332  23.106  1.00  0.00    -0.028 C 
ATOM      8  C   UNL     1       8.648 -22.641  22.223  1.00  0.00     0.039 C 
ATOM      9  C   UNL     1       9.250 -21.667  23.204  1.00  0.00    -0.080 C 
ATOM     10  C   UNL     1      10.081 -22.225  24.330  1.00  0.00     0.039 C 
ENDBRANCH   6   7
ENDBRANCH   5   6
ENDBRANCH   3   5
ENDBRANCH   1   2
BRANCH   1  11
ATOM     11  C   UNL     1       8.326 -14.740  25.025  1.00  0.00     0.034 C 
BRANCH  11  12
ATOM     12  C   UNL     1       9.734 -15.263  24.799  1.00  0.00    -0.077 C 
ATOM     13  C   UNL     1      10.253 -16.303  25.490  1.00  0.00    -0.028 C 
ATOM     14  C   UNL     1      10.586 -14.621  23.733  1.00  0.00     0.039 C 
BRANCH  13  15
ATOM     15  C   UNL     1       9.556 -17.020  26.620  1.00  0.00     0.035 C 
BRANCH  15  16
ATOM     16  C   UNL     1       9.305 -18.487  26.258  1.00  0.00     0.079 C 
BRANCH  16  17
ATOM     17  C   UNL     1       7.855 -18.841  26.444  1.00  0.00     0.130 C 
ATOM     18  O   UNL     1       7.044 -17.965  26.698  1.00  0.00    -0.300 OA
ATOM     19  C   UNL     1       7.398 -20.261  26.301  1.00  0.00     0.087 C 
ENDBRANCH  16  17
ENDBRANCH  15  16
ENDBRANCH  13  15
ENDBRANCH  11  12
ENDBRANCH   1  11
TORSDOF 9
ENDMDL
MODEL 9
REMARK VINA RESULT:    -5.199      2.269      4.233
REMARK INTER + INTRA:          -9.841
REMARK INTER:                  -7.175
REMARK INTRA:                  -2.666
REMARK UNBOUND:                -1.906
REMARK SMILES CC(=O)CCC=C(C)CCC=C(C)CCC=C(C)C
REMARK SMILES IDX 10 1 11 2 12 3 13 4 14 5 15 6 16 7 18 8 17 9 19 10 9 11 7 12
REMARK SMILES IDX 6 13 8 14 5 15 4 16 2 17 3 18 1 19
REMARK H PARENT
REMARK Flexibility Score: inf
ROOT
ATOM      1  C   UNL     1      10.042 -16.896  26.251  1.00  0.00     0.032 C 
ENDROOT
BRANCH   1   2
ATOM      2  C   UNL     1       9.567 -18.290  26.586  1.00  0.00    -0.028 C 
ATOM      3  C   UNL     1       8.272 -18.681  26.603  1.00  0.00    -0.077 C 
ATOM      4  C   UNL     1       7.148 -17.746  26.228  1.00  0.00     0.039 C 
BRANCH   3   5
ATOM      5  C   UNL     1       7.942 -20.103  27.003  1.00  0.00     0.034 C 
BRANCH   5   6
ATOM      6  C   UNL     1       7.180 -20.842  25.897  1.00  0.00     0.032 C 
BRANCH   6   7
ATOM      7  C   UNL     1       8.093 -21.177  24.738  1.00  0.00    -0.028 C 
ATOM      8  C   UNL     1       6.769 -19.858  23.069  1.00  0.00     0.039 C 
ATOM      9  C   UNL     1       7.908 -20.763  23.465  1.00  0.00    -0.080 C 
ATOM     10  C   UNL     1       8.855 -21.216  22.385  1.00  0.00     0.039 C 
ENDBRANCH   6   7
ENDBRANCH   5   6
ENDBRANCH   3   5
ENDBRANCH   1   2
BRANCH   1  11
ATOM     11  C   UNL     1      11.166 -16.925  25.208  1.00  0.00     0.034 C 
BRANCH  11  12
ATOM     12  C   UNL     1      10.879 -17.909  24.087  1.00  0.00    -0.077 C 
ATOM     13  C   UNL     1      10.157 -17.585  22.991  1.00  0.00    -0.028 C 
ATOM     14  C   UNL     1      11.451 -19.301  24.178  1.00  0.00     0.039 C 
BRANCH  13  15
ATOM     15  C   UNL     1       9.473 -16.259  22.770  1.00  0.00     0.035 C 
BRANCH  15  16
ATOM     16  C   UNL     1       7.963 -16.383  22.992  1.00  0.00     0.079 C 
BRANCH  16  17
ATOM     17  C   UNL     1       7.381 -15.073  23.447  1.00  0.00     0.130 C 
ATOM     18  O   UNL     1       6.462 -14.567  22.822  1.00  0.00    -0.300 OA
ATOM     19  C   UNL     1       7.911 -14.395  24.673  1.00  0.00     0.087 C 
ENDBRANCH  16  17
ENDBRANCH  15  16
ENDBRANCH  13  15
ENDBRANCH  11  12
ENDBRANCH   1  11
TORSDOF 9
ENDMDL
