MODEL 1
REMARK VINA RESULT:    -7.235      0.000      0.000
REMARK INTER + INTRA:          -9.051
REMARK INTER:                  -8.716
REMARK INTRA:                  -0.335
REMARK UNBOUND:                -0.335
REMARK SMILES Oc1cc(O)c2c(c1)O[C@@H](c1ccc(O)c(O)c1)[C@H](O)C2
REMARK SMILES IDX 21 1 19 2 10 3 9 4 7 5 8 6 2 7 3 8 4 9 6 10 20 11 11 13
REMARK SMILES IDX 18 14 12 15 16 16 13 17 14 18 17 19 15 21 5 23 1 25
REMARK H PARENT 20 12 17 20 15 22 5 24 1 26
REMARK Flexibility Score: inf
ROOT
ATOM      1  C   UNL     1      49.164  46.931  36.499  1.00  0.00     0.079 C 
ATOM      2  C   UNL     1      49.528  46.923  35.002  1.00  0.00     0.164 C 
ATOM      3  C   UNL     1      50.086  45.551  34.582  1.00  0.00     0.232 C 
ATOM      4  O   UNL     1      51.162  45.162  35.439  1.00  0.00    -0.482 OA
ATOM      5  C   UNL     1      51.234  45.516  36.793  1.00  0.00     0.131 A 
ATOM      6  C   UNL     1      52.272  45.001  37.573  1.00  0.00     0.093 A 
ATOM      7  C   UNL     1      52.353  45.310  38.934  1.00  0.00     0.122 A 
ATOM      8  C   UNL     1      51.385  46.129  39.518  1.00  0.00     0.092 A 
ATOM      9  C   UNL     1      50.334  46.650  38.753  1.00  0.00     0.126 A 
ATOM     10  C   UNL     1      50.273  46.378  37.366  1.00  0.00     0.039 A 
ENDROOT
BRANCH   2  11
ATOM     11  O   UNL     1      50.500  47.905  34.747  1.00  0.00    -0.389 OA
ATOM     12  H   UNL     1      50.418  48.587  35.465  1.00  0.00     0.211 HD
ENDBRANCH   2  11
BRANCH   3  13
ATOM     13  C   UNL     1      48.998  44.494  34.525  1.00  0.00    -0.001 A 
ATOM     14  C   UNL     1      48.094  44.499  33.448  1.00  0.00     0.057 A 
ATOM     15  C   UNL     1      48.835  43.535  35.543  1.00  0.00     0.012 A 
ATOM     16  C   UNL     1      47.059  43.554  33.375  1.00  0.00     0.157 A 
ATOM     17  C   UNL     1      47.806  42.593  35.470  1.00  0.00     0.050 A 
ATOM     18  C   UNL     1      46.917  42.596  34.391  1.00  0.00     0.157 A 
BRANCH  16  19
ATOM     19  O   UNL     1      46.174  43.564  32.297  1.00  0.00    -0.504 OA
ATOM     20  H   UNL     1      46.114  44.357  31.667  1.00  0.00     0.293 HD
ENDBRANCH  16  19
BRANCH  18  21
ATOM     21  O   UNL     1      45.900  41.642  34.346  1.00  0.00    -0.504 OA
ATOM     22  H   UNL     1      45.446  41.298  35.185  1.00  0.00     0.293 HD
ENDBRANCH  18  21
ENDBRANCH   3  13
BRANCH   9  23
ATOM     23  O   UNL     1      49.368  47.419  39.406  1.00  0.00    -0.507 OA
ATOM     24  H   UNL     1      49.471  48.410  39.578  1.00  0.00     0.293 HD
ENDBRANCH   9  23
BRANCH   7  25
ATOM     25  O   UNL     1      53.388  44.805  39.717  1.00  0.00    -0.508 OA
ATOM     26  H   UNL     1      54.255  44.483  39.305  1.00  0.00     0.293 HD
ENDBRANCH   7  25
TORSDOF 6
ENDMDL
MODEL 2
REMARK VINA RESULT:    -6.802      9.189     11.069
REMARK INTER + INTRA:          -8.529
REMARK INTER:                  -8.141
REMARK INTRA:                  -0.388
REMARK UNBOUND:                -0.335
REMARK SMILES Oc1cc(O)c2c(c1)O[C@@H](c1ccc(O)c(O)c1)[C@H](O)C2
REMARK SMILES IDX 21 1 19 2 10 3 9 4 7 5 8 6 2 7 3 8 4 9 6 10 20 11 11 13
REMARK SMILES IDX 18 14 12 15 16 16 13 17 14 18 17 19 15 21 5 23 1 25
REMARK H PARENT 20 12 17 20 15 22 5 24 1 26
REMARK Flexibility Score: inf
ROOT
ATOM      1  C   UNL     1      44.431  45.789  47.812  1.00  0.00     0.079 C 
ATOM      2  C   UNL     1      44.592  47.167  47.144  1.00  0.00     0.164 C 
ATOM      3  C   UNL     1      45.227  47.028  45.748  1.00  0.00     0.232 C 
ATOM      4  O   UNL     1      46.442  46.279  45.821  1.00  0.00    -0.482 OA
ATOM      5  C   UNL     1      46.656  45.250  46.749  1.00  0.00     0.131 A 
ATOM      6  C   UNL     1      47.837  44.507  46.674  1.00  0.00     0.093 A 
ATOM      7  C   UNL     1      48.066  43.455  47.565  1.00  0.00     0.122 A 
ATOM      8  C   UNL     1      47.106  43.138  48.527  1.00  0.00     0.092 A 
ATOM      9  C   UNL     1      45.914  43.868  48.614  1.00  0.00     0.126 A 
ATOM     10  C   UNL     1      45.698  44.964  47.746  1.00  0.00     0.039 A 
ENDROOT
BRANCH   2  11
ATOM     11  O   UNL     1      45.414  47.985  47.937  1.00  0.00    -0.389 OA
ATOM     12  H   UNL     1      45.070  47.926  48.867  1.00  0.00     0.211 HD
ENDBRANCH   2  11
BRANCH   3  13
ATOM     13  C   UNL     1      44.255  46.434  44.744  1.00  0.00    -0.001 A 
ATOM     14  C   UNL     1      44.753  45.911  43.537  1.00  0.00     0.057 A 
ATOM     15  C   UNL     1      42.864  46.434  44.961  1.00  0.00     0.012 A 
ATOM     16  C   UNL     1      43.884  45.378  42.574  1.00  0.00     0.157 A 
ATOM     17  C   UNL     1      41.998  45.902  44.003  1.00  0.00     0.050 A 
ATOM     18  C   UNL     1      42.500  45.372  42.810  1.00  0.00     0.157 A 
BRANCH  16  19
ATOM     19  O   UNL     1      44.390  44.854  41.384  1.00  0.00    -0.504 OA
ATOM     20  H   UNL     1      44.387  43.857  41.200  1.00  0.00     0.293 HD
ENDBRANCH  16  19
BRANCH  18  21
ATOM     21  O   UNL     1      41.611  44.848  41.872  1.00  0.00    -0.504 OA
ATOM     22  H   UNL     1      41.899  44.613  40.929  1.00  0.00     0.293 HD
ENDBRANCH  18  21
ENDBRANCH   3  13
BRANCH   9  23
ATOM     23  O   UNL     1      44.971  43.470  49.563  1.00  0.00    -0.507 OA
ATOM     24  H   UNL     1      44.596  44.090  50.268  1.00  0.00     0.293 HD
ENDBRANCH   9  23
BRANCH   7  25
ATOM     25  O   UNL     1      49.243  42.712  47.500  1.00  0.00    -0.508 OA
ATOM     26  H   UNL     1      50.089  43.018  47.966  1.00  0.00     0.293 HD
ENDBRANCH   7  25
TORSDOF 6
ENDMDL
MODEL 3
REMARK VINA RESULT:    -6.412      9.854     12.247
REMARK INTER + INTRA:          -8.059
REMARK INTER:                  -7.575
REMARK INTRA:                  -0.484
REMARK UNBOUND:                -0.335
REMARK SMILES Oc1cc(O)c2c(c1)O[C@@H](c1ccc(O)c(O)c1)[C@H](O)C2
REMARK SMILES IDX 21 1 19 2 10 3 9 4 7 5 8 6 2 7 3 8 4 9 6 10 20 11 11 13
REMARK SMILES IDX 18 14 12 15 16 16 13 17 14 18 17 19 15 21 5 23 1 25
REMARK H PARENT 20 12 17 20 15 22 5 24 1 26
REMARK Flexibility Score: inf
ROOT
ATOM      1  C   UNL     1      47.958  41.214  46.251  1.00  0.00     0.079 C 
ATOM      2  C   UNL     1      47.877  40.011  45.293  1.00  0.00     0.164 C 
ATOM      3  C   UNL     1      49.217  39.253  45.251  1.00  0.00     0.232 C 
ATOM      4  O   UNL     1      50.292  40.149  44.961  1.00  0.00    -0.482 OA
ATOM      5  C   UNL     1      50.306  41.491  45.366  1.00  0.00     0.131 A 
ATOM      6  C   UNL     1      51.448  42.259  45.125  1.00  0.00     0.093 A 
ATOM      7  C   UNL     1      51.504  43.591  45.544  1.00  0.00     0.122 A 
ATOM      8  C   UNL     1      50.418  44.153  46.218  1.00  0.00     0.092 A 
ATOM      9  C   UNL     1      49.267  43.398  46.473  1.00  0.00     0.126 A 
ATOM     10  C   UNL     1      49.186  42.063  46.010  1.00  0.00     0.039 A 
ENDROOT
BRANCH   2  11
ATOM     11  O   UNL     1      47.568  40.458  43.997  1.00  0.00    -0.389 OA
ATOM     12  H   UNL     1      46.759  41.029  44.073  1.00  0.00     0.211 HD
ENDBRANCH   2  11
BRANCH   3  13
ATOM     13  C   UNL     1      49.462  38.471  46.529  1.00  0.00    -0.001 A 
ATOM     14  C   UNL     1      48.376  37.851  47.172  1.00  0.00     0.057 A 
ATOM     15  C   UNL     1      50.737  38.385  47.118  1.00  0.00     0.012 A 
ATOM     16  C   UNL     1      48.558  37.142  48.368  1.00  0.00     0.157 A 
ATOM     17  C   UNL     1      50.921  37.678  48.309  1.00  0.00     0.050 A 
ATOM     18  C   UNL     1      49.839  37.054  48.937  1.00  0.00     0.157 A 
BRANCH  16  19
ATOM     19  O   UNL     1      47.474  36.525  48.991  1.00  0.00    -0.504 OA
ATOM     20  H   UNL     1      47.500  35.546  49.254  1.00  0.00     0.293 HD
ENDBRANCH  16  19
BRANCH  18  21
ATOM     21  O   UNL     1      50.053  36.355  50.125  1.00  0.00    -0.504 OA
ATOM     22  H   UNL     1      50.435  35.415  50.136  1.00  0.00     0.293 HD
ENDBRANCH  18  21
ENDBRANCH   3  13
BRANCH   9  23
ATOM     23  O   UNL     1      48.236  44.000  47.197  1.00  0.00    -0.507 OA
ATOM     24  H   UNL     1      47.257  43.849  46.998  1.00  0.00     0.293 HD
ENDBRANCH   9  23
BRANCH   7  25
ATOM     25  O   UNL     1      52.637  44.365  45.303  1.00  0.00    -0.508 OA
ATOM     26  H   UNL     1      52.569  45.291  44.899  1.00  0.00     0.293 HD
ENDBRANCH   7  25
TORSDOF 6
ENDMDL
MODEL 4
REMARK VINA RESULT:    -6.398      1.508      6.301
REMARK INTER + INTRA:          -8.042
REMARK INTER:                  -8.187
REMARK INTRA:                   0.145
REMARK UNBOUND:                -0.335
REMARK SMILES Oc1cc(O)c2c(c1)O[C@@H](c1ccc(O)c(O)c1)[C@H](O)C2
REMARK SMILES IDX 21 1 19 2 10 3 9 4 7 5 8 6 2 7 3 8 4 9 6 10 20 11 11 13
REMARK SMILES IDX 18 14 12 15 16 16 13 17 14 18 17 19 15 21 5 23 1 25
REMARK H PARENT 20 12 17 20 15 22 5 24 1 26
REMARK Flexibility Score: inf
ROOT
ATOM      1  C   UNL     1      49.643  45.318  33.922  1.00  0.00     0.079 C 
ATOM      2  C   UNL     1      49.387  46.545  34.818  1.00  0.00     0.164 C 
ATOM      3  C   UNL     1      49.063  46.111  36.260  1.00  0.00     0.232 C 
ATOM      4  O   UNL     1      47.998  45.157  36.270  1.00  0.00    -0.482 OA
ATOM      5  C   UNL     1      47.784  44.232  35.239  1.00  0.00     0.131 A 
ATOM      6  C   UNL     1      46.780  43.272  35.389  1.00  0.00     0.093 A 
ATOM      7  C   UNL     1      46.563  42.316  34.392  1.00  0.00     0.122 A 
ATOM      8  C   UNL     1      47.361  42.315  33.247  1.00  0.00     0.092 A 
ATOM      9  C   UNL     1      48.375  43.265  33.081  1.00  0.00     0.126 A 
ATOM     10  C   UNL     1      48.569  44.264  34.065  1.00  0.00     0.039 A 
ENDROOT
BRANCH   2  11
ATOM     11  O   UNL     1      48.304  47.282  34.312  1.00  0.00    -0.389 OA
ATOM     12  H   UNL     1      48.652  47.826  33.557  1.00  0.00     0.211 HD
ENDBRANCH   2  11
BRANCH   3  13
ATOM     13  C   UNL     1      50.293  45.593  36.983  1.00  0.00    -0.001 A 
ATOM     14  C   UNL     1      50.557  46.036  38.290  1.00  0.00     0.057 A 
ATOM     15  C   UNL     1      51.207  44.717  36.366  1.00  0.00     0.012 A 
ATOM     16  C   UNL     1      51.698  45.600  38.980  1.00  0.00     0.157 A 
ATOM     17  C   UNL     1      52.343  44.281  37.053  1.00  0.00     0.050 A 
ATOM     18  C   UNL     1      52.593  44.716  38.358  1.00  0.00     0.157 A 
BRANCH  16  19
ATOM     19  O   UNL     1      51.943  46.040  40.281  1.00  0.00    -0.504 OA
ATOM     20  H   UNL     1      52.887  46.190  40.621  1.00  0.00     0.293 HD
ENDBRANCH  16  19
BRANCH  18  21
ATOM     21  O   UNL     1      53.735  44.263  39.018  1.00  0.00    -0.504 OA
ATOM     22  H   UNL     1      53.683  43.696  39.857  1.00  0.00     0.293 HD
ENDBRANCH  18  21
ENDBRANCH   3  13
BRANCH   9  23
ATOM     23  O   UNL     1      49.173  43.179  31.939  1.00  0.00    -0.507 OA
ATOM     24  H   UNL     1      49.460  42.301  31.527  1.00  0.00     0.293 HD
ENDBRANCH   9  23
BRANCH   7  25
ATOM     25  O   UNL     1      45.560  41.360  34.532  1.00  0.00    -0.508 OA
ATOM     26  H   UNL     1      45.134  40.916  33.727  1.00  0.00     0.293 HD
ENDBRANCH   7  25
TORSDOF 6
ENDMDL
MODEL 5
REMARK VINA RESULT:    -6.397      2.432      4.236
REMARK INTER + INTRA:          -8.041
REMARK INTER:                  -7.533
REMARK INTRA:                  -0.507
REMARK UNBOUND:                -0.335
REMARK SMILES Oc1cc(O)c2c(c1)O[C@@H](c1ccc(O)c(O)c1)[C@H](O)C2
REMARK SMILES IDX 21 1 19 2 10 3 9 4 7 5 8 6 2 7 3 8 4 9 6 10 20 11 11 13
REMARK SMILES IDX 18 14 12 15 16 16 13 17 14 18 17 19 15 21 5 23 1 25
REMARK H PARENT 20 12 17 20 15 22 5 24 1 26
REMARK Flexibility Score: inf
ROOT
ATOM      1  C   UNL     1      50.991  46.890  36.937  1.00  0.00     0.079 C 
ATOM      2  C   UNL     1      49.542  46.762  37.444  1.00  0.00     0.164 C 
ATOM      3  C   UNL     1      48.539  46.976  36.295  1.00  0.00     0.232 C 
ATOM      4  O   UNL     1      48.807  48.207  35.618  1.00  0.00    -0.482 OA
ATOM      5  C   UNL     1      50.093  48.745  35.479  1.00  0.00     0.131 A 
ATOM      6  C   UNL     1      50.264  49.899  34.711  1.00  0.00     0.093 A 
ATOM      7  C   UNL     1      51.540  50.442  34.529  1.00  0.00     0.122 A 
ATOM      8  C   UNL     1      52.648  49.822  35.108  1.00  0.00     0.092 A 
ATOM      9  C   UNL     1      52.496  48.661  35.876  1.00  0.00     0.126 A 
ATOM     10  C   UNL     1      51.203  48.133  36.103  1.00  0.00     0.039 A 
ENDROOT
BRANCH   2  11
ATOM     11  O   UNL     1      49.303  47.723  38.440  1.00  0.00    -0.389 OA
ATOM     12  H   UNL     1      48.317  47.789  38.547  1.00  0.00     0.211 HD
ENDBRANCH   2  11
BRANCH   3  13
ATOM     13  C   UNL     1      48.518  45.797  35.338  1.00  0.00    -0.001 A 
ATOM     14  C   UNL     1      48.411  44.495  35.857  1.00  0.00     0.057 A 
ATOM     15  C   UNL     1      48.652  45.963  33.946  1.00  0.00     0.012 A 
ATOM     16  C   UNL     1      48.415  43.380  35.006  1.00  0.00     0.157 A 
ATOM     17  C   UNL     1      48.655  44.853  33.097  1.00  0.00     0.050 A 
ATOM     18  C   UNL     1      48.535  43.562  33.620  1.00  0.00     0.157 A 
BRANCH  16  19
ATOM     19  O   UNL     1      48.298  42.094  35.534  1.00  0.00    -0.504 OA
ATOM     20  H   UNL     1      48.124  41.939  36.521  1.00  0.00     0.293 HD
ENDBRANCH  16  19
BRANCH  18  21
ATOM     21  O   UNL     1      48.540  42.473  32.748  1.00  0.00    -0.504 OA
ATOM     22  H   UNL     1      47.756  42.268  32.138  1.00  0.00     0.293 HD
ENDBRANCH  18  21
ENDBRANCH   3  13
BRANCH   9  23
ATOM     23  O   UNL     1      53.648  48.058  36.384  1.00  0.00    -0.507 OA
ATOM     24  H   UNL     1      53.960  48.172  37.339  1.00  0.00     0.293 HD
ENDBRANCH   9  23
BRANCH   7  25
ATOM     25  O   UNL     1      51.718  51.596  33.769  1.00  0.00    -0.508 OA
ATOM     26  H   UNL     1      52.286  52.367  34.101  1.00  0.00     0.293 HD
ENDBRANCH   7  25
TORSDOF 6
ENDMDL
MODEL 6
REMARK VINA RESULT:    -6.378      9.395     11.941
REMARK INTER + INTRA:          -8.018
REMARK INTER:                  -7.816
REMARK INTRA:                  -0.202
REMARK UNBOUND:                -0.335
REMARK SMILES Oc1cc(O)c2c(c1)O[C@@H](c1ccc(O)c(O)c1)[C@H](O)C2
REMARK SMILES IDX 21 1 19 2 10 3 9 4 7 5 8 6 2 7 3 8 4 9 6 10 20 11 11 13
REMARK SMILES IDX 18 14 12 15 16 16 13 17 14 18 17 19 15 21 5 23 1 25
REMARK H PARENT 20 12 17 20 15 22 5 24 1 26
REMARK Flexibility Score: inf
ROOT
ATOM      1  C   UNL     1      47.123  44.888  47.848  1.00  0.00     0.079 C 
ATOM      2  C   UNL     1      46.925  43.433  48.309  1.00  0.00     0.164 C 
ATOM      3  C   UNL     1      47.211  42.450  47.159  1.00  0.00     0.232 C 
ATOM      4  O   UNL     1      46.448  42.797  46.000  1.00  0.00    -0.482 OA
ATOM      5  C   UNL     1      46.104  44.115  45.672  1.00  0.00     0.131 A 
ATOM      6  C   UNL     1      45.445  44.362  44.465  1.00  0.00     0.093 A 
ATOM      7  C   UNL     1      45.117  45.669  44.095  1.00  0.00     0.122 A 
ATOM      8  C   UNL     1      45.459  46.734  44.930  1.00  0.00     0.092 A 
ATOM      9  C   UNL     1      46.125  46.507  46.141  1.00  0.00     0.126 A 
ATOM     10  C   UNL     1      46.418  45.182  46.543  1.00  0.00     0.039 A 
ENDROOT
BRANCH   2  11
ATOM     11  O   UNL     1      45.602  43.250  48.743  1.00  0.00    -0.389 OA
ATOM     12  H   UNL     1      45.480  42.276  48.898  1.00  0.00     0.211 HD
ENDBRANCH   2  11
BRANCH   3  13
ATOM     13  C   UNL     1      48.695  42.359  46.851  1.00  0.00    -0.001 A 
ATOM     14  C   UNL     1      49.614  42.974  47.720  1.00  0.00     0.057 A 
ATOM     15  C   UNL     1      49.180  41.719  45.695  1.00  0.00     0.012 A 
ATOM     16  C   UNL     1      50.991  42.934  47.455  1.00  0.00     0.157 A 
ATOM     17  C   UNL     1      50.552  41.677  45.430  1.00  0.00     0.050 A 
ATOM     18  C   UNL     1      51.461  42.280  46.305  1.00  0.00     0.157 A 
BRANCH  16  19
ATOM     19  O   UNL     1      51.892  43.540  48.330  1.00  0.00    -0.504 OA
ATOM     20  H   UNL     1      51.628  43.785  49.278  1.00  0.00     0.293 HD
ENDBRANCH  16  19
BRANCH  18  21
ATOM     21  O   UNL     1      52.824  42.222  46.015  1.00  0.00    -0.504 OA
ATOM     22  H   UNL     1      53.526  42.127  46.741  1.00  0.00     0.293 HD
ENDBRANCH  18  21
ENDBRANCH   3  13
BRANCH   9  23
ATOM     23  O   UNL     1      46.486  47.616  46.907  1.00  0.00    -0.507 OA
ATOM     24  H   UNL     1      47.427  47.985  46.940  1.00  0.00     0.293 HD
ENDBRANCH   9  23
BRANCH   7  25
ATOM     25  O   UNL     1      44.455  45.922  42.896  1.00  0.00    -0.508 OA
ATOM     26  H   UNL     1      43.712  46.608  42.835  1.00  0.00     0.293 HD
ENDBRANCH   7  25
TORSDOF 6
ENDMDL
MODEL 7
REMARK VINA RESULT:    -6.375      2.974      4.872
REMARK INTER + INTRA:          -8.014
REMARK INTER:                  -7.493
REMARK INTRA:                  -0.522
REMARK UNBOUND:                -0.335
REMARK SMILES Oc1cc(O)c2c(c1)O[C@@H](c1ccc(O)c(O)c1)[C@H](O)C2
REMARK SMILES IDX 21 1 19 2 10 3 9 4 7 5 8 6 2 7 3 8 4 9 6 10 20 11 11 13
REMARK SMILES IDX 18 14 12 15 16 16 13 17 14 18 17 19 15 21 5 23 1 25
REMARK H PARENT 20 12 17 20 15 22 5 24 1 26
REMARK Flexibility Score: inf
ROOT
ATOM      1  C   UNL     1      52.280  47.846  36.334  1.00  0.00     0.079 C 
ATOM      2  C   UNL     1      51.233  47.656  37.446  1.00  0.00     0.164 C 
ATOM      3  C   UNL     1      49.805  47.762  36.878  1.00  0.00     0.232 C 
ATOM      4  O   UNL     1      49.648  48.977  36.140  1.00  0.00    -0.482 OA
ATOM      5  C   UNL     1      50.690  49.582  35.424  1.00  0.00     0.131 A 
ATOM      6  C   UNL     1      50.411  50.711  34.650  1.00  0.00     0.093 A 
ATOM      7  C   UNL     1      51.423  51.320  33.900  1.00  0.00     0.122 A 
ATOM      8  C   UNL     1      52.714  50.790  33.918  1.00  0.00     0.092 A 
ATOM      9  C   UNL     1      53.011  49.656  34.684  1.00  0.00     0.126 A 
ATOM     10  C   UNL     1      52.002  49.064  35.481  1.00  0.00     0.039 A 
ENDROOT
BRANCH   2  11
ATOM     11  O   UNL     1      51.403  48.643  38.431  1.00  0.00    -0.389 OA
ATOM     12  H   UNL     1      50.565  48.668  38.964  1.00  0.00     0.211 HD
ENDBRANCH   2  11
BRANCH   3  13
ATOM     13  C   UNL     1      49.436  46.545  36.049  1.00  0.00    -0.001 A 
ATOM     14  C   UNL     1      48.683  46.719  34.874  1.00  0.00     0.057 A 
ATOM     15  C   UNL     1      49.784  45.239  36.445  1.00  0.00     0.012 A 
ATOM     16  C   UNL     1      48.301  45.616  34.097  1.00  0.00     0.157 A 
ATOM     17  C   UNL     1      49.404  44.140  35.670  1.00  0.00     0.050 A 
ATOM     18  C   UNL     1      48.666  44.321  34.497  1.00  0.00     0.157 A 
BRANCH  16  19
ATOM     19  O   UNL     1      47.561  45.802  32.929  1.00  0.00    -0.504 OA
ATOM     20  H   UNL     1      47.318  46.729  32.597  1.00  0.00     0.293 HD
ENDBRANCH  16  19
BRANCH  18  21
ATOM     21  O   UNL     1      48.302  43.204  33.744  1.00  0.00    -0.504 OA
ATOM     22  H   UNL     1      48.971  42.697  33.174  1.00  0.00     0.293 HD
ENDBRANCH  18  21
ENDBRANCH   3  13
BRANCH   9  23
ATOM     23  O   UNL     1      54.307  49.142  34.618  1.00  0.00    -0.507 OA
ATOM     24  H   UNL     1      54.565  48.235  34.983  1.00  0.00     0.293 HD
ENDBRANCH   9  23
BRANCH   7  25
ATOM     25  O   UNL     1      51.155  52.449  33.130  1.00  0.00    -0.508 OA
ATOM     26  H   UNL     1      51.635  53.326  33.290  1.00  0.00     0.293 HD
ENDBRANCH   7  25
TORSDOF 6
ENDMDL
MODEL 8
REMARK VINA RESULT:    -6.341     10.402     12.790
REMARK INTER + INTRA:          -7.973
REMARK INTER:                  -7.790
REMARK INTRA:                  -0.183
REMARK UNBOUND:                -0.335
REMARK SMILES Oc1cc(O)c2c(c1)O[C@@H](c1ccc(O)c(O)c1)[C@H](O)C2
REMARK SMILES IDX 21 1 19 2 10 3 9 4 7 5 8 6 2 7 3 8 4 9 6 10 20 11 11 13
REMARK SMILES IDX 18 14 12 15 16 16 13 17 14 18 17 19 15 21 5 23 1 25
REMARK H PARENT 20 12 17 20 15 22 5 24 1 26
REMARK Flexibility Score: inf
ROOT
ATOM      1  C   UNL     1      48.265  40.198  44.728  1.00  0.00     0.079 C 
ATOM      2  C   UNL     1      49.768  39.866  44.756  1.00  0.00     0.164 C 
ATOM      3  C   UNL     1      50.272  39.730  46.205  1.00  0.00     0.232 C 
ATOM      4  O   UNL     1      49.922  40.887  46.969  1.00  0.00    -0.482 OA
ATOM      5  C   UNL     1      48.759  41.636  46.742  1.00  0.00     0.131 A 
ATOM      6  C   UNL     1      48.453  42.688  47.609  1.00  0.00     0.093 A 
ATOM      7  C   UNL     1      47.285  43.434  47.427  1.00  0.00     0.122 A 
ATOM      8  C   UNL     1      46.415  43.119  46.382  1.00  0.00     0.092 A 
ATOM      9  C   UNL     1      46.702  42.064  45.507  1.00  0.00     0.126 A 
ATOM     10  C   UNL     1      47.906  41.336  45.658  1.00  0.00     0.039 A 
ENDROOT
BRANCH   2  11
ATOM     11  O   UNL     1      50.491  40.889  44.120  1.00  0.00    -0.389 OA
ATOM     12  H   UNL     1      49.855  41.364  43.522  1.00  0.00     0.211 HD
ENDBRANCH   2  11
BRANCH   3  13
ATOM     13  C   UNL     1      49.776  38.452  46.857  1.00  0.00    -0.001 A 
ATOM     14  C   UNL     1      50.152  38.167  48.181  1.00  0.00     0.057 A 
ATOM     15  C   UNL     1      48.988  37.516  46.159  1.00  0.00     0.012 A 
ATOM     16  C   UNL     1      49.735  36.983  48.808  1.00  0.00     0.157 A 
ATOM     17  C   UNL     1      48.572  36.337  46.783  1.00  0.00     0.050 A 
ATOM     18  C   UNL     1      48.940  36.065  48.104  1.00  0.00     0.157 A 
BRANCH  16  19
ATOM     19  O   UNL     1      50.108  36.717  50.125  1.00  0.00    -0.504 OA
ATOM     20  H   UNL     1      50.729  37.335  50.636  1.00  0.00     0.293 HD
ENDBRANCH  16  19
BRANCH  18  21
ATOM     21  O   UNL     1      48.508  34.880  48.700  1.00  0.00    -0.504 OA
ATOM     22  H   UNL     1      47.756  34.323  48.308  1.00  0.00     0.293 HD
ENDBRANCH  18  21
ENDBRANCH   3  13
BRANCH   9  23
ATOM     23  O   UNL     1      45.768  41.764  44.514  1.00  0.00    -0.507 OA
ATOM     24  H   UNL     1      45.182  42.461  44.074  1.00  0.00     0.293 HD
ENDBRANCH   9  23
BRANCH   7  25
ATOM     25  O   UNL     1      46.975  44.489  48.283  1.00  0.00    -0.508 OA
ATOM     26  H   UNL     1      46.074  44.551  48.743  1.00  0.00     0.293 HD
ENDBRANCH   7  25
TORSDOF 6
ENDMDL
MODEL 9
REMARK VINA RESULT:    -6.151      3.229      6.107
REMARK INTER + INTRA:          -7.745
REMARK INTER:                  -7.240
REMARK INTRA:                  -0.504
REMARK UNBOUND:                -0.335
REMARK SMILES Oc1cc(O)c2c(c1)O[C@@H](c1ccc(O)c(O)c1)[C@H](O)C2
REMARK SMILES IDX 21 1 19 2 10 3 9 4 7 5 8 6 2 7 3 8 4 9 6 10 20 11 11 13
REMARK SMILES IDX 18 14 12 15 16 16 13 17 14 18 17 19 15 21 5 23 1 25
REMARK H PARENT 20 12 17 20 15 22 5 24 1 26
REMARK Flexibility Score: inf
ROOT
ATOM      1  C   UNL     1      49.683  47.365  35.716  1.00  0.00     0.079 C 
ATOM      2  C   UNL     1      49.386  48.645  36.519  1.00  0.00     0.164 C 
ATOM      3  C   UNL     1      50.688  49.399  36.849  1.00  0.00     0.232 C 
ATOM      4  O   UNL     1      51.626  48.526  37.483  1.00  0.00    -0.482 OA
ATOM      5  C   UNL     1      51.709  47.155  37.206  1.00  0.00     0.131 A 
ATOM      6  C   UNL     1      52.728  46.405  37.800  1.00  0.00     0.093 A 
ATOM      7  C   UNL     1      52.857  45.042  37.519  1.00  0.00     0.122 A 
ATOM      8  C   UNL     1      51.970  44.429  36.632  1.00  0.00     0.092 A 
ATOM      9  C   UNL     1      50.947  45.165  36.023  1.00  0.00     0.126 A 
ATOM     10  C   UNL     1      50.783  46.535  36.339  1.00  0.00     0.039 A 
ENDROOT
BRANCH   2  11
ATOM     11  O   UNL     1      48.738  48.311  37.719  1.00  0.00    -0.389 OA
ATOM     12  H   UNL     1      47.761  48.377  37.549  1.00  0.00     0.211 HD
ENDBRANCH   2  11
BRANCH   3  13
ATOM     13  C   UNL     1      51.278  50.069  35.621  1.00  0.00    -0.001 A 
ATOM     14  C   UNL     1      50.460  50.896  34.832  1.00  0.00     0.057 A 
ATOM     15  C   UNL     1      52.610  49.849  35.220  1.00  0.00     0.012 A 
ATOM     16  C   UNL     1      50.963  51.511  33.676  1.00  0.00     0.157 A 
ATOM     17  C   UNL     1      53.112  50.462  34.069  1.00  0.00     0.050 A 
ATOM     18  C   UNL     1      52.297  51.293  33.295  1.00  0.00     0.157 A 
BRANCH  16  19
ATOM     19  O   UNL     1      50.143  52.336  32.907  1.00  0.00    -0.504 OA
ATOM     20  H   UNL     1      50.512  53.150  32.426  1.00  0.00     0.293 HD
ENDBRANCH  16  19
BRANCH  18  21
ATOM     21  O   UNL     1      52.826  51.892  32.152  1.00  0.00    -0.504 OA
ATOM     22  H   UNL     1      52.430  51.739  31.230  1.00  0.00     0.293 HD
ENDBRANCH  18  21
ENDBRANCH   3  13
BRANCH   9  23
ATOM     23  O   UNL     1      50.125  44.508  35.105  1.00  0.00    -0.507 OA
ATOM     24  H   UNL     1      49.289  44.920  34.713  1.00  0.00     0.293 HD
ENDBRANCH   9  23
BRANCH   7  25
ATOM     25  O   UNL     1      53.867  44.287  38.111  1.00  0.00    -0.508 OA
ATOM     26  H   UNL     1      53.742  43.303  38.316  1.00  0.00     0.293 HD
ENDBRANCH   7  25
TORSDOF 6
ENDMDL
