MODEL 1
REMARK VINA RESULT:    -4.493      0.000      0.000
REMARK INTER + INTRA:          -7.311
REMARK INTER:                  -6.856
REMARK INTRA:                  -0.454
REMARK UNBOUND:                -0.454
REMARK SMILES O=C([O-])CCCCCCCCC(=O)[O-]
REMARK SMILES IDX 7 1 6 2 5 3 4 4 2 5 1 6 3 7 8 8 9 9 10 10 11 11 12 12 13 13
REMARK SMILES IDX 14 14
REMARK H PARENT
REMARK Flexibility Score: inf
ROOT
ATOM      1  C   UNL     1       8.450  -7.068  -4.024  1.00  0.00     0.000 C 
ENDROOT
BRANCH   1   2
ATOM      2  C   UNL     1       8.892  -5.935  -3.081  1.00  0.00     0.000 C 
BRANCH   2   3
ATOM      3  C   UNL     1       8.696  -4.542  -3.699  1.00  0.00     0.006 C 
BRANCH   3   4
ATOM      4  C   UNL     1       7.538  -4.501  -4.705  1.00  0.00     0.053 C 
BRANCH   4   5
ATOM      5  C   UNL     1       8.018  -4.004  -6.033  1.00  0.00     0.041 C 
ATOM      6  O   UNL     1       7.395  -3.086  -6.628  1.00  0.00    -0.550 OA
ATOM      7  O   UNL     1       9.125  -4.587  -6.635  1.00  0.00    -0.550 OA
ENDBRANCH   4   5
ENDBRANCH   3   4
ENDBRANCH   2   3
ENDBRANCH   1   2
BRANCH   1   8
ATOM      8  C   UNL     1       8.002  -8.328  -3.266  1.00  0.00     0.000 C 
BRANCH   8   9
ATOM      9  C   UNL     1       7.998  -8.130  -1.743  1.00  0.00     0.000 C 
BRANCH   9  10
ATOM     10  C   UNL     1       8.027  -9.479  -1.015  1.00  0.00     0.006 C 
BRANCH  10  11
ATOM     11  C   UNL     1       8.166  -9.284   0.498  1.00  0.00     0.053 C 
BRANCH  11  12
ATOM     12  C   UNL     1       7.045  -9.963   1.219  1.00  0.00     0.041 C 
ATOM     13  O   UNL     1       5.853  -9.624   0.999  1.00  0.00    -0.550 OA
ATOM     14  O   UNL     1       7.314 -11.004   2.098  1.00  0.00    -0.550 OA
ENDBRANCH  11  12
ENDBRANCH  10  11
ENDBRANCH   9  10
ENDBRANCH   8   9
ENDBRANCH   1   8
TORSDOF 9
ENDMDL
MODEL 2
REMARK VINA RESULT:    -4.434      0.598      7.798
REMARK INTER + INTRA:          -7.222
REMARK INTER:                  -6.916
REMARK INTRA:                  -0.306
REMARK UNBOUND:                -0.454
REMARK SMILES O=C([O-])CCCCCCCCC(=O)[O-]
REMARK SMILES IDX 7 1 6 2 5 3 4 4 2 5 1 6 3 7 8 8 9 9 10 10 11 11 12 12 13 13
REMARK SMILES IDX 14 14
REMARK H PARENT
REMARK Flexibility Score: inf
ROOT
ATOM      1  C   UNL     1       8.003  -7.554  -2.524  1.00  0.00     0.000 C 
ENDROOT
BRANCH   1   2
ATOM      2  C   UNL     1       8.751  -8.111  -1.298  1.00  0.00     0.000 C 
BRANCH   2   3
ATOM      3  C   UNL     1       8.121  -9.406  -0.762  1.00  0.00     0.006 C 
BRANCH   3   4
ATOM      4  C   UNL     1       8.332  -9.583   0.748  1.00  0.00     0.053 C 
BRANCH   4   5
ATOM      5  C   UNL     1       7.033  -9.890   1.424  1.00  0.00     0.041 C 
ATOM      6  O   UNL     1       5.945  -9.550   0.890  1.00  0.00    -0.550 OA
ATOM      7  O   UNL     1       7.026 -10.509   2.667  1.00  0.00    -0.550 OA
ENDBRANCH   4   5
ENDBRANCH   3   4
ENDBRANCH   2   3
ENDBRANCH   1   2
BRANCH   1   8
ATOM      8  C   UNL     1       8.889  -6.647  -3.393  1.00  0.00     0.000 C 
BRANCH   8   9
ATOM      9  C   UNL     1       8.954  -5.206  -2.866  1.00  0.00     0.000 C 
BRANCH   9  10
ATOM     10  C   UNL     1       9.046  -4.202  -4.022  1.00  0.00     0.006 C 
BRANCH  10  11
ATOM     11  C   UNL     1       7.738  -4.159  -4.816  1.00  0.00     0.053 C 
BRANCH  11  12
ATOM     12  C   UNL     1       8.012  -3.897  -6.264  1.00  0.00     0.041 C 
ATOM     13  O   UNL     1       7.266  -3.122  -6.920  1.00  0.00    -0.550 OA
ATOM     14  O   UNL     1       9.119  -4.469  -6.876  1.00  0.00    -0.550 OA
ENDBRANCH  11  12
ENDBRANCH  10  11
ENDBRANCH   9  10
ENDBRANCH   8   9
ENDBRANCH   1   8
TORSDOF 9
ENDMDL
MODEL 3
REMARK VINA RESULT:    -4.419      1.379      1.897
REMARK INTER + INTRA:          -7.198
REMARK INTER:                  -7.018
REMARK INTRA:                  -0.181
REMARK UNBOUND:                -0.454
REMARK SMILES O=C([O-])CCCCCCCCC(=O)[O-]
REMARK SMILES IDX 7 1 6 2 5 3 4 4 2 5 1 6 3 7 8 8 9 9 10 10 11 11 12 12 13 13
REMARK SMILES IDX 14 14
REMARK H PARENT
REMARK Flexibility Score: inf
ROOT
ATOM      1  C   UNL     1       8.776  -7.542  -1.880  1.00  0.00     0.000 C 
ENDROOT
BRANCH   1   2
ATOM      2  C   UNL     1       8.392  -6.906  -3.228  1.00  0.00     0.000 C 
BRANCH   2   3
ATOM      3  C   UNL     1       8.649  -5.392  -3.260  1.00  0.00     0.006 C 
BRANCH   3   4
ATOM      4  C   UNL     1       8.831  -4.854  -4.686  1.00  0.00     0.053 C 
BRANCH   4   5
ATOM      5  C   UNL     1       7.552  -4.259  -5.186  1.00  0.00     0.041 C 
ATOM      6  O   UNL     1       6.546  -4.195  -4.432  1.00  0.00    -0.550 OA
ATOM      7  O   UNL     1       7.457  -3.820  -6.500  1.00  0.00    -0.550 OA
ENDBRANCH   4   5
ENDBRANCH   3   4
ENDBRANCH   2   3
ENDBRANCH   1   2
BRANCH   1   8
ATOM      8  C   UNL     1       7.746  -8.577  -1.400  1.00  0.00     0.000 C 
BRANCH   8   9
ATOM      9  C   UNL     1       8.135  -9.221  -0.061  1.00  0.00     0.000 C 
BRANCH   9  10
ATOM     10  C   UNL     1       6.889  -9.564   0.765  1.00  0.00     0.006 C 
BRANCH  10  11
ATOM     11  C   UNL     1       7.265 -10.347   2.026  1.00  0.00     0.053 C 
BRANCH  11  12
ATOM     12  C   UNL     1       6.175 -10.250   3.047  1.00  0.00     0.041 C 
ATOM     13  O   UNL     1       5.014  -9.905   2.703  1.00  0.00    -0.550 OA
ATOM     14  O   UNL     1       6.430 -10.589   4.369  1.00  0.00    -0.550 OA
ENDBRANCH  11  12
ENDBRANCH  10  11
ENDBRANCH   9  10
ENDBRANCH   8   9
ENDBRANCH   1   8
TORSDOF 9
ENDMDL
MODEL 4
REMARK VINA RESULT:    -4.253      2.006      3.117
REMARK INTER + INTRA:          -6.945
REMARK INTER:                  -6.468
REMARK INTRA:                  -0.477
REMARK UNBOUND:                -0.454
REMARK SMILES O=C([O-])CCCCCCCCC(=O)[O-]
REMARK SMILES IDX 7 1 6 2 5 3 4 4 2 5 1 6 3 7 8 8 9 9 10 10 11 11 12 12 13 13
REMARK SMILES IDX 14 14
REMARK H PARENT
REMARK Flexibility Score: inf
ROOT
ATOM      1  C   UNL     1       7.272  -4.595  -4.483  1.00  0.00     0.000 C 
ENDROOT
BRANCH   1   2
ATOM      2  C   UNL     1       7.944  -3.636  -5.483  1.00  0.00     0.000 C 
BRANCH   2   3
ATOM      3  C   UNL     1       7.887  -4.156  -6.927  1.00  0.00     0.006 C 
BRANCH   3   4
ATOM      4  C   UNL     1       9.062  -5.083  -7.268  1.00  0.00     0.053 C 
BRANCH   4   5
ATOM      5  C   UNL     1       8.561  -6.441  -7.648  1.00  0.00     0.041 C 
ATOM      6  O   UNL     1       8.874  -7.447  -6.958  1.00  0.00    -0.550 OA
ATOM      7  O   UNL     1       7.788  -6.603  -8.790  1.00  0.00    -0.550 OA
ENDBRANCH   4   5
ENDBRANCH   3   4
ENDBRANCH   2   3
ENDBRANCH   1   2
BRANCH   1   8
ATOM      8  C   UNL     1       8.256  -5.141  -3.436  1.00  0.00     0.000 C 
BRANCH   8   9
ATOM      9  C   UNL     1       8.451  -6.661  -3.546  1.00  0.00     0.000 C 
BRANCH   9  10
ATOM     10  C   UNL     1       8.853  -7.261  -2.193  1.00  0.00     0.006 C 
BRANCH  10  11
ATOM     11  C   UNL     1       7.867  -8.350  -1.760  1.00  0.00     0.053 C 
BRANCH  11  12
ATOM     12  C   UNL     1       8.441  -9.162  -0.642  1.00  0.00     0.041 C 
ATOM     13  O   UNL     1       9.052  -8.597   0.302  1.00  0.00    -0.550 OA
ATOM     14  O   UNL     1       8.258 -10.539  -0.618  1.00  0.00    -0.550 OA
ENDBRANCH  11  12
ENDBRANCH  10  11
ENDBRANCH   9  10
ENDBRANCH   8   9
ENDBRANCH   1   8
TORSDOF 9
ENDMDL
MODEL 5
REMARK VINA RESULT:    -4.220      2.200      3.742
REMARK INTER + INTRA:          -6.895
REMARK INTER:                  -6.580
REMARK INTRA:                  -0.315
REMARK UNBOUND:                -0.454
REMARK SMILES O=C([O-])CCCCCCCCC(=O)[O-]
REMARK SMILES IDX 7 1 6 2 5 3 4 4 2 5 1 6 3 7 8 8 9 9 10 10 11 11 12 12 13 13
REMARK SMILES IDX 14 14
REMARK H PARENT
REMARK Flexibility Score: inf
ROOT
ATOM      1  C   UNL     1       8.879  -9.085  -0.424  1.00  0.00     0.000 C 
ENDROOT
BRANCH   1   2
ATOM      2  C   UNL     1       7.630  -8.746  -1.257  1.00  0.00     0.000 C 
BRANCH   2   3
ATOM      3  C   UNL     1       7.977  -8.072  -2.593  1.00  0.00     0.006 C 
BRANCH   3   4
ATOM      4  C   UNL     1       8.707  -6.736  -2.409  1.00  0.00     0.053 C 
BRANCH   4   5
ATOM      5  C   UNL     1       8.539  -5.877  -3.622  1.00  0.00     0.041 C 
ATOM      6  O   UNL     1       8.570  -4.622  -3.520  1.00  0.00    -0.550 OA
ATOM      7  O   UNL     1       8.301  -6.461  -4.859  1.00  0.00    -0.550 OA
ENDBRANCH   4   5
ENDBRANCH   3   4
ENDBRANCH   2   3
ENDBRANCH   1   2
BRANCH   1   8
ATOM      8  C   UNL     1       8.541  -9.864   0.858  1.00  0.00     0.000 C 
BRANCH   8   9
ATOM      9  C   UNL     1       7.092  -9.644   1.317  1.00  0.00     0.000 C 
BRANCH   9  10
ATOM     10  C   UNL     1       6.652 -10.746   2.290  1.00  0.00     0.006 C 
BRANCH  10  11
ATOM     11  C   UNL     1       5.131 -10.753   2.460  1.00  0.00     0.053 C 
BRANCH  11  12
ATOM     12  C   UNL     1       4.760 -10.429   3.873  1.00  0.00     0.041 C 
ATOM     13  O   UNL     1       5.214 -11.121   4.822  1.00  0.00    -0.550 OA
ATOM     14  O   UNL     1       3.951  -9.333   4.145  1.00  0.00    -0.550 OA
ENDBRANCH  11  12
ENDBRANCH  10  11
ENDBRANCH   9  10
ENDBRANCH   8   9
ENDBRANCH   1   8
TORSDOF 9
ENDMDL
MODEL 6
REMARK VINA RESULT:    -4.148      1.635      7.947
REMARK INTER + INTRA:          -6.784
REMARK INTER:                  -6.530
REMARK INTRA:                  -0.254
REMARK UNBOUND:                -0.454
REMARK SMILES O=C([O-])CCCCCCCCC(=O)[O-]
REMARK SMILES IDX 7 1 6 2 5 3 4 4 2 5 1 6 3 7 8 8 9 9 10 10 11 11 12 12 13 13
REMARK SMILES IDX 14 14
REMARK H PARENT
REMARK Flexibility Score: inf
ROOT
ATOM      1  C   UNL     1       7.759  -8.583  -1.235  1.00  0.00     0.000 C 
ENDROOT
BRANCH   1   2
ATOM      2  C   UNL     1       8.200  -9.385   0.003  1.00  0.00     0.000 C 
BRANCH   2   3
ATOM      3  C   UNL     1       7.044  -9.644   0.980  1.00  0.00     0.006 C 
BRANCH   3   4
ATOM      4  C   UNL     1       7.435 -10.597   2.118  1.00  0.00     0.053 C 
BRANCH   4   5
ATOM      5  C   UNL     1       6.372 -10.616   3.171  1.00  0.00     0.041 C 
ATOM      6  O   UNL     1       6.669 -10.396   4.375  1.00  0.00    -0.550 OA
ATOM      7  O   UNL     1       5.061 -10.924   2.830  1.00  0.00    -0.550 OA
ENDBRANCH   4   5
ENDBRANCH   3   4
ENDBRANCH   2   3
ENDBRANCH   1   2
BRANCH   1   8
ATOM      8  C   UNL     1       8.092  -9.301  -2.553  1.00  0.00     0.000 C 
BRANCH   8   9
ATOM      9  C   UNL     1       7.973  -8.378  -3.775  1.00  0.00     0.000 C 
BRANCH   9  10
ATOM     10  C   UNL     1       8.337  -6.934  -3.407  1.00  0.00     0.006 C 
BRANCH  10  11
ATOM     11  C   UNL     1       8.445  -6.059  -4.660  1.00  0.00     0.053 C 
BRANCH  11  12
ATOM     12  C   UNL     1       7.987  -4.665  -4.366  1.00  0.00     0.041 C 
ATOM     13  O   UNL     1       6.822  -4.303  -4.678  1.00  0.00    -0.550 OA
ATOM     14  O   UNL     1       8.830  -3.782  -3.705  1.00  0.00    -0.550 OA
ENDBRANCH  11  12
ENDBRANCH  10  11
ENDBRANCH   9  10
ENDBRANCH   8   9
ENDBRANCH   1   8
TORSDOF 9
ENDMDL
MODEL 7
REMARK VINA RESULT:    -4.097      2.102      7.217
REMARK INTER + INTRA:          -6.707
REMARK INTER:                  -6.228
REMARK INTRA:                  -0.479
REMARK UNBOUND:                -0.454
REMARK SMILES O=C([O-])CCCCCCCCC(=O)[O-]
REMARK SMILES IDX 7 1 6 2 5 3 4 4 2 5 1 6 3 7 8 8 9 9 10 10 11 11 12 12 13 13
REMARK SMILES IDX 14 14
REMARK H PARENT
REMARK Flexibility Score: inf
ROOT
ATOM      1  C   UNL     1       8.020  -5.340  -3.487  1.00  0.00     0.000 C 
ENDROOT
BRANCH   1   2
ATOM      2  C   UNL     1       9.070  -6.179  -2.736  1.00  0.00     0.000 C 
BRANCH   2   3
ATOM      3  C   UNL     1       8.801  -7.688  -2.837  1.00  0.00     0.006 C 
BRANCH   3   4
ATOM      4  C   UNL     1       7.785  -8.178  -1.797  1.00  0.00     0.053 C 
BRANCH   4   5
ATOM      5  C   UNL     1       8.435  -9.122  -0.836  1.00  0.00     0.041 C 
ATOM      6  O   UNL     1       8.936  -8.690   0.235  1.00  0.00    -0.550 OA
ATOM      7  O   UNL     1       8.530 -10.473  -1.145  1.00  0.00    -0.550 OA
ENDBRANCH   4   5
ENDBRANCH   3   4
ENDBRANCH   2   3
ENDBRANCH   1   2
BRANCH   1   8
ATOM      8  C   UNL     1       8.655  -4.295  -4.418  1.00  0.00     0.000 C 
BRANCH   8   9
ATOM      9  C   UNL     1       7.625  -3.620  -5.337  1.00  0.00     0.000 C 
BRANCH   9  10
ATOM     10  C   UNL     1       7.821  -4.058  -6.794  1.00  0.00     0.006 C 
BRANCH  10  11
ATOM     11  C   UNL     1       9.125  -4.844  -6.960  1.00  0.00     0.053 C 
BRANCH  11  12
ATOM     12  C   UNL     1       8.839  -6.242  -7.412  1.00  0.00     0.041 C 
ATOM     13  O   UNL     1       8.751  -7.174  -6.569  1.00  0.00    -0.550 OA
ATOM     14  O   UNL     1       8.623  -6.507  -8.758  1.00  0.00    -0.550 OA
ENDBRANCH  11  12
ENDBRANCH  10  11
ENDBRANCH   9  10
ENDBRANCH   8   9
ENDBRANCH   1   8
TORSDOF 9
ENDMDL
MODEL 8
REMARK VINA RESULT:    -3.975      3.322      8.417
REMARK INTER + INTRA:          -6.520
REMARK INTER:                  -6.181
REMARK INTRA:                  -0.340
REMARK UNBOUND:                -0.454
REMARK SMILES O=C([O-])CCCCCCCCC(=O)[O-]
REMARK SMILES IDX 7 1 6 2 5 3 4 4 2 5 1 6 3 7 8 8 9 9 10 10 11 11 12 12 13 13
REMARK SMILES IDX 14 14
REMARK H PARENT
REMARK Flexibility Score: inf
ROOT
ATOM      1  C   UNL     1       6.413  -9.676   1.765  1.00  0.00     0.000 C 
ENDROOT
BRANCH   1   2
ATOM      2  C   UNL     1       5.477 -10.813   2.214  1.00  0.00     0.000 C 
BRANCH   2   3
ATOM      3  C   UNL     1       5.420 -10.961   3.742  1.00  0.00     0.006 C 
BRANCH   3   4
ATOM      4  C   UNL     1       5.031  -9.655   4.447  1.00  0.00     0.053 C 
BRANCH   4   5
ATOM      5  C   UNL     1       3.555  -9.429   4.349  1.00  0.00     0.041 C 
ATOM      6  O   UNL     1       2.769 -10.408   4.257  1.00  0.00    -0.550 OA
ATOM      7  O   UNL     1       3.050  -8.136   4.312  1.00  0.00    -0.550 OA
ENDBRANCH   4   5
ENDBRANCH   3   4
ENDBRANCH   2   3
ENDBRANCH   1   2
BRANCH   1   8
ATOM      8  C   UNL     1       7.775 -10.192   1.273  1.00  0.00     0.000 C 
BRANCH   8   9
ATOM      9  C   UNL     1       8.490  -9.189   0.356  1.00  0.00     0.000 C 
BRANCH   9  10
ATOM     10  C   UNL     1       8.119  -9.429  -1.113  1.00  0.00     0.006 C 
BRANCH  10  11
ATOM     11  C   UNL     1       7.929  -8.102  -1.854  1.00  0.00     0.053 C 
BRANCH  11  12
ATOM     12  C   UNL     1       7.904  -8.328  -3.333  1.00  0.00     0.041 C 
ATOM     13  O   UNL     1       7.284  -9.314  -3.813  1.00  0.00    -0.550 OA
ATOM     14  O   UNL     1       8.523  -7.422  -4.185  1.00  0.00    -0.550 OA
ENDBRANCH  11  12
ENDBRANCH  10  11
ENDBRANCH   9  10
ENDBRANCH   8   9
ENDBRANCH   1   8
TORSDOF 9
ENDMDL
MODEL 9
REMARK VINA RESULT:    -3.927      2.294      8.227
REMARK INTER + INTRA:          -6.448
REMARK INTER:                  -6.111
REMARK INTRA:                  -0.337
REMARK UNBOUND:                -0.454
REMARK SMILES O=C([O-])CCCCCCCCC(=O)[O-]
REMARK SMILES IDX 7 1 6 2 5 3 4 4 2 5 1 6 3 7 8 8 9 9 10 10 11 11 12 12 13 13
REMARK SMILES IDX 14 14
REMARK H PARENT
REMARK Flexibility Score: inf
ROOT
ATOM      1  C   UNL     1       7.160  -9.606   0.744  1.00  0.00     0.000 C 
ENDROOT
BRANCH   1   2
ATOM      2  C   UNL     1       7.877 -10.474   1.794  1.00  0.00     0.000 C 
BRANCH   2   3
ATOM      3  C   UNL     1       6.904 -11.105   2.802  1.00  0.00     0.006 C 
BRANCH   3   4
ATOM      4  C   UNL     1       5.436 -10.790   2.481  1.00  0.00     0.053 C 
BRANCH   4   5
ATOM      5  C   UNL     1       4.710 -10.371   3.720  1.00  0.00     0.041 C 
ATOM      6  O   UNL     1       3.670 -10.983   4.082  1.00  0.00    -0.550 OA
ATOM      7  O   UNL     1       5.153  -9.276   4.450  1.00  0.00    -0.550 OA
ENDBRANCH   4   5
ENDBRANCH   3   4
ENDBRANCH   2   3
ENDBRANCH   1   2
BRANCH   1   8
ATOM      8  C   UNL     1       8.116  -9.075  -0.336  1.00  0.00     0.000 C 
BRANCH   8   9
ATOM      9  C   UNL     1       7.609  -9.347  -1.760  1.00  0.00     0.000 C 
BRANCH   9  10
ATOM     10  C   UNL     1       8.380  -8.507  -2.786  1.00  0.00     0.006 C 
BRANCH  10  11
ATOM     11  C   UNL     1       8.326  -7.019  -2.428  1.00  0.00     0.053 C 
BRANCH  11  12
ATOM     12  C   UNL     1       8.363  -6.180  -3.667  1.00  0.00     0.041 C 
ATOM     13  O   UNL     1       8.491  -6.723  -4.796  1.00  0.00    -0.550 OA
ATOM     14  O   UNL     1       8.208  -4.803  -3.579  1.00  0.00    -0.550 OA
ENDBRANCH  11  12
ENDBRANCH  10  11
ENDBRANCH   9  10
ENDBRANCH   8   9
ENDBRANCH   1   8
TORSDOF 9
ENDMDL
