MODEL 1
REMARK VINA RESULT:    -4.656      0.000      0.000
REMARK INTER + INTRA:          -6.930
REMARK INTER:                  -6.289
REMARK INTRA:                  -0.641
REMARK UNBOUND:                -0.641
REMARK SMILES C[C@@H](O)[C@@H](O)[C@@H](O)[C@@H](O)C=O
REMARK SMILES IDX 4 1 2 2 1 3 3 4 6 6 8 7 10 8 11 9 9 10 7 12 5 14
REMARK H PARENT 3 5 9 11 7 13 5 15
REMARK Flexibility Score: inf
ROOT
ATOM      1  C   UNL     1      -1.963  62.996 -11.286  1.00  0.00     0.174 C 
ENDROOT
BRANCH   1   2
ATOM      2  C   UNL     1      -0.946  62.006 -10.658  1.00  0.00     0.142 C 
ATOM      3  C   UNL     1      -0.851  62.113  -9.127  1.00  0.00     0.041 C 
BRANCH   2   4
ATOM      4  O   UNL     1      -1.253  60.686 -11.036  1.00  0.00    -0.391 OA
ATOM      5  H   UNL     1      -0.406  60.170 -11.055  1.00  0.00     0.211 HD
ENDBRANCH   2   4
ENDBRANCH   1   2
BRANCH   1   6
ATOM      6  C   UNL     1      -1.892  63.027 -12.841  1.00  0.00     0.181 C 
BRANCH   6   7
ATOM      7  C   UNL     1      -2.956  62.110 -13.506  1.00  0.00     0.209 C 
BRANCH   7   8
ATOM      8  C   UNL     1      -4.133  61.802 -12.613  1.00  0.00     0.258 C 
ATOM      9  O   UNL     1      -4.268  60.701 -12.104  1.00  0.00    -0.300 OA
ENDBRANCH   7   8
BRANCH   7  10
ATOM     10  O   UNL     1      -2.370  60.922 -13.980  1.00  0.00    -0.383 OA
ATOM     11  H   UNL     1      -2.792  60.161 -13.502  1.00  0.00     0.211 HD
ENDBRANCH   7  10
ENDBRANCH   6   7
BRANCH   6  12
ATOM     12  O   UNL     1      -0.600  62.727 -13.311  1.00  0.00    -0.387 OA
ATOM     13  H   UNL     1       0.029  63.389 -12.923  1.00  0.00     0.211 HD
ENDBRANCH   6  12
ENDBRANCH   1   6
BRANCH   1  14
ATOM     14  O   UNL     1      -1.747  64.293 -10.786  1.00  0.00    -0.388 OA
ATOM     15  H   UNL     1      -1.644  64.214  -9.801  1.00  0.00     0.211 HD
ENDBRANCH   1  14
TORSDOF 8
ENDMDL
MODEL 2
REMARK VINA RESULT:    -4.476      1.452      2.198
REMARK INTER + INTRA:          -6.688
REMARK INTER:                  -5.933
REMARK INTRA:                  -0.756
REMARK UNBOUND:                -0.641
REMARK SMILES C[C@@H](O)[C@@H](O)[C@@H](O)[C@@H](O)C=O
REMARK SMILES IDX 4 1 2 2 1 3 3 4 6 6 8 7 10 8 11 9 9 10 7 12 5 14
REMARK H PARENT 3 5 9 11 7 13 5 15
REMARK Flexibility Score: inf
ROOT
ATOM      1  C   UNL     1      -1.773  62.831 -12.846  1.00  0.00     0.174 C 
ENDROOT
BRANCH   1   2
ATOM      2  C   UNL     1      -1.018  62.560 -11.517  1.00  0.00     0.142 C 
ATOM      3  C   UNL     1      -1.464  63.471 -10.361  1.00  0.00     0.041 C 
BRANCH   2   4
ATOM      4  O   UNL     1      -1.147  61.208 -11.150  1.00  0.00    -0.391 OA
ATOM      5  H   UNL     1      -1.529  60.718 -11.924  1.00  0.00     0.211 HD
ENDBRANCH   2   4
ENDBRANCH   1   2
BRANCH   1   6
ATOM      6  C   UNL     1      -2.748  61.681 -13.231  1.00  0.00     0.181 C 
BRANCH   6   7
ATOM      7  C   UNL     1      -3.327  61.842 -14.664  1.00  0.00     0.209 C 
BRANCH   7   8
ATOM      8  C   UNL     1      -4.721  61.286 -14.820  1.00  0.00     0.258 C 
ATOM      9  O   UNL     1      -5.686  61.859 -14.339  1.00  0.00    -0.300 OA
ENDBRANCH   7   8
BRANCH   7  10
ATOM     10  O   UNL     1      -2.461  61.285 -15.622  1.00  0.00    -0.383 OA
ATOM     11  H   UNL     1      -2.463  60.299 -15.500  1.00  0.00     0.211 HD
ENDBRANCH   7  10
ENDBRANCH   6   7
BRANCH   6  12
ATOM     12  O   UNL     1      -3.778  61.530 -12.283  1.00  0.00    -0.387 OA
ATOM     13  H   UNL     1      -4.386  62.310 -12.365  1.00  0.00     0.211 HD
ENDBRANCH   6  12
ENDBRANCH   1   6
BRANCH   1  14
ATOM     14  O   UNL     1      -0.853  63.028 -13.893  1.00  0.00    -0.388 OA
ATOM     15  H   UNL     1      -0.042  62.497 -13.675  1.00  0.00     0.211 HD
ENDBRANCH   1  14
TORSDOF 8
ENDMDL
MODEL 3
REMARK VINA RESULT:    -4.433     12.364     13.959
REMARK INTER + INTRA:          -6.629
REMARK INTER:                  -5.960
REMARK INTRA:                  -0.670
REMARK UNBOUND:                -0.641
REMARK SMILES C[C@@H](O)[C@@H](O)[C@@H](O)[C@@H](O)C=O
REMARK SMILES IDX 4 1 2 2 1 3 3 4 6 6 8 7 10 8 11 9 9 10 7 12 5 14
REMARK H PARENT 3 5 9 11 7 13 5 15
REMARK Flexibility Score: inf
ROOT
ATOM      1  C   UNL     1      -2.412  68.353 -25.124  1.00  0.00     0.174 C 
ENDROOT
BRANCH   1   2
ATOM      2  C   UNL     1      -3.145  67.218 -25.888  1.00  0.00     0.142 C 
ATOM      3  C   UNL     1      -4.365  67.706 -26.687  1.00  0.00     0.041 C 
BRANCH   2   4
ATOM      4  O   UNL     1      -2.247  66.541 -26.733  1.00  0.00    -0.391 OA
ATOM      5  H   UNL     1      -2.420  65.568 -26.645  1.00  0.00     0.211 HD
ENDBRANCH   2   4
ENDBRANCH   1   2
BRANCH   1   6
ATOM      6  C   UNL     1      -2.104  67.982 -23.644  1.00  0.00     0.181 C 
BRANCH   6   7
ATOM      7  C   UNL     1      -3.170  67.033 -23.032  1.00  0.00     0.209 C 
BRANCH   7   8
ATOM      8  C   UNL     1      -4.238  67.750 -22.241  1.00  0.00     0.258 C 
ATOM      9  O   UNL     1      -4.891  68.652 -22.738  1.00  0.00    -0.300 OA
ENDBRANCH   7   8
BRANCH   7  10
ATOM     10  O   UNL     1      -2.564  66.031 -22.251  1.00  0.00    -0.383 OA
ATOM     11  H   UNL     1      -1.755  65.715 -22.733  1.00  0.00     0.211 HD
ENDBRANCH   7  10
ENDBRANCH   6   7
BRANCH   6  12
ATOM     12  O   UNL     1      -1.928  69.128 -22.844  1.00  0.00    -0.387 OA
ATOM     13  H   UNL     1      -0.992  69.131 -22.515  1.00  0.00     0.211 HD
ENDBRANCH   6  12
ENDBRANCH   1   6
BRANCH   1  14
ATOM     14  O   UNL     1      -3.180  69.532 -25.156  1.00  0.00    -0.388 OA
ATOM     15  H   UNL     1      -4.111  69.270 -25.380  1.00  0.00     0.211 HD
ENDBRANCH   1  14
TORSDOF 8
ENDMDL
MODEL 4
REMARK VINA RESULT:    -4.404      1.437      4.097
REMARK INTER + INTRA:          -6.590
REMARK INTER:                  -6.034
REMARK INTRA:                  -0.557
REMARK UNBOUND:                -0.641
REMARK SMILES C[C@@H](O)[C@@H](O)[C@@H](O)[C@@H](O)C=O
REMARK SMILES IDX 4 1 2 2 1 3 3 4 6 6 8 7 10 8 11 9 9 10 7 12 5 14
REMARK H PARENT 3 5 9 11 7 13 5 15
REMARK Flexibility Score: inf
ROOT
ATOM      1  C   UNL     1      -3.914  61.691 -13.111  1.00  0.00     0.174 C 
ENDROOT
BRANCH   1   2
ATOM      2  C   UNL     1      -3.799  60.687 -14.290  1.00  0.00     0.142 C 
ATOM      3  C   UNL     1      -5.058  60.629 -15.171  1.00  0.00     0.041 C 
BRANCH   2   4
ATOM      4  O   UNL     1      -2.668  60.984 -15.073  1.00  0.00    -0.391 OA
ATOM      5  H   UNL     1      -2.632  61.968 -15.195  1.00  0.00     0.211 HD
ENDBRANCH   2   4
ENDBRANCH   1   2
BRANCH   1   6
ATOM      6  C   UNL     1      -2.925  61.376 -11.952  1.00  0.00     0.181 C 
BRANCH   6   7
ATOM      7  C   UNL     1      -1.813  62.452 -11.807  1.00  0.00     0.209 C 
BRANCH   7   8
ATOM      8  C   UNL     1      -2.342  63.832 -11.502  1.00  0.00     0.258 C 
ATOM      9  O   UNL     1      -2.071  64.393 -10.452  1.00  0.00    -0.300 OA
ENDBRANCH   7   8
BRANCH   7  10
ATOM     10  O   UNL     1      -0.986  62.479 -12.945  1.00  0.00    -0.383 OA
ATOM     11  H   UNL     1      -0.844  61.542 -13.242  1.00  0.00     0.211 HD
ENDBRANCH   7  10
ENDBRANCH   6   7
BRANCH   6  12
ATOM     12  O   UNL     1      -2.369  60.088 -12.075  1.00  0.00    -0.387 OA
ATOM     13  H   UNL     1      -1.383  60.183 -12.121  1.00  0.00     0.211 HD
ENDBRANCH   6  12
ENDBRANCH   1   6
BRANCH   1  14
ATOM     14  O   UNL     1      -5.229  61.698 -12.610  1.00  0.00    -0.388 OA
ATOM     15  H   UNL     1      -5.803  62.130 -13.296  1.00  0.00     0.211 HD
ENDBRANCH   1  14
TORSDOF 8
ENDMDL
MODEL 5
REMARK VINA RESULT:    -4.345      2.168      3.309
REMARK INTER + INTRA:          -6.511
REMARK INTER:                  -5.988
REMARK INTRA:                  -0.523
REMARK UNBOUND:                -0.641
REMARK SMILES C[C@@H](O)[C@@H](O)[C@@H](O)[C@@H](O)C=O
REMARK SMILES IDX 4 1 2 2 1 3 3 4 6 6 8 7 10 8 11 9 9 10 7 12 5 14
REMARK H PARENT 3 5 9 11 7 13 5 15
REMARK Flexibility Score: inf
ROOT
ATOM      1  C   UNL     1      -2.757  61.702 -13.214  1.00  0.00     0.174 C 
ENDROOT
BRANCH   1   2
ATOM      2  C   UNL     1      -1.845  62.906 -12.854  1.00  0.00     0.142 C 
ATOM      3  C   UNL     1      -2.243  63.606 -11.544  1.00  0.00     0.041 C 
BRANCH   2   4
ATOM      4  O   UNL     1      -0.500  62.500 -12.802  1.00  0.00    -0.391 OA
ATOM      5  H   UNL     1      -0.480  61.508 -12.835  1.00  0.00     0.211 HD
ENDBRANCH   2   4
ENDBRANCH   1   2
BRANCH   1   6
ATOM      6  C   UNL     1      -3.323  61.786 -14.661  1.00  0.00     0.181 C 
BRANCH   6   7
ATOM      7  C   UNL     1      -4.657  61.007 -14.827  1.00  0.00     0.209 C 
BRANCH   7   8
ATOM      8  C   UNL     1      -4.772  60.273 -16.140  1.00  0.00     0.258 C 
ATOM      9  O   UNL     1      -4.656  60.862 -17.204  1.00  0.00    -0.300 OA
ENDBRANCH   7   8
BRANCH   7  10
ATOM     10  O   UNL     1      -5.763  61.856 -14.636  1.00  0.00    -0.383 OA
ATOM     11  H   UNL     1      -6.146  61.663 -13.740  1.00  0.00     0.211 HD
ENDBRANCH   7  10
ENDBRANCH   6   7
BRANCH   6  12
ATOM     12  O   UNL     1      -2.375  61.375 -15.618  1.00  0.00    -0.387 OA
ATOM     13  H   UNL     1      -1.633  60.924 -15.139  1.00  0.00     0.211 HD
ENDBRANCH   6  12
ENDBRANCH   1   6
BRANCH   1  14
ATOM     14  O   UNL     1      -3.825  61.615 -12.302  1.00  0.00    -0.388 OA
ATOM     15  H   UNL     1      -4.425  60.890 -12.621  1.00  0.00     0.211 HD
ENDBRANCH   1  14
TORSDOF 8
ENDMDL
MODEL 6
REMARK VINA RESULT:    -4.336     11.367     12.695
REMARK INTER + INTRA:          -6.498
REMARK INTER:                  -5.712
REMARK INTRA:                  -0.786
REMARK UNBOUND:                -0.641
REMARK SMILES C[C@@H](O)[C@@H](O)[C@@H](O)[C@@H](O)C=O
REMARK SMILES IDX 4 1 2 2 1 3 3 4 6 6 8 7 10 8 11 9 9 10 7 12 5 14
REMARK H PARENT 3 5 9 11 7 13 5 15
REMARK Flexibility Score: inf
ROOT
ATOM      1  C   UNL     1      -1.717  68.034 -22.507  1.00  0.00     0.174 C 
ENDROOT
BRANCH   1   2
ATOM      2  C   UNL     1      -2.467  68.231 -21.161  1.00  0.00     0.142 C 
ATOM      3  C   UNL     1      -1.664  69.034 -20.124  1.00  0.00     0.041 C 
BRANCH   2   4
ATOM      4  O   UNL     1      -3.717  68.835 -21.385  1.00  0.00    -0.391 OA
ATOM      5  H   UNL     1      -3.688  69.276 -22.273  1.00  0.00     0.211 HD
ENDBRANCH   2   4
ENDBRANCH   1   2
BRANCH   1   6
ATOM      6  C   UNL     1      -2.362  66.937 -23.401  1.00  0.00     0.181 C 
BRANCH   6   7
ATOM      7  C   UNL     1      -2.617  67.424 -24.855  1.00  0.00     0.209 C 
BRANCH   7   8
ATOM      8  C   UNL     1      -3.996  68.000 -25.068  1.00  0.00     0.258 C 
ATOM      9  O   UNL     1      -4.444  68.856 -24.321  1.00  0.00    -0.300 OA
ENDBRANCH   7   8
BRANCH   7  10
ATOM     10  O   UNL     1      -2.360  66.398 -25.782  1.00  0.00    -0.383 OA
ATOM     11  H   UNL     1      -1.689  65.785 -25.383  1.00  0.00     0.211 HD
ENDBRANCH   7  10
ENDBRANCH   6   7
BRANCH   6  12
ATOM     12  O   UNL     1      -3.540  66.420 -22.827  1.00  0.00    -0.387 OA
ATOM     13  H   UNL     1      -3.635  65.477 -23.120  1.00  0.00     0.211 HD
ENDBRANCH   6  12
ENDBRANCH   1   6
BRANCH   1  14
ATOM     14  O   UNL     1      -0.371  67.704 -22.265  1.00  0.00    -0.388 OA
ATOM     15  H   UNL     1      -0.362  66.825 -21.804  1.00  0.00     0.211 HD
ENDBRANCH   1  14
TORSDOF 8
ENDMDL
MODEL 7
REMARK VINA RESULT:    -4.311     10.964     11.795
REMARK INTER + INTRA:          -6.465
REMARK INTER:                  -5.639
REMARK INTRA:                  -0.826
REMARK UNBOUND:                -0.641
REMARK SMILES C[C@@H](O)[C@@H](O)[C@@H](O)[C@@H](O)C=O
REMARK SMILES IDX 4 1 2 2 1 3 3 4 6 6 8 7 10 8 11 9 9 10 7 12 5 14
REMARK H PARENT 3 5 9 11 7 13 5 15
REMARK Flexibility Score: inf
ROOT
ATOM      1  C   UNL     1      -2.499  67.118 -21.629  1.00  0.00     0.174 C 
ENDROOT
BRANCH   1   2
ATOM      2  C   UNL     1      -3.800  67.964 -21.584  1.00  0.00     0.142 C 
ATOM      3  C   UNL     1      -5.076  67.118 -21.438  1.00  0.00     0.041 C 
BRANCH   2   4
ATOM      4  O   UNL     1      -3.725  68.917 -20.552  1.00  0.00    -0.391 OA
ATOM      5  H   UNL     1      -3.230  68.509 -19.795  1.00  0.00     0.211 HD
ENDBRANCH   2   4
ENDBRANCH   1   2
BRANCH   1   6
ATOM      6  C   UNL     1      -1.291  67.901 -22.219  1.00  0.00     0.181 C 
BRANCH   6   7
ATOM      7  C   UNL     1      -0.096  67.991 -21.229  1.00  0.00     0.209 C 
BRANCH   7   8
ATOM      8  C   UNL     1      -0.084  69.258 -20.408  1.00  0.00     0.258 C 
ATOM      9  O   UNL     1      -1.010  69.535 -19.662  1.00  0.00    -0.300 OA
ENDBRANCH   7   8
BRANCH   7  10
ATOM     10  O   UNL     1       1.128  67.825 -21.901  1.00  0.00    -0.383 OA
ATOM     11  H   UNL     1       0.951  67.874 -22.877  1.00  0.00     0.211 HD
ENDBRANCH   7  10
ENDBRANCH   6   7
BRANCH   6  12
ATOM     12  O   UNL     1      -1.669  69.179 -22.673  1.00  0.00    -0.387 OA
ATOM     13  H   UNL     1      -1.522  69.211 -23.654  1.00  0.00     0.211 HD
ENDBRANCH   6  12
ENDBRANCH   1   6
BRANCH   1  14
ATOM     14  O   UNL     1      -2.708  65.950 -22.385  1.00  0.00    -0.388 OA
ATOM     15  H   UNL     1      -2.993  65.238 -21.753  1.00  0.00     0.211 HD
ENDBRANCH   1  14
TORSDOF 8
ENDMDL
MODEL 8
REMARK VINA RESULT:    -4.269     12.395     14.111
REMARK INTER + INTRA:          -6.408
REMARK INTER:                  -5.656
REMARK INTRA:                  -0.752
REMARK UNBOUND:                -0.641
REMARK SMILES C[C@@H](O)[C@@H](O)[C@@H](O)[C@@H](O)C=O
REMARK SMILES IDX 4 1 2 2 1 3 3 4 6 6 8 7 10 8 11 9 9 10 7 12 5 14
REMARK H PARENT 3 5 9 11 7 13 5 15
REMARK Flexibility Score: inf
ROOT
ATOM      1  C   UNL     1      -3.974  68.827 -24.971  1.00  0.00     0.174 C 
ENDROOT
BRANCH   1   2
ATOM      2  C   UNL     1      -5.390  69.443 -25.130  1.00  0.00     0.142 C 
ATOM      3  C   UNL     1      -6.144  68.935 -26.370  1.00  0.00     0.041 C 
BRANCH   2   4
ATOM      4  O   UNL     1      -6.152  69.219 -23.969  1.00  0.00    -0.391 OA
ATOM      5  H   UNL     1      -5.954  68.301 -23.648  1.00  0.00     0.211 HD
ENDBRANCH   2   4
ENDBRANCH   1   2
BRANCH   1   6
ATOM      6  C   UNL     1      -3.733  68.227 -23.555  1.00  0.00     0.181 C 
BRANCH   6   7
ATOM      7  C   UNL     1      -2.223  68.071 -23.222  1.00  0.00     0.209 C 
BRANCH   7   8
ATOM      8  C   UNL     1      -1.915  66.876 -22.353  1.00  0.00     0.258 C 
ATOM      9  O   UNL     1      -2.419  66.754 -21.247  1.00  0.00    -0.300 OA
ENDBRANCH   7   8
BRANCH   7  10
ATOM     10  O   UNL     1      -1.710  69.247 -22.645  1.00  0.00    -0.383 OA
ATOM     11  H   UNL     1      -1.549  69.071 -21.681  1.00  0.00     0.211 HD
ENDBRANCH   7  10
ENDBRANCH   6   7
BRANCH   6  12
ATOM     12  O   UNL     1      -4.418  67.010 -23.380  1.00  0.00    -0.387 OA
ATOM     13  H   UNL     1      -3.795  66.272 -23.606  1.00  0.00     0.211 HD
ENDBRANCH   6  12
ENDBRANCH   1   6
BRANCH   1  14
ATOM     14  O   UNL     1      -2.991  69.799 -25.236  1.00  0.00    -0.388 OA
ATOM     15  H   UNL     1      -2.253  69.655 -24.587  1.00  0.00     0.211 HD
ENDBRANCH   1  14
TORSDOF 8
ENDMDL
MODEL 9
REMARK VINA RESULT:    -4.206     10.814     12.149
REMARK INTER + INTRA:          -6.323
REMARK INTER:                  -5.718
REMARK INTRA:                  -0.605
REMARK UNBOUND:                -0.641
REMARK SMILES C[C@@H](O)[C@@H](O)[C@@H](O)[C@@H](O)C=O
REMARK SMILES IDX 4 1 2 2 1 3 3 4 6 6 8 7 10 8 11 9 9 10 7 12 5 14
REMARK H PARENT 3 5 9 11 7 13 5 15
REMARK Flexibility Score: inf
ROOT
ATOM      1  C   UNL     1      -2.699  68.046 -20.876  1.00  0.00     0.174 C 
ENDROOT
BRANCH   1   2
ATOM      2  C   UNL     1      -1.779  68.835 -19.906  1.00  0.00     0.142 C 
ATOM      3  C   UNL     1      -0.431  69.234 -20.527  1.00  0.00     0.041 C 
BRANCH   2   4
ATOM      4  O   UNL     1      -2.447  69.972 -19.418  1.00  0.00    -0.391 OA
ATOM      5  H   UNL     1      -2.229  70.734 -20.016  1.00  0.00     0.211 HD
ENDBRANCH   2   4
ENDBRANCH   1   2
BRANCH   1   6
ATOM      6  C   UNL     1      -1.980  67.645 -22.197  1.00  0.00     0.181 C 
BRANCH   6   7
ATOM      7  C   UNL     1      -2.572  68.363 -23.441  1.00  0.00     0.209 C 
BRANCH   7   8
ATOM      8  C   UNL     1      -2.349  67.616 -24.734  1.00  0.00     0.258 C 
ATOM      9  O   UNL     1      -3.092  66.711 -25.075  1.00  0.00    -0.300 OA
ENDBRANCH   7   8
BRANCH   7  10
ATOM     10  O   UNL     1      -2.089  69.680 -23.540  1.00  0.00    -0.383 OA
ATOM     11  H   UNL     1      -2.621  70.248 -22.924  1.00  0.00     0.211 HD
ENDBRANCH   7  10
ENDBRANCH   6   7
BRANCH   6  12
ATOM     12  O   UNL     1      -1.962  66.249 -22.378  1.00  0.00    -0.387 OA
ATOM     13  H   UNL     1      -1.442  66.054 -23.200  1.00  0.00     0.211 HD
ENDBRANCH   6  12
ENDBRANCH   1   6
BRANCH   1  14
ATOM     14  O   UNL     1      -3.843  68.807 -21.183  1.00  0.00    -0.388 OA
ATOM     15  H   UNL     1      -3.642  69.318 -22.010  1.00  0.00     0.211 HD
ENDBRANCH   1  14
TORSDOF 8
ENDMDL
