MODEL 1
REMARK VINA RESULT:    -5.547      0.000      0.000
REMARK INTER + INTRA:         -13.735
REMARK INTER:                 -12.033
REMARK INTRA:                  -1.701
REMARK UNBOUND:                -1.701
REMARK SMILES CCCCCCCCCCCCCCCCCCCCCC(=O)[O-]
REMARK SMILES IDX 12 1 11 2 10 3 9 4 8 5 7 6 6 7 5 8 4 9 3 10 2 11 1 12 13 13
REMARK SMILES IDX 14 14 15 15 16 16 17 17 18 18 19 19 20 20 21 21 22 22 23 23
REMARK SMILES IDX 24 24
REMARK H PARENT
REMARK Flexibility Score: inf
ROOT
ATOM      1  C   UNL     1       3.183  59.632  21.514  1.00  0.00     0.000 C 
ENDROOT
BRANCH   1   2
ATOM      2  C   UNL     1       3.454  58.140  21.781  1.00  0.00     0.000 C 
BRANCH   2   3
ATOM      3  C   UNL     1       4.701  57.917  22.653  1.00  0.00     0.000 C 
BRANCH   3   4
ATOM      4  C   UNL     1       5.430  56.605  22.305  1.00  0.00    -0.000 C 
BRANCH   4   5
ATOM      5  C   UNL     1       6.959  56.742  22.369  1.00  0.00    -0.000 C 
BRANCH   5   6
ATOM      6  C   UNL     1       7.669  55.983  21.233  1.00  0.00    -0.000 C 
BRANCH   6   7
ATOM      7  C   UNL     1       7.542  54.453  21.362  1.00  0.00    -0.000 C 
BRANCH   7   8
ATOM      8  C   UNL     1       8.158  53.854  22.642  1.00  0.00    -0.000 C 
BRANCH   8   9
ATOM      9  C   UNL     1       9.584  54.364  22.912  1.00  0.00    -0.000 C 
BRANCH   9  10
ATOM     10  C   UNL     1      10.231  53.703  24.144  1.00  0.00    -0.000 C 
BRANCH  10  11
ATOM     11  C   UNL     1      10.375  54.617  25.377  1.00  0.00    -0.003 C 
ATOM     12  C   UNL     1       9.073  54.775  26.162  1.00  0.00     0.004 C 
ENDBRANCH  10  11
ENDBRANCH   9  10
ENDBRANCH   8   9
ENDBRANCH   7   8
ENDBRANCH   6   7
ENDBRANCH   5   6
ENDBRANCH   4   5
ENDBRANCH   3   4
ENDBRANCH   2   3
ENDBRANCH   1   2
BRANCH   1  13
ATOM     13  C   UNL     1       2.741  60.393  22.774  1.00  0.00     0.000 C 
BRANCH  13  14
ATOM     14  C   UNL     1       1.748  59.597  23.642  1.00  0.00     0.000 C 
BRANCH  14  15
ATOM     15  C   UNL     1       0.371  60.277  23.711  1.00  0.00     0.000 C 
BRANCH  15  16
ATOM     16  C   UNL     1      -0.425  60.130  22.401  1.00  0.00     0.000 C 
BRANCH  16  17
ATOM     17  C   UNL     1      -0.788  61.490  21.779  1.00  0.00     0.000 C 
BRANCH  17  18
ATOM     18  C   UNL     1      -0.467  61.549  20.274  1.00  0.00     0.000 C 
BRANCH  18  19
ATOM     19  C   UNL     1       0.111  60.229  19.738  1.00  0.00     0.000 C 
BRANCH  19  20
ATOM     20  C   UNL     1       0.514  60.312  18.257  1.00  0.00     0.006 C 
BRANCH  20  21
ATOM     21  C   UNL     1       1.567  59.251  17.918  1.00  0.00     0.053 C 
BRANCH  21  22
ATOM     22  C   UNL     1       2.244  59.575  16.625  1.00  0.00     0.041 C 
ATOM     23  O   UNL     1       2.337  60.770  16.240  1.00  0.00    -0.550 OA
ATOM     24  O   UNL     1       2.751  58.554  15.829  1.00  0.00    -0.550 OA
ENDBRANCH  21  22
ENDBRANCH  20  21
ENDBRANCH  19  20
ENDBRANCH  18  19
ENDBRANCH  17  18
ENDBRANCH  16  17
ENDBRANCH  15  16
ENDBRANCH  14  15
ENDBRANCH  13  14
ENDBRANCH   1  13
TORSDOF 20
ENDMDL
MODEL 2
REMARK VINA RESULT:    -5.477      7.883     13.255
REMARK INTER + INTRA:         -13.583
REMARK INTER:                 -11.541
REMARK INTRA:                  -2.042
REMARK UNBOUND:                -1.701
REMARK SMILES CCCCCCCCCCCCCCCCCCCCCC(=O)[O-]
REMARK SMILES IDX 12 1 11 2 10 3 9 4 8 5 7 6 6 7 5 8 4 9 3 10 2 11 1 12 13 13
REMARK SMILES IDX 14 14 15 15 16 16 17 17 18 18 19 19 20 20 21 21 22 22 23 23
REMARK SMILES IDX 24 24
REMARK H PARENT
REMARK Flexibility Score: inf
ROOT
ATOM      1  C   UNL     1      10.470  53.956  23.219  1.00  0.00     0.000 C 
ENDROOT
BRANCH   1   2
ATOM      2  C   UNL     1      10.345  54.047  24.752  1.00  0.00     0.000 C 
BRANCH   2   3
ATOM      3  C   UNL     1       9.199  54.974  25.193  1.00  0.00     0.000 C 
BRANCH   3   4
ATOM      4  C   UNL     1       7.934  54.191  25.587  1.00  0.00    -0.000 C 
BRANCH   4   5
ATOM      5  C   UNL     1       7.169  53.649  24.369  1.00  0.00    -0.000 C 
BRANCH   5   6
ATOM      6  C   UNL     1       5.911  54.476  24.044  1.00  0.00    -0.000 C 
BRANCH   6   7
ATOM      7  C   UNL     1       5.811  54.854  22.553  1.00  0.00    -0.000 C 
BRANCH   7   8
ATOM      8  C   UNL     1       6.756  55.985  22.102  1.00  0.00    -0.000 C 
BRANCH   8   9
ATOM      9  C   UNL     1       7.771  55.525  21.041  1.00  0.00    -0.000 C 
BRANCH   9  10
ATOM     10  C   UNL     1       7.658  54.023  20.718  1.00  0.00    -0.000 C 
BRANCH  10  11
ATOM     11  C   UNL     1       6.844  53.685  19.454  1.00  0.00    -0.003 C 
ATOM     12  C   UNL     1       6.727  54.860  18.483  1.00  0.00     0.004 C 
ENDBRANCH  10  11
ENDBRANCH   9  10
ENDBRANCH   8   9
ENDBRANCH   7   8
ENDBRANCH   6   7
ENDBRANCH   5   6
ENDBRANCH   4   5
ENDBRANCH   3   4
ENDBRANCH   2   3
ENDBRANCH   1   2
BRANCH   1  13
ATOM     13  C   UNL     1      10.309  52.522  22.692  1.00  0.00     0.000 C 
BRANCH  13  14
ATOM     14  C   UNL     1       9.961  51.508  23.796  1.00  0.00     0.000 C 
BRANCH  14  15
ATOM     15  C   UNL     1      10.430  50.087  23.443  1.00  0.00     0.000 C 
BRANCH  15  16
ATOM     16  C   UNL     1      10.443  49.150  24.665  1.00  0.00     0.000 C 
BRANCH  16  17
ATOM     17  C   UNL     1      11.356  47.929  24.459  1.00  0.00     0.000 C 
BRANCH  17  18
ATOM     18  C   UNL     1      12.341  47.732  25.626  1.00  0.00     0.000 C 
BRANCH  18  19
ATOM     19  C   UNL     1      11.639  47.345  26.937  1.00  0.00     0.000 C 
BRANCH  19  20
ATOM     20  C   UNL     1      12.625  46.977  28.057  1.00  0.00     0.006 C 
BRANCH  20  21
ATOM     21  C   UNL     1      13.867  47.874  28.007  1.00  0.00     0.053 C 
BRANCH  21  22
ATOM     22  C   UNL     1      13.822  48.898  29.096  1.00  0.00     0.041 C 
ATOM     23  O   UNL     1      14.606  49.883  29.071  1.00  0.00    -0.550 OA
ATOM     24  O   UNL     1      12.934  48.751  30.155  1.00  0.00    -0.550 OA
ENDBRANCH  21  22
ENDBRANCH  20  21
ENDBRANCH  19  20
ENDBRANCH  18  19
ENDBRANCH  17  18
ENDBRANCH  16  17
ENDBRANCH  15  16
ENDBRANCH  14  15
ENDBRANCH  13  14
ENDBRANCH   1  13
TORSDOF 20
ENDMDL
MODEL 3
REMARK VINA RESULT:    -5.438      4.210      9.924
REMARK INTER + INTRA:         -13.498
REMARK INTER:                 -11.324
REMARK INTRA:                  -2.174
REMARK UNBOUND:                -1.701
REMARK SMILES CCCCCCCCCCCCCCCCCCCCCC(=O)[O-]
REMARK SMILES IDX 12 1 11 2 10 3 9 4 8 5 7 6 6 7 5 8 4 9 3 10 2 11 1 12 13 13
REMARK SMILES IDX 14 14 15 15 16 16 17 17 18 18 19 19 20 20 21 21 22 22 23 23
REMARK SMILES IDX 24 24
REMARK H PARENT
REMARK Flexibility Score: inf
ROOT
ATOM      1  C   UNL     1       4.891  56.967  22.609  1.00  0.00     0.000 C 
ENDROOT
BRANCH   1   2
ATOM      2  C   UNL     1       4.173  58.190  22.009  1.00  0.00     0.000 C 
BRANCH   2   3
ATOM      3  C   UNL     1       3.278  58.906  23.034  1.00  0.00     0.000 C 
BRANCH   3   4
ATOM      4  C   UNL     1       2.951  60.351  22.615  1.00  0.00    -0.000 C 
BRANCH   4   5
ATOM      5  C   UNL     1       2.759  60.500  21.098  1.00  0.00    -0.000 C 
BRANCH   5   6
ATOM      6  C   UNL     1       1.422  61.169  20.733  1.00  0.00    -0.000 C 
BRANCH   6   7
ATOM      7  C   UNL     1       0.586  60.338  19.740  1.00  0.00    -0.000 C 
BRANCH   7   8
ATOM      8  C   UNL     1       1.231  59.009  19.298  1.00  0.00    -0.000 C 
BRANCH   8   9
ATOM      9  C   UNL     1       1.477  58.942  17.781  1.00  0.00    -0.000 C 
BRANCH   9  10
ATOM     10  C   UNL     1       1.827  60.313  17.171  1.00  0.00    -0.000 C 
BRANCH  10  11
ATOM     11  C   UNL     1       2.682  60.260  15.891  1.00  0.00    -0.003 C 
ATOM     12  C   UNL     1       3.049  58.836  15.472  1.00  0.00     0.004 C 
ENDBRANCH  10  11
ENDBRANCH   9  10
ENDBRANCH   8   9
ENDBRANCH   7   8
ENDBRANCH   6   7
ENDBRANCH   5   6
ENDBRANCH   4   5
ENDBRANCH   3   4
ENDBRANCH   2   3
ENDBRANCH   1   2
BRANCH   1  13
ATOM     13  C   UNL     1       6.421  57.112  22.605  1.00  0.00     0.000 C 
BRANCH  13  14
ATOM     14  C   UNL     1       7.041  56.935  21.207  1.00  0.00     0.000 C 
BRANCH  14  15
ATOM     15  C   UNL     1       7.958  55.703  21.135  1.00  0.00     0.000 C 
BRANCH  15  16
ATOM     16  C   UNL     1       7.238  54.465  20.567  1.00  0.00     0.000 C 
BRANCH  16  17
ATOM     17  C   UNL     1       6.613  53.592  21.668  1.00  0.00     0.000 C 
BRANCH  17  18
ATOM     18  C   UNL     1       7.626  53.226  22.769  1.00  0.00     0.000 C 
BRANCH  18  19
ATOM     19  C   UNL     1       7.079  53.472  24.184  1.00  0.00     0.000 C 
BRANCH  19  20
ATOM     20  C   UNL     1       7.725  54.685  24.871  1.00  0.00     0.006 C 
BRANCH  20  21
ATOM     21  C   UNL     1       9.240  54.703  24.638  1.00  0.00     0.053 C 
BRANCH  21  22
ATOM     22  C   UNL     1       9.974  54.664  25.940  1.00  0.00     0.041 C 
ATOM     23  O   UNL     1       9.363  54.881  27.019  1.00  0.00    -0.550 OA
ATOM     24  O   UNL     1      11.341  54.415  25.962  1.00  0.00    -0.550 OA
ENDBRANCH  21  22
ENDBRANCH  20  21
ENDBRANCH  19  20
ENDBRANCH  18  19
ENDBRANCH  17  18
ENDBRANCH  16  17
ENDBRANCH  15  16
ENDBRANCH  14  15
ENDBRANCH  13  14
ENDBRANCH   1  13
TORSDOF 20
ENDMDL
MODEL 4
REMARK VINA RESULT:    -5.385      3.725      9.879
REMARK INTER + INTRA:         -13.383
REMARK INTER:                 -11.222
REMARK INTRA:                  -2.161
REMARK UNBOUND:                -1.701
REMARK SMILES CCCCCCCCCCCCCCCCCCCCCC(=O)[O-]
REMARK SMILES IDX 12 1 11 2 10 3 9 4 8 5 7 6 6 7 5 8 4 9 3 10 2 11 1 12 13 13
REMARK SMILES IDX 14 14 15 15 16 16 17 17 18 18 19 19 20 20 21 21 22 22 23 23
REMARK SMILES IDX 24 24
REMARK H PARENT
REMARK Flexibility Score: inf
ROOT
ATOM      1  C   UNL     1       6.976  56.996  22.487  1.00  0.00     0.000 C 
ENDROOT
BRANCH   1   2
ATOM      2  C   UNL     1       5.752  57.640  21.810  1.00  0.00     0.000 C 
BRANCH   2   3
ATOM      3  C   UNL     1       4.454  57.405  22.601  1.00  0.00     0.000 C 
BRANCH   3   4
ATOM      4  C   UNL     1       3.285  58.255  22.070  1.00  0.00    -0.000 C 
BRANCH   4   5
ATOM      5  C   UNL     1       2.773  59.270  23.104  1.00  0.00    -0.000 C 
BRANCH   5   6
ATOM      6  C   UNL     1       2.815  60.718  22.583  1.00  0.00    -0.000 C 
BRANCH   6   7
ATOM      7  C   UNL     1       2.391  60.837  21.106  1.00  0.00    -0.000 C 
BRANCH   7   8
ATOM      8  C   UNL     1       0.869  60.847  20.863  1.00  0.00    -0.000 C 
BRANCH   8   9
ATOM      9  C   UNL     1       0.431  59.835  19.790  1.00  0.00    -0.000 C 
BRANCH   9  10
ATOM     10  C   UNL     1       1.613  59.290  18.966  1.00  0.00    -0.000 C 
BRANCH  10  11
ATOM     11  C   UNL     1       1.732  59.856  17.538  1.00  0.00    -0.003 C 
ATOM     12  C   UNL     1       0.454  60.542  17.056  1.00  0.00     0.004 C 
ENDBRANCH  10  11
ENDBRANCH   9  10
ENDBRANCH   8   9
ENDBRANCH   7   8
ENDBRANCH   6   7
ENDBRANCH   5   6
ENDBRANCH   4   5
ENDBRANCH   3   4
ENDBRANCH   2   3
ENDBRANCH   1   2
BRANCH   1  13
ATOM     13  C   UNL     1       7.991  56.437  21.477  1.00  0.00     0.000 C 
BRANCH  13  14
ATOM     14  C   UNL     1       7.333  55.631  20.343  1.00  0.00     0.000 C 
BRANCH  14  15
ATOM     15  C   UNL     1       7.433  54.115  20.581  1.00  0.00     0.000 C 
BRANCH  15  16
ATOM     16  C   UNL     1       6.418  53.615  21.625  1.00  0.00     0.000 C 
BRANCH  16  17
ATOM     17  C   UNL     1       7.092  53.181  22.939  1.00  0.00     0.000 C 
BRANCH  17  18
ATOM     18  C   UNL     1       6.639  54.034  24.137  1.00  0.00     0.000 C 
BRANCH  18  19
ATOM     19  C   UNL     1       7.710  54.132  25.236  1.00  0.00     0.000 C 
BRANCH  19  20
ATOM     20  C   UNL     1       8.956  54.910  24.787  1.00  0.00     0.006 C 
BRANCH  20  21
ATOM     21  C   UNL     1      10.219  54.056  24.943  1.00  0.00     0.053 C 
BRANCH  21  22
ATOM     22  C   UNL     1      10.454  53.233  23.716  1.00  0.00     0.041 C 
ATOM     23  O   UNL     1      10.231  51.994  23.732  1.00  0.00    -0.550 OA
ATOM     24  O   UNL     1      10.945  53.829  22.561  1.00  0.00    -0.550 OA
ENDBRANCH  21  22
ENDBRANCH  20  21
ENDBRANCH  19  20
ENDBRANCH  18  19
ENDBRANCH  17  18
ENDBRANCH  16  17
ENDBRANCH  15  16
ENDBRANCH  14  15
ENDBRANCH  13  14
ENDBRANCH   1  13
TORSDOF 20
ENDMDL
MODEL 5
REMARK VINA RESULT:    -5.368      6.321     10.204
REMARK INTER + INTRA:         -13.345
REMARK INTER:                 -11.133
REMARK INTRA:                  -2.213
REMARK UNBOUND:                -1.701
REMARK SMILES CCCCCCCCCCCCCCCCCCCCCC(=O)[O-]
REMARK SMILES IDX 12 1 11 2 10 3 9 4 8 5 7 6 6 7 5 8 4 9 3 10 2 11 1 12 13 13
REMARK SMILES IDX 14 14 15 15 16 16 17 17 18 18 19 19 20 20 21 21 22 22 23 23
REMARK SMILES IDX 24 24
REMARK H PARENT
REMARK Flexibility Score: inf
ROOT
ATOM      1  C   UNL     1       9.991  51.487  23.765  1.00  0.00     0.000 C 
ENDROOT
BRANCH   1   2
ATOM      2  C   UNL     1      10.598  50.107  23.448  1.00  0.00     0.000 C 
BRANCH   2   3
ATOM      3  C   UNL     1      10.495  49.135  24.635  1.00  0.00     0.000 C 
BRANCH   3   4
ATOM      4  C   UNL     1      10.279  47.680  24.181  1.00  0.00    -0.000 C 
BRANCH   4   5
ATOM      5  C   UNL     1      11.567  46.844  24.238  1.00  0.00    -0.000 C 
BRANCH   5   6
ATOM      6  C   UNL     1      12.617  47.439  25.194  1.00  0.00    -0.000 C 
BRANCH   6   7
ATOM      7  C   UNL     1      12.967  46.497  26.362  1.00  0.00    -0.000 C 
BRANCH   7   8
ATOM      8  C   UNL     1      12.039  46.608  27.588  1.00  0.00    -0.000 C 
BRANCH   8   9
ATOM      9  C   UNL     1      12.800  46.505  28.922  1.00  0.00    -0.000 C 
BRANCH   9  10
ATOM     10  C   UNL     1      13.872  47.599  29.084  1.00  0.00    -0.000 C 
BRANCH  10  11
ATOM     11  C   UNL     1      13.368  48.926  29.682  1.00  0.00    -0.003 C 
ATOM     12  C   UNL     1      12.195  48.744  30.644  1.00  0.00     0.004 C 
ENDBRANCH  10  11
ENDBRANCH   9  10
ENDBRANCH   8   9
ENDBRANCH   7   8
ENDBRANCH   6   7
ENDBRANCH   5   6
ENDBRANCH   4   5
ENDBRANCH   3   4
ENDBRANCH   2   3
ENDBRANCH   1   2
BRANCH   1  13
ATOM     13  C   UNL     1      10.216  52.510  22.641  1.00  0.00     0.000 C 
BRANCH  13  14
ATOM     14  C   UNL     1      10.339  53.956  23.156  1.00  0.00     0.000 C 
BRANCH  14  15
ATOM     15  C   UNL     1      10.949  54.015  24.566  1.00  0.00     0.000 C 
BRANCH  15  16
ATOM     16  C   UNL     1      10.054  54.775  25.563  1.00  0.00     0.000 C 
BRANCH  16  17
ATOM     17  C   UNL     1       8.682  55.133  24.966  1.00  0.00     0.000 C 
BRANCH  17  18
ATOM     18  C   UNL     1       7.572  54.175  25.434  1.00  0.00     0.000 C 
BRANCH  18  19
ATOM     19  C   UNL     1       6.876  53.456  24.267  1.00  0.00     0.000 C 
BRANCH  19  20
ATOM     20  C   UNL     1       6.403  54.421  23.169  1.00  0.00     0.006 C 
BRANCH  20  21
ATOM     21  C   UNL     1       6.777  53.893  21.780  1.00  0.00     0.053 C 
BRANCH  21  22
ATOM     22  C   UNL     1       7.316  54.994  20.923  1.00  0.00     0.041 C 
ATOM     23  O   UNL     1       7.196  54.939  19.671  1.00  0.00    -0.550 OA
ATOM     24  O   UNL     1       7.975  56.070  21.506  1.00  0.00    -0.550 OA
ENDBRANCH  21  22
ENDBRANCH  20  21
ENDBRANCH  19  20
ENDBRANCH  18  19
ENDBRANCH  17  18
ENDBRANCH  16  17
ENDBRANCH  15  16
ENDBRANCH  14  15
ENDBRANCH  13  14
ENDBRANCH   1  13
TORSDOF 20
ENDMDL
MODEL 6
REMARK VINA RESULT:    -5.333      3.890     10.221
REMARK INTER + INTRA:         -13.269
REMARK INTER:                 -11.088
REMARK INTRA:                  -2.182
REMARK UNBOUND:                -1.701
REMARK SMILES CCCCCCCCCCCCCCCCCCCCCC(=O)[O-]
REMARK SMILES IDX 12 1 11 2 10 3 9 4 8 5 7 6 6 7 5 8 4 9 3 10 2 11 1 12 13 13
REMARK SMILES IDX 14 14 15 15 16 16 17 17 18 18 19 19 20 20 21 21 22 22 23 23
REMARK SMILES IDX 24 24
REMARK H PARENT
REMARK Flexibility Score: inf
ROOT
ATOM      1  C   UNL     1       3.512  59.026  22.385  1.00  0.00     0.000 C 
ENDROOT
BRANCH   1   2
ATOM      2  C   UNL     1       3.139  59.900  21.173  1.00  0.00     0.000 C 
BRANCH   2   3
ATOM      3  C   UNL     1       1.903  60.776  21.440  1.00  0.00     0.000 C 
BRANCH   3   4
ATOM      4  C   UNL     1       0.587  60.036  21.138  1.00  0.00    -0.000 C 
BRANCH   4   5
ATOM      5  C   UNL     1      -0.616  60.986  21.029  1.00  0.00    -0.000 C 
BRANCH   5   6
ATOM      6  C   UNL     1      -1.024  61.260  19.570  1.00  0.00    -0.000 C 
BRANCH   6   7
ATOM      7  C   UNL     1      -0.524  62.623  19.053  1.00  0.00    -0.000 C 
BRANCH   7   8
ATOM      8  C   UNL     1      -0.073  62.635  17.579  1.00  0.00    -0.000 C 
BRANCH   8   9
ATOM      9  C   UNL     1      -0.023  61.227  16.960  1.00  0.00    -0.000 C 
BRANCH   9  10
ATOM     10  C   UNL     1       1.408  60.665  16.870  1.00  0.00    -0.000 C 
BRANCH  10  11
ATOM     11  C   UNL     1       1.658  59.376  17.676  1.00  0.00    -0.003 C 
ATOM     12  C   UNL     1       0.473  58.411  17.646  1.00  0.00     0.004 C 
ENDBRANCH  10  11
ENDBRANCH   9  10
ENDBRANCH   8   9
ENDBRANCH   7   8
ENDBRANCH   6   7
ENDBRANCH   5   6
ENDBRANCH   4   5
ENDBRANCH   3   4
ENDBRANCH   2   3
ENDBRANCH   1   2
BRANCH   1  13
ATOM     13  C   UNL     1       4.032  57.637  21.982  1.00  0.00     0.000 C 
BRANCH  13  14
ATOM     14  C   UNL     1       5.348  57.258  22.685  1.00  0.00     0.000 C 
BRANCH  14  15
ATOM     15  C   UNL     1       6.490  57.022  21.683  1.00  0.00     0.000 C 
BRANCH  15  16
ATOM     16  C   UNL     1       7.715  56.354  22.334  1.00  0.00     0.000 C 
BRANCH  16  17
ATOM     17  C   UNL     1       7.980  54.944  21.778  1.00  0.00     0.000 C 
BRANCH  17  18
ATOM     18  C   UNL     1       6.957  53.913  22.287  1.00  0.00     0.000 C 
BRANCH  18  19
ATOM     19  C   UNL     1       6.732  53.999  23.805  1.00  0.00     0.000 C 
BRANCH  19  20
ATOM     20  C   UNL     1       7.758  53.185  24.608  1.00  0.00     0.006 C 
BRANCH  20  21
ATOM     21  C   UNL     1       8.495  54.075  25.614  1.00  0.00     0.053 C 
BRANCH  21  22
ATOM     22  C   UNL     1       9.896  54.338  25.158  1.00  0.00     0.041 C 
ATOM     23  O   UNL     1      10.325  53.814  24.097  1.00  0.00    -0.550 OA
ATOM     24  O   UNL     1      10.737  55.141  25.920  1.00  0.00    -0.550 OA
ENDBRANCH  21  22
ENDBRANCH  20  21
ENDBRANCH  19  20
ENDBRANCH  18  19
ENDBRANCH  17  18
ENDBRANCH  16  17
ENDBRANCH  15  16
ENDBRANCH  14  15
ENDBRANCH  13  14
ENDBRANCH   1  13
TORSDOF 20
ENDMDL
MODEL 7
REMARK VINA RESULT:    -5.330      1.403      2.167
REMARK INTER + INTRA:         -13.264
REMARK INTER:                 -11.212
REMARK INTRA:                  -2.051
REMARK UNBOUND:                -1.701
REMARK SMILES CCCCCCCCCCCCCCCCCCCCCC(=O)[O-]
REMARK SMILES IDX 12 1 11 2 10 3 9 4 8 5 7 6 6 7 5 8 4 9 3 10 2 11 1 12 13 13
REMARK SMILES IDX 14 14 15 15 16 16 17 17 18 18 19 19 20 20 21 21 22 22 23 23
REMARK SMILES IDX 24 24
REMARK H PARENT
REMARK Flexibility Score: inf
ROOT
ATOM      1  C   UNL     1       3.886  58.509  22.164  1.00  0.00     0.000 C 
ENDROOT
BRANCH   1   2
ATOM      2  C   UNL     1       4.802  57.323  22.518  1.00  0.00     0.000 C 
BRANCH   2   3
ATOM      3  C   UNL     1       6.099  57.317  21.692  1.00  0.00     0.000 C 
BRANCH   3   4
ATOM      4  C   UNL     1       7.201  56.460  22.341  1.00  0.00    -0.000 C 
BRANCH   4   5
ATOM      5  C   UNL     1       7.593  55.248  21.482  1.00  0.00    -0.000 C 
BRANCH   5   6
ATOM      6  C   UNL     1       7.090  53.917  22.070  1.00  0.00    -0.000 C 
BRANCH   6   7
ATOM      7  C   UNL     1       6.252  54.106  23.349  1.00  0.00    -0.000 C 
BRANCH   7   8
ATOM      8  C   UNL     1       7.048  54.036  24.667  1.00  0.00    -0.000 C 
BRANCH   8   9
ATOM      9  C   UNL     1       8.262  53.095  24.579  1.00  0.00    -0.000 C 
BRANCH   9  10
ATOM     10  C   UNL     1       9.604  53.836  24.734  1.00  0.00    -0.000 C 
BRANCH  10  11
ATOM     11  C   UNL     1      10.447  53.939  23.448  1.00  0.00    -0.003 C 
ATOM     12  C   UNL     1      10.454  52.649  22.630  1.00  0.00     0.004 C 
ENDBRANCH  10  11
ENDBRANCH   9  10
ENDBRANCH   8   9
ENDBRANCH   7   8
ENDBRANCH   6   7
ENDBRANCH   5   6
ENDBRANCH   4   5
ENDBRANCH   3   4
ENDBRANCH   2   3
ENDBRANCH   1   2
BRANCH   1  13
ATOM     13  C   UNL     1       2.453  58.074  21.820  1.00  0.00     0.000 C 
BRANCH  13  14
ATOM     14  C   UNL     1       1.827  58.902  20.683  1.00  0.00     0.000 C 
BRANCH  14  15
ATOM     15  C   UNL     1       2.098  60.407  20.850  1.00  0.00     0.000 C 
BRANCH  15  16
ATOM     16  C   UNL     1       0.801  61.226  20.992  1.00  0.00     0.000 C 
BRANCH  16  17
ATOM     17  C   UNL     1      -0.461  60.357  20.855  1.00  0.00     0.000 C 
BRANCH  17  18
ATOM     18  C   UNL     1      -1.345  60.793  19.672  1.00  0.00     0.000 C 
BRANCH  18  19
ATOM     19  C   UNL     1      -1.764  59.615  18.778  1.00  0.00     0.000 C 
BRANCH  19  20
ATOM     20  C   UNL     1      -0.707  59.264  17.719  1.00  0.00     0.006 C 
BRANCH  20  21
ATOM     21  C   UNL     1       0.058  60.515  17.275  1.00  0.00     0.053 C 
BRANCH  21  22
ATOM     22  C   UNL     1       1.469  60.172  16.918  1.00  0.00     0.041 C 
ATOM     23  O   UNL     1       2.181  60.996  16.285  1.00  0.00    -0.550 OA
ATOM     24  O   UNL     1       1.992  58.930  17.259  1.00  0.00    -0.550 OA
ENDBRANCH  21  22
ENDBRANCH  20  21
ENDBRANCH  19  20
ENDBRANCH  18  19
ENDBRANCH  17  18
ENDBRANCH  16  17
ENDBRANCH  15  16
ENDBRANCH  14  15
ENDBRANCH  13  14
ENDBRANCH   1  13
TORSDOF 20
ENDMDL
MODEL 8
REMARK VINA RESULT:    -5.246      3.878     10.181
REMARK INTER + INTRA:         -13.082
REMARK INTER:                 -11.277
REMARK INTRA:                  -1.804
REMARK UNBOUND:                -1.701
REMARK SMILES CCCCCCCCCCCCCCCCCCCCCC(=O)[O-]
REMARK SMILES IDX 12 1 11 2 10 3 9 4 8 5 7 6 6 7 5 8 4 9 3 10 2 11 1 12 13 13
REMARK SMILES IDX 14 14 15 15 16 16 17 17 18 18 19 19 20 20 21 21 22 22 23 23
REMARK SMILES IDX 24 24
REMARK H PARENT
REMARK Flexibility Score: inf
ROOT
ATOM      1  C   UNL     1       3.525  59.620  21.552  1.00  0.00     0.000 C 
ENDROOT
BRANCH   1   2
ATOM      2  C   UNL     1       2.739  60.425  22.603  1.00  0.00     0.000 C 
BRANCH   2   3
ATOM      3  C   UNL     1       1.634  59.591  23.274  1.00  0.00     0.000 C 
BRANCH   3   4
ATOM      4  C   UNL     1       0.684  60.456  24.123  1.00  0.00    -0.000 C 
BRANCH   4   5
ATOM      5  C   UNL     1      -0.698  60.629  23.474  1.00  0.00    -0.000 C 
BRANCH   5   6
ATOM      6  C   UNL     1      -0.926  59.661  22.299  1.00  0.00    -0.000 C 
BRANCH   6   7
ATOM      7  C   UNL     1      -1.285  60.385  20.986  1.00  0.00    -0.000 C 
BRANCH   7   8
ATOM      8  C   UNL     1      -0.078  60.810  20.126  1.00  0.00    -0.000 C 
BRANCH   8   9
ATOM      9  C   UNL     1       0.589  59.624  19.409  1.00  0.00    -0.000 C 
BRANCH   9  10
ATOM     10  C   UNL     1       0.117  59.464  17.952  1.00  0.00    -0.000 C 
BRANCH  10  11
ATOM     11  C   UNL     1      -0.479  60.733  17.314  1.00  0.00    -0.003 C 
ATOM     12  C   UNL     1       0.553  61.564  16.553  1.00  0.00     0.004 C 
ENDBRANCH  10  11
ENDBRANCH   9  10
ENDBRANCH   8   9
ENDBRANCH   7   8
ENDBRANCH   6   7
ENDBRANCH   5   6
ENDBRANCH   4   5
ENDBRANCH   3   4
ENDBRANCH   2   3
ENDBRANCH   1   2
BRANCH   1  13
ATOM     13  C   UNL     1       3.624  58.126  21.896  1.00  0.00     0.000 C 
BRANCH  13  14
ATOM     14  C   UNL     1       4.900  57.770  22.680  1.00  0.00     0.000 C 
BRANCH  14  15
ATOM     15  C   UNL     1       5.641  56.573  22.063  1.00  0.00     0.000 C 
BRANCH  15  16
ATOM     16  C   UNL     1       5.751  55.383  23.035  1.00  0.00     0.000 C 
BRANCH  16  17
ATOM     17  C   UNL     1       6.297  54.117  22.354  1.00  0.00     0.000 C 
BRANCH  17  18
ATOM     18  C   UNL     1       7.628  53.649  22.971  1.00  0.00     0.000 C 
BRANCH  18  19
ATOM     19  C   UNL     1       8.855  54.207  22.230  1.00  0.00     0.000 C 
BRANCH  19  20
ATOM     20  C   UNL     1      10.157  54.050  23.030  1.00  0.00     0.006 C 
BRANCH  20  21
ATOM     21  C   UNL     1       9.865  53.606  24.468  1.00  0.00     0.053 C 
BRANCH  21  22
ATOM     22  C   UNL     1      10.126  54.722  25.428  1.00  0.00     0.041 C 
ATOM     23  O   UNL     1       9.501  55.810  25.320  1.00  0.00    -0.550 OA
ATOM     24  O   UNL     1      11.080  54.572  26.428  1.00  0.00    -0.550 OA
ENDBRANCH  21  22
ENDBRANCH  20  21
ENDBRANCH  19  20
ENDBRANCH  18  19
ENDBRANCH  17  18
ENDBRANCH  16  17
ENDBRANCH  15  16
ENDBRANCH  14  15
ENDBRANCH  13  14
ENDBRANCH   1  13
TORSDOF 20
ENDMDL
MODEL 9
REMARK VINA RESULT:    -5.239      1.213      2.400
REMARK INTER + INTRA:         -13.066
REMARK INTER:                 -11.008
REMARK INTRA:                  -2.058
REMARK UNBOUND:                -1.701
REMARK SMILES CCCCCCCCCCCCCCCCCCCCCC(=O)[O-]
REMARK SMILES IDX 12 1 11 2 10 3 9 4 8 5 7 6 6 7 5 8 4 9 3 10 2 11 1 12 13 13
REMARK SMILES IDX 14 14 15 15 16 16 17 17 18 18 19 19 20 20 21 21 22 22 23 23
REMARK SMILES IDX 24 24
REMARK H PARENT
REMARK Flexibility Score: inf
ROOT
ATOM      1  C   UNL     1       5.462  56.765  22.536  1.00  0.00     0.000 C 
ENDROOT
BRANCH   1   2
ATOM      2  C   UNL     1       6.991  56.936  22.619  1.00  0.00     0.000 C 
BRANCH   2   3
ATOM      3  C   UNL     1       7.702  56.482  21.332  1.00  0.00     0.000 C 
BRANCH   3   4
ATOM      4  C   UNL     1       6.885  55.435  20.553  1.00  0.00    -0.000 C 
BRANCH   4   5
ATOM      5  C   UNL     1       7.345  53.996  20.832  1.00  0.00    -0.000 C 
BRANCH   5   6
ATOM      6  C   UNL     1       8.790  53.928  21.360  1.00  0.00    -0.000 C 
BRANCH   6   7
ATOM      7  C   UNL     1       8.872  53.452  22.823  1.00  0.00    -0.000 C 
BRANCH   7   8
ATOM      8  C   UNL     1       7.512  53.190  23.501  1.00  0.00    -0.000 C 
BRANCH   8   9
ATOM      9  C   UNL     1       7.266  54.105  24.713  1.00  0.00    -0.000 C 
BRANCH   9  10
ATOM     10  C   UNL     1       8.113  53.712  25.939  1.00  0.00    -0.000 C 
BRANCH  10  11
ATOM     11  C   UNL     1       9.254  54.688  26.286  1.00  0.00    -0.003 C 
ATOM     12  C   UNL     1       9.409  55.816  25.267  1.00  0.00     0.004 C 
ENDBRANCH  10  11
ENDBRANCH   9  10
ENDBRANCH   8   9
ENDBRANCH   7   8
ENDBRANCH   6   7
ENDBRANCH   5   6
ENDBRANCH   4   5
ENDBRANCH   3   4
ENDBRANCH   2   3
ENDBRANCH   1   2
BRANCH   1  13
ATOM     13  C   UNL     1       4.710  58.104  22.562  1.00  0.00     0.000 C 
BRANCH  13  14
ATOM     14  C   UNL     1       3.369  58.058  21.807  1.00  0.00     0.000 C 
BRANCH  14  15
ATOM     15  C   UNL     1       2.363  59.082  22.356  1.00  0.00     0.000 C 
BRANCH  15  16
ATOM     16  C   UNL     1       2.573  60.489  21.765  1.00  0.00     0.000 C 
BRANCH  16  17
ATOM     17  C   UNL     1       1.287  61.063  21.144  1.00  0.00     0.000 C 
BRANCH  17  18
ATOM     18  C   UNL     1       0.331  59.960  20.655  1.00  0.00     0.000 C 
BRANCH  18  19
ATOM     19  C   UNL     1       0.290  59.847  19.122  1.00  0.00     0.000 C 
BRANCH  19  20
ATOM     20  C   UNL     1       1.580  59.258  18.532  1.00  0.00     0.006 C 
BRANCH  20  21
ATOM     21  C   UNL     1       1.347  58.756  17.102  1.00  0.00     0.053 C 
BRANCH  21  22
ATOM     22  C   UNL     1       2.415  59.261  16.185  1.00  0.00     0.041 C 
ATOM     23  O   UNL     1       2.711  60.485  16.171  1.00  0.00    -0.550 OA
ATOM     24  O   UNL     1       3.066  58.385  15.324  1.00  0.00    -0.550 OA
ENDBRANCH  21  22
ENDBRANCH  20  21
ENDBRANCH  19  20
ENDBRANCH  18  19
ENDBRANCH  17  18
ENDBRANCH  16  17
ENDBRANCH  15  16
ENDBRANCH  14  15
ENDBRANCH  13  14
ENDBRANCH   1  13
TORSDOF 20
ENDMDL
