MODEL 1
REMARK VINA RESULT:    -3.351      0.000      0.000
REMARK INTER + INTRA:          -5.140
REMARK INTER:                  -4.526
REMARK INTRA:                  -0.614
REMARK UNBOUND:                -0.614
REMARK SMILES CCCCCCC=CC(=O)[O-]
REMARK SMILES IDX 5 1 6 2 7 3 8 4 9 5 10 6 11 7 4 8 3 9 2 10 1 11
REMARK H PARENT
REMARK Flexibility Score: inf
ROOT
ATOM      1  C   UNL     1      16.046  22.743   7.426  1.00  0.00     0.004 C 
ENDROOT
BRANCH   1   2
ATOM      2  C   UNL     1      16.463  23.225   6.027  1.00  0.00     0.027 C 
BRANCH   2   3
ATOM      3  C   UNL     1      17.188  22.143   5.271  1.00  0.00    -0.025 C 
ATOM      4  C   UNL     1      17.460  22.148   3.956  1.00  0.00     0.020 C 
BRANCH   4   5
ATOM      5  C   UNL     1      17.133  23.220   2.990  1.00  0.00     0.064 C 
ATOM      6  O   UNL     1      17.820  24.274   2.997  1.00  0.00    -0.545 OA
ATOM      7  O   UNL     1      16.083  23.112   2.089  1.00  0.00    -0.545 OA
ENDBRANCH   4   5
ENDBRANCH   2   3
ENDBRANCH   1   2
BRANCH   1   8
ATOM      8  C   UNL     1      17.164  21.972   8.145  1.00  0.00     0.000 C 
BRANCH   8   9
ATOM      9  C   UNL     1      16.707  20.589   8.637  1.00  0.00    -0.000 C 
BRANCH   9  10
ATOM     10  C   UNL     1      15.522  20.039   7.828  1.00  0.00    -0.003 C 
ATOM     11  C   UNL     1      15.945  18.995   6.793  1.00  0.00     0.004 C 
ENDBRANCH   9  10
ENDBRANCH   8   9
ENDBRANCH   1   8
TORSDOF 6
ENDMDL
MODEL 2
REMARK VINA RESULT:    -3.231     16.772     17.617
REMARK INTER + INTRA:          -4.978
REMARK INTER:                  -4.277
REMARK INTRA:                  -0.700
REMARK UNBOUND:                -0.614
REMARK SMILES CCCCCCC=CC(=O)[O-]
REMARK SMILES IDX 5 1 6 2 7 3 8 4 9 5 10 6 11 7 4 8 3 9 2 10 1 11
REMARK H PARENT
REMARK Flexibility Score: inf
ROOT
ATOM      1  C   UNL     1      31.951  23.902   6.016  1.00  0.00     0.004 C 
ENDROOT
BRANCH   1   2
ATOM      2  C   UNL     1      32.557  23.514   4.657  1.00  0.00     0.027 C 
BRANCH   2   3
ATOM      3  C   UNL     1      33.981  23.985   4.540  1.00  0.00    -0.025 C 
ATOM      4  C   UNL     1      35.016  23.260   4.085  1.00  0.00     0.020 C 
BRANCH   4   5
ATOM      5  C   UNL     1      34.967  21.871   3.581  1.00  0.00     0.064 C 
ATOM      6  O   UNL     1      35.064  21.670   2.342  1.00  0.00    -0.545 OA
ATOM      7  O   UNL     1      34.799  20.781   4.424  1.00  0.00    -0.545 OA
ENDBRANCH   4   5
ENDBRANCH   2   3
ENDBRANCH   1   2
BRANCH   1   8
ATOM      8  C   UNL     1      32.639  25.125   6.644  1.00  0.00     0.000 C 
BRANCH   8   9
ATOM      9  C   UNL     1      33.116  24.861   8.081  1.00  0.00    -0.000 C 
BRANCH   9  10
ATOM     10  C   UNL     1      34.644  24.737   8.180  1.00  0.00    -0.003 C 
ATOM     11  C   UNL     1      35.125  23.286   8.134  1.00  0.00     0.004 C 
ENDBRANCH   9  10
ENDBRANCH   8   9
ENDBRANCH   1   8
TORSDOF 6
ENDMDL
MODEL 3
REMARK VINA RESULT:    -3.161      1.492      2.721
REMARK INTER + INTRA:          -4.883
REMARK INTER:                  -4.479
REMARK INTRA:                  -0.404
REMARK UNBOUND:                -0.614
REMARK SMILES CCCCCCC=CC(=O)[O-]
REMARK SMILES IDX 5 1 6 2 7 3 8 4 9 5 10 6 11 7 4 8 3 9 2 10 1 11
REMARK H PARENT
REMARK Flexibility Score: inf
ROOT
ATOM      1  C   UNL     1      16.346  20.977   6.865  1.00  0.00     0.004 C 
ENDROOT
BRANCH   1   2
ATOM      2  C   UNL     1      16.734  22.264   6.119  1.00  0.00     0.027 C 
BRANCH   2   3
ATOM      3  C   UNL     1      17.240  21.961   4.734  1.00  0.00    -0.025 C 
ATOM      4  C   UNL     1      17.543  22.866   3.790  1.00  0.00     0.020 C 
BRANCH   4   5
ATOM      5  C   UNL     1      17.473  24.338   3.923  1.00  0.00     0.064 C 
ATOM      6  O   UNL     1      16.367  24.912   3.745  1.00  0.00    -0.545 OA
ATOM      7  O   UNL     1      18.588  25.111   4.216  1.00  0.00    -0.545 OA
ENDBRANCH   4   5
ENDBRANCH   2   3
ENDBRANCH   1   2
BRANCH   1   8
ATOM      8  C   UNL     1      16.193  21.193   8.379  1.00  0.00     0.000 C 
BRANCH   8   9
ATOM      9  C   UNL     1      17.500  21.651   9.046  1.00  0.00    -0.000 C 
BRANCH   9  10
ATOM     10  C   UNL     1      17.338  22.971   9.815  1.00  0.00    -0.003 C 
ATOM     11  C   UNL     1      18.080  24.135   9.158  1.00  0.00     0.004 C 
ENDBRANCH   9  10
ENDBRANCH   8   9
ENDBRANCH   1   8
TORSDOF 6
ENDMDL
MODEL 4
REMARK VINA RESULT:    -3.117      2.966      4.887
REMARK INTER + INTRA:          -4.824
REMARK INTER:                  -4.339
REMARK INTRA:                  -0.484
REMARK UNBOUND:                -0.614
REMARK SMILES CCCCCCC=CC(=O)[O-]
REMARK SMILES IDX 5 1 6 2 7 3 8 4 9 5 10 6 11 7 4 8 3 9 2 10 1 11
REMARK H PARENT
REMARK Flexibility Score: inf
ROOT
ATOM      1  C   UNL     1      17.046  24.193   7.367  1.00  0.00     0.004 C 
ENDROOT
BRANCH   1   2
ATOM      2  C   UNL     1      16.442  23.416   8.547  1.00  0.00     0.027 C 
BRANCH   2   3
ATOM      3  C   UNL     1      17.347  22.296   8.984  1.00  0.00    -0.025 C 
ATOM      4  C   UNL     1      17.143  20.987   8.768  1.00  0.00     0.020 C 
BRANCH   4   5
ATOM      5  C   UNL     1      16.010  20.379   8.036  1.00  0.00     0.064 C 
ATOM      6  O   UNL     1      16.067  20.305   6.781  1.00  0.00    -0.545 OA
ATOM      7  O   UNL     1      14.877  19.905   8.683  1.00  0.00    -0.545 OA
ENDBRANCH   4   5
ENDBRANCH   2   3
ENDBRANCH   1   2
BRANCH   1   8
ATOM      8  C   UNL     1      16.492  23.734   6.009  1.00  0.00     0.000 C 
BRANCH   8   9
ATOM      9  C   UNL     1      17.106  24.504   4.829  1.00  0.00    -0.000 C 
BRANCH   9  10
ATOM     10  C   UNL     1      17.839  23.582   3.841  1.00  0.00    -0.003 C 
ATOM     11  C   UNL     1      17.461  22.110   4.013  1.00  0.00     0.004 C 
ENDBRANCH   9  10
ENDBRANCH   8   9
ENDBRANCH   1   8
TORSDOF 6
ENDMDL
MODEL 5
REMARK VINA RESULT:    -3.102      1.485      2.441
REMARK INTER + INTRA:          -4.803
REMARK INTER:                  -4.454
REMARK INTRA:                  -0.349
REMARK UNBOUND:                -0.614
REMARK SMILES CCCCCCC=CC(=O)[O-]
REMARK SMILES IDX 5 1 6 2 7 3 8 4 9 5 10 6 11 7 4 8 3 9 2 10 1 11
REMARK H PARENT
REMARK Flexibility Score: inf
ROOT
ATOM      1  C   UNL     1      17.112  21.694   4.929  1.00  0.00     0.004 C 
ENDROOT
BRANCH   1   2
ATOM      2  C   UNL     1      17.710  22.846   4.105  1.00  0.00     0.027 C 
BRANCH   2   3
ATOM      3  C   UNL     1      16.675  23.897   3.807  1.00  0.00    -0.025 C 
ATOM      4  C   UNL     1      15.943  23.986   2.685  1.00  0.00     0.020 C 
BRANCH   4   5
ATOM      5  C   UNL     1      15.979  23.062   1.531  1.00  0.00     0.064 C 
ATOM      6  O   UNL     1      16.385  23.491   0.420  1.00  0.00    -0.545 OA
ATOM      7  O   UNL     1      15.561  21.741   1.626  1.00  0.00    -0.545 OA
ENDBRANCH   4   5
ENDBRANCH   2   3
ENDBRANCH   1   2
BRANCH   1   8
ATOM      8  C   UNL     1      16.749  22.116   6.361  1.00  0.00     0.000 C 
BRANCH   8   9
ATOM      9  C   UNL     1      15.995  21.018   7.128  1.00  0.00    -0.000 C 
BRANCH   9  10
ATOM     10  C   UNL     1      16.699  20.625   8.437  1.00  0.00    -0.003 C 
ATOM     11  C   UNL     1      17.473  21.785   9.065  1.00  0.00     0.004 C 
ENDBRANCH   9  10
ENDBRANCH   8   9
ENDBRANCH   1   8
TORSDOF 6
ENDMDL
MODEL 6
REMARK VINA RESULT:    -3.072      3.065      5.179
REMARK INTER + INTRA:          -4.763
REMARK INTER:                  -4.331
REMARK INTRA:                  -0.432
REMARK UNBOUND:                -0.614
REMARK SMILES CCCCCCC=CC(=O)[O-]
REMARK SMILES IDX 5 1 6 2 7 3 8 4 9 5 10 6 11 7 4 8 3 9 2 10 1 11
REMARK H PARENT
REMARK Flexibility Score: inf
ROOT
ATOM      1  C   UNL     1      16.728  21.803   6.282  1.00  0.00     0.004 C 
ENDROOT
BRANCH   1   2
ATOM      2  C   UNL     1      15.979  21.259   7.510  1.00  0.00     0.027 C 
BRANCH   2   3
ATOM      3  C   UNL     1      16.937  20.845   8.594  1.00  0.00    -0.025 C 
ATOM      4  C   UNL     1      17.554  21.667   9.458  1.00  0.00     0.020 C 
BRANCH   4   5
ATOM      5  C   UNL     1      17.399  23.136   9.542  1.00  0.00     0.064 C 
ATOM      6  O   UNL     1      16.389  23.608  10.124  1.00  0.00    -0.545 OA
ATOM      7  O   UNL     1      18.321  24.012   8.985  1.00  0.00    -0.545 OA
ENDBRANCH   4   5
ENDBRANCH   2   3
ENDBRANCH   1   2
BRANCH   1   8
ATOM      8  C   UNL     1      16.419  23.283   6.007  1.00  0.00     0.000 C 
BRANCH   8   9
ATOM      9  C   UNL     1      17.232  23.849   4.832  1.00  0.00    -0.000 C 
BRANCH   9  10
ATOM     10  C   UNL     1      17.509  22.796   3.747  1.00  0.00    -0.003 C 
ATOM     11  C   UNL     1      16.496  22.844   2.602  1.00  0.00     0.004 C 
ENDBRANCH   9  10
ENDBRANCH   8   9
ENDBRANCH   1   8
TORSDOF 6
ENDMDL
MODEL 7
REMARK VINA RESULT:    -3.008      1.833      3.062
REMARK INTER + INTRA:          -4.676
REMARK INTER:                  -4.168
REMARK INTRA:                  -0.509
REMARK UNBOUND:                -0.614
REMARK SMILES CCCCCCC=CC(=O)[O-]
REMARK SMILES IDX 5 1 6 2 7 3 8 4 9 5 10 6 11 7 4 8 3 9 2 10 1 11
REMARK H PARENT
REMARK Flexibility Score: inf
ROOT
ATOM      1  C   UNL     1      16.490  21.362   8.281  1.00  0.00     0.004 C 
ENDROOT
BRANCH   1   2
ATOM      2  C   UNL     1      16.434  21.592   6.762  1.00  0.00     0.027 C 
BRANCH   2   3
ATOM      3  C   UNL     1      16.510  23.058   6.430  1.00  0.00    -0.025 C 
ATOM      4  C   UNL     1      16.817  23.579   5.231  1.00  0.00     0.020 C 
BRANCH   4   5
ATOM      5  C   UNL     1      17.111  22.828   3.991  1.00  0.00     0.064 C 
ATOM      6  O   UNL     1      18.109  22.062   3.967  1.00  0.00    -0.545 OA
ATOM      7  O   UNL     1      16.337  22.954   2.845  1.00  0.00    -0.545 OA
ENDBRANCH   4   5
ENDBRANCH   2   3
ENDBRANCH   1   2
BRANCH   1   8
ATOM      8  C   UNL     1      17.656  22.105   8.951  1.00  0.00     0.000 C 
BRANCH   8   9
ATOM      9  C   UNL     1      17.194  23.023  10.094  1.00  0.00    -0.000 C 
BRANCH   9  10
ATOM     10  C   UNL     1      17.404  24.511   9.777  1.00  0.00    -0.003 C 
ATOM     11  C   UNL     1      18.709  24.778   9.025  1.00  0.00     0.004 C 
ENDBRANCH   9  10
ENDBRANCH   8   9
ENDBRANCH   1   8
TORSDOF 6
ENDMDL
MODEL 8
REMARK VINA RESULT:    -2.933      1.601      2.302
REMARK INTER + INTRA:          -4.576
REMARK INTER:                  -3.982
REMARK INTRA:                  -0.594
REMARK UNBOUND:                -0.614
REMARK SMILES CCCCCCC=CC(=O)[O-]
REMARK SMILES IDX 5 1 6 2 7 3 8 4 9 5 10 6 11 7 4 8 3 9 2 10 1 11
REMARK H PARENT
REMARK Flexibility Score: inf
ROOT
ATOM      1  C   UNL     1      17.133  24.652   6.709  1.00  0.00     0.004 C 
ENDROOT
BRANCH   1   2
ATOM      2  C   UNL     1      16.199  23.618   6.060  1.00  0.00     0.027 C 
BRANCH   2   3
ATOM      3  C   UNL     1      16.969  22.429   5.552  1.00  0.00    -0.025 C 
ATOM      4  C   UNL     1      17.372  22.234   4.286  1.00  0.00     0.020 C 
BRANCH   4   5
ATOM      5  C   UNL     1      17.171  23.152   3.144  1.00  0.00     0.064 C 
ATOM      6  O   UNL     1      17.904  24.170   3.045  1.00  0.00    -0.545 OA
ATOM      7  O   UNL     1      16.188  22.940   2.186  1.00  0.00    -0.545 OA
ENDBRANCH   4   5
ENDBRANCH   2   3
ENDBRANCH   1   2
BRANCH   1   8
ATOM      8  C   UNL     1      16.899  24.795   8.221  1.00  0.00     0.000 C 
BRANCH   8   9
ATOM      9  C   UNL     1      17.981  24.093   9.057  1.00  0.00    -0.000 C 
BRANCH   9  10
ATOM     10  C   UNL     1      17.428  22.901   9.854  1.00  0.00    -0.003 C 
ATOM     11  C   UNL     1      17.474  21.590   9.068  1.00  0.00     0.004 C 
ENDBRANCH   9  10
ENDBRANCH   8   9
ENDBRANCH   1   8
TORSDOF 6
ENDMDL
MODEL 9
REMARK VINA RESULT:    -2.896      3.114      5.528
REMARK INTER + INTRA:          -4.525
REMARK INTER:                  -4.064
REMARK INTRA:                  -0.461
REMARK UNBOUND:                -0.614
REMARK SMILES CCCCCCC=CC(=O)[O-]
REMARK SMILES IDX 5 1 6 2 7 3 8 4 9 5 10 6 11 7 4 8 3 9 2 10 1 11
REMARK H PARENT
REMARK Flexibility Score: inf
ROOT
ATOM      1  C   UNL     1      17.478  22.081   3.881  1.00  0.00     0.004 C 
ENDROOT
BRANCH   1   2
ATOM      2  C   UNL     1      16.916  21.535   5.203  1.00  0.00     0.027 C 
BRANCH   2   3
ATOM      3  C   UNL     1      16.687  22.641   6.198  1.00  0.00    -0.025 C 
ATOM      4  C   UNL     1      16.491  22.486   7.517  1.00  0.00     0.020 C 
BRANCH   4   5
ATOM      5  C   UNL     1      16.489  21.211   8.266  1.00  0.00     0.064 C 
ATOM      6  O   UNL     1      17.475  20.933   8.997  1.00  0.00    -0.545 OA
ATOM      7  O   UNL     1      15.446  20.299   8.176  1.00  0.00    -0.545 OA
ENDBRANCH   4   5
ENDBRANCH   2   3
ENDBRANCH   1   2
BRANCH   1   8
ATOM      8  C   UNL     1      17.793  23.584   3.947  1.00  0.00     0.000 C 
BRANCH   8   9
ATOM      9  C   UNL     1      17.316  24.344   2.699  1.00  0.00    -0.000 C 
BRANCH   9  10
ATOM     10  C   UNL     1      16.067  23.711   2.066  1.00  0.00    -0.003 C 
ATOM     11  C   UNL     1      16.179  23.572   0.547  1.00  0.00     0.004 C 
ENDBRANCH   9  10
ENDBRANCH   8   9
ENDBRANCH   1   8
TORSDOF 6
ENDMDL
