MODEL 1
REMARK VINA RESULT:    -5.456      0.000      0.000
REMARK INTER + INTRA:          -8.033
REMARK INTER:                  -7.529
REMARK INTRA:                  -0.504
REMARK UNBOUND:                -0.504
REMARK SMILES OC[C@@H](O)C(O)[C@H](O)CO
REMARK SMILES IDX 5 1 7 2 9 3 10 4 8 6 3 8 2 9 1 10 4 12 6 14
REMARK H PARENT 10 5 8 7 1 11 4 13 6 15
REMARK Flexibility Score: inf
ROOT
ATOM      1  C   UNL     1      29.136   3.095  12.946  1.00  0.00     0.176 C 
ENDROOT
BRANCH   1   2
ATOM      2  C   UNL     1      27.854   2.220  13.045  1.00  0.00     0.171 C 
BRANCH   2   3
ATOM      3  C   UNL     1      26.884   2.430  11.871  1.00  0.00     0.190 C 
BRANCH   3   4
ATOM      4  O   UNL     1      26.137   3.603  12.044  1.00  0.00    -0.394 OA
ATOM      5  H   UNL     1      25.674   3.510  12.916  1.00  0.00     0.210 HD
ENDBRANCH   3   4
ENDBRANCH   2   3
BRANCH   2   6
ATOM      6  O   UNL     1      28.173   0.854  13.152  1.00  0.00    -0.388 OA
ATOM      7  H   UNL     1      28.555   0.711  14.058  1.00  0.00     0.211 HD
ENDBRANCH   2   6
ENDBRANCH   1   2
BRANCH   1   8
ATOM      8  C   UNL     1      30.243   2.747  13.978  1.00  0.00     0.171 C 
BRANCH   8   9
ATOM      9  C   UNL     1      31.613   3.274  13.515  1.00  0.00     0.190 C 
BRANCH   9  10
ATOM     10  O   UNL     1      31.734   4.643  13.793  1.00  0.00    -0.394 OA
ATOM     11  H   UNL     1      30.847   4.946  14.122  1.00  0.00     0.210 HD
ENDBRANCH   9  10
ENDBRANCH   8   9
BRANCH   8  12
ATOM     12  O   UNL     1      29.926   3.292  15.235  1.00  0.00    -0.388 OA
ATOM     13  H   UNL     1      29.696   4.246  15.087  1.00  0.00     0.211 HD
ENDBRANCH   8  12
ENDBRANCH   1   8
BRANCH   1  14
ATOM     14  O   UNL     1      28.794   4.460  13.004  1.00  0.00    -0.388 OA
ATOM     15  H   UNL     1      28.263   4.605  13.829  1.00  0.00     0.211 HD
ENDBRANCH   1  14
TORSDOF 9
ENDMDL
MODEL 2
REMARK VINA RESULT:    -5.232      1.442      4.218
REMARK INTER + INTRA:          -7.724
REMARK INTER:                  -7.457
REMARK INTRA:                  -0.267
REMARK UNBOUND:                -0.504
REMARK SMILES OC[C@@H](O)C(O)[C@H](O)CO
REMARK SMILES IDX 5 1 7 2 9 3 10 4 8 6 3 8 2 9 1 10 4 12 6 14
REMARK H PARENT 10 5 8 7 1 11 4 13 6 15
REMARK Flexibility Score: inf
ROOT
ATOM      1  C   UNL     1      29.115   2.833  13.118  1.00  0.00     0.176 C 
ENDROOT
BRANCH   1   2
ATOM      2  C   UNL     1      30.310   2.827  14.114  1.00  0.00     0.171 C 
BRANCH   2   3
ATOM      3  C   UNL     1      31.631   3.294  13.480  1.00  0.00     0.190 C 
BRANCH   3   4
ATOM      4  O   UNL     1      31.825   4.667  13.683  1.00  0.00    -0.394 OA
ATOM      5  H   UNL     1      31.455   4.868  14.581  1.00  0.00     0.210 HD
ENDBRANCH   3   4
ENDBRANCH   2   3
BRANCH   2   6
ATOM      6  O   UNL     1      30.034   3.607  15.251  1.00  0.00    -0.388 OA
ATOM      7  H   UNL     1      29.152   4.041  15.104  1.00  0.00     0.211 HD
ENDBRANCH   2   6
ENDBRANCH   1   2
BRANCH   1   8
ATOM      8  C   UNL     1      29.201   1.766  11.993  1.00  0.00     0.171 C 
BRANCH   8   9
ATOM      9  C   UNL     1      27.930   0.899  11.959  1.00  0.00     0.190 C 
BRANCH   9  10
ATOM     10  O   UNL     1      28.151  -0.271  11.219  1.00  0.00    -0.394 OA
ATOM     11  H   UNL     1      28.461   0.014  10.320  1.00  0.00     0.210 HD
ENDBRANCH   9  10
ENDBRANCH   8   9
BRANCH   8  12
ATOM     12  O   UNL     1      29.383   2.387  10.745  1.00  0.00    -0.388 OA
ATOM     13  H   UNL     1      28.600   2.979  10.599  1.00  0.00     0.211 HD
ENDBRANCH   8  12
ENDBRANCH   1   8
BRANCH   1  14
ATOM     14  O   UNL     1      28.938   4.124  12.585  1.00  0.00    -0.388 OA
ATOM     15  H   UNL     1      29.348   4.140  11.682  1.00  0.00     0.211 HD
ENDBRANCH   1  14
TORSDOF 9
ENDMDL
MODEL 3
REMARK VINA RESULT:    -5.100      1.277      1.912
REMARK INTER + INTRA:          -7.541
REMARK INTER:                  -6.877
REMARK INTRA:                  -0.664
REMARK UNBOUND:                -0.504
REMARK SMILES OC[C@@H](O)C(O)[C@H](O)CO
REMARK SMILES IDX 5 1 7 2 9 3 10 4 8 6 3 8 2 9 1 10 4 12 6 14
REMARK H PARENT 10 5 8 7 1 11 4 13 6 15
REMARK Flexibility Score: inf
ROOT
ATOM      1  C   UNL     1      28.467   3.472  12.209  1.00  0.00     0.176 C 
ENDROOT
BRANCH   1   2
ATOM      2  C   UNL     1      26.962   3.133  12.007  1.00  0.00     0.171 C 
BRANCH   2   3
ATOM      3  C   UNL     1      26.192   4.220  11.241  1.00  0.00     0.190 C 
BRANCH   3   4
ATOM      4  O   UNL     1      26.175   5.422  11.961  1.00  0.00    -0.394 OA
ATOM      5  H   UNL     1      25.947   5.181  12.896  1.00  0.00     0.210 HD
ENDBRANCH   3   4
ENDBRANCH   2   3
BRANCH   2   6
ATOM      6  O   UNL     1      26.798   1.895  11.360  1.00  0.00    -0.388 OA
ATOM      7  H   UNL     1      26.067   1.412  11.828  1.00  0.00     0.211 HD
ENDBRANCH   2   6
ENDBRANCH   1   2
BRANCH   1   8
ATOM      8  C   UNL     1      29.305   2.345  12.870  1.00  0.00     0.171 C 
BRANCH   8   9
ATOM      9  C   UNL     1      30.394   2.933  13.786  1.00  0.00     0.190 C 
BRANCH   9  10
ATOM     10  O   UNL     1      29.871   3.216  15.055  1.00  0.00    -0.394 OA
ATOM     11  H   UNL     1      30.558   2.937  15.715  1.00  0.00     0.210 HD
ENDBRANCH   9  10
ENDBRANCH   8   9
BRANCH   8  12
ATOM     12  O   UNL     1      28.473   1.491  13.614  1.00  0.00    -0.388 OA
ATOM     13  H   UNL     1      28.412   0.636  13.113  1.00  0.00     0.211 HD
ENDBRANCH   8  12
ENDBRANCH   1   8
BRANCH   1  14
ATOM     14  O   UNL     1      28.598   4.685  12.912  1.00  0.00    -0.388 OA
ATOM     15  H   UNL     1      27.787   4.802  13.471  1.00  0.00     0.211 HD
ENDBRANCH   1  14
TORSDOF 9
ENDMDL
MODEL 4
REMARK VINA RESULT:    -5.065      0.736      4.013
REMARK INTER + INTRA:          -7.494
REMARK INTER:                  -6.909
REMARK INTRA:                  -0.584
REMARK UNBOUND:                -0.504
REMARK SMILES OC[C@@H](O)C(O)[C@H](O)CO
REMARK SMILES IDX 5 1 7 2 9 3 10 4 8 6 3 8 2 9 1 10 4 12 6 14
REMARK H PARENT 10 5 8 7 1 11 4 13 6 15
REMARK Flexibility Score: inf
ROOT
ATOM      1  C   UNL     1      29.292   2.294  13.073  1.00  0.00     0.176 C 
ENDROOT
BRANCH   1   2
ATOM      2  C   UNL     1      30.422   2.663  14.075  1.00  0.00     0.171 C 
BRANCH   2   3
ATOM      3  C   UNL     1      31.659   3.274  13.396  1.00  0.00     0.190 C 
BRANCH   3   4
ATOM      4  O   UNL     1      31.785   4.633  13.716  1.00  0.00    -0.394 OA
ATOM      5  H   UNL     1      32.425   5.013  13.060  1.00  0.00     0.210 HD
ENDBRANCH   3   4
ENDBRANCH   2   3
BRANCH   2   6
ATOM      6  O   UNL     1      29.957   3.536  15.075  1.00  0.00    -0.388 OA
ATOM      7  H   UNL     1      30.072   4.462  14.735  1.00  0.00     0.211 HD
ENDBRANCH   2   6
ENDBRANCH   1   2
BRANCH   1   8
ATOM      8  C   UNL     1      28.828   3.460  12.157  1.00  0.00     0.171 C 
BRANCH   8   9
ATOM      9  C   UNL     1      27.540   3.086  11.400  1.00  0.00     0.190 C 
BRANCH   9  10
ATOM     10  O   UNL     1      26.418   3.258  12.222  1.00  0.00    -0.394 OA
ATOM     11  H   UNL     1      26.628   4.009  12.838  1.00  0.00     0.210 HD
ENDBRANCH   9  10
ENDBRANCH   8   9
BRANCH   8  12
ATOM     12  O   UNL     1      28.609   4.621  12.919  1.00  0.00    -0.388 OA
ATOM     13  H   UNL     1      27.662   4.598  13.215  1.00  0.00     0.211 HD
ENDBRANCH   8  12
ENDBRANCH   1   8
BRANCH   1  14
ATOM     14  O   UNL     1      28.204   1.722  13.761  1.00  0.00    -0.388 OA
ATOM     15  H   UNL     1      28.015   2.287  14.554  1.00  0.00     0.211 HD
ENDBRANCH   1  14
TORSDOF 9
ENDMDL
MODEL 5
REMARK VINA RESULT:    -4.977      1.395      1.638
REMARK INTER + INTRA:          -7.372
REMARK INTER:                  -6.995
REMARK INTRA:                  -0.377
REMARK UNBOUND:                -0.504
REMARK SMILES OC[C@@H](O)C(O)[C@H](O)CO
REMARK SMILES IDX 5 1 7 2 9 3 10 4 8 6 3 8 2 9 1 10 4 12 6 14
REMARK H PARENT 10 5 8 7 1 11 4 13 6 15
REMARK Flexibility Score: inf
ROOT
ATOM      1  C   UNL     1      29.052   1.948  12.019  1.00  0.00     0.176 C 
ENDROOT
BRANCH   1   2
ATOM      2  C   UNL     1      27.887   0.927  12.157  1.00  0.00     0.171 C 
BRANCH   2   3
ATOM      3  C   UNL     1      26.522   1.504  11.749  1.00  0.00     0.190 C 
BRANCH   3   4
ATOM      4  O   UNL     1      26.251   2.689  12.446  1.00  0.00    -0.394 OA
ATOM      5  H   UNL     1      26.397   3.429  11.801  1.00  0.00     0.210 HD
ENDBRANCH   3   4
ENDBRANCH   2   3
BRANCH   2   6
ATOM      6  O   UNL     1      28.142  -0.244  11.420  1.00  0.00    -0.388 OA
ATOM      7  H   UNL     1      27.280  -0.733  11.338  1.00  0.00     0.211 HD
ENDBRANCH   2   6
ENDBRANCH   1   2
BRANCH   1   8
ATOM      8  C   UNL     1      29.345   2.777  13.299  1.00  0.00     0.171 C 
BRANCH   8   9
ATOM      9  C   UNL     1      30.846   2.746  13.642  1.00  0.00     0.190 C 
BRANCH   9  10
ATOM     10  O   UNL     1      31.353   4.048  13.751  1.00  0.00    -0.394 OA
ATOM     11  H   UNL     1      32.285   4.021  13.408  1.00  0.00     0.210 HD
ENDBRANCH   9  10
ENDBRANCH   8   9
BRANCH   8  12
ATOM     12  O   UNL     1      28.928   4.108  13.124  1.00  0.00    -0.388 OA
ATOM     13  H   UNL     1      28.023   4.183  13.524  1.00  0.00     0.211 HD
ENDBRANCH   8  12
ENDBRANCH   1   8
BRANCH   1  14
ATOM     14  O   UNL     1      28.830   2.785  10.908  1.00  0.00    -0.388 OA
ATOM     15  H   UNL     1      28.828   2.217  10.095  1.00  0.00     0.211 HD
ENDBRANCH   1  14
TORSDOF 9
ENDMDL
MODEL 6
REMARK VINA RESULT:    -4.872      1.632      3.799
REMARK INTER + INTRA:          -7.227
REMARK INTER:                  -6.880
REMARK INTRA:                  -0.347
REMARK UNBOUND:                -0.504
REMARK SMILES OC[C@@H](O)C(O)[C@H](O)CO
REMARK SMILES IDX 5 1 7 2 9 3 10 4 8 6 3 8 2 9 1 10 4 12 6 14
REMARK H PARENT 10 5 8 7 1 11 4 13 6 15
REMARK Flexibility Score: inf
ROOT
ATOM      1  C   UNL     1      28.061   3.326  12.491  1.00  0.00     0.176 C 
ENDROOT
BRANCH   1   2
ATOM      2  C   UNL     1      29.073   2.188  12.807  1.00  0.00     0.171 C 
BRANCH   2   3
ATOM      3  C   UNL     1      30.295   2.667  13.607  1.00  0.00     0.190 C 
BRANCH   3   4
ATOM      4  O   UNL     1      29.953   2.912  14.944  1.00  0.00    -0.394 OA
ATOM      5  H   UNL     1      29.480   3.784  14.953  1.00  0.00     0.210 HD
ENDBRANCH   3   4
ENDBRANCH   2   3
BRANCH   2   6
ATOM      6  O   UNL     1      28.453   1.125  13.488  1.00  0.00    -0.388 OA
ATOM      7  H   UNL     1      28.461   0.340  12.878  1.00  0.00     0.211 HD
ENDBRANCH   2   6
ENDBRANCH   1   2
BRANCH   1   8
ATOM      8  C   UNL     1      27.454   3.279  11.063  1.00  0.00     0.171 C 
BRANCH   8   9
ATOM      9  C   UNL     1      28.146   2.204  10.205  1.00  0.00     0.190 C 
BRANCH   9  10
ATOM     10  O   UNL     1      29.073   2.792   9.333  1.00  0.00    -0.394 OA
ATOM     11  H   UNL     1      29.914   2.269   9.416  1.00  0.00     0.210 HD
ENDBRANCH   9  10
ENDBRANCH   8   9
BRANCH   8  12
ATOM     12  O   UNL     1      26.075   3.015  11.128  1.00  0.00    -0.388 OA
ATOM     13  H   UNL     1      25.685   3.294  10.259  1.00  0.00     0.211 HD
ENDBRANCH   8  12
ENDBRANCH   1   8
BRANCH   1  14
ATOM     14  O   UNL     1      28.647   4.579  12.756  1.00  0.00    -0.388 OA
ATOM     15  H   UNL     1      29.614   4.514  12.548  1.00  0.00     0.211 HD
ENDBRANCH   1  14
TORSDOF 9
ENDMDL
MODEL 7
REMARK VINA RESULT:    -4.843     12.874     15.030
REMARK INTER + INTRA:          -7.187
REMARK INTER:                  -6.446
REMARK INTRA:                  -0.741
REMARK UNBOUND:                -0.504
REMARK SMILES OC[C@@H](O)C(O)[C@H](O)CO
REMARK SMILES IDX 5 1 7 2 9 3 10 4 8 6 3 8 2 9 1 10 4 12 6 14
REMARK H PARENT 10 5 8 7 1 11 4 13 6 15
REMARK Flexibility Score: inf
ROOT
ATOM      1  C   UNL     1      21.193  -9.307  14.860  1.00  0.00     0.176 C 
ENDROOT
BRANCH   1   2
ATOM      2  C   UNL     1      22.555  -8.605  14.592  1.00  0.00     0.171 C 
BRANCH   2   3
ATOM      3  C   UNL     1      22.406  -7.136  14.161  1.00  0.00     0.190 C 
BRANCH   3   4
ATOM      4  O   UNL     1      21.802  -7.044  12.900  1.00  0.00    -0.394 OA
ATOM      5  H   UNL     1      22.373  -7.570  12.281  1.00  0.00     0.210 HD
ENDBRANCH   3   4
ENDBRANCH   2   3
BRANCH   2   6
ATOM      6  O   UNL     1      23.401  -8.682  15.713  1.00  0.00    -0.388 OA
ATOM      7  H   UNL     1      23.784  -9.599  15.730  1.00  0.00     0.211 HD
ENDBRANCH   2   6
ENDBRANCH   1   2
BRANCH   1   8
ATOM      8  C   UNL     1      20.737 -10.288  13.745  1.00  0.00     0.171 C 
BRANCH   8   9
ATOM      9  C   UNL     1      19.441 -11.015  14.148  1.00  0.00     0.190 C 
BRANCH   9  10
ATOM     10  O   UNL     1      19.317 -11.065  15.543  1.00  0.00    -0.394 OA
ATOM     11  H   UNL     1      18.371 -10.847  15.754  1.00  0.00     0.210 HD
ENDBRANCH   9  10
ENDBRANCH   8   9
BRANCH   8  12
ATOM     12  O   UNL     1      20.535  -9.595  12.539  1.00  0.00    -0.388 OA
ATOM     13  H   UNL     1      20.109  -8.729  12.770  1.00  0.00     0.211 HD
ENDBRANCH   8  12
ENDBRANCH   1   8
BRANCH   1  14
ATOM     14  O   UNL     1      20.200  -8.347  15.133  1.00  0.00    -0.388 OA
ATOM     15  H   UNL     1      19.373  -8.829  15.391  1.00  0.00     0.211 HD
ENDBRANCH   1  14
TORSDOF 9
ENDMDL
MODEL 8
REMARK VINA RESULT:    -4.779     12.894     14.554
REMARK INTER + INTRA:          -7.098
REMARK INTER:                  -6.652
REMARK INTRA:                  -0.446
REMARK UNBOUND:                -0.504
REMARK SMILES OC[C@@H](O)C(O)[C@H](O)CO
REMARK SMILES IDX 5 1 7 2 9 3 10 4 8 6 3 8 2 9 1 10 4 12 6 14
REMARK H PARENT 10 5 8 7 1 11 4 13 6 15
REMARK Flexibility Score: inf
ROOT
ATOM      1  C   UNL     1      21.472  -9.072  13.907  1.00  0.00     0.176 C 
ENDROOT
BRANCH   1   2
ATOM      2  C   UNL     1      20.134  -9.863  13.967  1.00  0.00     0.171 C 
BRANCH   2   3
ATOM      3  C   UNL     1      20.134 -11.124  13.088  1.00  0.00     0.190 C 
BRANCH   3   4
ATOM      4  O   UNL     1      20.365 -10.798  11.745  1.00  0.00    -0.394 OA
ATOM      5  H   UNL     1      19.529 -11.020  11.258  1.00  0.00     0.210 HD
ENDBRANCH   3   4
ENDBRANCH   2   3
BRANCH   2   6
ATOM      6  O   UNL     1      19.802 -10.211  15.288  1.00  0.00    -0.388 OA
ATOM      7  H   UNL     1      19.061  -9.614  15.573  1.00  0.00     0.211 HD
ENDBRANCH   2   6
ENDBRANCH   1   2
BRANCH   1   8
ATOM      8  C   UNL     1      21.905  -8.423  15.249  1.00  0.00     0.171 C 
BRANCH   8   9
ATOM      9  C   UNL     1      23.346  -7.890  15.164  1.00  0.00     0.190 C 
BRANCH   9  10
ATOM     10  O   UNL     1      24.201  -8.648  15.976  1.00  0.00    -0.394 OA
ATOM     11  H   UNL     1      23.621  -9.185  16.577  1.00  0.00     0.210 HD
ENDBRANCH   9  10
ENDBRANCH   8   9
BRANCH   8  12
ATOM     12  O   UNL     1      21.032  -7.374  15.587  1.00  0.00    -0.388 OA
ATOM     13  H   UNL     1      20.976  -6.777  14.796  1.00  0.00     0.211 HD
ENDBRANCH   8  12
ENDBRANCH   1   8
BRANCH   1  14
ATOM     14  O   UNL     1      21.424  -8.120  12.871  1.00  0.00    -0.388 OA
ATOM     15  H   UNL     1      21.890  -8.502  12.084  1.00  0.00     0.211 HD
ENDBRANCH   1  14
TORSDOF 9
ENDMDL
MODEL 9
REMARK VINA RESULT:    -4.751      1.375      4.068
REMARK INTER + INTRA:          -7.060
REMARK INTER:                  -6.581
REMARK INTRA:                  -0.478
REMARK UNBOUND:                -0.504
REMARK SMILES OC[C@@H](O)C(O)[C@H](O)CO
REMARK SMILES IDX 5 1 7 2 9 3 10 4 8 6 3 8 2 9 1 10 4 12 6 14
REMARK H PARENT 10 5 8 7 1 11 4 13 6 15
REMARK Flexibility Score: inf
ROOT
ATOM      1  C   UNL     1      28.216   3.328  12.490  1.00  0.00     0.176 C 
ENDROOT
BRANCH   1   2
ATOM      2  C   UNL     1      29.429   2.477  12.961  1.00  0.00     0.171 C 
BRANCH   2   3
ATOM      3  C   UNL     1      30.178   3.094  14.154  1.00  0.00     0.190 C 
BRANCH   3   4
ATOM      4  O   UNL     1      31.154   4.000  13.717  1.00  0.00    -0.394 OA
ATOM      5  H   UNL     1      31.610   3.566  12.950  1.00  0.00     0.210 HD
ENDBRANCH   3   4
ENDBRANCH   2   3
BRANCH   2   6
ATOM      6  O   UNL     1      29.043   1.162  13.278  1.00  0.00    -0.388 OA
ATOM      7  H   UNL     1      29.665   0.834  13.979  1.00  0.00     0.211 HD
ENDBRANCH   2   6
ENDBRANCH   1   2
BRANCH   1   8
ATOM      8  C   UNL     1      27.600   2.888  11.134  1.00  0.00     0.171 C 
BRANCH   8   9
ATOM      9  C   UNL     1      26.371   3.747  10.784  1.00  0.00     0.190 C 
BRANCH   9  10
ATOM     10  O   UNL     1      25.911   4.434  11.915  1.00  0.00    -0.394 OA
ATOM     11  H   UNL     1      24.924   4.321  11.936  1.00  0.00     0.210 HD
ENDBRANCH   9  10
ENDBRANCH   8   9
BRANCH   8  12
ATOM     12  O   UNL     1      28.555   2.991  10.109  1.00  0.00    -0.388 OA
ATOM     13  H   UNL     1      28.199   3.634   9.443  1.00  0.00     0.211 HD
ENDBRANCH   8  12
ENDBRANCH   1   8
BRANCH   1  14
ATOM     14  O   UNL     1      28.560   4.693  12.477  1.00  0.00    -0.388 OA
ATOM     15  H   UNL     1      28.735   4.953  11.536  1.00  0.00     0.211 HD
ENDBRANCH   1  14
TORSDOF 9
ENDMDL
