MODEL 1
REMARK VINA RESULT:    -4.746      0.000      0.000
REMARK INTER + INTRA:          -4.884
REMARK INTER:                  -4.884
REMARK INTRA:                   0.000
REMARK UNBOUND:                 0.000
REMARK SMILES Nc1ncnc2nc[nH]c12
REMARK SMILES IDX 8 1 7 2 6 3 5 4 4 5 3 6 2 7 10 8 9 9 1 11
REMARK H PARENT 9 10 1 12 1 13
REMARK Flexibility Score: inf
ROOT
ATOM      1  C   UNL     1      32.617   3.234  58.951  1.00  0.00     0.199 A 
ATOM      2  N   UNL     1      32.949   4.300  58.170  1.00  0.00    -0.217 NA
ATOM      3  C   UNL     1      32.554   3.894  56.952  1.00  0.00     0.182 A 
ATOM      4  N   UNL     1      32.655   4.592  55.796  1.00  0.00    -0.215 NA
ATOM      5  C   UNL     1      32.195   4.010  54.648  1.00  0.00     0.226 A 
ATOM      6  N   UNL     1      31.644   2.753  54.676  1.00  0.00    -0.217 NA
ATOM      7  C   UNL     1      31.540   2.048  55.843  1.00  0.00     0.152 A 
ATOM      8  C   UNL     1      32.015   2.655  57.002  1.00  0.00     0.127 A 
ATOM      9  N   UNL     1      32.045   2.212  58.266  1.00  0.00    -0.340 N 
ATOM     10  H   UNL     1      31.710   1.301  58.647  1.00  0.00     0.168 HD
ENDROOT
BRANCH   7  11
ATOM     11  N   UNL     1      30.965   0.741  55.848  1.00  0.00    -0.382 N 
ATOM     12  H   UNL     1      30.414   0.393  56.664  1.00  0.00     0.158 HD
ATOM     13  H   UNL     1      31.090   0.111  55.025  1.00  0.00     0.158 HD
ENDBRANCH   7  11
TORSDOF 1
ENDMDL
MODEL 2
REMARK VINA RESULT:    -4.706      1.308      3.392
REMARK INTER + INTRA:          -4.844
REMARK INTER:                  -4.844
REMARK INTRA:                   0.000
REMARK UNBOUND:                 0.000
REMARK SMILES Nc1ncnc2nc[nH]c12
REMARK SMILES IDX 8 1 7 2 6 3 5 4 4 5 3 6 2 7 10 8 9 9 1 11
REMARK H PARENT 9 10 1 12 1 13
REMARK Flexibility Score: inf
ROOT
ATOM      1  C   UNL     1      31.354   3.416  52.568  1.00  0.00     0.199 A 
ATOM      2  N   UNL     1      31.983   4.426  53.231  1.00  0.00    -0.217 NA
ATOM      3  C   UNL     1      32.065   3.939  54.480  1.00  0.00     0.182 A 
ATOM      4  N   UNL     1      32.615   4.556  55.553  1.00  0.00    -0.215 NA
ATOM      5  C   UNL     1      32.606   3.897  56.751  1.00  0.00     0.226 A 
ATOM      6  N   UNL     1      32.053   2.646  56.854  1.00  0.00    -0.217 NA
ATOM      7  C   UNL     1      31.498   2.021  55.772  1.00  0.00     0.152 A 
ATOM      8  C   UNL     1      31.516   2.705  54.559  1.00  0.00     0.127 A 
ATOM      9  N   UNL     1      31.055   2.351  53.353  1.00  0.00    -0.340 N 
ATOM     10  H   UNL     1      30.577   1.467  53.070  1.00  0.00     0.168 HD
ENDROOT
BRANCH   7  11
ATOM     11  N   UNL     1      30.929   0.719  55.902  1.00  0.00    -0.382 N 
ATOM     12  H   UNL     1      31.355  -0.111  55.433  1.00  0.00     0.158 HD
ATOM     13  H   UNL     1      30.068   0.579  56.476  1.00  0.00     0.158 HD
ENDBRANCH   7  11
TORSDOF 1
ENDMDL
MODEL 3
REMARK VINA RESULT:    -4.386      5.375      7.227
REMARK INTER + INTRA:          -4.514
REMARK INTER:                  -4.514
REMARK INTRA:                   0.000
REMARK UNBOUND:                 0.000
REMARK SMILES Nc1ncnc2nc[nH]c12
REMARK SMILES IDX 8 1 7 2 6 3 5 4 4 5 3 6 2 7 10 8 9 9 1 11
REMARK H PARENT 9 10 1 12 1 13
REMARK Flexibility Score: inf
ROOT
ATOM      1  C   UNL     1      37.711   8.140  53.780  1.00  0.00     0.199 A 
ATOM      2  N   UNL     1      36.985   6.990  53.703  1.00  0.00    -0.217 NA
ATOM      3  C   UNL     1      35.863   7.318  54.366  1.00  0.00     0.182 A 
ATOM      4  N   UNL     1      34.791   6.519  54.585  1.00  0.00    -0.215 NA
ATOM      5  C   UNL     1      33.735   7.032  55.285  1.00  0.00     0.226 A 
ATOM      6  N   UNL     1      33.769   8.323  55.748  1.00  0.00    -0.217 NA
ATOM      7  C   UNL     1      34.849   9.132  55.527  1.00  0.00     0.152 A 
ATOM      8  C   UNL     1      35.916   8.593  54.813  1.00  0.00     0.127 A 
ATOM      9  N   UNL     1      37.085   9.138  54.452  1.00  0.00    -0.340 N 
ATOM     10  H   UNL     1      37.441  10.101  54.638  1.00  0.00     0.168 HD
ENDROOT
BRANCH   7  11
ATOM     11  N   UNL     1      34.861  10.472  56.019  1.00  0.00    -0.382 N 
ATOM     12  H   UNL     1      35.749  10.934  56.315  1.00  0.00     0.158 HD
ATOM     13  H   UNL     1      33.970  11.011  56.090  1.00  0.00     0.158 HD
ENDBRANCH   7  11
TORSDOF 1
ENDMDL
MODEL 4
REMARK VINA RESULT:    -4.379      5.469      6.965
REMARK INTER + INTRA:          -4.507
REMARK INTER:                  -4.507
REMARK INTRA:                   0.000
REMARK UNBOUND:                 0.000
REMARK SMILES Nc1ncnc2nc[nH]c12
REMARK SMILES IDX 8 1 7 2 6 3 5 4 4 5 3 6 2 7 10 8 9 9 1 11
REMARK H PARENT 9 10 1 12 1 13
REMARK Flexibility Score: inf
ROOT
ATOM      1  C   UNL     1      31.353  10.851  58.145  1.00  0.00     0.199 A 
ATOM      2  N   UNL     1      31.038   9.533  58.274  1.00  0.00    -0.217 NA
ATOM      3  C   UNL     1      32.057   8.934  57.635  1.00  0.00     0.182 A 
ATOM      4  N   UNL     1      32.235   7.601  57.470  1.00  0.00    -0.215 NA
ATOM      5  C   UNL     1      33.340   7.177  56.786  1.00  0.00     0.226 A 
ATOM      6  N   UNL     1      34.240   8.084  56.286  1.00  0.00    -0.217 NA
ATOM      7  C   UNL     1      34.063   9.429  56.453  1.00  0.00     0.152 A 
ATOM      8  C   UNL     1      32.932   9.844  57.151  1.00  0.00     0.127 A 
ATOM      9  N   UNL     1      32.504  11.075  57.462  1.00  0.00    -0.340 N 
ATOM     10  H   UNL     1      32.943  11.995  57.240  1.00  0.00     0.168 HD
ENDROOT
BRANCH   7  11
ATOM     11  N   UNL     1      35.012  10.354  55.923  1.00  0.00    -0.382 N 
ATOM     12  H   UNL     1      34.986  11.367  56.179  1.00  0.00     0.158 HD
ATOM     13  H   UNL     1      35.753  10.025  55.265  1.00  0.00     0.158 HD
ENDBRANCH   7  11
TORSDOF 1
ENDMDL
MODEL 5
REMARK VINA RESULT:    -4.179      1.081      3.079
REMARK INTER + INTRA:          -4.302
REMARK INTER:                  -4.302
REMARK INTRA:                   0.000
REMARK UNBOUND:                 0.000
REMARK SMILES Nc1ncnc2nc[nH]c12
REMARK SMILES IDX 8 1 7 2 6 3 5 4 4 5 3 6 2 7 10 8 9 9 1 11
REMARK H PARENT 9 10 1 12 1 13
REMARK Flexibility Score: inf
ROOT
ATOM      1  C   UNL     1      31.494   1.939  55.451  1.00  0.00     0.199 A 
ATOM      2  N   UNL     1      32.329   2.970  55.145  1.00  0.00    -0.217 NA
ATOM      3  C   UNL     1      32.623   3.467  56.358  1.00  0.00     0.182 A 
ATOM      4  N   UNL     1      33.432   4.521  56.625  1.00  0.00    -0.215 NA
ATOM      5  C   UNL     1      33.611   4.882  57.931  1.00  0.00     0.226 A 
ATOM      6  N   UNL     1      32.986   4.189  58.937  1.00  0.00    -0.217 NA
ATOM      7  C   UNL     1      32.170   3.126  58.670  1.00  0.00     0.152 A 
ATOM      8  C   UNL     1      31.998   2.771  57.335  1.00  0.00     0.127 A 
ATOM      9  N   UNL     1      31.271   1.791  56.781  1.00  0.00    -0.340 N 
ATOM     10  H   UNL     1      30.672   1.078  57.250  1.00  0.00     0.168 HD
ENDROOT
BRANCH   7  11
ATOM     11  N   UNL     1      31.530   2.420  59.733  1.00  0.00    -0.382 N 
ATOM     12  H   UNL     1      31.503   2.806  60.703  1.00  0.00     0.158 HD
ATOM     13  H   UNL     1      31.075   1.499  59.550  1.00  0.00     0.158 HD
ENDBRANCH   7  11
TORSDOF 1
ENDMDL
MODEL 6
REMARK VINA RESULT:    -4.166      1.827      2.859
REMARK INTER + INTRA:          -4.288
REMARK INTER:                  -4.288
REMARK INTRA:                   0.000
REMARK UNBOUND:                 0.000
REMARK SMILES Nc1ncnc2nc[nH]c12
REMARK SMILES IDX 8 1 7 2 6 3 5 4 4 5 3 6 2 7 10 8 9 9 1 11
REMARK H PARENT 9 10 1 12 1 13
REMARK Flexibility Score: inf
ROOT
ATOM      1  C   UNL     1      31.366   1.996  56.167  1.00  0.00     0.199 A 
ATOM      2  N   UNL     1      31.562   3.327  56.371  1.00  0.00    -0.217 NA
ATOM      3  C   UNL     1      31.729   3.785  55.119  1.00  0.00     0.182 A 
ATOM      4  N   UNL     1      31.959   5.069  54.752  1.00  0.00    -0.215 NA
ATOM      5  C   UNL     1      32.102   5.344  53.421  1.00  0.00     0.226 A 
ATOM      6  N   UNL     1      32.012   4.341  52.489  1.00  0.00    -0.217 NA
ATOM      7  C   UNL     1      31.779   3.045  52.857  1.00  0.00     0.152 A 
ATOM      8  C   UNL     1      31.636   2.782  54.217  1.00  0.00     0.127 A 
ATOM      9  N   UNL     1      31.405   1.631  54.861  1.00  0.00    -0.340 N 
ATOM     10  H   UNL     1      31.283   0.674  54.464  1.00  0.00     0.168 HD
ENDROOT
BRANCH   7  11
ATOM     11  N   UNL     1      31.689   2.018  51.870  1.00  0.00    -0.382 N 
ATOM     12  H   UNL     1      32.183   1.105  51.988  1.00  0.00     0.158 HD
ATOM     13  H   UNL     1      31.122   2.170  51.006  1.00  0.00     0.158 HD
ENDBRANCH   7  11
TORSDOF 1
ENDMDL
MODEL 7
REMARK VINA RESULT:    -4.045      5.634      7.009
REMARK INTER + INTRA:          -4.164
REMARK INTER:                  -4.164
REMARK INTRA:                   0.000
REMARK UNBOUND:                 0.000
REMARK SMILES Nc1ncnc2nc[nH]c12
REMARK SMILES IDX 8 1 7 2 6 3 5 4 4 5 3 6 2 7 10 8 9 9 1 11
REMARK H PARENT 9 10 1 12 1 13
REMARK Flexibility Score: inf
ROOT
ATOM      1  C   UNL     1      33.820   9.611  56.260  1.00  0.00     0.199 A 
ATOM      2  N   UNL     1      33.301   8.475  55.719  1.00  0.00    -0.217 NA
ATOM      3  C   UNL     1      34.329   8.013  54.988  1.00  0.00     0.182 A 
ATOM      4  N   UNL     1      34.344   6.887  54.235  1.00  0.00    -0.215 NA
ATOM      5  C   UNL     1      35.490   6.578  53.557  1.00  0.00     0.226 A 
ATOM      6  N   UNL     1      36.591   7.392  53.645  1.00  0.00    -0.217 NA
ATOM      7  C   UNL     1      36.579   8.528  54.405  1.00  0.00     0.152 A 
ATOM      8  C   UNL     1      35.404   8.828  55.088  1.00  0.00     0.127 A 
ATOM      9  N   UNL     1      35.103   9.855  55.894  1.00  0.00    -0.340 N 
ATOM     10  H   UNL     1      35.704  10.658  56.180  1.00  0.00     0.168 HD
ENDROOT
BRANCH   7  11
ATOM     11  N   UNL     1      37.737   9.360  54.480  1.00  0.00    -0.382 N 
ATOM     12  H   UNL     1      38.349   9.517  53.649  1.00  0.00     0.158 HD
ATOM     13  H   UNL     1      37.988   9.826  55.380  1.00  0.00     0.158 HD
ENDBRANCH   7  11
TORSDOF 1
ENDMDL
MODEL 8
REMARK VINA RESULT:    -3.991      9.482     11.131
REMARK INTER + INTRA:          -4.107
REMARK INTER:                  -4.107
REMARK INTRA:                   0.000
REMARK UNBOUND:                 0.000
REMARK SMILES Nc1ncnc2nc[nH]c12
REMARK SMILES IDX 8 1 7 2 6 3 5 4 4 5 3 6 2 7 10 8 9 9 1 11
REMARK H PARENT 9 10 1 12 1 13
REMARK Flexibility Score: inf
ROOT
ATOM      1  C   UNL     1      39.238  12.055  51.711  1.00  0.00     0.199 A 
ATOM      2  N   UNL     1      38.878  10.953  50.996  1.00  0.00    -0.217 NA
ATOM      3  C   UNL     1      39.019   9.969  51.900  1.00  0.00     0.182 A 
ATOM      4  N   UNL     1      38.783   8.650  51.702  1.00  0.00    -0.215 NA
ATOM      5  C   UNL     1      38.984   7.794  52.749  1.00  0.00     0.226 A 
ATOM      6  N   UNL     1      39.411   8.268  53.963  1.00  0.00    -0.217 NA
ATOM      7  C   UNL     1      39.649   9.599  54.166  1.00  0.00     0.152 A 
ATOM      8  C   UNL     1      39.439  10.457  53.089  1.00  0.00     0.127 A 
ATOM      9  N   UNL     1      39.587  11.785  52.994  1.00  0.00    -0.340 N 
ATOM     10  H   UNL     1      39.897  12.462  53.725  1.00  0.00     0.168 HD
ENDROOT
BRANCH   7  11
ATOM     11  N   UNL     1      40.093  10.068  55.438  1.00  0.00    -0.382 N 
ATOM     12  H   UNL     1      41.012   9.773  55.837  1.00  0.00     0.158 HD
ATOM     13  H   UNL     1      39.496  10.721  55.993  1.00  0.00     0.158 HD
ENDBRANCH   7  11
TORSDOF 1
ENDMDL
MODEL 9
REMARK VINA RESULT:    -3.922      2.117      3.055
REMARK INTER + INTRA:          -4.037
REMARK INTER:                  -4.037
REMARK INTRA:                   0.000
REMARK UNBOUND:                 0.000
REMARK SMILES Nc1ncnc2nc[nH]c12
REMARK SMILES IDX 8 1 7 2 6 3 5 4 4 5 3 6 2 7 10 8 9 9 1 11
REMARK H PARENT 9 10 1 12 1 13
REMARK Flexibility Score: inf
ROOT
ATOM      1  C   UNL     1      29.931   3.580  60.813  1.00  0.00     0.199 A 
ATOM      2  N   UNL     1      30.666   4.725  60.852  1.00  0.00    -0.217 NA
ATOM      3  C   UNL     1      31.444   4.601  59.764  1.00  0.00     0.182 A 
ATOM      4  N   UNL     1      32.376   5.485  59.332  1.00  0.00    -0.215 NA
ATOM      5  C   UNL     1      33.074   5.183  58.196  1.00  0.00     0.226 A 
ATOM      6  N   UNL     1      32.829   4.015  57.518  1.00  0.00    -0.217 NA
ATOM      7  C   UNL     1      31.890   3.123  57.952  1.00  0.00     0.152 A 
ATOM      8  C   UNL     1      31.188   3.445  59.110  1.00  0.00     0.127 A 
ATOM      9  N   UNL     1      30.227   2.776  59.761  1.00  0.00    -0.340 N 
ATOM     10  H   UNL     1      29.798   1.855  59.524  1.00  0.00     0.168 HD
ENDROOT
BRANCH   7  11
ATOM     11  N   UNL     1      31.653   1.914  57.231  1.00  0.00    -0.382 N 
ATOM     12  H   UNL     1      31.414   1.925  56.214  1.00  0.00     0.158 HD
ATOM     13  H   UNL     1      31.717   0.993  57.718  1.00  0.00     0.158 HD
ENDBRANCH   7  11
TORSDOF 1
ENDMDL
