MODEL 1
REMARK VINA RESULT:    -4.422      0.000      0.000
REMARK INTER + INTRA:         -14.142
REMARK INTER:                 -10.109
REMARK INTRA:                  -4.033
REMARK UNBOUND:                -4.033
REMARK SMILES CCCCCCCCCCCCCCCCCCCCCCCC(=O)[O-]
REMARK SMILES IDX 13 1 14 2 15 3 16 4 17 5 18 6 19 7 20 8 21 9 22 10 23 11
REMARK SMILES IDX 24 12 25 13 26 14 12 15 11 16 10 17 9 18 8 19 7 20 6 21 5 22
REMARK SMILES IDX 4 23 3 24 2 25 1 26
REMARK H PARENT
REMARK Flexibility Score: inf
ROOT
ATOM      1  C   UNL     1     -49.203  13.663 -30.517  1.00  0.00     0.000 C 
ENDROOT
BRANCH   1   2
ATOM      2  C   UNL     1     -50.251  14.515 -31.257  1.00  0.00     0.000 C 
BRANCH   2   3
ATOM      3  C   UNL     1     -51.464  14.959 -30.416  1.00  0.00     0.000 C 
BRANCH   3   4
ATOM      4  C   UNL     1     -52.800  14.417 -30.949  1.00  0.00     0.000 C 
BRANCH   4   5
ATOM      5  C   UNL     1     -53.873  14.295 -29.853  1.00  0.00     0.000 C 
BRANCH   5   6
ATOM      6  C   UNL     1     -53.309  14.388 -28.420  1.00  0.00     0.000 C 
BRANCH   6   7
ATOM      7  C   UNL     1     -53.937  15.547 -27.624  1.00  0.00     0.000 C 
BRANCH   7   8
ATOM      8  C   UNL     1     -53.140  16.854 -27.752  1.00  0.00     0.000 C 
BRANCH   8   9
ATOM      9  C   UNL     1     -54.040  18.102 -27.729  1.00  0.00     0.000 C 
BRANCH   9  10
ATOM     10  C   UNL     1     -53.996  18.890 -29.051  1.00  0.00     0.006 C 
BRANCH  10  11
ATOM     11  C   UNL     1     -53.452  18.089 -30.245  1.00  0.00     0.053 C 
BRANCH  11  12
ATOM     12  C   UNL     1     -52.250  18.740 -30.857  1.00  0.00     0.041 C 
ATOM     13  O   UNL     1     -51.093  18.367 -30.530  1.00  0.00    -0.550 OA
ATOM     14  O   UNL     1     -52.407  19.735 -31.813  1.00  0.00    -0.550 OA
ENDBRANCH  11  12
ENDBRANCH  10  11
ENDBRANCH   9  10
ENDBRANCH   8   9
ENDBRANCH   7   8
ENDBRANCH   6   7
ENDBRANCH   5   6
ENDBRANCH   4   5
ENDBRANCH   3   4
ENDBRANCH   2   3
ENDBRANCH   1   2
BRANCH   1  15
ATOM     15  C   UNL     1     -49.775  12.932 -29.290  1.00  0.00     0.000 C 
BRANCH  15  16
ATOM     16  C   UNL     1     -50.123  11.461 -29.579  1.00  0.00     0.000 C 
BRANCH  16  17
ATOM     17  C   UNL     1     -51.584  11.065 -29.296  1.00  0.00     0.000 C 
BRANCH  17  18
ATOM     18  C   UNL     1     -52.415  10.882 -30.574  1.00  0.00    -0.000 C 
BRANCH  18  19
ATOM     19  C   UNL     1     -51.528  10.970 -31.824  1.00  0.00    -0.000 C 
BRANCH  19  20
ATOM     20  C   UNL     1     -51.585   9.698 -32.689  1.00  0.00    -0.000 C 
BRANCH  20  21
ATOM     21  C   UNL     1     -51.982   8.412 -31.937  1.00  0.00    -0.000 C 
BRANCH  21  22
ATOM     22  C   UNL     1     -50.819   7.455 -31.620  1.00  0.00    -0.000 C 
BRANCH  22  23
ATOM     23  C   UNL     1     -50.322   7.579 -30.171  1.00  0.00    -0.000 C 
BRANCH  23  24
ATOM     24  C   UNL     1     -48.794   7.733 -30.129  1.00  0.00    -0.000 C 
BRANCH  24  25
ATOM     25  C   UNL     1     -48.269   8.696 -31.206  1.00  0.00    -0.003 C 
ATOM     26  C   UNL     1     -47.255   8.038 -32.142  1.00  0.00     0.004 C 
ENDBRANCH  24  25
ENDBRANCH  23  24
ENDBRANCH  22  23
ENDBRANCH  21  22
ENDBRANCH  20  21
ENDBRANCH  19  20
ENDBRANCH  18  19
ENDBRANCH  17  18
ENDBRANCH  16  17
ENDBRANCH  15  16
ENDBRANCH   1  15
TORSDOF 22
ENDMDL
MODEL 2
REMARK VINA RESULT:    -4.394      1.627      3.899
REMARK INTER + INTRA:         -14.079
REMARK INTER:                 -10.310
REMARK INTRA:                  -3.769
REMARK UNBOUND:                -4.033
REMARK SMILES CCCCCCCCCCCCCCCCCCCCCCCC(=O)[O-]
REMARK SMILES IDX 13 1 14 2 15 3 16 4 17 5 18 6 19 7 20 8 21 9 22 10 23 11
REMARK SMILES IDX 24 12 25 13 26 14 12 15 11 16 10 17 9 18 8 19 7 20 6 21 5 22
REMARK SMILES IDX 4 23 3 24 2 25 1 26
REMARK H PARENT
REMARK Flexibility Score: inf
ROOT
ATOM      1  C   UNL     1     -48.247  11.113 -28.982  1.00  0.00     0.000 C 
ENDROOT
BRANCH   1   2
ATOM      2  C   UNL     1     -49.690  11.637 -28.858  1.00  0.00     0.000 C 
BRANCH   2   3
ATOM      3  C   UNL     1     -49.986  12.955 -29.600  1.00  0.00     0.000 C 
BRANCH   3   4
ATOM      4  C   UNL     1     -50.267  12.755 -31.098  1.00  0.00     0.000 C 
BRANCH   4   5
ATOM      5  C   UNL     1     -51.762  12.871 -31.444  1.00  0.00     0.000 C 
BRANCH   5   6
ATOM      6  C   UNL     1     -52.660  11.900 -30.649  1.00  0.00     0.000 C 
BRANCH   6   7
ATOM      7  C   UNL     1     -54.045  12.504 -30.350  1.00  0.00     0.000 C 
BRANCH   7   8
ATOM      8  C   UNL     1     -53.976  13.998 -29.999  1.00  0.00     0.000 C 
BRANCH   8   9
ATOM      9  C   UNL     1     -53.613  14.245 -28.524  1.00  0.00     0.000 C 
BRANCH   9  10
ATOM     10  C   UNL     1     -52.626  15.412 -28.342  1.00  0.00     0.006 C 
BRANCH  10  11
ATOM     11  C   UNL     1     -52.159  16.054 -29.659  1.00  0.00     0.053 C 
BRANCH  11  12
ATOM     12  C   UNL     1     -52.346  17.539 -29.657  1.00  0.00     0.041 C 
ATOM     13  O   UNL     1     -52.325  18.181 -30.740  1.00  0.00    -0.550 OA
ATOM     14  O   UNL     1     -52.575  18.212 -28.463  1.00  0.00    -0.550 OA
ENDBRANCH  11  12
ENDBRANCH  10  11
ENDBRANCH   9  10
ENDBRANCH   8   9
ENDBRANCH   7   8
ENDBRANCH   6   7
ENDBRANCH   5   6
ENDBRANCH   4   5
ENDBRANCH   3   4
ENDBRANCH   2   3
ENDBRANCH   1   2
BRANCH   1  15
ATOM     15  C   UNL     1     -48.164   9.716 -29.622  1.00  0.00     0.000 C 
BRANCH  15  16
ATOM     16  C   UNL     1     -46.715   9.256 -29.866  1.00  0.00     0.000 C 
BRANCH  16  17
ATOM     17  C   UNL     1     -46.458   7.754 -29.647  1.00  0.00     0.000 C 
BRANCH  17  18
ATOM     18  C   UNL     1     -47.715   6.895 -29.848  1.00  0.00    -0.000 C 
BRANCH  18  19
ATOM     19  C   UNL     1     -47.510   5.875 -30.977  1.00  0.00    -0.000 C 
BRANCH  19  20
ATOM     20  C   UNL     1     -47.363   6.535 -32.360  1.00  0.00    -0.000 C 
BRANCH  20  21
ATOM     21  C   UNL     1     -48.671   7.083 -32.966  1.00  0.00    -0.000 C 
BRANCH  21  22
ATOM     22  C   UNL     1     -48.630   8.565 -33.380  1.00  0.00    -0.000 C 
BRANCH  22  23
ATOM     23  C   UNL     1     -49.633   9.430 -32.601  1.00  0.00    -0.000 C 
BRANCH  23  24
ATOM     24  C   UNL     1     -50.937   8.660 -32.345  1.00  0.00    -0.000 C 
BRANCH  24  25
ATOM     25  C   UNL     1     -51.281   8.566 -30.850  1.00  0.00    -0.003 C 
ATOM     26  C   UNL     1     -51.370   7.122 -30.354  1.00  0.00     0.004 C 
ENDBRANCH  24  25
ENDBRANCH  23  24
ENDBRANCH  22  23
ENDBRANCH  21  22
ENDBRANCH  20  21
ENDBRANCH  19  20
ENDBRANCH  18  19
ENDBRANCH  17  18
ENDBRANCH  16  17
ENDBRANCH  15  16
ENDBRANCH   1  15
TORSDOF 22
ENDMDL
MODEL 3
REMARK VINA RESULT:    -4.369      3.564      7.887
REMARK INTER + INTRA:         -14.021
REMARK INTER:                 -10.570
REMARK INTRA:                  -3.451
REMARK UNBOUND:                -4.033
REMARK SMILES CCCCCCCCCCCCCCCCCCCCCCCC(=O)[O-]
REMARK SMILES IDX 13 1 14 2 15 3 16 4 17 5 18 6 19 7 20 8 21 9 22 10 23 11
REMARK SMILES IDX 24 12 25 13 26 14 12 15 11 16 10 17 9 18 8 19 7 20 6 21 5 22
REMARK SMILES IDX 4 23 3 24 2 25 1 26
REMARK H PARENT
REMARK Flexibility Score: inf
ROOT
ATOM      1  C   UNL     1     -53.126  14.875 -28.480  1.00  0.00     0.000 C 
ENDROOT
BRANCH   1   2
ATOM      2  C   UNL     1     -54.125  14.512 -29.595  1.00  0.00     0.000 C 
BRANCH   2   3
ATOM      3  C   UNL     1     -53.663  13.415 -30.573  1.00  0.00     0.000 C 
BRANCH   3   4
ATOM      4  C   UNL     1     -53.865  11.993 -30.025  1.00  0.00     0.000 C 
BRANCH   4   5
ATOM      5  C   UNL     1     -52.627  11.458 -29.285  1.00  0.00     0.000 C 
BRANCH   5   6
ATOM      6  C   UNL     1     -51.960  10.253 -29.981  1.00  0.00     0.000 C 
BRANCH   6   7
ATOM      7  C   UNL     1     -51.552  10.572 -31.431  1.00  0.00     0.000 C 
BRANCH   7   8
ATOM      8  C   UNL     1     -50.794   9.416 -32.100  1.00  0.00     0.000 C 
BRANCH   8   9
ATOM      9  C   UNL     1     -49.326   9.767 -32.405  1.00  0.00     0.000 C 
BRANCH   9  10
ATOM     10  C   UNL     1     -48.500   8.542 -32.839  1.00  0.00     0.006 C 
BRANCH  10  11
ATOM     11  C   UNL     1     -47.341   8.195 -31.891  1.00  0.00     0.053 C 
BRANCH  11  12
ATOM     12  C   UNL     1     -47.724   7.142 -30.898  1.00  0.00     0.041 C 
ATOM     13  O   UNL     1     -47.127   6.034 -30.889  1.00  0.00    -0.550 OA
ATOM     14  O   UNL     1     -48.717   7.395 -29.961  1.00  0.00    -0.550 OA
ENDBRANCH  11  12
ENDBRANCH  10  11
ENDBRANCH   9  10
ENDBRANCH   8   9
ENDBRANCH   7   8
ENDBRANCH   6   7
ENDBRANCH   5   6
ENDBRANCH   4   5
ENDBRANCH   3   4
ENDBRANCH   2   3
ENDBRANCH   1   2
BRANCH   1  15
ATOM     15  C   UNL     1     -53.562  16.093 -27.649  1.00  0.00     0.000 C 
BRANCH  15  16
ATOM     16  C   UNL     1     -52.859  17.394 -28.079  1.00  0.00     0.000 C 
BRANCH  16  17
ATOM     17  C   UNL     1     -53.623  18.241 -29.112  1.00  0.00     0.000 C 
BRANCH  17  18
ATOM     18  C   UNL     1     -53.216  17.932 -30.560  1.00  0.00    -0.000 C 
BRANCH  18  19
ATOM     19  C   UNL     1     -51.762  18.348 -30.824  1.00  0.00    -0.000 C 
BRANCH  19  20
ATOM     20  C   UNL     1     -50.781  17.163 -30.763  1.00  0.00    -0.000 C 
BRANCH  20  21
ATOM     21  C   UNL     1     -51.145  15.965 -31.662  1.00  0.00    -0.000 C 
BRANCH  21  22
ATOM     22  C   UNL     1     -50.149  14.791 -31.624  1.00  0.00    -0.000 C 
BRANCH  22  23
ATOM     23  C   UNL     1     -50.183  14.022 -30.294  1.00  0.00    -0.000 C 
BRANCH  23  24
ATOM     24  C   UNL     1     -49.099  12.935 -30.262  1.00  0.00    -0.000 C 
BRANCH  24  25
ATOM     25  C   UNL     1     -49.000  12.241 -28.895  1.00  0.00    -0.003 C 
ATOM     26  C   UNL     1     -48.409  10.834 -28.988  1.00  0.00     0.004 C 
ENDBRANCH  24  25
ENDBRANCH  23  24
ENDBRANCH  22  23
ENDBRANCH  21  22
ENDBRANCH  20  21
ENDBRANCH  19  20
ENDBRANCH  18  19
ENDBRANCH  17  18
ENDBRANCH  16  17
ENDBRANCH  15  16
ENDBRANCH   1  15
TORSDOF 22
ENDMDL
MODEL 4
REMARK VINA RESULT:    -4.309      2.867      8.460
REMARK INTER + INTRA:         -13.883
REMARK INTER:                 -10.654
REMARK INTRA:                  -3.229
REMARK UNBOUND:                -4.033
REMARK SMILES CCCCCCCCCCCCCCCCCCCCCCCC(=O)[O-]
REMARK SMILES IDX 13 1 14 2 15 3 16 4 17 5 18 6 19 7 20 8 21 9 22 10 23 11
REMARK SMILES IDX 24 12 25 13 26 14 12 15 11 16 10 17 9 18 8 19 7 20 6 21 5 22
REMARK SMILES IDX 4 23 3 24 2 25 1 26
REMARK H PARENT
REMARK Flexibility Score: inf
ROOT
ATOM      1  C   UNL     1     -49.612  12.913 -29.231  1.00  0.00     0.000 C 
ENDROOT
BRANCH   1   2
ATOM      2  C   UNL     1     -49.441  11.413 -28.926  1.00  0.00     0.000 C 
BRANCH   2   3
ATOM      3  C   UNL     1     -48.054  10.821 -29.242  1.00  0.00     0.000 C 
BRANCH   3   4
ATOM      4  C   UNL     1     -48.080   9.300 -29.458  1.00  0.00     0.000 C 
BRANCH   4   5
ATOM      5  C   UNL     1     -46.817   8.777 -30.164  1.00  0.00     0.000 C 
BRANCH   5   6
ATOM      6  C   UNL     1     -46.998   8.562 -31.681  1.00  0.00     0.000 C 
BRANCH   6   7
ATOM      7  C   UNL     1     -47.422   7.120 -32.016  1.00  0.00     0.000 C 
BRANCH   7   8
ATOM      8  C   UNL     1     -48.581   7.063 -33.024  1.00  0.00     0.000 C 
BRANCH   8   9
ATOM      9  C   UNL     1     -49.935   7.431 -32.392  1.00  0.00     0.000 C 
BRANCH   9  10
ATOM     10  C   UNL     1     -50.495   8.764 -32.923  1.00  0.00     0.006 C 
BRANCH  10  11
ATOM     11  C   UNL     1     -50.891   9.763 -31.824  1.00  0.00     0.053 C 
BRANCH  11  12
ATOM     12  C   UNL     1     -52.195   9.405 -31.182  1.00  0.00     0.041 C 
ATOM     13  O   UNL     1     -52.494   9.874 -30.053  1.00  0.00    -0.550 OA
ATOM     14  O   UNL     1     -53.095   8.580 -31.844  1.00  0.00    -0.550 OA
ENDBRANCH  11  12
ENDBRANCH  10  11
ENDBRANCH   9  10
ENDBRANCH   8   9
ENDBRANCH   7   8
ENDBRANCH   6   7
ENDBRANCH   5   6
ENDBRANCH   4   5
ENDBRANCH   3   4
ENDBRANCH   2   3
ENDBRANCH   1   2
BRANCH   1  15
ATOM     15  C   UNL     1     -49.551  13.235 -30.734  1.00  0.00     0.000 C 
BRANCH  15  16
ATOM     16  C   UNL     1     -50.190  14.592 -31.081  1.00  0.00     0.000 C 
BRANCH  16  17
ATOM     17  C   UNL     1     -51.545  14.512 -31.806  1.00  0.00     0.000 C 
BRANCH  17  18
ATOM     18  C   UNL     1     -52.273  13.180 -31.574  1.00  0.00    -0.000 C 
BRANCH  18  19
ATOM     19  C   UNL     1     -53.545  13.386 -30.740  1.00  0.00    -0.000 C 
BRANCH  19  20
ATOM     20  C   UNL     1     -53.280  13.347 -29.224  1.00  0.00    -0.000 C 
BRANCH  20  21
ATOM     21  C   UNL     1     -53.739  14.597 -28.447  1.00  0.00    -0.000 C 
BRANCH  21  22
ATOM     22  C   UNL     1     -52.636  15.634 -28.164  1.00  0.00    -0.000 C 
BRANCH  22  23
ATOM     23  C   UNL     1     -53.197  17.000 -27.741  1.00  0.00    -0.000 C 
BRANCH  23  24
ATOM     24  C   UNL     1     -53.053  18.026 -28.875  1.00  0.00    -0.000 C 
BRANCH  24  25
ATOM     25  C   UNL     1     -51.984  17.622 -29.903  1.00  0.00    -0.003 C 
ATOM     26  C   UNL     1     -51.731  18.707 -30.950  1.00  0.00     0.004 C 
ENDBRANCH  24  25
ENDBRANCH  23  24
ENDBRANCH  22  23
ENDBRANCH  21  22
ENDBRANCH  20  21
ENDBRANCH  19  20
ENDBRANCH  18  19
ENDBRANCH  17  18
ENDBRANCH  16  17
ENDBRANCH  15  16
ENDBRANCH   1  15
TORSDOF 22
ENDMDL
MODEL 5
REMARK VINA RESULT:    -4.308      3.535      8.248
REMARK INTER + INTRA:         -13.881
REMARK INTER:                 -10.153
REMARK INTRA:                  -3.728
REMARK UNBOUND:                -4.033
REMARK SMILES CCCCCCCCCCCCCCCCCCCCCCCC(=O)[O-]
REMARK SMILES IDX 13 1 14 2 15 3 16 4 17 5 18 6 19 7 20 8 21 9 22 10 23 11
REMARK SMILES IDX 24 12 25 13 26 14 12 15 11 16 10 17 9 18 8 19 7 20 6 21 5 22
REMARK SMILES IDX 4 23 3 24 2 25 1 26
REMARK H PARENT
REMARK Flexibility Score: inf
ROOT
ATOM      1  C   UNL     1     -52.492  11.457 -31.039  1.00  0.00     0.000 C 
ENDROOT
BRANCH   1   2
ATOM      2  C   UNL     1     -51.875  10.116 -31.478  1.00  0.00     0.000 C 
BRANCH   2   3
ATOM      3  C   UNL     1     -52.798   8.887 -31.359  1.00  0.00     0.000 C 
BRANCH   3   4
ATOM      4  C   UNL     1     -52.180   7.744 -30.538  1.00  0.00     0.000 C 
BRANCH   4   5
ATOM      5  C   UNL     1     -51.782   6.536 -31.404  1.00  0.00     0.000 C 
BRANCH   5   6
ATOM      6  C   UNL     1     -52.052   6.736 -32.910  1.00  0.00     0.000 C 
BRANCH   6   7
ATOM      7  C   UNL     1     -50.764   6.641 -33.748  1.00  0.00     0.000 C 
BRANCH   7   8
ATOM      8  C   UNL     1     -49.510   7.031 -32.951  1.00  0.00     0.000 C 
BRANCH   8   9
ATOM      9  C   UNL     1     -49.141   8.516 -33.115  1.00  0.00     0.000 C 
BRANCH   9  10
ATOM     10  C   UNL     1     -48.483   9.108 -31.855  1.00  0.00     0.006 C 
BRANCH  10  11
ATOM     11  C   UNL     1     -48.485   8.165 -30.641  1.00  0.00     0.053 C 
BRANCH  11  12
ATOM     12  C   UNL     1     -47.123   8.025 -30.036  1.00  0.00     0.041 C 
ATOM     13  O   UNL     1     -46.743   6.915 -29.581  1.00  0.00    -0.550 OA
ATOM     14  O   UNL     1     -46.260   9.113 -30.003  1.00  0.00    -0.550 OA
ENDBRANCH  11  12
ENDBRANCH  10  11
ENDBRANCH   9  10
ENDBRANCH   8   9
ENDBRANCH   7   8
ENDBRANCH   6   7
ENDBRANCH   5   6
ENDBRANCH   4   5
ENDBRANCH   3   4
ENDBRANCH   2   3
ENDBRANCH   1   2
BRANCH   1  15
ATOM     15  C   UNL     1     -52.926  11.469 -29.563  1.00  0.00     0.000 C 
BRANCH  15  16
ATOM     16  C   UNL     1     -54.065  12.467 -29.283  1.00  0.00     0.000 C 
BRANCH  16  17
ATOM     17  C   UNL     1     -53.829  13.414 -28.093  1.00  0.00     0.000 C 
BRANCH  17  18
ATOM     18  C   UNL     1     -53.907  14.898 -28.481  1.00  0.00    -0.000 C 
BRANCH  18  19
ATOM     19  C   UNL     1     -52.512  15.540 -28.484  1.00  0.00    -0.000 C 
BRANCH  19  20
ATOM     20  C   UNL     1     -52.142  16.160 -29.844  1.00  0.00    -0.000 C 
BRANCH  20  21
ATOM     21  C   UNL     1     -52.142  15.178 -31.033  1.00  0.00    -0.000 C 
BRANCH  21  22
ATOM     22  C   UNL     1     -50.859  15.181 -31.884  1.00  0.00    -0.000 C 
BRANCH  22  23
ATOM     23  C   UNL     1     -49.608  14.797 -31.079  1.00  0.00    -0.000 C 
BRANCH  23  24
ATOM     24  C   UNL     1     -49.568  13.284 -30.817  1.00  0.00    -0.000 C 
BRANCH  24  25
ATOM     25  C   UNL     1     -49.537  12.946 -29.318  1.00  0.00    -0.003 C 
ATOM     26  C   UNL     1     -48.835  11.620 -29.026  1.00  0.00     0.004 C 
ENDBRANCH  24  25
ENDBRANCH  23  24
ENDBRANCH  22  23
ENDBRANCH  21  22
ENDBRANCH  20  21
ENDBRANCH  19  20
ENDBRANCH  18  19
ENDBRANCH  17  18
ENDBRANCH  16  17
ENDBRANCH  15  16
ENDBRANCH   1  15
TORSDOF 22
ENDMDL
MODEL 6
REMARK VINA RESULT:    -4.192      3.805      8.664
REMARK INTER + INTRA:         -13.617
REMARK INTER:                 -10.195
REMARK INTRA:                  -3.422
REMARK UNBOUND:                -4.033
REMARK SMILES CCCCCCCCCCCCCCCCCCCCCCCC(=O)[O-]
REMARK SMILES IDX 13 1 14 2 15 3 16 4 17 5 18 6 19 7 20 8 21 9 22 10 23 11
REMARK SMILES IDX 24 12 25 13 26 14 12 15 11 16 10 17 9 18 8 19 7 20 6 21 5 22
REMARK SMILES IDX 4 23 3 24 2 25 1 26
REMARK H PARENT
REMARK Flexibility Score: inf
ROOT
ATOM      1  C   UNL     1     -50.103  13.634 -29.738  1.00  0.00     0.000 C 
ENDROOT
BRANCH   1   2
ATOM      2  C   UNL     1     -48.894  12.685 -29.836  1.00  0.00     0.000 C 
BRANCH   2   3
ATOM      3  C   UNL     1     -48.862  11.538 -28.807  1.00  0.00     0.000 C 
BRANCH   3   4
ATOM      4  C   UNL     1     -48.889  10.144 -29.455  1.00  0.00     0.000 C 
BRANCH   4   5
ATOM      5  C   UNL     1     -49.831  10.069 -30.669  1.00  0.00     0.000 C 
BRANCH   5   6
ATOM      6  C   UNL     1     -51.306   9.815 -30.295  1.00  0.00     0.000 C 
BRANCH   6   7
ATOM      7  C   UNL     1     -51.932   8.688 -31.136  1.00  0.00     0.000 C 
BRANCH   7   8
ATOM      8  C   UNL     1     -51.658   8.849 -32.639  1.00  0.00     0.000 C 
BRANCH   8   9
ATOM      9  C   UNL     1     -51.907   7.552 -33.430  1.00  0.00     0.000 C 
BRANCH   9  10
ATOM     10  C   UNL     1     -50.708   6.587 -33.381  1.00  0.00     0.006 C 
BRANCH  10  11
ATOM     11  C   UNL     1     -49.351   7.278 -33.173  1.00  0.00     0.053 C 
BRANCH  11  12
ATOM     12  C   UNL     1     -48.543   6.617 -32.099  1.00  0.00     0.041 C 
ATOM     13  O   UNL     1     -47.444   6.072 -32.380  1.00  0.00    -0.550 OA
ATOM     14  O   UNL     1     -48.988   6.630 -30.783  1.00  0.00    -0.550 OA
ENDBRANCH  11  12
ENDBRANCH  10  11
ENDBRANCH   9  10
ENDBRANCH   8   9
ENDBRANCH   7   8
ENDBRANCH   6   7
ENDBRANCH   5   6
ENDBRANCH   4   5
ENDBRANCH   3   4
ENDBRANCH   2   3
ENDBRANCH   1   2
BRANCH   1  15
ATOM     15  C   UNL     1     -50.303  14.491 -31.000  1.00  0.00     0.000 C 
BRANCH  15  16
ATOM     16  C   UNL     1     -51.751  14.457 -31.523  1.00  0.00     0.000 C 
BRANCH  16  17
ATOM     17  C   UNL     1     -52.421  13.072 -31.506  1.00  0.00     0.000 C 
BRANCH  17  18
ATOM     18  C   UNL     1     -53.750  13.057 -30.736  1.00  0.00    -0.000 C 
BRANCH  18  19
ATOM     19  C   UNL     1     -53.618  12.265 -29.428  1.00  0.00    -0.000 C 
BRANCH  19  20
ATOM     20  C   UNL     1     -53.608  13.167 -28.181  1.00  0.00    -0.000 C 
BRANCH  20  21
ATOM     21  C   UNL     1     -53.967  14.644 -28.439  1.00  0.00    -0.000 C 
BRANCH  21  22
ATOM     22  C   UNL     1     -52.881  15.661 -28.042  1.00  0.00    -0.000 C 
BRANCH  22  23
ATOM     23  C   UNL     1     -53.460  17.024 -27.633  1.00  0.00    -0.000 C 
BRANCH  23  24
ATOM     24  C   UNL     1     -52.889  18.147 -28.512  1.00  0.00    -0.000 C 
BRANCH  24  25
ATOM     25  C   UNL     1     -51.843  17.635 -29.516  1.00  0.00    -0.003 C 
ATOM     26  C   UNL     1     -51.952  18.316 -30.881  1.00  0.00     0.004 C 
ENDBRANCH  24  25
ENDBRANCH  23  24
ENDBRANCH  22  23
ENDBRANCH  21  22
ENDBRANCH  20  21
ENDBRANCH  19  20
ENDBRANCH  18  19
ENDBRANCH  17  18
ENDBRANCH  16  17
ENDBRANCH  15  16
ENDBRANCH   1  15
TORSDOF 22
ENDMDL
MODEL 7
REMARK VINA RESULT:    -4.147      2.884      4.830
REMARK INTER + INTRA:         -13.513
REMARK INTER:                  -9.900
REMARK INTRA:                  -3.614
REMARK UNBOUND:                -4.033
REMARK SMILES CCCCCCCCCCCCCCCCCCCCCCCC(=O)[O-]
REMARK SMILES IDX 13 1 14 2 15 3 16 4 17 5 18 6 19 7 20 8 21 9 22 10 23 11
REMARK SMILES IDX 24 12 25 13 26 14 12 15 11 16 10 17 9 18 8 19 7 20 6 21 5 22
REMARK SMILES IDX 4 23 3 24 2 25 1 26
REMARK H PARENT
REMARK Flexibility Score: inf
ROOT
ATOM      1  C   UNL     1     -53.916  13.401 -30.226  1.00  0.00     0.000 C 
ENDROOT
BRANCH   1   2
ATOM      2  C   UNL     1     -53.296  13.911 -28.912  1.00  0.00     0.000 C 
BRANCH   2   3
ATOM      3  C   UNL     1     -53.734  15.322 -28.472  1.00  0.00     0.000 C 
BRANCH   3   4
ATOM      4  C   UNL     1     -52.551  16.265 -28.200  1.00  0.00     0.000 C 
BRANCH   4   5
ATOM      5  C   UNL     1     -52.485  17.439 -29.192  1.00  0.00     0.000 C 
BRANCH   5   6
ATOM      6  C   UNL     1     -52.584  17.009 -30.670  1.00  0.00     0.000 C 
BRANCH   6   7
ATOM      7  C   UNL     1     -51.201  16.733 -31.288  1.00  0.00     0.000 C 
BRANCH   7   8
ATOM      8  C   UNL     1     -50.995  15.251 -31.638  1.00  0.00     0.000 C 
BRANCH   8   9
ATOM      9  C   UNL     1     -49.734  14.657 -30.985  1.00  0.00     0.000 C 
BRANCH   9  10
ATOM     10  C   UNL     1     -49.792  13.122 -30.870  1.00  0.00     0.006 C 
BRANCH  10  11
ATOM     11  C   UNL     1     -49.425  12.580 -29.479  1.00  0.00     0.053 C 
BRANCH  11  12
ATOM     12  C   UNL     1     -48.915  11.174 -29.540  1.00  0.00     0.041 C 
ATOM     13  O   UNL     1     -48.403  10.641 -28.521  1.00  0.00    -0.550 OA
ATOM     14  O   UNL     1     -49.034  10.440 -30.714  1.00  0.00    -0.550 OA
ENDBRANCH  11  12
ENDBRANCH  10  11
ENDBRANCH   9  10
ENDBRANCH   8   9
ENDBRANCH   7   8
ENDBRANCH   6   7
ENDBRANCH   5   6
ENDBRANCH   4   5
ENDBRANCH   3   4
ENDBRANCH   2   3
ENDBRANCH   1   2
BRANCH   1  15
ATOM     15  C   UNL     1     -53.255  12.113 -30.747  1.00  0.00     0.000 C 
BRANCH  15  16
ATOM     16  C   UNL     1     -52.735  11.208 -29.615  1.00  0.00     0.000 C 
BRANCH  16  17
ATOM     17  C   UNL     1     -52.442   9.753 -30.020  1.00  0.00     0.000 C 
BRANCH  17  18
ATOM     18  C   UNL     1     -52.316   9.566 -31.539  1.00  0.00    -0.000 C 
BRANCH  18  19
ATOM     19  C   UNL     1     -53.253   8.456 -32.037  1.00  0.00    -0.000 C 
BRANCH  19  20
ATOM     20  C   UNL     1     -53.042   8.117 -33.524  1.00  0.00    -0.000 C 
BRANCH  20  21
ATOM     21  C   UNL     1     -52.988   6.612 -33.850  1.00  0.00    -0.000 C 
BRANCH  21  22
ATOM     22  C   UNL     1     -51.722   5.882 -33.365  1.00  0.00    -0.000 C 
BRANCH  22  23
ATOM     23  C   UNL     1     -50.427   6.614 -33.749  1.00  0.00    -0.000 C 
BRANCH  23  24
ATOM     24  C   UNL     1     -49.611   6.973 -32.499  1.00  0.00    -0.000 C 
BRANCH  24  25
ATOM     25  C   UNL     1     -50.290   6.514 -31.199  1.00  0.00    -0.003 C 
ATOM     26  C   UNL     1     -49.606   7.065 -29.948  1.00  0.00     0.004 C 
ENDBRANCH  24  25
ENDBRANCH  23  24
ENDBRANCH  22  23
ENDBRANCH  21  22
ENDBRANCH  20  21
ENDBRANCH  19  20
ENDBRANCH  18  19
ENDBRANCH  17  18
ENDBRANCH  16  17
ENDBRANCH  15  16
ENDBRANCH   1  15
TORSDOF 22
ENDMDL
MODEL 8
REMARK VINA RESULT:    -4.136      1.644      4.477
REMARK INTER + INTRA:         -13.488
REMARK INTER:                  -9.880
REMARK INTRA:                  -3.608
REMARK UNBOUND:                -4.033
REMARK SMILES CCCCCCCCCCCCCCCCCCCCCCCC(=O)[O-]
REMARK SMILES IDX 13 1 14 2 15 3 16 4 17 5 18 6 19 7 20 8 21 9 22 10 23 11
REMARK SMILES IDX 24 12 25 13 26 14 12 15 11 16 10 17 9 18 8 19 7 20 6 21 5 22
REMARK SMILES IDX 4 23 3 24 2 25 1 26
REMARK H PARENT
REMARK Flexibility Score: inf
ROOT
ATOM      1  C   UNL     1     -51.490   9.839 -32.386  1.00  0.00     0.000 C 
ENDROOT
BRANCH   1   2
ATOM      2  C   UNL     1     -51.831  11.004 -31.438  1.00  0.00     0.000 C 
BRANCH   2   3
ATOM      3  C   UNL     1     -52.135  10.610 -29.980  1.00  0.00     0.000 C 
BRANCH   3   4
ATOM      4  C   UNL     1     -51.367  11.455 -28.951  1.00  0.00     0.000 C 
BRANCH   4   5
ATOM      5  C   UNL     1     -49.875  11.088 -28.874  1.00  0.00     0.000 C 
BRANCH   5   6
ATOM      6  C   UNL     1     -48.955  12.068 -29.631  1.00  0.00     0.000 C 
BRANCH   6   7
ATOM      7  C   UNL     1     -49.552  13.486 -29.704  1.00  0.00     0.000 C 
BRANCH   7   8
ATOM      8  C   UNL     1     -49.628  14.022 -31.142  1.00  0.00     0.000 C 
BRANCH   8   9
ATOM      9  C   UNL     1     -50.982  14.682 -31.458  1.00  0.00     0.000 C 
BRANCH   9  10
ATOM     10  C   UNL     1     -51.863  14.860 -30.207  1.00  0.00     0.006 C 
BRANCH  10  11
ATOM     11  C   UNL     1     -52.581  16.216 -30.130  1.00  0.00     0.053 C 
BRANCH  11  12
ATOM     12  C   UNL     1     -52.537  16.798 -28.751  1.00  0.00     0.041 C 
ATOM     13  O   UNL     1     -52.074  17.954 -28.567  1.00  0.00    -0.550 OA
ATOM     14  O   UNL     1     -53.038  16.078 -27.674  1.00  0.00    -0.550 OA
ENDBRANCH  11  12
ENDBRANCH  10  11
ENDBRANCH   9  10
ENDBRANCH   8   9
ENDBRANCH   7   8
ENDBRANCH   6   7
ENDBRANCH   5   6
ENDBRANCH   4   5
ENDBRANCH   3   4
ENDBRANCH   2   3
ENDBRANCH   1   2
BRANCH   1  15
ATOM     15  C   UNL     1     -52.635   8.822 -32.531  1.00  0.00     0.000 C 
BRANCH  15  16
ATOM     16  C   UNL     1     -52.351   7.751 -33.600  1.00  0.00     0.000 C 
BRANCH  16  17
ATOM     17  C   UNL     1     -52.269   6.306 -33.074  1.00  0.00     0.000 C 
BRANCH  17  18
ATOM     18  C   UNL     1     -50.989   6.030 -32.272  1.00  0.00    -0.000 C 
BRANCH  18  19
ATOM     19  C   UNL     1     -51.279   6.008 -30.764  1.00  0.00    -0.000 C 
BRANCH  19  20
ATOM     20  C   UNL     1     -50.047   6.368 -29.913  1.00  0.00    -0.000 C 
BRANCH  20  21
ATOM     21  C   UNL     1     -49.559   7.823 -30.051  1.00  0.00    -0.000 C 
BRANCH  21  22
ATOM     22  C   UNL     1     -48.045   8.027 -29.858  1.00  0.00    -0.000 C 
BRANCH  22  23
ATOM     23  C   UNL     1     -47.376   8.708 -31.061  1.00  0.00    -0.000 C 
BRANCH  23  24
ATOM     24  C   UNL     1     -48.263   8.605 -32.311  1.00  0.00    -0.000 C 
BRANCH  24  25
ATOM     25  C   UNL     1     -47.741   7.570 -33.320  1.00  0.00    -0.003 C 
ATOM     26  C   UNL     1     -47.369   6.240 -32.664  1.00  0.00     0.004 C 
ENDBRANCH  24  25
ENDBRANCH  23  24
ENDBRANCH  22  23
ENDBRANCH  21  22
ENDBRANCH  20  21
ENDBRANCH  19  20
ENDBRANCH  18  19
ENDBRANCH  17  18
ENDBRANCH  16  17
ENDBRANCH  15  16
ENDBRANCH   1  15
TORSDOF 22
ENDMDL
MODEL 9
REMARK VINA RESULT:    -4.113      1.251      2.301
REMARK INTER + INTRA:         -13.436
REMARK INTER:                 -10.232
REMARK INTRA:                  -3.204
REMARK UNBOUND:                -4.033
REMARK SMILES CCCCCCCCCCCCCCCCCCCCCCCC(=O)[O-]
REMARK SMILES IDX 13 1 14 2 15 3 16 4 17 5 18 6 19 7 20 8 21 9 22 10 23 11
REMARK SMILES IDX 24 12 25 13 26 14 12 15 11 16 10 17 9 18 8 19 7 20 6 21 5 22
REMARK SMILES IDX 4 23 3 24 2 25 1 26
REMARK H PARENT
REMARK Flexibility Score: inf
ROOT
ATOM      1  C   UNL     1     -49.041  11.719 -29.241  1.00  0.00     0.000 C 
ENDROOT
BRANCH   1   2
ATOM      2  C   UNL     1     -49.229  13.196 -29.634  1.00  0.00     0.000 C 
BRANCH   2   3
ATOM      3  C   UNL     1     -49.542  13.457 -31.120  1.00  0.00     0.000 C 
BRANCH   3   4
ATOM      4  C   UNL     1     -50.079  14.872 -31.386  1.00  0.00     0.000 C 
BRANCH   4   5
ATOM      5  C   UNL     1     -51.616  14.934 -31.395  1.00  0.00     0.000 C 
BRANCH   5   6
ATOM      6  C   UNL     1     -52.294  13.558 -31.227  1.00  0.00     0.000 C 
BRANCH   6   7
ATOM      7  C   UNL     1     -53.022  13.430 -29.876  1.00  0.00     0.000 C 
BRANCH   7   8
ATOM      8  C   UNL     1     -52.645  14.549 -28.893  1.00  0.00     0.000 C 
BRANCH   8   9
ATOM      9  C   UNL     1     -53.875  15.291 -28.339  1.00  0.00     0.000 C 
BRANCH   9  10
ATOM     10  C   UNL     1     -53.975  16.739 -28.852  1.00  0.00     0.006 C 
BRANCH  10  11
ATOM     11  C   UNL     1     -52.660  17.531 -28.768  1.00  0.00     0.053 C 
BRANCH  11  12
ATOM     12  C   UNL     1     -52.333  18.215 -30.059  1.00  0.00     0.041 C 
ATOM     13  O   UNL     1     -51.150  18.221 -30.489  1.00  0.00    -0.550 OA
ATOM     14  O   UNL     1     -53.338  18.817 -30.804  1.00  0.00    -0.550 OA
ENDBRANCH  11  12
ENDBRANCH  10  11
ENDBRANCH   9  10
ENDBRANCH   8   9
ENDBRANCH   7   8
ENDBRANCH   6   7
ENDBRANCH   5   6
ENDBRANCH   4   5
ENDBRANCH   3   4
ENDBRANCH   2   3
ENDBRANCH   1   2
BRANCH   1  15
ATOM     15  C   UNL     1     -50.184  10.812 -29.728  1.00  0.00     0.000 C 
BRANCH  15  16
ATOM     16  C   UNL     1     -49.977  10.310 -31.169  1.00  0.00     0.000 C 
BRANCH  16  17
ATOM     17  C   UNL     1     -51.263  10.147 -31.998  1.00  0.00     0.000 C 
BRANCH  17  18
ATOM     18  C   UNL     1     -52.335   9.310 -31.286  1.00  0.00    -0.000 C 
BRANCH  18  19
ATOM     19  C   UNL     1     -52.289   7.847 -31.749  1.00  0.00    -0.000 C 
BRANCH  19  20
ATOM     20  C   UNL     1     -51.803   7.695 -33.202  1.00  0.00    -0.000 C 
BRANCH  20  21
ATOM     21  C   UNL     1     -50.687   6.653 -33.413  1.00  0.00    -0.000 C 
BRANCH  21  22
ATOM     22  C   UNL     1     -49.328   7.012 -32.783  1.00  0.00    -0.000 C 
BRANCH  22  23
ATOM     23  C   UNL     1     -49.059   6.254 -31.474  1.00  0.00    -0.000 C 
BRANCH  23  24
ATOM     24  C   UNL     1     -48.362   7.162 -30.450  1.00  0.00    -0.000 C 
BRANCH  24  25
ATOM     25  C   UNL     1     -47.256   8.022 -31.082  1.00  0.00    -0.003 C 
ATOM     26  C   UNL     1     -46.599   8.971 -30.079  1.00  0.00     0.004 C 
ENDBRANCH  24  25
ENDBRANCH  23  24
ENDBRANCH  22  23
ENDBRANCH  21  22
ENDBRANCH  20  21
ENDBRANCH  19  20
ENDBRANCH  18  19
ENDBRANCH  17  18
ENDBRANCH  16  17
ENDBRANCH  15  16
ENDBRANCH   1  15
TORSDOF 22
ENDMDL
