MODEL 1
REMARK VINA RESULT:    -4.996      0.000      0.000
REMARK INTER + INTRA:         -11.708
REMARK INTER:                  -9.376
REMARK INTRA:                  -2.331
REMARK UNBOUND:                -2.331
REMARK SMILES O=C([O-])CCCCCCCCCCCCCCC(=O)[O-]
REMARK SMILES IDX 10 1 9 2 8 3 7 4 6 5 5 6 4 7 2 8 1 9 3 10 11 11 12 12 13 13
REMARK SMILES IDX 14 14 15 15 16 16 17 17 18 18 19 19 20 20
REMARK H PARENT
REMARK Flexibility Score: inf
ROOT
ATOM      1  C   UNL     1      21.175   0.295  22.775  1.00  0.00     0.000 C 
ENDROOT
BRANCH   1   2
ATOM      2  C   UNL     1      20.282  -0.782  23.419  1.00  0.00     0.000 C 
BRANCH   2   3
ATOM      3  C   UNL     1      20.998  -2.134  23.579  1.00  0.00     0.000 C 
BRANCH   3   4
ATOM      4  C   UNL     1      20.701  -3.110  22.426  1.00  0.00     0.000 C 
BRANCH   4   5
ATOM      5  C   UNL     1      21.887  -3.399  21.487  1.00  0.00     0.000 C 
BRANCH   5   6
ATOM      6  C   UNL     1      21.564  -3.128  20.008  1.00  0.00     0.006 C 
BRANCH   6   7
ATOM      7  C   UNL     1      21.478  -4.421  19.187  1.00  0.00     0.053 C 
BRANCH   7   8
ATOM      8  C   UNL     1      21.417  -4.142  17.716  1.00  0.00     0.041 C 
ATOM      9  O   UNL     1      22.211  -4.720  16.927  1.00  0.00    -0.550 OA
ATOM     10  O   UNL     1      20.465  -3.265  17.213  1.00  0.00    -0.550 OA
ENDBRANCH   7   8
ENDBRANCH   6   7
ENDBRANCH   5   6
ENDBRANCH   4   5
ENDBRANCH   3   4
ENDBRANCH   2   3
ENDBRANCH   1   2
BRANCH   1  11
ATOM     11  C   UNL     1      20.664   0.855  21.431  1.00  0.00     0.000 C 
BRANCH  11  12
ATOM     12  C   UNL     1      19.314   0.284  20.957  1.00  0.00     0.000 C 
BRANCH  12  13
ATOM     13  C   UNL     1      19.340  -0.383  19.567  1.00  0.00     0.000 C 
BRANCH  13  14
ATOM     14  C   UNL     1      18.401  -1.594  19.411  1.00  0.00     0.000 C 
BRANCH  14  15
ATOM     15  C   UNL     1      17.617  -1.911  20.692  1.00  0.00     0.000 C 
BRANCH  15  16
ATOM     16  C   UNL     1      17.261  -3.404  20.762  1.00  0.00     0.006 C 
BRANCH  16  17
ATOM     17  C   UNL     1      17.930  -4.214  19.645  1.00  0.00     0.053 C 
BRANCH  17  18
ATOM     18  C   UNL     1      16.979  -4.503  18.524  1.00  0.00     0.041 C 
ATOM     19  O   UNL     1      17.409  -4.656  17.351  1.00  0.00    -0.550 OA
ATOM     20  O   UNL     1      15.621  -4.635  18.782  1.00  0.00    -0.550 OA
ENDBRANCH  17  18
ENDBRANCH  16  17
ENDBRANCH  15  16
ENDBRANCH  14  15
ENDBRANCH  13  14
ENDBRANCH  12  13
ENDBRANCH  11  12
ENDBRANCH   1  11
TORSDOF 15
ENDMDL
MODEL 2
REMARK VINA RESULT:    -4.946      1.634      3.170
REMARK INTER + INTRA:         -11.615
REMARK INTER:                  -8.933
REMARK INTRA:                  -2.682
REMARK UNBOUND:                -2.331
REMARK SMILES O=C([O-])CCCCCCCCCCCCCCC(=O)[O-]
REMARK SMILES IDX 10 1 9 2 8 3 7 4 6 5 5 6 4 7 2 8 1 9 3 10 11 11 12 12 13 13
REMARK SMILES IDX 14 14 15 15 16 16 17 17 18 18 19 19 20 20
REMARK H PARENT
REMARK Flexibility Score: inf
ROOT
ATOM      1  C   UNL     1      21.015  -0.406  20.375  1.00  0.00     0.000 C 
ENDROOT
BRANCH   1   2
ATOM      2  C   UNL     1      19.500  -0.213  20.570  1.00  0.00     0.000 C 
BRANCH   2   3
ATOM      3  C   UNL     1      18.698  -0.429  19.276  1.00  0.00     0.000 C 
BRANCH   3   4
ATOM      4  C   UNL     1      19.549  -1.014  18.133  1.00  0.00     0.000 C 
BRANCH   4   5
ATOM      5  C   UNL     1      18.826  -2.029  17.228  1.00  0.00     0.000 C 
BRANCH   5   6
ATOM      6  C   UNL     1      19.609  -3.341  17.051  1.00  0.00     0.006 C 
BRANCH   6   7
ATOM      7  C   UNL     1      20.985  -3.290  17.728  1.00  0.00     0.053 C 
BRANCH   7   8
ATOM      8  C   UNL     1      21.711  -4.596  17.611  1.00  0.00     0.041 C 
ATOM      9  O   UNL     1      22.618  -4.744  16.750  1.00  0.00    -0.550 OA
ATOM     10  O   UNL     1      21.404  -5.642  18.473  1.00  0.00    -0.550 OA
ENDBRANCH   7   8
ENDBRANCH   6   7
ENDBRANCH   5   6
ENDBRANCH   4   5
ENDBRANCH   3   4
ENDBRANCH   2   3
ENDBRANCH   1   2
BRANCH   1  11
ATOM     11  C   UNL     1      21.627  -1.611  21.118  1.00  0.00     0.000 C 
BRANCH  11  12
ATOM     12  C   UNL     1      20.650  -2.382  22.028  1.00  0.00     0.000 C 
BRANCH  12  13
ATOM     13  C   UNL     1      20.171  -3.736  21.469  1.00  0.00     0.000 C 
BRANCH  13  14
ATOM     14  C   UNL     1      18.684  -3.786  21.072  1.00  0.00     0.000 C 
BRANCH  14  15
ATOM     15  C   UNL     1      18.377  -4.878  20.038  1.00  0.00     0.000 C 
BRANCH  15  16
ATOM     16  C   UNL     1      17.141  -4.512  19.203  1.00  0.00     0.006 C 
BRANCH  16  17
ATOM     17  C   UNL     1      16.401  -3.292  19.765  1.00  0.00     0.053 C 
BRANCH  17  18
ATOM     18  C   UNL     1      15.648  -2.560  18.696  1.00  0.00     0.041 C 
ATOM     19  O   UNL     1      15.400  -3.122  17.597  1.00  0.00    -0.550 OA
ATOM     20  O   UNL     1      15.193  -1.269  18.927  1.00  0.00    -0.550 OA
ENDBRANCH  17  18
ENDBRANCH  16  17
ENDBRANCH  15  16
ENDBRANCH  14  15
ENDBRANCH  13  14
ENDBRANCH  12  13
ENDBRANCH  11  12
ENDBRANCH   1  11
TORSDOF 15
ENDMDL
MODEL 3
REMARK VINA RESULT:    -4.907      2.038      4.154
REMARK INTER + INTRA:         -11.542
REMARK INTER:                  -9.201
REMARK INTRA:                  -2.340
REMARK UNBOUND:                -2.331
REMARK SMILES O=C([O-])CCCCCCCCCCCCCCC(=O)[O-]
REMARK SMILES IDX 10 1 9 2 8 3 7 4 6 5 5 6 4 7 2 8 1 9 3 10 11 11 12 12 13 13
REMARK SMILES IDX 14 14 15 15 16 16 17 17 18 18 19 19 20 20
REMARK H PARENT
REMARK Flexibility Score: inf
ROOT
ATOM      1  C   UNL     1      22.132  -0.749  22.887  1.00  0.00     0.000 C 
ENDROOT
BRANCH   1   2
ATOM      2  C   UNL     1      21.514   0.497  22.226  1.00  0.00     0.000 C 
BRANCH   2   3
ATOM      3  C   UNL     1      20.040   0.709  22.612  1.00  0.00     0.000 C 
BRANCH   3   4
ATOM      4  C   UNL     1      19.067   0.403  21.458  1.00  0.00     0.000 C 
BRANCH   4   5
ATOM      5  C   UNL     1      17.803  -0.382  21.854  1.00  0.00     0.000 C 
BRANCH   5   6
ATOM      6  C   UNL     1      16.899  -0.710  20.654  1.00  0.00     0.006 C 
BRANCH   6   7
ATOM      7  C   UNL     1      17.427  -0.105  19.347  1.00  0.00     0.053 C 
BRANCH   7   8
ATOM      8  C   UNL     1      16.365  -0.047  18.291  1.00  0.00     0.041 C 
ATOM      9  O   UNL     1      16.364   0.882  17.441  1.00  0.00    -0.550 OA
ATOM     10  O   UNL     1      15.392  -1.037  18.229  1.00  0.00    -0.550 OA
ENDBRANCH   7   8
ENDBRANCH   6   7
ENDBRANCH   5   6
ENDBRANCH   4   5
ENDBRANCH   3   4
ENDBRANCH   2   3
ENDBRANCH   1   2
BRANCH   1  11
ATOM     11  C   UNL     1      21.139  -1.654  23.644  1.00  0.00     0.000 C 
BRANCH  11  12
ATOM     12  C   UNL     1      21.000  -3.083  23.085  1.00  0.00     0.000 C 
BRANCH  12  13
ATOM     13  C   UNL     1      21.276  -3.221  21.574  1.00  0.00     0.000 C 
BRANCH  13  14
ATOM     14  C   UNL     1      20.047  -3.017  20.669  1.00  0.00     0.000 C 
BRANCH  14  15
ATOM     15  C   UNL     1      18.854  -3.895  21.074  1.00  0.00     0.000 C 
BRANCH  15  16
ATOM     16  C   UNL     1      17.960  -4.200  19.862  1.00  0.00     0.006 C 
BRANCH  16  17
ATOM     17  C   UNL     1      18.749  -4.207  18.546  1.00  0.00     0.053 C 
BRANCH  17  18
ATOM     18  C   UNL     1      17.998  -3.520  17.447  1.00  0.00     0.041 C 
ATOM     19  O   UNL     1      16.818  -3.864  17.173  1.00  0.00    -0.550 OA
ATOM     20  O   UNL     1      18.591  -2.478  16.746  1.00  0.00    -0.550 OA
ENDBRANCH  17  18
ENDBRANCH  16  17
ENDBRANCH  15  16
ENDBRANCH  14  15
ENDBRANCH  13  14
ENDBRANCH  12  13
ENDBRANCH  11  12
ENDBRANCH   1  11
TORSDOF 15
ENDMDL
MODEL 4
REMARK VINA RESULT:    -4.883      1.983      4.771
REMARK INTER + INTRA:         -11.496
REMARK INTER:                  -9.154
REMARK INTRA:                  -2.342
REMARK UNBOUND:                -2.331
REMARK SMILES O=C([O-])CCCCCCCCCCCCCCC(=O)[O-]
REMARK SMILES IDX 10 1 9 2 8 3 7 4 6 5 5 6 4 7 2 8 1 9 3 10 11 11 12 12 13 13
REMARK SMILES IDX 14 14 15 15 16 16 17 17 18 18 19 19 20 20
REMARK H PARENT
REMARK Flexibility Score: inf
ROOT
ATOM      1  C   UNL     1      21.671  -0.020  20.688  1.00  0.00     0.000 C 
ENDROOT
BRANCH   1   2
ATOM      2  C   UNL     1      20.463   0.772  21.222  1.00  0.00     0.000 C 
BRANCH   2   3
ATOM      3  C   UNL     1      19.126   0.290  20.635  1.00  0.00     0.000 C 
BRANCH   3   4
ATOM      4  C   UNL     1      18.197  -0.336  21.693  1.00  0.00     0.000 C 
BRANCH   4   5
ATOM      5  C   UNL     1      16.743  -0.562  21.240  1.00  0.00     0.000 C 
BRANCH   5   6
ATOM      6  C   UNL     1      16.487  -1.991  20.731  1.00  0.00     0.006 C 
BRANCH   6   7
ATOM      7  C   UNL     1      16.332  -2.044  19.206  1.00  0.00     0.053 C 
BRANCH   7   8
ATOM      8  C   UNL     1      15.658  -0.817  18.672  1.00  0.00     0.041 C 
ATOM      9  O   UNL     1      14.413  -0.672  18.796  1.00  0.00    -0.550 OA
ATOM     10  O   UNL     1      16.410   0.180  18.062  1.00  0.00    -0.550 OA
ENDBRANCH   7   8
ENDBRANCH   6   7
ENDBRANCH   5   6
ENDBRANCH   4   5
ENDBRANCH   3   4
ENDBRANCH   2   3
ENDBRANCH   1   2
BRANCH   1  11
ATOM     11  C   UNL     1      22.448  -0.829  21.747  1.00  0.00     0.000 C 
BRANCH  11  12
ATOM     12  C   UNL     1      21.782  -0.897  23.135  1.00  0.00     0.000 C 
BRANCH  12  13
ATOM     13  C   UNL     1      20.986  -2.188  23.413  1.00  0.00     0.000 C 
BRANCH  13  14
ATOM     14  C   UNL     1      21.160  -3.297  22.360  1.00  0.00     0.000 C 
BRANCH  14  15
ATOM     15  C   UNL     1      19.881  -3.561  21.552  1.00  0.00     0.000 C 
BRANCH  15  16
ATOM     16  C   UNL     1      20.115  -3.306  20.055  1.00  0.00     0.006 C 
BRANCH  16  17
ATOM     17  C   UNL     1      21.436  -3.911  19.562  1.00  0.00     0.053 C 
BRANCH  17  18
ATOM     18  C   UNL     1      21.269  -4.607  18.247  1.00  0.00     0.041 C 
ATOM     19  O   UNL     1      20.224  -5.266  18.006  1.00  0.00    -0.550 OA
ATOM     20  O   UNL     1      22.255  -4.502  17.275  1.00  0.00    -0.550 OA
ENDBRANCH  17  18
ENDBRANCH  16  17
ENDBRANCH  15  16
ENDBRANCH  14  15
ENDBRANCH  13  14
ENDBRANCH  12  13
ENDBRANCH  11  12
ENDBRANCH   1  11
TORSDOF 15
ENDMDL
MODEL 5
REMARK VINA RESULT:    -4.870      2.284      5.205
REMARK INTER + INTRA:         -11.471
REMARK INTER:                  -8.831
REMARK INTRA:                  -2.640
REMARK UNBOUND:                -2.331
REMARK SMILES O=C([O-])CCCCCCCCCCCCCCC(=O)[O-]
REMARK SMILES IDX 10 1 9 2 8 3 7 4 6 5 5 6 4 7 2 8 1 9 3 10 11 11 12 12 13 13
REMARK SMILES IDX 14 14 15 15 16 16 17 17 18 18 19 19 20 20
REMARK H PARENT
REMARK Flexibility Score: inf
ROOT
ATOM      1  C   UNL     1      19.602  -2.649  17.474  1.00  0.00     0.000 C 
ENDROOT
BRANCH   1   2
ATOM      2  C   UNL     1      20.643  -3.332  18.381  1.00  0.00     0.000 C 
BRANCH   2   3
ATOM      3  C   UNL     1      20.055  -4.497  19.194  1.00  0.00     0.000 C 
BRANCH   3   4
ATOM      4  C   UNL     1      18.753  -4.121  19.926  1.00  0.00     0.000 C 
BRANCH   4   5
ATOM      5  C   UNL     1      17.468  -4.730  19.336  1.00  0.00     0.000 C 
BRANCH   5   6
ATOM      6  C   UNL     1      16.324  -3.710  19.205  1.00  0.00     0.006 C 
BRANCH   6   7
ATOM      7  C   UNL     1      15.764  -3.647  17.778  1.00  0.00     0.053 C 
BRANCH   7   8
ATOM      8  C   UNL     1      15.288  -4.988  17.309  1.00  0.00     0.041 C 
ATOM      9  O   UNL     1      14.302  -5.542  17.864  1.00  0.00    -0.550 OA
ATOM     10  O   UNL     1      15.915  -5.614  16.239  1.00  0.00    -0.550 OA
ENDBRANCH   7   8
ENDBRANCH   6   7
ENDBRANCH   5   6
ENDBRANCH   4   5
ENDBRANCH   3   4
ENDBRANCH   2   3
ENDBRANCH   1   2
BRANCH   1  11
ATOM     11  C   UNL     1      19.364  -1.152  17.758  1.00  0.00     0.000 C 
BRANCH  11  12
ATOM     12  C   UNL     1      17.899  -0.690  17.639  1.00  0.00     0.000 C 
BRANCH  12  13
ATOM     13  C   UNL     1      17.278  -0.150  18.943  1.00  0.00     0.000 C 
BRANCH  13  14
ATOM     14  C   UNL     1      18.272   0.046  20.103  1.00  0.00     0.000 C 
BRANCH  14  15
ATOM     15  C   UNL     1      17.819  -0.637  21.401  1.00  0.00     0.000 C 
BRANCH  15  16
ATOM     16  C   UNL     1      19.023  -1.175  22.188  1.00  0.00     0.006 C 
BRANCH  16  17
ATOM     17  C   UNL     1      20.328  -1.086  21.386  1.00  0.00     0.053 C 
BRANCH  17  18
ATOM     18  C   UNL     1      21.338  -2.086  21.859  1.00  0.00     0.041 C 
ATOM     19  O   UNL     1      21.088  -2.818  22.853  1.00  0.00    -0.550 OA
ATOM     20  O   UNL     1      22.541  -2.232  21.183  1.00  0.00    -0.550 OA
ENDBRANCH  17  18
ENDBRANCH  16  17
ENDBRANCH  15  16
ENDBRANCH  14  15
ENDBRANCH  13  14
ENDBRANCH  12  13
ENDBRANCH  11  12
ENDBRANCH   1  11
TORSDOF 15
ENDMDL
MODEL 6
REMARK VINA RESULT:    -4.850      2.192      4.190
REMARK INTER + INTRA:         -11.435
REMARK INTER:                  -9.327
REMARK INTRA:                  -2.108
REMARK UNBOUND:                -2.331
REMARK SMILES O=C([O-])CCCCCCCCCCCCCCC(=O)[O-]
REMARK SMILES IDX 10 1 9 2 8 3 7 4 6 5 5 6 4 7 2 8 1 9 3 10 11 11 12 12 13 13
REMARK SMILES IDX 14 14 15 15 16 16 17 17 18 18 19 19 20 20
REMARK H PARENT
REMARK Flexibility Score: inf
ROOT
ATOM      1  C   UNL     1      18.728  -3.735  21.175  1.00  0.00     0.000 C 
ENDROOT
BRANCH   1   2
ATOM      2  C   UNL     1      20.119  -3.089  21.319  1.00  0.00     0.000 C 
BRANCH   2   3
ATOM      3  C   UNL     1      20.785  -3.400  22.670  1.00  0.00     0.000 C 
BRANCH   3   4
ATOM      4  C   UNL     1      21.309  -2.140  23.384  1.00  0.00     0.000 C 
BRANCH   4   5
ATOM      5  C   UNL     1      20.228  -1.139  23.831  1.00  0.00     0.000 C 
BRANCH   5   6
ATOM      6  C   UNL     1      20.268   0.182  23.043  1.00  0.00     0.006 C 
BRANCH   6   7
ATOM      7  C   UNL     1      21.703   0.620  22.720  1.00  0.00     0.053 C 
BRANCH   7   8
ATOM      8  C   UNL     1      21.961   0.630  21.244  1.00  0.00     0.041 C 
ATOM      9  O   UNL     1      21.080   0.222  20.442  1.00  0.00    -0.550 OA
ATOM     10  O   UNL     1      23.166   1.117  20.752  1.00  0.00    -0.550 OA
ENDBRANCH   7   8
ENDBRANCH   6   7
ENDBRANCH   5   6
ENDBRANCH   4   5
ENDBRANCH   3   4
ENDBRANCH   2   3
ENDBRANCH   1   2
BRANCH   1  11
ATOM     11  C   UNL     1      17.607  -2.786  20.706  1.00  0.00     0.000 C 
BRANCH  11  12
ATOM     12  C   UNL     1      17.960  -1.287  20.747  1.00  0.00     0.000 C 
BRANCH  12  13
ATOM     13  C   UNL     1      17.305  -0.432  19.644  1.00  0.00     0.000 C 
BRANCH  13  14
ATOM     14  C   UNL     1      17.511  -0.954  18.210  1.00  0.00     0.000 C 
BRANCH  14  15
ATOM     15  C   UNL     1      18.989  -1.182  17.863  1.00  0.00     0.000 C 
BRANCH  15  16
ATOM     16  C   UNL     1      19.202  -2.578  17.258  1.00  0.00     0.006 C 
BRANCH  16  17
ATOM     17  C   UNL     1      20.572  -3.165  17.622  1.00  0.00     0.053 C 
BRANCH  17  18
ATOM     18  C   UNL     1      20.467  -4.604  18.026  1.00  0.00     0.041 C 
ATOM     19  O   UNL     1      19.412  -5.251  17.800  1.00  0.00    -0.550 OA
ATOM     20  O   UNL     1      21.548  -5.238  18.625  1.00  0.00    -0.550 OA
ENDBRANCH  17  18
ENDBRANCH  16  17
ENDBRANCH  15  16
ENDBRANCH  14  15
ENDBRANCH  13  14
ENDBRANCH  12  13
ENDBRANCH  11  12
ENDBRANCH   1  11
TORSDOF 15
ENDMDL
MODEL 7
REMARK VINA RESULT:    -4.839      2.285      3.846
REMARK INTER + INTRA:         -11.413
REMARK INTER:                  -8.795
REMARK INTRA:                  -2.618
REMARK UNBOUND:                -2.331
REMARK SMILES O=C([O-])CCCCCCCCCCCCCCC(=O)[O-]
REMARK SMILES IDX 10 1 9 2 8 3 7 4 6 5 5 6 4 7 2 8 1 9 3 10 11 11 12 12 13 13
REMARK SMILES IDX 14 14 15 15 16 16 17 17 18 18 19 19 20 20
REMARK H PARENT
REMARK Flexibility Score: inf
ROOT
ATOM      1  C   UNL     1      17.178  -0.150  18.637  1.00  0.00     0.000 C 
ENDROOT
BRANCH   1   2
ATOM      2  C   UNL     1      17.725   0.516  19.914  1.00  0.00     0.000 C 
BRANCH   2   3
ATOM      3  C   UNL     1      17.294  -0.212  21.199  1.00  0.00     0.000 C 
BRANCH   3   4
ATOM      4  C   UNL     1      18.462  -0.448  22.175  1.00  0.00     0.000 C 
BRANCH   4   5
ATOM      5  C   UNL     1      19.793   0.220  21.784  1.00  0.00     0.000 C 
BRANCH   5   6
ATOM      6  C   UNL     1      20.997  -0.732  21.887  1.00  0.00     0.006 C 
BRANCH   6   7
ATOM      7  C   UNL     1      20.836  -1.749  23.024  1.00  0.00     0.053 C 
BRANCH   7   8
ATOM      8  C   UNL     1      21.547  -3.034  22.725  1.00  0.00     0.041 C 
ATOM      9  O   UNL     1      21.244  -4.086  23.348  1.00  0.00    -0.550 OA
ATOM     10  O   UNL     1      22.525  -3.074  21.740  1.00  0.00    -0.550 OA
ENDBRANCH   7   8
ENDBRANCH   6   7
ENDBRANCH   5   6
ENDBRANCH   4   5
ENDBRANCH   3   4
ENDBRANCH   2   3
ENDBRANCH   1   2
BRANCH   1  11
ATOM     11  C   UNL     1      18.243  -0.775  17.713  1.00  0.00     0.000 C 
BRANCH  11  12
ATOM     12  C   UNL     1      19.556  -1.182  18.411  1.00  0.00     0.000 C 
BRANCH  12  13
ATOM     13  C   UNL     1      20.128  -2.547  17.978  1.00  0.00     0.000 C 
BRANCH  13  14
ATOM     14  C   UNL     1      20.166  -3.616  19.085  1.00  0.00     0.000 C 
BRANCH  14  15
ATOM     15  C   UNL     1      19.033  -3.456  20.110  1.00  0.00     0.000 C 
BRANCH  15  16
ATOM     16  C   UNL     1      17.837  -4.350  19.750  1.00  0.00     0.006 C 
BRANCH  16  17
ATOM     17  C   UNL     1      16.528  -3.556  19.649  1.00  0.00     0.053 C 
BRANCH  17  18
ATOM     18  C   UNL     1      15.770  -3.895  18.402  1.00  0.00     0.041 C 
ATOM     19  O   UNL     1      15.688  -3.061  17.463  1.00  0.00    -0.550 OA
ATOM     20  O   UNL     1      15.182  -5.146  18.264  1.00  0.00    -0.550 OA
ENDBRANCH  17  18
ENDBRANCH  16  17
ENDBRANCH  15  16
ENDBRANCH  14  15
ENDBRANCH  13  14
ENDBRANCH  12  13
ENDBRANCH  11  12
ENDBRANCH   1  11
TORSDOF 15
ENDMDL
MODEL 8
REMARK VINA RESULT:    -4.832      1.261      4.266
REMARK INTER + INTRA:         -11.400
REMARK INTER:                  -8.945
REMARK INTRA:                  -2.456
REMARK UNBOUND:                -2.331
REMARK SMILES O=C([O-])CCCCCCCCCCCCCCC(=O)[O-]
REMARK SMILES IDX 10 1 9 2 8 3 7 4 6 5 5 6 4 7 2 8 1 9 3 10 11 11 12 12 13 13
REMARK SMILES IDX 14 14 15 15 16 16 17 17 18 18 19 19 20 20
REMARK H PARENT
REMARK Flexibility Score: inf
ROOT
ATOM      1  C   UNL     1      21.214   0.491  20.994  1.00  0.00     0.000 C 
ENDROOT
BRANCH   1   2
ATOM      2  C   UNL     1      19.852   0.017  20.454  1.00  0.00     0.000 C 
BRANCH   2   3
ATOM      3  C   UNL     1      18.662   0.657  21.189  1.00  0.00     0.000 C 
BRANCH   3   4
ATOM      4  C   UNL     1      17.765  -0.378  21.892  1.00  0.00     0.000 C 
BRANCH   4   5
ATOM      5  C   UNL     1      16.461  -0.730  21.152  1.00  0.00     0.000 C 
BRANCH   5   6
ATOM      6  C   UNL     1      16.447  -2.169  20.609  1.00  0.00     0.006 C 
BRANCH   6   7
ATOM      7  C   UNL     1      16.870  -2.236  19.136  1.00  0.00     0.053 C 
BRANCH   7   8
ATOM      8  C   UNL     1      16.328  -3.457  18.457  1.00  0.00     0.041 C 
ATOM      9  O   UNL     1      16.616  -4.605  18.889  1.00  0.00    -0.550 OA
ATOM     10  O   UNL     1      15.482  -3.326  17.363  1.00  0.00    -0.550 OA
ENDBRANCH   7   8
ENDBRANCH   6   7
ENDBRANCH   5   6
ENDBRANCH   4   5
ENDBRANCH   3   4
ENDBRANCH   2   3
ENDBRANCH   1   2
BRANCH   1  11
ATOM     11  C   UNL     1      22.071  -0.601  21.667  1.00  0.00     0.000 C 
BRANCH  11  12
ATOM     12  C   UNL     1      21.722  -0.889  23.140  1.00  0.00     0.000 C 
BRANCH  12  13
ATOM     13  C   UNL     1      20.994  -2.226  23.388  1.00  0.00     0.000 C 
BRANCH  13  14
ATOM     14  C   UNL     1      21.092  -3.241  22.235  1.00  0.00     0.000 C 
BRANCH  14  15
ATOM     15  C   UNL     1      19.737  -3.523  21.570  1.00  0.00     0.000 C 
BRANCH  15  16
ATOM     16  C   UNL     1      19.927  -4.086  20.153  1.00  0.00     0.006 C 
BRANCH  16  17
ATOM     17  C   UNL     1      21.012  -3.335  19.371  1.00  0.00     0.053 C 
BRANCH  17  18
ATOM     18  C   UNL     1      20.880  -3.552  17.894  1.00  0.00     0.041 C 
ATOM     19  O   UNL     1      21.757  -4.203  17.269  1.00  0.00    -0.550 OA
ATOM     20  O   UNL     1      19.773  -3.061  17.215  1.00  0.00    -0.550 OA
ENDBRANCH  17  18
ENDBRANCH  16  17
ENDBRANCH  15  16
ENDBRANCH  14  15
ENDBRANCH  13  14
ENDBRANCH  12  13
ENDBRANCH  11  12
ENDBRANCH   1  11
TORSDOF 15
ENDMDL
MODEL 9
REMARK VINA RESULT:    -4.796      2.899      4.369
REMARK INTER + INTRA:         -11.333
REMARK INTER:                  -8.862
REMARK INTRA:                  -2.470
REMARK UNBOUND:                -2.331
REMARK SMILES O=C([O-])CCCCCCCCCCCCCCC(=O)[O-]
REMARK SMILES IDX 10 1 9 2 8 3 7 4 6 5 5 6 4 7 2 8 1 9 3 10 11 11 12 12 13 13
REMARK SMILES IDX 14 14 15 15 16 16 17 17 18 18 19 19 20 20
REMARK H PARENT
REMARK Flexibility Score: inf
ROOT
ATOM      1  C   UNL     1      20.918  -3.305  22.088  1.00  0.00     0.000 C 
ENDROOT
BRANCH   1   2
ATOM      2  C   UNL     1      20.985  -2.211  23.171  1.00  0.00     0.000 C 
BRANCH   2   3
ATOM      3  C   UNL     1      19.933  -1.108  22.972  1.00  0.00     0.000 C 
BRANCH   3   4
ATOM      4  C   UNL     1      20.547   0.304  22.923  1.00  0.00     0.000 C 
BRANCH   4   5
ATOM      5  C   UNL     1      21.048   0.756  21.539  1.00  0.00     0.000 C 
BRANCH   5   6
ATOM      6  C   UNL     1      22.564   0.573  21.359  1.00  0.00     0.006 C 
BRANCH   6   7
ATOM      7  C   UNL     1      23.340   0.856  22.652  1.00  0.00     0.053 C 
BRANCH   7   8
ATOM      8  C   UNL     1      24.378  -0.191  22.918  1.00  0.00     0.041 C 
ATOM      9  O   UNL     1      24.347  -1.287  22.298  1.00  0.00    -0.550 OA
ATOM     10  O   UNL     1      25.395   0.054  23.831  1.00  0.00    -0.550 OA
ENDBRANCH   7   8
ENDBRANCH   6   7
ENDBRANCH   5   6
ENDBRANCH   4   5
ENDBRANCH   3   4
ENDBRANCH   2   3
ENDBRANCH   1   2
BRANCH   1  11
ATOM     11  C   UNL     1      21.695  -2.996  20.792  1.00  0.00     0.000 C 
BRANCH  11  12
ATOM     12  C   UNL     1      21.324  -3.876  19.582  1.00  0.00     0.000 C 
BRANCH  12  13
ATOM     13  C   UNL     1      20.640  -3.130  18.419  1.00  0.00     0.000 C 
BRANCH  13  14
ATOM     14  C   UNL     1      20.470  -1.614  18.630  1.00  0.00     0.000 C 
BRANCH  14  15
ATOM     15  C   UNL     1      19.022  -1.142  18.434  1.00  0.00     0.000 C 
BRANCH  15  16
ATOM     16  C   UNL     1      18.289  -1.045  19.781  1.00  0.00     0.006 C 
BRANCH  16  17
ATOM     17  C   UNL     1      17.020  -1.905  19.815  1.00  0.00     0.053 C 
BRANCH  17  18
ATOM     18  C   UNL     1      17.341  -3.360  19.973  1.00  0.00     0.041 C 
ATOM     19  O   UNL     1      17.673  -3.817  21.097  1.00  0.00    -0.550 OA
ATOM     20  O   UNL     1      17.242  -4.215  18.883  1.00  0.00    -0.550 OA
ENDBRANCH  17  18
ENDBRANCH  16  17
ENDBRANCH  15  16
ENDBRANCH  14  15
ENDBRANCH  13  14
ENDBRANCH  12  13
ENDBRANCH  11  12
ENDBRANCH   1  11
TORSDOF 15
ENDMDL
