MODEL 1
REMARK VINA RESULT:    -6.599      0.000      0.000
REMARK INTER + INTRA:          -7.597
REMARK INTER:                  -7.178
REMARK INTRA:                  -0.419
REMARK UNBOUND:                -0.419
REMARK SMILES C=C(C)[C@H]1CC[C@@]2(C)CC[C@@]3(C)[C@H](CC[C@@H]4[C@]5(C)CC[C@@H](O)C(C)(C)[C@@H]5CC[C@]43C)[C@@H]12
REMARK SMILES IDX 4 1 5 2 6 3 7 4 31 5 13 6 14 7 15 8 16 9 17 10 19 11 20 12
REMARK SMILES IDX 21 13 23 14 26 15 27 16 28 17 29 18 11 19 10 20 9 21 12 22
REMARK SMILES IDX 30 23 24 24 25 25 18 26 8 27 2 28 3 29 1 30 22 31
REMARK H PARENT 22 32
REMARK Flexibility Score: inf
ROOT
ATOM      1  C   UNL     1     144.836 137.845 146.582  1.00  0.00     0.018 C 
ATOM      2  C   UNL     1     146.278 137.517 146.986  1.00  0.00     0.009 C 
ATOM      3  C   UNL     1     147.126 137.724 145.750  1.00  0.00     0.008 C 
ATOM      4  C   UNL     1     146.404 138.785 144.901  1.00  0.00    -0.029 C 
ATOM      5  C   UNL     1     144.875 138.588 145.186  1.00  0.00     0.006 C 
ATOM      6  C   UNL     1     144.024 137.951 144.007  1.00  0.00    -0.000 C 
ATOM      7  C   UNL     1     142.508 138.056 144.316  1.00  0.00     0.005 C 
ATOM      8  C   UNL     1     141.828 139.392 143.958  1.00  0.00     0.005 C 
ATOM      9  C   UNL     1     142.558 140.248 142.878  1.00  0.00     0.002 C 
ATOM     10  C   UNL     1     141.725 141.567 142.424  1.00  0.00    -0.026 C 
ATOM     11  C   UNL     1     140.201 141.263 142.236  1.00  0.00     0.010 C 
ATOM     12  C   UNL     1     139.368 142.408 141.648  1.00  0.00     0.033 C 
ATOM     13  C   UNL     1     139.935 142.919 140.321  1.00  0.00     0.120 C 
ATOM     14  C   UNL     1     141.412 143.391 140.438  1.00  0.00    -0.006 C 
ATOM     15  C   UNL     1     142.318 142.243 141.104  1.00  0.00     0.003 C 
ATOM     16  C   UNL     1     142.737 141.171 140.069  1.00  0.00     0.005 C 
ATOM     17  C   UNL     1     143.758 140.196 140.645  1.00  0.00     0.008 C 
ATOM     18  C   UNL     1     143.190 139.303 141.793  1.00  0.00    -0.024 C 
ATOM     19  C   UNL     1     144.369 138.402 142.498  1.00  0.00    -0.024 C 
ATOM     20  C   UNL     1     145.723 139.191 142.504  1.00  0.00     0.008 C 
ATOM     21  C   UNL     1     146.779 138.588 143.420  1.00  0.00     0.007 C 
ATOM     22  C   UNL     1     144.613 137.111 141.650  1.00  0.00     0.012 C 
ATOM     23  C   UNL     1     142.113 138.379 141.117  1.00  0.00     0.012 C 
ATOM     24  C   UNL     1     141.900 143.752 138.999  1.00  0.00     0.014 C 
ATOM     25  C   UNL     1     141.506 144.727 141.246  1.00  0.00     0.014 C 
ATOM     26  C   UNL     1     141.859 142.581 143.609  1.00  0.00     0.012 C 
ATOM     27  C   UNL     1     146.858 140.201 145.384  1.00  0.00     0.011 C 
ENDROOT
BRANCH   1  28
ATOM     28  C   UNL     1     143.924 136.621 146.774  1.00  0.00    -0.077 C 
ATOM     29  C   UNL     1     144.249 135.275 146.177  1.00  0.00     0.039 C 
ATOM     30  C   UNL     1     142.839 136.710 147.567  1.00  0.00     0.008 C 
ENDBRANCH   1  28
BRANCH  13  31
ATOM     31  O   UNL     1     139.126 143.968 139.841  1.00  0.00    -0.393 OA
ATOM     32  H   UNL     1     139.599 144.366 139.062  1.00  0.00     0.210 HD
ENDBRANCH  13  31
TORSDOF 2
ENDMDL
MODEL 2
REMARK VINA RESULT:    -6.478      3.721      6.248
REMARK INTER + INTRA:          -7.465
REMARK INTER:                  -7.188
REMARK INTRA:                  -0.277
REMARK UNBOUND:                -0.419
REMARK SMILES C=C(C)[C@H]1CC[C@@]2(C)CC[C@@]3(C)[C@H](CC[C@@H]4[C@]5(C)CC[C@@H](O)C(C)(C)[C@@H]5CC[C@]43C)[C@@H]12
REMARK SMILES IDX 4 1 5 2 6 3 7 4 31 5 13 6 14 7 15 8 16 9 17 10 19 11 20 12
REMARK SMILES IDX 21 13 23 14 26 15 27 16 28 17 29 18 11 19 10 20 9 21 12 22
REMARK SMILES IDX 30 23 24 24 25 25 18 26 8 27 2 28 3 29 1 30 22 31
REMARK H PARENT 22 32
REMARK Flexibility Score: inf
ROOT
ATOM      1  C   UNL     1     139.206 135.146 148.684  1.00  0.00     0.018 C 
ATOM      2  C   UNL     1     139.702 135.125 150.134  1.00  0.00     0.009 C 
ATOM      3  C   UNL     1     141.196 134.891 150.072  1.00  0.00     0.008 C 
ATOM      4  C   UNL     1     141.669 135.461 148.724  1.00  0.00    -0.029 C 
ATOM      5  C   UNL     1     140.467 135.269 147.737  1.00  0.00     0.006 C 
ATOM      6  C   UNL     1     140.648 134.148 146.629  1.00  0.00    -0.000 C 
ATOM      7  C   UNL     1     139.517 134.242 145.572  1.00  0.00     0.005 C 
ATOM      8  C   UNL     1     139.726 135.264 144.436  1.00  0.00     0.005 C 
ATOM      9  C   UNL     1     141.206 135.673 144.167  1.00  0.00     0.002 C 
ATOM     10  C   UNL     1     141.388 136.628 142.865  1.00  0.00    -0.026 C 
ATOM     11  C   UNL     1     140.511 136.151 141.659  1.00  0.00     0.010 C 
ATOM     12  C   UNL     1     140.744 136.893 140.339  1.00  0.00     0.033 C 
ATOM     13  C   UNL     1     142.215 136.876 139.914  1.00  0.00     0.120 C 
ATOM     14  C   UNL     1     143.162 137.475 140.993  1.00  0.00    -0.006 C 
ATOM     15  C   UNL     1     142.914 136.766 142.414  1.00  0.00     0.003 C 
ATOM     16  C   UNL     1     143.650 135.409 142.514  1.00  0.00     0.005 C 
ATOM     17  C   UNL     1     143.586 134.832 143.924  1.00  0.00     0.008 C 
ATOM     18  C   UNL     1     142.145 134.429 144.369  1.00  0.00    -0.024 C 
ATOM     19  C   UNL     1     142.101 133.985 145.950  1.00  0.00    -0.024 C 
ATOM     20  C   UNL     1     143.140 134.819 146.776  1.00  0.00     0.008 C 
ATOM     21  C   UNL     1     142.946 134.720 148.282  1.00  0.00     0.007 C 
ATOM     22  C   UNL     1     142.532 132.487 146.080  1.00  0.00     0.012 C 
ATOM     23  C   UNL     1     141.736 133.228 143.441  1.00  0.00     0.012 C 
ATOM     24  C   UNL     1     144.626 137.269 140.491  1.00  0.00     0.014 C 
ATOM     25  C   UNL     1     142.980 139.025 141.093  1.00  0.00     0.014 C 
ATOM     26  C   UNL     1     140.864 138.039 143.298  1.00  0.00     0.012 C 
ATOM     27  C   UNL     1     141.971 136.984 148.908  1.00  0.00     0.011 C 
ENDROOT
BRANCH   1  28
ATOM     28  C   UNL     1     138.174 134.029 148.445  1.00  0.00    -0.077 C 
ATOM     29  C   UNL     1     138.537 132.569 148.530  1.00  0.00     0.039 C 
ATOM     30  C   UNL     1     136.881 134.344 148.236  1.00  0.00     0.008 C 
ENDBRANCH   1  28
BRANCH  13  31
ATOM     31  O   UNL     1     142.358 137.576 138.700  1.00  0.00    -0.393 OA
ATOM     32  H   UNL     1     142.552 138.523 138.932  1.00  0.00     0.210 HD
ENDBRANCH  13  31
TORSDOF 2
ENDMDL
MODEL 3
REMARK VINA RESULT:    -6.184      3.345      7.914
REMARK INTER + INTRA:          -7.146
REMARK INTER:                  -6.729
REMARK INTRA:                  -0.417
REMARK UNBOUND:                -0.419
REMARK SMILES C=C(C)[C@H]1CC[C@@]2(C)CC[C@@]3(C)[C@H](CC[C@@H]4[C@]5(C)CC[C@@H](O)C(C)(C)[C@@H]5CC[C@]43C)[C@@H]12
REMARK SMILES IDX 4 1 5 2 6 3 7 4 31 5 13 6 14 7 15 8 16 9 17 10 19 11 20 12
REMARK SMILES IDX 21 13 23 14 26 15 27 16 28 17 29 18 11 19 10 20 9 21 12 22
REMARK SMILES IDX 30 23 24 24 25 25 18 26 8 27 2 28 3 29 1 30 22 31
REMARK H PARENT 22 32
REMARK Flexibility Score: inf
ROOT
ATOM      1  C   UNL     1     138.997 142.773 142.935  1.00  0.00     0.018 C 
ATOM      2  C   UNL     1     137.706 143.393 142.389  1.00  0.00     0.009 C 
ATOM      3  C   UNL     1     137.261 142.513 141.241  1.00  0.00     0.008 C 
ATOM      4  C   UNL     1     137.798 141.104 141.541  1.00  0.00    -0.029 C 
ATOM      5  C   UNL     1     139.135 141.318 142.330  1.00  0.00     0.006 C 
ATOM      6  C   UNL     1     140.471 140.991 141.538  1.00  0.00    -0.000 C 
ATOM      7  C   UNL     1     141.686 140.990 142.501  1.00  0.00     0.005 C 
ATOM      8  C   UNL     1     141.941 139.684 143.280  1.00  0.00     0.005 C 
ATOM      9  C   UNL     1     141.330 138.397 142.646  1.00  0.00     0.002 C 
ATOM     10  C   UNL     1     141.756 137.031 143.417  1.00  0.00    -0.026 C 
ATOM     11  C   UNL     1     143.271 137.027 143.811  1.00  0.00     0.010 C 
ATOM     12  C   UNL     1     143.798 135.710 144.392  1.00  0.00     0.033 C 
ATOM     13  C   UNL     1     143.526 134.517 143.472  1.00  0.00     0.120 C 
ATOM     14  C   UNL     1     142.017 134.343 143.140  1.00  0.00    -0.006 C 
ATOM     15  C   UNL     1     141.403 135.718 142.578  1.00  0.00     0.003 C 
ATOM     16  C   UNL     1     141.716 135.915 141.076  1.00  0.00     0.005 C 
ATOM     17  C   UNL     1     140.968 137.109 140.493  1.00  0.00     0.008 C 
ATOM     18  C   UNL     1     141.426 138.480 141.080  1.00  0.00    -0.024 C 
ATOM     19  C   UNL     1     140.473 139.712 140.557  1.00  0.00    -0.024 C 
ATOM     20  C   UNL     1     138.998 139.215 140.373  1.00  0.00     0.008 C 
ATOM     21  C   UNL     1     137.987 140.341 140.216  1.00  0.00     0.007 C 
ATOM     22  C   UNL     1     140.960 140.183 139.148  1.00  0.00     0.012 C 
ATOM     23  C   UNL     1     142.907 138.677 140.592  1.00  0.00     0.012 C 
ATOM     24  C   UNL     1     141.902 133.189 142.094  1.00  0.00     0.014 C 
ATOM     25  C   UNL     1     141.226 133.839 144.391  1.00  0.00     0.014 C 
ATOM     26  C   UNL     1     140.925 137.016 144.743  1.00  0.00     0.012 C 
ATOM     27  C   UNL     1     136.760 140.359 142.443  1.00  0.00     0.011 C 
ENDROOT
BRANCH   1  28
ATOM     28  C   UNL     1     140.168 143.765 142.822  1.00  0.00    -0.077 C 
ATOM     29  C   UNL     1     140.534 144.431 141.521  1.00  0.00     0.039 C 
ATOM     30  C   UNL     1     140.848 144.129 143.927  1.00  0.00     0.008 C 
ENDBRANCH   1  28
BRANCH  13  31
ATOM     31  O   UNL     1     144.031 133.344 144.067  1.00  0.00    -0.393 OA
ATOM     32  H   UNL     1     144.970 133.534 144.332  1.00  0.00     0.210 HD
ENDBRANCH  13  31
TORSDOF 2
ENDMDL
MODEL 4
REMARK VINA RESULT:    -6.173      4.814      8.360
REMARK INTER + INTRA:          -7.134
REMARK INTER:                  -6.729
REMARK INTRA:                  -0.404
REMARK UNBOUND:                -0.419
REMARK SMILES C=C(C)[C@H]1CC[C@@]2(C)CC[C@@]3(C)[C@H](CC[C@@H]4[C@]5(C)CC[C@@H](O)C(C)(C)[C@@H]5CC[C@]43C)[C@@H]12
REMARK SMILES IDX 4 1 5 2 6 3 7 4 31 5 13 6 14 7 15 8 16 9 17 10 19 11 20 12
REMARK SMILES IDX 21 13 23 14 26 15 27 16 28 17 29 18 11 19 10 20 9 21 12 22
REMARK SMILES IDX 30 23 24 24 25 25 18 26 8 27 2 28 3 29 1 30 22 31
REMARK H PARENT 22 32
REMARK Flexibility Score: inf
ROOT
ATOM      1  C   UNL     1     137.344 132.247 147.821  1.00  0.00     0.018 C 
ATOM      2  C   UNL     1     136.441 132.439 149.045  1.00  0.00     0.009 C 
ATOM      3  C   UNL     1     137.151 133.422 149.949  1.00  0.00     0.008 C 
ATOM      4  C   UNL     1     138.018 134.305 149.037  1.00  0.00    -0.029 C 
ATOM      5  C   UNL     1     138.439 133.389 147.835  1.00  0.00     0.006 C 
ATOM      6  C   UNL     1     139.958 132.932 147.808  1.00  0.00    -0.000 C 
ATOM      7  C   UNL     1     140.297 132.263 146.451  1.00  0.00     0.005 C 
ATOM      8  C   UNL     1     140.661 133.212 145.292  1.00  0.00     0.005 C 
ATOM      9  C   UNL     1     141.165 134.625 145.716  1.00  0.00     0.002 C 
ATOM     10  C   UNL     1     141.681 135.531 144.469  1.00  0.00    -0.026 C 
ATOM     11  C   UNL     1     142.539 134.701 143.457  1.00  0.00     0.010 C 
ATOM     12  C   UNL     1     143.206 135.511 142.339  1.00  0.00     0.033 C 
ATOM     13  C   UNL     1     144.060 136.660 142.882  1.00  0.00     0.120 C 
ATOM     14  C   UNL     1     143.254 137.635 143.787  1.00  0.00    -0.006 C 
ATOM     15  C   UNL     1     142.489 136.825 144.944  1.00  0.00     0.003 C 
ATOM     16  C   UNL     1     143.427 136.493 146.129  1.00  0.00     0.005 C 
ATOM     17  C   UNL     1     142.662 135.907 147.311  1.00  0.00     0.008 C 
ATOM     18  C   UNL     1     142.037 134.508 147.018  1.00  0.00    -0.024 C 
ATOM     19  C   UNL     1     141.077 134.002 148.253  1.00  0.00    -0.024 C 
ATOM     20  C   UNL     1     140.365 135.229 148.921  1.00  0.00     0.008 C 
ATOM     21  C   UNL     1     139.217 134.843 149.842  1.00  0.00     0.007 C 
ATOM     22  C   UNL     1     141.962 133.346 149.363  1.00  0.00     0.012 C 
ATOM     23  C   UNL     1     143.254 133.531 146.825  1.00  0.00     0.012 C 
ATOM     24  C   UNL     1     144.268 138.666 144.376  1.00  0.00     0.014 C 
ATOM     25  C   UNL     1     142.256 138.487 142.936  1.00  0.00     0.014 C 
ATOM     26  C   UNL     1     140.388 135.995 143.720  1.00  0.00     0.012 C 
ATOM     27  C   UNL     1     137.145 135.495 148.520  1.00  0.00     0.011 C 
ENDROOT
BRANCH   1  28
ATOM     28  C   UNL     1     137.773 130.776 147.686  1.00  0.00    -0.077 C 
ATOM     29  C   UNL     1     138.284 129.977 148.858  1.00  0.00     0.039 C 
ATOM     30  C   UNL     1     137.617 130.136 146.511  1.00  0.00     0.008 C 
ENDBRANCH   1  28
BRANCH  13  31
ATOM     31  O   UNL     1     144.637 137.362 141.805  1.00  0.00    -0.393 OA
ATOM     32  H   UNL     1     144.990 138.216 142.171  1.00  0.00     0.210 HD
ENDBRANCH  13  31
TORSDOF 2
ENDMDL
MODEL 5
REMARK VINA RESULT:    -6.119      3.374      7.874
REMARK INTER + INTRA:          -7.075
REMARK INTER:                  -6.657
REMARK INTRA:                  -0.418
REMARK UNBOUND:                -0.419
REMARK SMILES C=C(C)[C@H]1CC[C@@]2(C)CC[C@@]3(C)[C@H](CC[C@@H]4[C@]5(C)CC[C@@H](O)C(C)(C)[C@@H]5CC[C@]43C)[C@@H]12
REMARK SMILES IDX 4 1 5 2 6 3 7 4 31 5 13 6 14 7 15 8 16 9 17 10 19 11 20 12
REMARK SMILES IDX 21 13 23 14 26 15 27 16 28 17 29 18 11 19 10 20 9 21 12 22
REMARK SMILES IDX 30 23 24 24 25 25 18 26 8 27 2 28 3 29 1 30 22 31
REMARK H PARENT 22 32
REMARK Flexibility Score: inf
ROOT
ATOM      1  C   UNL     1     137.059 140.727 139.485  1.00  0.00     0.018 C 
ATOM      2  C   UNL     1     135.710 141.209 140.030  1.00  0.00     0.009 C 
ATOM      3  C   UNL     1     135.641 140.749 141.469  1.00  0.00     0.008 C 
ATOM      4  C   UNL     1     137.094 140.661 141.967  1.00  0.00    -0.029 C 
ATOM      5  C   UNL     1     137.950 140.275 140.711  1.00  0.00     0.006 C 
ATOM      6  C   UNL     1     138.515 138.793 140.683  1.00  0.00    -0.000 C 
ATOM      7  C   UNL     1     139.547 138.628 139.537  1.00  0.00     0.005 C 
ATOM      8  C   UNL     1     140.990 139.072 139.847  1.00  0.00     0.005 C 
ATOM      9  C   UNL     1     141.368 139.116 141.359  1.00  0.00     0.002 C 
ATOM     10  C   UNL     1     142.939 139.437 141.625  1.00  0.00    -0.026 C 
ATOM     11  C   UNL     1     143.873 138.658 140.641  1.00  0.00     0.010 C 
ATOM     12  C   UNL     1     145.375 138.772 140.927  1.00  0.00     0.033 C 
ATOM     13  C   UNL     1     145.726 138.368 142.362  1.00  0.00     0.120 C 
ATOM     14  C   UNL     1     144.954 139.198 143.427  1.00  0.00    -0.006 C 
ATOM     15  C   UNL     1     143.375 139.156 143.136  1.00  0.00     0.003 C 
ATOM     16  C   UNL     1     142.727 137.856 143.670  1.00  0.00     0.005 C 
ATOM     17  C   UNL     1     141.205 137.903 143.579  1.00  0.00     0.008 C 
ATOM     18  C   UNL     1     140.668 137.929 142.114  1.00  0.00    -0.024 C 
ATOM     19  C   UNL     1     139.042 138.159 142.068  1.00  0.00    -0.024 C 
ATOM     20  C   UNL     1     138.594 139.087 143.250  1.00  0.00     0.008 C 
ATOM     21  C   UNL     1     137.178 139.624 143.104  1.00  0.00     0.007 C 
ATOM     22  C   UNL     1     138.317 136.790 142.282  1.00  0.00     0.012 C 
ATOM     23  C   UNL     1     141.049 136.534 141.498  1.00  0.00     0.012 C 
ATOM     24  C   UNL     1     145.301 138.594 144.825  1.00  0.00     0.014 C 
ATOM     25  C   UNL     1     145.483 140.669 143.478  1.00  0.00     0.014 C 
ATOM     26  C   UNL     1     143.114 140.965 141.330  1.00  0.00     0.012 C 
ATOM     27  C   UNL     1     137.525 142.069 142.494  1.00  0.00     0.011 C 
ENDROOT
BRANCH   1  28
ATOM     28  C   UNL     1     136.856 139.775 138.293  1.00  0.00    -0.077 C 
ATOM     29  C   UNL     1     135.963 138.563 138.375  1.00  0.00     0.039 C 
ATOM     30  C   UNL     1     137.417 140.061 137.102  1.00  0.00     0.008 C 
ENDBRANCH   1  28
BRANCH  13  31
ATOM     31  O   UNL     1     147.115 138.500 142.557  1.00  0.00    -0.393 OA
ATOM     32  H   UNL     1     147.510 138.745 141.678  1.00  0.00     0.210 HD
ENDBRANCH  13  31
TORSDOF 2
ENDMDL
MODEL 6
REMARK VINA RESULT:    -6.081      4.175      7.281
REMARK INTER + INTRA:          -7.033
REMARK INTER:                  -6.613
REMARK INTRA:                  -0.420
REMARK UNBOUND:                -0.419
REMARK SMILES C=C(C)[C@H]1CC[C@@]2(C)CC[C@@]3(C)[C@H](CC[C@@H]4[C@]5(C)CC[C@@H](O)C(C)(C)[C@@H]5CC[C@]43C)[C@@H]12
REMARK SMILES IDX 4 1 5 2 6 3 7 4 31 5 13 6 14 7 15 8 16 9 17 10 19 11 20 12
REMARK SMILES IDX 21 13 23 14 26 15 27 16 28 17 29 18 11 19 10 20 9 21 12 22
REMARK SMILES IDX 30 23 24 24 25 25 18 26 8 27 2 28 3 29 1 30 22 31
REMARK H PARENT 22 32
REMARK Flexibility Score: inf
ROOT
ATOM      1  C   UNL     1     138.402 143.304 140.863  1.00  0.00     0.018 C 
ATOM      2  C   UNL     1     137.839 143.717 142.228  1.00  0.00     0.009 C 
ATOM      3  C   UNL     1     138.900 143.373 143.250  1.00  0.00     0.008 C 
ATOM      4  C   UNL     1     140.250 143.445 142.517  1.00  0.00    -0.029 C 
ATOM      5  C   UNL     1     139.950 143.030 141.035  1.00  0.00     0.006 C 
ATOM      6  C   UNL     1     140.483 141.602 140.592  1.00  0.00    -0.000 C 
ATOM      7  C   UNL     1     140.355 141.429 139.056  1.00  0.00     0.005 C 
ATOM      8  C   UNL     1     141.500 142.014 138.205  1.00  0.00     0.005 C 
ATOM      9  C   UNL     1     142.855 142.213 138.950  1.00  0.00     0.002 C 
ATOM     10  C   UNL     1     144.068 142.683 137.976  1.00  0.00    -0.026 C 
ATOM     11  C   UNL     1     144.066 141.905 136.618  1.00  0.00     0.010 C 
ATOM     12  C   UNL     1     145.270 142.165 135.707  1.00  0.00     0.033 C 
ATOM     13  C   UNL     1     146.603 141.912 136.417  1.00  0.00     0.120 C 
ATOM     14  C   UNL     1     146.768 142.759 137.710  1.00  0.00    -0.006 C 
ATOM     15  C   UNL     1     145.498 142.564 138.676  1.00  0.00     0.003 C 
ATOM     16  C   UNL     1     145.605 141.263 139.508  1.00  0.00     0.005 C 
ATOM     17  C   UNL     1     144.511 141.177 140.566  1.00  0.00     0.008 C 
ATOM     18  C   UNL     1     143.075 141.038 139.971  1.00  0.00    -0.024 C 
ATOM     19  C   UNL     1     141.923 141.130 141.138  1.00  0.00    -0.024 C 
ATOM     20  C   UNL     1     142.379 142.111 142.273  1.00  0.00     0.008 C 
ATOM     21  C   UNL     1     141.258 142.516 143.219  1.00  0.00     0.007 C 
ATOM     22  C   UNL     1     141.752 139.728 141.810  1.00  0.00     0.012 C 
ATOM     23  C   UNL     1     143.043 139.633 139.266  1.00  0.00     0.012 C 
ATOM     24  C   UNL     1     148.094 142.303 138.398  1.00  0.00     0.014 C 
ATOM     25  C   UNL     1     146.989 144.268 137.362  1.00  0.00     0.014 C 
ATOM     26  C   UNL     1     143.792 144.191 137.655  1.00  0.00     0.012 C 
ATOM     27  C   UNL     1     140.762 144.923 142.563  1.00  0.00     0.011 C 
ENDROOT
BRANCH   1  28
ATOM     28  C   UNL     1     137.504 142.245 140.202  1.00  0.00    -0.077 C 
ATOM     29  C   UNL     1     137.092 140.982 140.915  1.00  0.00     0.039 C 
ATOM     30  C   UNL     1     136.990 142.471 138.978  1.00  0.00     0.008 C 
ENDBRANCH   1  28
BRANCH  13  31
ATOM     31  O   UNL     1     147.663 142.173 135.526  1.00  0.00    -0.393 OA
ATOM     32  H   UNL     1     148.303 142.765 136.003  1.00  0.00     0.210 HD
ENDBRANCH  13  31
TORSDOF 2
ENDMDL
MODEL 7
REMARK VINA RESULT:    -6.043      3.391      7.674
REMARK INTER + INTRA:          -6.992
REMARK INTER:                  -6.725
REMARK INTRA:                  -0.267
REMARK UNBOUND:                -0.419
REMARK SMILES C=C(C)[C@H]1CC[C@@]2(C)CC[C@@]3(C)[C@H](CC[C@@H]4[C@]5(C)CC[C@@H](O)C(C)(C)[C@@H]5CC[C@]43C)[C@@H]12
REMARK SMILES IDX 4 1 5 2 6 3 7 4 31 5 13 6 14 7 15 8 16 9 17 10 19 11 20 12
REMARK SMILES IDX 21 13 23 14 26 15 27 16 28 17 29 18 11 19 10 20 9 21 12 22
REMARK SMILES IDX 30 23 24 24 25 25 18 26 8 27 2 28 3 29 1 30 22 31
REMARK H PARENT 22 32
REMARK Flexibility Score: inf
ROOT
ATOM      1  C   UNL     1     144.509 140.844 142.770  1.00  0.00     0.018 C 
ATOM      2  C   UNL     1     143.882 141.873 141.822  1.00  0.00     0.009 C 
ATOM      3  C   UNL     1     142.595 141.260 141.317  1.00  0.00     0.008 C 
ATOM      4  C   UNL     1     142.113 140.294 142.413  1.00  0.00    -0.029 C 
ATOM      5  C   UNL     1     143.414 139.751 143.101  1.00  0.00     0.006 C 
ATOM      6  C   UNL     1     143.786 138.240 142.790  1.00  0.00    -0.000 C 
ATOM      7  C   UNL     1     144.925 137.760 143.727  1.00  0.00     0.005 C 
ATOM      8  C   UNL     1     144.499 137.268 145.125  1.00  0.00     0.005 C 
ATOM      9  C   UNL     1     143.016 136.806 145.249  1.00  0.00     0.002 C 
ATOM     10  C   UNL     1     142.659 136.153 146.694  1.00  0.00    -0.026 C 
ATOM     11  C   UNL     1     143.789 135.195 147.201  1.00  0.00     0.010 C 
ATOM     12  C   UNL     1     143.464 134.407 148.474  1.00  0.00     0.033 C 
ATOM     13  C   UNL     1     142.161 133.610 148.351  1.00  0.00     0.120 C 
ATOM     14  C   UNL     1     140.940 134.504 147.995  1.00  0.00    -0.006 C 
ATOM     15  C   UNL     1     141.253 135.395 146.695  1.00  0.00     0.003 C 
ATOM     16  C   UNL     1     141.053 134.591 145.387  1.00  0.00     0.005 C 
ATOM     17  C   UNL     1     141.151 135.482 144.154  1.00  0.00     0.008 C 
ATOM     18  C   UNL     1     142.574 136.080 143.927  1.00  0.00    -0.024 C 
ATOM     19  C   UNL     1     142.585 137.170 142.697  1.00  0.00    -0.024 C 
ATOM     20  C   UNL     1     141.223 137.944 142.648  1.00  0.00     0.008 C 
ATOM     21  C   UNL     1     141.256 139.187 141.771  1.00  0.00     0.007 C 
ATOM     22  C   UNL     1     142.713 136.414 141.335  1.00  0.00     0.012 C 
ATOM     23  C   UNL     1     143.500 134.855 143.592  1.00  0.00     0.012 C 
ATOM     24  C   UNL     1     139.721 133.555 147.766  1.00  0.00     0.014 C 
ATOM     25  C   UNL     1     140.533 135.400 149.211  1.00  0.00     0.014 C 
ATOM     26  C   UNL     1     142.580 137.355 147.694  1.00  0.00     0.012 C 
ATOM     27  C   UNL     1     141.260 141.101 143.446  1.00  0.00     0.011 C 
ENDROOT
BRANCH   1  28
ATOM     28  C   UNL     1     145.896 140.410 142.264  1.00  0.00    -0.077 C 
ATOM     29  C   UNL     1     147.068 140.222 143.194  1.00  0.00     0.039 C 
ATOM     30  C   UNL     1     146.070 140.101 140.965  1.00  0.00     0.008 C 
ENDBRANCH   1  28
BRANCH  13  31
ATOM     31  O   UNL     1     141.923 132.917 149.553  1.00  0.00    -0.393 OA
ATOM     32  H   UNL     1     142.694 132.305 149.694  1.00  0.00     0.210 HD
ENDBRANCH  13  31
TORSDOF 2
ENDMDL
MODEL 8
REMARK VINA RESULT:    -6.021      2.879      4.300
REMARK INTER + INTRA:          -6.969
REMARK INTER:                  -6.554
REMARK INTRA:                  -0.415
REMARK UNBOUND:                -0.419
REMARK SMILES C=C(C)[C@H]1CC[C@@]2(C)CC[C@@]3(C)[C@H](CC[C@@H]4[C@]5(C)CC[C@@H](O)C(C)(C)[C@@H]5CC[C@]43C)[C@@H]12
REMARK SMILES IDX 4 1 5 2 6 3 7 4 31 5 13 6 14 7 15 8 16 9 17 10 19 11 20 12
REMARK SMILES IDX 21 13 23 14 26 15 27 16 28 17 29 18 11 19 10 20 9 21 12 22
REMARK SMILES IDX 30 23 24 24 25 25 18 26 8 27 2 28 3 29 1 30 22 31
REMARK H PARENT 22 32
REMARK Flexibility Score: inf
ROOT
ATOM      1  C   UNL     1     144.043 138.318 143.432  1.00  0.00     0.018 C 
ATOM      2  C   UNL     1     145.481 138.134 142.933  1.00  0.00     0.009 C 
ATOM      3  C   UNL     1     145.382 137.784 141.464  1.00  0.00     0.008 C 
ATOM      4  C   UNL     1     144.082 138.426 140.951  1.00  0.00    -0.029 C 
ATOM      5  C   UNL     1     143.095 138.417 142.170  1.00  0.00     0.006 C 
ATOM      6  C   UNL     1     141.895 137.383 142.086  1.00  0.00    -0.000 C 
ATOM      7  C   UNL     1     140.863 137.659 143.210  1.00  0.00     0.005 C 
ATOM      8  C   UNL     1     139.815 138.752 142.923  1.00  0.00     0.005 C 
ATOM      9  C   UNL     1     139.564 139.061 141.416  1.00  0.00     0.002 C 
ATOM     10  C   UNL     1     138.345 140.105 141.162  1.00  0.00    -0.026 C 
ATOM     11  C   UNL     1     137.114 139.804 142.081  1.00  0.00     0.010 C 
ATOM     12  C   UNL     1     135.858 140.634 141.793  1.00  0.00     0.033 C 
ATOM     13  C   UNL     1     135.415 140.533 140.330  1.00  0.00     0.120 C 
ATOM     14  C   UNL     1     136.530 140.959 139.333  1.00  0.00    -0.006 C 
ATOM     15  C   UNL     1     137.889 140.155 139.632  1.00  0.00     0.003 C 
ATOM     16  C   UNL     1     137.867 138.739 139.009  1.00  0.00     0.005 C 
ATOM     17  C   UNL     1     139.224 138.052 139.115  1.00  0.00     0.008 C 
ATOM     18  C   UNL     1     139.650 137.732 140.582  1.00  0.00    -0.024 C 
ATOM     19  C   UNL     1     141.188 137.160 140.655  1.00  0.00    -0.024 C 
ATOM     20  C   UNL     1     142.069 137.833 139.547  1.00  0.00     0.008 C 
ATOM     21  C   UNL     1     143.564 137.624 139.742  1.00  0.00     0.007 C 
ATOM     22  C   UNL     1     141.187 135.626 140.348  1.00  0.00     0.012 C 
ATOM     23  C   UNL     1     138.629 136.650 141.093  1.00  0.00     0.012 C 
ATOM     24  C   UNL     1     135.997 140.677 137.892  1.00  0.00     0.014 C 
ATOM     25  C   UNL     1     136.763 142.505 139.385  1.00  0.00     0.014 C 
ATOM     26  C   UNL     1     138.901 141.511 141.565  1.00  0.00     0.012 C 
ATOM     27  C   UNL     1     144.389 139.899 140.524  1.00  0.00     0.011 C 
ENDROOT
BRANCH   1  28
ATOM     28  C   UNL     1     143.724 137.314 144.554  1.00  0.00    -0.077 C 
ATOM     29  C   UNL     1     143.910 135.828 144.379  1.00  0.00     0.039 C 
ATOM     30  C   UNL     1     143.344 137.761 145.766  1.00  0.00     0.008 C 
ENDBRANCH   1  28
BRANCH  13  31
ATOM     31  O   UNL     1     134.263 141.319 140.135  1.00  0.00    -0.393 OA
ATOM     32  H   UNL     1     133.557 140.716 139.780  1.00  0.00     0.210 HD
ENDBRANCH  13  31
TORSDOF 2
ENDMDL
MODEL 9
REMARK VINA RESULT:    -6.019      2.843      4.724
REMARK INTER + INTRA:          -6.966
REMARK INTER:                  -6.559
REMARK INTRA:                  -0.408
REMARK UNBOUND:                -0.419
REMARK SMILES C=C(C)[C@H]1CC[C@@]2(C)CC[C@@]3(C)[C@H](CC[C@@H]4[C@]5(C)CC[C@@H](O)C(C)(C)[C@@H]5CC[C@]43C)[C@@H]12
REMARK SMILES IDX 4 1 5 2 6 3 7 4 31 5 13 6 14 7 15 8 16 9 17 10 19 11 20 12
REMARK SMILES IDX 21 13 23 14 26 15 27 16 28 17 29 18 11 19 10 20 9 21 12 22
REMARK SMILES IDX 30 23 24 24 25 25 18 26 8 27 2 28 3 29 1 30 22 31
REMARK H PARENT 22 32
REMARK Flexibility Score: inf
ROOT
ATOM      1  C   UNL     1     145.984 141.124 141.864  1.00  0.00     0.018 C 
ATOM      2  C   UNL     1     147.111 141.520 140.904  1.00  0.00     0.009 C 
ATOM      3  C   UNL     1     146.647 141.133 139.517  1.00  0.00     0.008 C 
ATOM      4  C   UNL     1     145.111 141.191 139.540  1.00  0.00    -0.029 C 
ATOM      5  C   UNL     1     144.694 140.812 141.003  1.00  0.00     0.006 C 
ATOM      6  C   UNL     1     144.031 139.383 141.190  1.00  0.00    -0.000 C 
ATOM      7  C   UNL     1     143.434 139.244 142.614  1.00  0.00     0.005 C 
ATOM      8  C   UNL     1     142.020 139.822 142.822  1.00  0.00     0.005 C 
ATOM      9  C   UNL     1     141.162 139.976 141.530  1.00  0.00     0.002 C 
ATOM     10  C   UNL     1     139.631 140.440 141.819  1.00  0.00    -0.026 C 
ATOM     11  C   UNL     1     139.012 139.691 143.045  1.00  0.00     0.010 C 
ATOM     12  C   UNL     1     137.520 139.943 143.287  1.00  0.00     0.033 C 
ATOM     13  C   UNL     1     136.670 139.646 142.049  1.00  0.00     0.120 C 
ATOM     14  C   UNL     1     137.115 140.463 140.803  1.00  0.00    -0.006 C 
ATOM     15  C   UNL     1     138.689 140.276 140.540  1.00  0.00     0.003 C 
ATOM     16  C   UNL     1     138.992 138.957 139.790  1.00  0.00     0.005 C 
ATOM     17  C   UNL     1     140.452 138.872 139.360  1.00  0.00     0.008 C 
ATOM     18  C   UNL     1     141.450 138.776 140.556  1.00  0.00    -0.024 C 
ATOM     19  C   UNL     1     143.011 138.869 140.052  1.00  0.00    -0.024 C 
ATOM     20  C   UNL     1     143.123 139.817 138.809  1.00  0.00     0.008 C 
ATOM     21  C   UNL     1     144.551 140.226 138.477  1.00  0.00     0.007 C 
ATOM     22  C   UNL     1     143.487 137.457 139.576  1.00  0.00     0.012 C 
ATOM     23  C   UNL     1     141.166 137.387 141.235  1.00  0.00     0.012 C 
ATOM     24  C   UNL     1     136.263 139.965 139.593  1.00  0.00     0.014 C 
ATOM     25  C   UNL     1     136.743 141.974 140.966  1.00  0.00     0.014 C 
ATOM     26  C   UNL     1     139.713 141.959 142.188  1.00  0.00     0.012 C 
ATOM     27  C   UNL     1     144.664 142.656 139.221  1.00  0.00     0.011 C 
ENDROOT
BRANCH   1  28
ATOM     28  C   UNL     1     146.483 140.097 142.896  1.00  0.00    -0.077 C 
ATOM     29  C   UNL     1     147.285 138.884 142.499  1.00  0.00     0.039 C 
ATOM     30  C   UNL     1     146.281 140.314 144.210  1.00  0.00     0.008 C 
ENDBRANCH   1  28
BRANCH  13  31
ATOM     31  O   UNL     1     135.315 139.903 142.340  1.00  0.00    -0.393 OA
ATOM     32  H   UNL     1     134.858 140.067 141.472  1.00  0.00     0.210 HD
ENDBRANCH  13  31
TORSDOF 2
ENDMDL
