MODEL 1
REMARK VINA RESULT:    -5.693      0.000      0.000
REMARK INTER + INTRA:         -11.464
REMARK INTER:                 -10.351
REMARK INTRA:                  -1.113
REMARK UNBOUND:                -1.113
REMARK SMILES CCCCCCCCCCCCCCCC(=O)[O-]
REMARK SMILES IDX 9 1 10 2 11 3 12 4 13 5 14 6 15 7 16 8 17 9 18 10 8 11 7 12
REMARK SMILES IDX 6 13 5 14 4 15 3 16 2 17 1 18
REMARK H PARENT
REMARK Flexibility Score: inf
ROOT
ATOM      1  C   UNL     1      19.480  11.781  46.008  1.00  0.00     0.000 C 
ENDROOT
BRANCH   1   2
ATOM      2  C   UNL     1      19.499  13.104  45.222  1.00  0.00     0.000 C 
BRANCH   2   3
ATOM      3  C   UNL     1      20.605  13.144  44.156  1.00  0.00     0.000 C 
BRANCH   3   4
ATOM      4  C   UNL     1      20.080  13.584  42.778  1.00  0.00     0.000 C 
BRANCH   4   5
ATOM      5  C   UNL     1      19.266  14.890  42.836  1.00  0.00     0.000 C 
BRANCH   5   6
ATOM      6  C   UNL     1      20.094  16.185  42.700  1.00  0.00     0.006 C 
BRANCH   6   7
ATOM      7  C   UNL     1      20.930  16.277  41.414  1.00  0.00     0.053 C 
BRANCH   7   8
ATOM      8  C   UNL     1      22.398  16.355  41.705  1.00  0.00     0.041 C 
ATOM      9  O   UNL     1      22.874  17.357  42.300  1.00  0.00    -0.550 OA
ATOM     10  O   UNL     1      23.234  15.305  41.347  1.00  0.00    -0.550 OA
ENDBRANCH   7   8
ENDBRANCH   6   7
ENDBRANCH   5   6
ENDBRANCH   4   5
ENDBRANCH   3   4
ENDBRANCH   2   3
ENDBRANCH   1   2
BRANCH   1  11
ATOM     11  C   UNL     1      20.531  10.775  45.506  1.00  0.00     0.000 C 
BRANCH  11  12
ATOM     12  C   UNL     1      19.989   9.362  45.205  1.00  0.00    -0.000 C 
BRANCH  12  13
ATOM     13  C   UNL     1      20.713   8.613  44.072  1.00  0.00    -0.000 C 
BRANCH  13  14
ATOM     14  C   UNL     1      20.772   9.417  42.766  1.00  0.00    -0.000 C 
BRANCH  14  15
ATOM     15  C   UNL     1      20.084   8.661  41.624  1.00  0.00    -0.000 C 
BRANCH  15  16
ATOM     16  C   UNL     1      19.705   9.611  40.482  1.00  0.00    -0.000 C 
BRANCH  16  17
ATOM     17  C   UNL     1      19.011   8.855  39.344  1.00  0.00    -0.003 C 
ATOM     18  C   UNL     1      17.770   8.122  39.845  1.00  0.00     0.004 C 
ENDBRANCH  16  17
ENDBRANCH  15  16
ENDBRANCH  14  15
ENDBRANCH  13  14
ENDBRANCH  12  13
ENDBRANCH  11  12
ENDBRANCH   1  11
TORSDOF 14
ENDMDL
MODEL 2
REMARK VINA RESULT:    -5.578      1.214      2.498
REMARK INTER + INTRA:         -11.256
REMARK INTER:                  -9.816
REMARK INTRA:                  -1.440
REMARK UNBOUND:                -1.113
REMARK SMILES CCCCCCCCCCCCCCCC(=O)[O-]
REMARK SMILES IDX 9 1 10 2 11 3 12 4 13 5 14 6 15 7 16 8 17 9 18 10 8 11 7 12
REMARK SMILES IDX 6 13 5 14 4 15 3 16 2 17 1 18
REMARK H PARENT
REMARK Flexibility Score: inf
ROOT
ATOM      1  C   UNL     1      20.041   9.088  45.127  1.00  0.00     0.000 C 
ENDROOT
BRANCH   1   2
ATOM      2  C   UNL     1      20.619  10.395  45.699  1.00  0.00     0.000 C 
BRANCH   2   3
ATOM      3  C   UNL     1      19.528  11.382  46.142  1.00  0.00     0.000 C 
BRANCH   3   4
ATOM      4  C   UNL     1      19.714  12.780  45.527  1.00  0.00     0.000 C 
BRANCH   4   5
ATOM      5  C   UNL     1      20.268  12.735  44.091  1.00  0.00     0.000 C 
BRANCH   5   6
ATOM      6  C   UNL     1      20.789  14.081  43.547  1.00  0.00     0.006 C 
BRANCH   6   7
ATOM      7  C   UNL     1      19.718  14.962  42.887  1.00  0.00     0.053 C 
BRANCH   7   8
ATOM      8  C   UNL     1      20.200  16.364  42.669  1.00  0.00     0.041 C 
ATOM      9  O   UNL     1      19.410  17.248  42.247  1.00  0.00    -0.550 OA
ATOM     10  O   UNL     1      21.515  16.699  42.965  1.00  0.00    -0.550 OA
ENDBRANCH   7   8
ENDBRANCH   6   7
ENDBRANCH   5   6
ENDBRANCH   4   5
ENDBRANCH   3   4
ENDBRANCH   2   3
ENDBRANCH   1   2
BRANCH   1  11
ATOM     11  C   UNL     1      20.631   8.728  43.752  1.00  0.00     0.000 C 
BRANCH  11  12
ATOM     12  C   UNL     1      21.818   9.605  43.302  1.00  0.00    -0.000 C 
BRANCH  12  13
ATOM     13  C   UNL     1      21.786  10.037  41.824  1.00  0.00    -0.000 C 
BRANCH  13  14
ATOM     14  C   UNL     1      20.370  10.037  41.232  1.00  0.00    -0.000 C 
BRANCH  14  15
ATOM     15  C   UNL     1      20.404   9.739  39.729  1.00  0.00    -0.000 C 
BRANCH  15  16
ATOM     16  C   UNL     1      19.794   8.366  39.425  1.00  0.00    -0.000 C 
BRANCH  16  17
ATOM     17  C   UNL     1      18.641   8.050  40.384  1.00  0.00    -0.003 C 
ATOM     18  C   UNL     1      17.292   8.165  39.682  1.00  0.00     0.004 C 
ENDBRANCH  16  17
ENDBRANCH  15  16
ENDBRANCH  14  15
ENDBRANCH  13  14
ENDBRANCH  12  13
ENDBRANCH  11  12
ENDBRANCH   1  11
TORSDOF 14
ENDMDL
MODEL 3
REMARK VINA RESULT:    -5.576     10.233     12.136
REMARK INTER + INTRA:         -11.253
REMARK INTER:                  -9.989
REMARK INTRA:                  -1.263
REMARK UNBOUND:                -1.113
REMARK SMILES CCCCCCCCCCCCCCCC(=O)[O-]
REMARK SMILES IDX 9 1 10 2 11 3 12 4 13 5 14 6 15 7 16 8 17 9 18 10 8 11 7 12
REMARK SMILES IDX 6 13 5 14 4 15 3 16 2 17 1 18
REMARK H PARENT
REMARK Flexibility Score: inf
ROOT
ATOM      1  C   UNL     1       9.350   9.299  39.378  1.00  0.00     0.000 C 
ENDROOT
BRANCH   1   2
ATOM      2  C   UNL     1       9.049  10.604  38.620  1.00  0.00     0.000 C 
BRANCH   2   3
ATOM      3  C   UNL     1      10.125  11.678  38.838  1.00  0.00     0.000 C 
BRANCH   3   4
ATOM      4  C   UNL     1       9.539  13.002  39.360  1.00  0.00     0.000 C 
BRANCH   4   5
ATOM      5  C   UNL     1       8.705  12.824  40.642  1.00  0.00     0.000 C 
BRANCH   5   6
ATOM      6  C   UNL     1       9.221  13.597  41.873  1.00  0.00     0.006 C 
BRANCH   6   7
ATOM      7  C   UNL     1       8.277  14.698  42.379  1.00  0.00     0.053 C 
BRANCH   7   8
ATOM      8  C   UNL     1       8.697  16.057  41.907  1.00  0.00     0.041 C 
ATOM      9  O   UNL     1       7.831  16.934  41.651  1.00  0.00    -0.550 OA
ATOM     10  O   UNL     1      10.046  16.363  41.782  1.00  0.00    -0.550 OA
ENDBRANCH   7   8
ENDBRANCH   6   7
ENDBRANCH   5   6
ENDBRANCH   4   5
ENDBRANCH   3   4
ENDBRANCH   2   3
ENDBRANCH   1   2
BRANCH   1  11
ATOM     11  C   UNL     1       8.076   8.582  39.858  1.00  0.00     0.000 C 
BRANCH  11  12
ATOM     12  C   UNL     1       7.595   8.982  41.268  1.00  0.00    -0.000 C 
BRANCH  12  13
ATOM     13  C   UNL     1       8.670   8.913  42.369  1.00  0.00    -0.000 C 
BRANCH  13  14
ATOM     14  C   UNL     1       8.718  10.179  43.236  1.00  0.00    -0.000 C 
BRANCH  14  15
ATOM     15  C   UNL     1       8.678   9.823  44.727  1.00  0.00    -0.000 C 
BRANCH  15  16
ATOM     16  C   UNL     1      10.090   9.800  45.326  1.00  0.00    -0.000 C 
BRANCH  16  17
ATOM     17  C   UNL     1      10.713   8.405  45.212  1.00  0.00    -0.003 C 
ATOM     18  C   UNL     1      12.234   8.470  45.310  1.00  0.00     0.004 C 
ENDBRANCH  16  17
ENDBRANCH  15  16
ENDBRANCH  14  15
ENDBRANCH  13  14
ENDBRANCH  12  13
ENDBRANCH  11  12
ENDBRANCH   1  11
TORSDOF 14
ENDMDL
MODEL 4
REMARK VINA RESULT:    -5.421      1.475      1.845
REMARK INTER + INTRA:         -10.971
REMARK INTER:                  -9.719
REMARK INTRA:                  -1.252
REMARK UNBOUND:                -1.113
REMARK SMILES CCCCCCCCCCCCCCCC(=O)[O-]
REMARK SMILES IDX 9 1 10 2 11 3 12 4 13 5 14 6 15 7 16 8 17 9 18 10 8 11 7 12
REMARK SMILES IDX 6 13 5 14 4 15 3 16 2 17 1 18
REMARK H PARENT
REMARK Flexibility Score: inf
ROOT
ATOM      1  C   UNL     1      20.708  12.393  42.445  1.00  0.00     0.000 C 
ENDROOT
BRANCH   1   2
ATOM      2  C   UNL     1      20.320  12.872  43.855  1.00  0.00     0.000 C 
BRANCH   2   3
ATOM      3  C   UNL     1      20.107  14.392  43.927  1.00  0.00     0.000 C 
BRANCH   3   4
ATOM      4  C   UNL     1      19.272  14.926  42.750  1.00  0.00     0.000 C 
BRANCH   4   5
ATOM      5  C   UNL     1      19.489  16.429  42.493  1.00  0.00     0.000 C 
BRANCH   5   6
ATOM      6  C   UNL     1      20.957  16.854  42.286  1.00  0.00     0.006 C 
BRANCH   6   7
ATOM      7  C   UNL     1      21.619  16.275  41.027  1.00  0.00     0.053 C 
BRANCH   7   8
ATOM      8  C   UNL     1      22.905  15.574  41.341  1.00  0.00     0.041 C 
ATOM      9  O   UNL     1      23.083  15.051  42.472  1.00  0.00    -0.550 OA
ATOM     10  O   UNL     1      23.894  15.470  40.371  1.00  0.00    -0.550 OA
ENDBRANCH   7   8
ENDBRANCH   6   7
ENDBRANCH   5   6
ENDBRANCH   4   5
ENDBRANCH   3   4
ENDBRANCH   2   3
ENDBRANCH   1   2
BRANCH   1  11
ATOM     11  C   UNL     1      21.811  11.321  42.463  1.00  0.00     0.000 C 
BRANCH  11  12
ATOM     12  C   UNL     1      21.479  10.058  43.286  1.00  0.00    -0.000 C 
BRANCH  12  13
ATOM     13  C   UNL     1      21.672   8.724  42.540  1.00  0.00    -0.000 C 
BRANCH  13  14
ATOM     14  C   UNL     1      20.444   8.318  41.715  1.00  0.00    -0.000 C 
BRANCH  14  15
ATOM     15  C   UNL     1      20.569   8.808  40.268  1.00  0.00    -0.000 C 
BRANCH  15  16
ATOM     16  C   UNL     1      19.238   9.376  39.760  1.00  0.00    -0.000 C 
BRANCH  16  17
ATOM     17  C   UNL     1      18.338   8.262  39.213  1.00  0.00    -0.003 C 
ATOM     18  C   UNL     1      17.110   8.061  40.095  1.00  0.00     0.004 C 
ENDBRANCH  16  17
ENDBRANCH  15  16
ENDBRANCH  14  15
ENDBRANCH  13  14
ENDBRANCH  12  13
ENDBRANCH  11  12
ENDBRANCH   1  11
TORSDOF 14
ENDMDL
MODEL 5
REMARK VINA RESULT:    -5.366     10.465     12.575
REMARK INTER + INTRA:         -10.871
REMARK INTER:                  -9.355
REMARK INTRA:                  -1.516
REMARK UNBOUND:                -1.113
REMARK SMILES CCCCCCCCCCCCCCCC(=O)[O-]
REMARK SMILES IDX 9 1 10 2 11 3 12 4 13 5 14 6 15 7 16 8 17 9 18 10 8 11 7 12
REMARK SMILES IDX 6 13 5 14 4 15 3 16 2 17 1 18
REMARK H PARENT
REMARK Flexibility Score: inf
ROOT
ATOM      1  C   UNL     1       6.839   9.594  39.807  1.00  0.00     0.000 C 
ENDROOT
BRANCH   1   2
ATOM      2  C   UNL     1       7.974   8.559  39.722  1.00  0.00     0.000 C 
BRANCH   2   3
ATOM      3  C   UNL     1       9.348   9.206  39.485  1.00  0.00     0.000 C 
BRANCH   3   4
ATOM      4  C   UNL     1       9.308  10.295  38.400  1.00  0.00     0.000 C 
BRANCH   4   5
ATOM      5  C   UNL     1       9.915  11.630  38.868  1.00  0.00     0.000 C 
BRANCH   5   6
ATOM      6  C   UNL     1       9.198  12.296  40.061  1.00  0.00     0.006 C 
BRANCH   6   7
ATOM      7  C   UNL     1       9.446  13.806  40.195  1.00  0.00     0.053 C 
BRANCH   7   8
ATOM      8  C   UNL     1       9.322  14.270  41.614  1.00  0.00     0.041 C 
ATOM      9  O   UNL     1       8.700  13.573  42.457  1.00  0.00    -0.550 OA
ATOM     10  O   UNL     1       9.923  15.458  42.011  1.00  0.00    -0.550 OA
ENDBRANCH   7   8
ENDBRANCH   6   7
ENDBRANCH   5   6
ENDBRANCH   4   5
ENDBRANCH   3   4
ENDBRANCH   2   3
ENDBRANCH   1   2
BRANCH   1  11
ATOM     11  C   UNL     1       6.185   9.646  41.199  1.00  0.00     0.000 C 
BRANCH  11  12
ATOM     12  C   UNL     1       6.744  10.732  42.142  1.00  0.00    -0.000 C 
BRANCH  12  13
ATOM     13  C   UNL     1       7.351  10.206  43.456  1.00  0.00    -0.000 C 
BRANCH  13  14
ATOM     14  C   UNL     1       7.739   8.723  43.383  1.00  0.00    -0.000 C 
BRANCH  14  15
ATOM     15  C   UNL     1       9.173   8.507  43.879  1.00  0.00    -0.000 C 
BRANCH  15  16
ATOM     16  C   UNL     1       9.409   9.221  45.215  1.00  0.00    -0.000 C 
BRANCH  16  17
ATOM     17  C   UNL     1      10.898   9.515  45.427  1.00  0.00    -0.003 C 
ATOM     18  C   UNL     1      11.730   8.239  45.342  1.00  0.00     0.004 C 
ENDBRANCH  16  17
ENDBRANCH  15  16
ENDBRANCH  14  15
ENDBRANCH  13  14
ENDBRANCH  12  13
ENDBRANCH  11  12
ENDBRANCH   1  11
TORSDOF 14
ENDMDL
MODEL 6
REMARK VINA RESULT:    -5.356      2.719      4.690
REMARK INTER + INTRA:         -10.852
REMARK INTER:                  -9.133
REMARK INTRA:                  -1.719
REMARK UNBOUND:                -1.113
REMARK SMILES CCCCCCCCCCCCCCCC(=O)[O-]
REMARK SMILES IDX 9 1 10 2 11 3 12 4 13 5 14 6 15 7 16 8 17 9 18 10 8 11 7 12
REMARK SMILES IDX 6 13 5 14 4 15 3 16 2 17 1 18
REMARK H PARENT
REMARK Flexibility Score: inf
ROOT
ATOM      1  C   UNL     1      19.879  13.573  44.644  1.00  0.00     0.000 C 
ENDROOT
BRANCH   1   2
ATOM      2  C   UNL     1      19.584  12.862  45.976  1.00  0.00     0.000 C 
BRANCH   2   3
ATOM      3  C   UNL     1      19.182  11.391  45.787  1.00  0.00     0.000 C 
BRANCH   3   4
ATOM      4  C   UNL     1      20.319  10.419  46.148  1.00  0.00     0.000 C 
BRANCH   4   5
ATOM      5  C   UNL     1      20.343   9.166  45.253  1.00  0.00     0.000 C 
BRANCH   5   6
ATOM      6  C   UNL     1      21.746   8.594  44.964  1.00  0.00     0.006 C 
BRANCH   6   7
ATOM      7  C   UNL     1      22.906   9.422  45.538  1.00  0.00     0.053 C 
BRANCH   7   8
ATOM      8  C   UNL     1      23.782   9.983  44.459  1.00  0.00     0.041 C 
ATOM      9  O   UNL     1      24.107   9.272  43.473  1.00  0.00    -0.550 OA
ATOM     10  O   UNL     1      24.211  11.302  44.529  1.00  0.00    -0.550 OA
ENDBRANCH   7   8
ENDBRANCH   6   7
ENDBRANCH   5   6
ENDBRANCH   4   5
ENDBRANCH   3   4
ENDBRANCH   2   3
ENDBRANCH   1   2
BRANCH   1  11
ATOM     11  C   UNL     1      21.026  12.912  43.859  1.00  0.00     0.000 C 
BRANCH  11  12
ATOM     12  C   UNL     1      20.623  12.321  42.492  1.00  0.00    -0.000 C 
BRANCH  12  13
ATOM     13  C   UNL     1      21.448  11.101  42.040  1.00  0.00    -0.000 C 
BRANCH  13  14
ATOM     14  C   UNL     1      20.574   9.918  41.602  1.00  0.00    -0.000 C 
BRANCH  14  15
ATOM     15  C   UNL     1      21.220   9.160  40.437  1.00  0.00    -0.000 C 
BRANCH  15  16
ATOM     16  C   UNL     1      20.185   8.823  39.357  1.00  0.00    -0.000 C 
BRANCH  16  17
ATOM     17  C   UNL     1      18.800   9.359  39.734  1.00  0.00    -0.003 C 
ATOM     18  C   UNL     1      17.727   8.289  39.558  1.00  0.00     0.004 C 
ENDBRANCH  16  17
ENDBRANCH  15  16
ENDBRANCH  14  15
ENDBRANCH  13  14
ENDBRANCH  12  13
ENDBRANCH  11  12
ENDBRANCH   1  11
TORSDOF 14
ENDMDL
MODEL 7
REMARK VINA RESULT:    -5.152      2.875      6.714
REMARK INTER + INTRA:         -10.481
REMARK INTER:                  -8.390
REMARK INTRA:                  -2.092
REMARK UNBOUND:                -1.113
REMARK SMILES CCCCCCCCCCCCCCCC(=O)[O-]
REMARK SMILES IDX 9 1 10 2 11 3 12 4 13 5 14 6 15 7 16 8 17 9 18 10 8 11 7 12
REMARK SMILES IDX 6 13 5 14 4 15 3 16 2 17 1 18
REMARK H PARENT
REMARK Flexibility Score: inf
ROOT
ATOM      1  C   UNL     1      20.906  12.311  42.676  1.00  0.00     0.000 C 
ENDROOT
BRANCH   1   2
ATOM      2  C   UNL     1      22.280  11.746  42.277  1.00  0.00     0.000 C 
BRANCH   2   3
ATOM      3  C   UNL     1      22.214  10.271  41.851  1.00  0.00     0.000 C 
BRANCH   3   4
ATOM      4  C   UNL     1      20.801   9.848  41.414  1.00  0.00     0.000 C 
BRANCH   4   5
ATOM      5  C   UNL     1      20.269   8.634  42.198  1.00  0.00     0.000 C 
BRANCH   5   6
ATOM      6  C   UNL     1      20.989   8.348  43.532  1.00  0.00     0.006 C 
BRANCH   6   7
ATOM      7  C   UNL     1      20.161   8.662  44.786  1.00  0.00     0.053 C 
BRANCH   7   8
ATOM      8  C   UNL     1      20.674   9.870  45.509  1.00  0.00     0.041 C 
ATOM      9  O   UNL     1      19.875  10.649  46.090  1.00  0.00    -0.550 OA
ATOM     10  O   UNL     1      22.040  10.116  45.568  1.00  0.00    -0.550 OA
ENDBRANCH   7   8
ENDBRANCH   6   7
ENDBRANCH   5   6
ENDBRANCH   4   5
ENDBRANCH   3   4
ENDBRANCH   2   3
ENDBRANCH   1   2
BRANCH   1  11
ATOM     11  C   UNL     1      20.985  13.283  43.866  1.00  0.00     0.000 C 
BRANCH  11  12
ATOM     12  C   UNL     1      19.786  14.243  44.005  1.00  0.00    -0.000 C 
BRANCH  12  13
ATOM     13  C   UNL     1      19.252  14.816  42.679  1.00  0.00    -0.000 C 
BRANCH  13  14
ATOM     14  C   UNL     1      19.363  16.345  42.601  1.00  0.00    -0.000 C 
BRANCH  14  15
ATOM     15  C   UNL     1      20.795  16.774  42.261  1.00  0.00    -0.000 C 
BRANCH  15  16
ATOM     16  C   UNL     1      21.279  16.107  40.969  1.00  0.00    -0.000 C 
BRANCH  16  17
ATOM     17  C   UNL     1      22.636  15.425  41.176  1.00  0.00    -0.003 C 
ATOM     18  C   UNL     1      23.416  16.083  42.309  1.00  0.00     0.004 C 
ENDBRANCH  16  17
ENDBRANCH  15  16
ENDBRANCH  14  15
ENDBRANCH  13  14
ENDBRANCH  12  13
ENDBRANCH  11  12
ENDBRANCH   1  11
TORSDOF 14
ENDMDL
MODEL 8
REMARK VINA RESULT:    -5.114      2.639      6.547
REMARK INTER + INTRA:         -10.412
REMARK INTER:                  -8.772
REMARK INTRA:                  -1.640
REMARK UNBOUND:                -1.113
REMARK SMILES CCCCCCCCCCCCCCCC(=O)[O-]
REMARK SMILES IDX 9 1 10 2 11 3 12 4 13 5 14 6 15 7 16 8 17 9 18 10 8 11 7 12
REMARK SMILES IDX 6 13 5 14 4 15 3 16 2 17 1 18
REMARK H PARENT
REMARK Flexibility Score: inf
ROOT
ATOM      1  C   UNL     1      20.574  12.943  44.115  1.00  0.00     0.000 C 
ENDROOT
BRANCH   1   2
ATOM      2  C   UNL     1      19.507  13.182  45.197  1.00  0.00     0.000 C 
BRANCH   2   3
ATOM      3  C   UNL     1      19.307  11.964  46.111  1.00  0.00     0.000 C 
BRANCH   3   4
ATOM      4  C   UNL     1      20.368  10.874  45.881  1.00  0.00     0.000 C 
BRANCH   4   5
ATOM      5  C   UNL     1      19.759   9.524  45.458  1.00  0.00     0.000 C 
BRANCH   5   6
ATOM      6  C   UNL     1      20.749   8.533  44.811  1.00  0.00     0.006 C 
BRANCH   6   7
ATOM      7  C   UNL     1      21.525   9.095  43.611  1.00  0.00     0.053 C 
BRANCH   7   8
ATOM      8  C   UNL     1      20.672   9.185  42.383  1.00  0.00     0.041 C 
ATOM      9  O   UNL     1      20.597  10.265  41.741  1.00  0.00    -0.550 OA
ATOM     10  O   UNL     1      19.987   8.065  41.929  1.00  0.00    -0.550 OA
ENDBRANCH   7   8
ENDBRANCH   6   7
ENDBRANCH   5   6
ENDBRANCH   4   5
ENDBRANCH   3   4
ENDBRANCH   2   3
ENDBRANCH   1   2
BRANCH   1  11
ATOM     11  C   UNL     1      20.215  13.599  42.770  1.00  0.00     0.000 C 
BRANCH  11  12
ATOM     12  C   UNL     1      19.088  14.651  42.837  1.00  0.00    -0.000 C 
BRANCH  12  13
ATOM     13  C   UNL     1      19.551  16.113  42.696  1.00  0.00    -0.000 C 
BRANCH  13  14
ATOM     14  C   UNL     1      21.079  16.253  42.637  1.00  0.00    -0.000 C 
BRANCH  14  15
ATOM     15  C   UNL     1      21.556  16.448  41.193  1.00  0.00    -0.000 C 
BRANCH  15  16
ATOM     16  C   UNL     1      22.856  15.678  40.933  1.00  0.00    -0.000 C 
BRANCH  16  17
ATOM     17  C   UNL     1      23.519  15.256  42.248  1.00  0.00    -0.003 C 
ATOM     18  C   UNL     1      23.912  13.782  42.221  1.00  0.00     0.004 C 
ENDBRANCH  16  17
ENDBRANCH  15  16
ENDBRANCH  14  15
ENDBRANCH  13  14
ENDBRANCH  12  13
ENDBRANCH  11  12
ENDBRANCH   1  11
TORSDOF 14
ENDMDL
MODEL 9
REMARK VINA RESULT:    -5.110     11.597     12.935
REMARK INTER + INTRA:         -10.404
REMARK INTER:                  -9.238
REMARK INTRA:                  -1.166
REMARK UNBOUND:                -1.113
REMARK SMILES CCCCCCCCCCCCCCCC(=O)[O-]
REMARK SMILES IDX 9 1 10 2 11 3 12 4 13 5 14 6 15 7 16 8 17 9 18 10 8 11 7 12
REMARK SMILES IDX 6 13 5 14 4 15 3 16 2 17 1 18
REMARK H PARENT
REMARK Flexibility Score: inf
ROOT
ATOM      1  C   UNL     1       7.788  10.778  41.700  1.00  0.00     0.000 C 
ENDROOT
BRANCH   1   2
ATOM      2  C   UNL     1       7.669  12.312  41.717  1.00  0.00     0.000 C 
BRANCH   2   3
ATOM      3  C   UNL     1       8.966  13.002  42.168  1.00  0.00     0.000 C 
BRANCH   3   4
ATOM      4  C   UNL     1       9.406  14.116  41.202  1.00  0.00     0.000 C 
BRANCH   4   5
ATOM      5  C   UNL     1      10.025  15.326  41.925  1.00  0.00     0.000 C 
BRANCH   5   6
ATOM      6  C   UNL     1       9.095  16.548  42.075  1.00  0.00     0.006 C 
BRANCH   6   7
ATOM      7  C   UNL     1       8.137  16.479  43.273  1.00  0.00     0.053 C 
BRANCH   7   8
ATOM      8  C   UNL     1       6.701  16.509  42.845  1.00  0.00     0.041 C 
ATOM      9  O   UNL     1       6.106  17.608  42.699  1.00  0.00    -0.550 OA
ATOM     10  O   UNL     1       6.032  15.322  42.576  1.00  0.00    -0.550 OA
ENDBRANCH   7   8
ENDBRANCH   6   7
ENDBRANCH   5   6
ENDBRANCH   4   5
ENDBRANCH   3   4
ENDBRANCH   2   3
ENDBRANCH   1   2
BRANCH   1  11
ATOM     11  C   UNL     1       6.419  10.075  41.700  1.00  0.00     0.000 C 
BRANCH  11  12
ATOM     12  C   UNL     1       5.904   9.651  43.091  1.00  0.00    -0.000 C 
BRANCH  12  13
ATOM     13  C   UNL     1       6.837   8.709  43.874  1.00  0.00    -0.000 C 
BRANCH  13  14
ATOM     14  C   UNL     1       7.095   9.182  45.311  1.00  0.00    -0.000 C 
BRANCH  14  15
ATOM     15  C   UNL     1       8.542   8.899  45.730  1.00  0.00    -0.000 C 
BRANCH  15  16
ATOM     16  C   UNL     1       9.535   9.514  44.736  1.00  0.00    -0.000 C 
BRANCH  16  17
ATOM     17  C   UNL     1      10.931   9.634  45.355  1.00  0.00    -0.003 C 
ATOM     18  C   UNL     1      11.656   8.292  45.345  1.00  0.00     0.004 C 
ENDBRANCH  16  17
ENDBRANCH  15  16
ENDBRANCH  14  15
ENDBRANCH  13  14
ENDBRANCH  12  13
ENDBRANCH  11  12
ENDBRANCH   1  11
TORSDOF 14
ENDMDL
