MODEL 1
REMARK VINA RESULT:    -3.945      0.000      0.000
REMARK INTER + INTRA:          -6.531
REMARK INTER:                  -6.021
REMARK INTRA:                  -0.510
REMARK UNBOUND:                -0.510
REMARK SMILES CCCCCCCCCCC(=O)[O-]
REMARK SMILES IDX 7 1 8 2 9 3 10 4 11 5 12 6 13 7 6 8 5 9 4 10 3 11 2 12 1 13
REMARK H PARENT
REMARK Flexibility Score: inf
ROOT
ATOM      1  C   UNL     1      11.518  17.051  14.571  1.00  0.00     0.000 C 
ENDROOT
BRANCH   1   2
ATOM      2  C   UNL     1      11.187  16.750  16.038  1.00  0.00     0.000 C 
BRANCH   2   3
ATOM      3  C   UNL     1      11.931  15.501  16.525  1.00  0.00     0.006 C 
BRANCH   3   4
ATOM      4  C   UNL     1      12.897  15.847  17.662  1.00  0.00     0.053 C 
BRANCH   4   5
ATOM      5  C   UNL     1      14.118  16.523  17.126  1.00  0.00     0.041 C 
ATOM      6  O   UNL     1      14.660  16.109  16.067  1.00  0.00    -0.550 OA
ATOM      7  O   UNL     1      14.631  17.645  17.767  1.00  0.00    -0.550 OA
ENDBRANCH   4   5
ENDBRANCH   3   4
ENDBRANCH   2   3
ENDBRANCH   1   2
BRANCH   1   8
ATOM      8  C   UNL     1      10.749  18.281  14.074  1.00  0.00     0.000 C 
BRANCH   8   9
ATOM      9  C   UNL     1      10.545  18.226  12.555  1.00  0.00    -0.000 C 
BRANCH   9  10
ATOM     10  C   UNL     1      10.292  16.785  12.086  1.00  0.00    -0.000 C 
BRANCH  10  11
ATOM     11  C   UNL     1       8.796  16.457  11.960  1.00  0.00    -0.000 C 
BRANCH  11  12
ATOM     12  C   UNL     1       8.420  15.934  10.566  1.00  0.00    -0.003 C 
ATOM     13  C   UNL     1       8.457  17.054   9.531  1.00  0.00     0.004 C 
ENDBRANCH  11  12
ENDBRANCH  10  11
ENDBRANCH   9  10
ENDBRANCH   8   9
ENDBRANCH   1   8
TORSDOF 9
ENDMDL
MODEL 2
REMARK VINA RESULT:    -3.922      3.909      6.827
REMARK INTER + INTRA:          -6.496
REMARK INTER:                  -5.890
REMARK INTRA:                  -0.606
REMARK UNBOUND:                -0.510
REMARK SMILES CCCCCCCCCCC(=O)[O-]
REMARK SMILES IDX 7 1 8 2 9 3 10 4 11 5 12 6 13 7 6 8 5 9 4 10 3 11 2 12 1 13
REMARK H PARENT
REMARK Flexibility Score: inf
ROOT
ATOM      1  C   UNL     1      10.199  18.310  12.525  1.00  0.00     0.000 C 
ENDROOT
BRANCH   1   2
ATOM      2  C   UNL     1      10.160  16.795  12.290  1.00  0.00     0.000 C 
BRANCH   2   3
ATOM      3  C   UNL     1       8.764  16.344  11.846  1.00  0.00     0.006 C 
BRANCH   3   4
ATOM      4  C   UNL     1       8.743  16.015  10.350  1.00  0.00     0.053 C 
BRANCH   4   5
ATOM      5  C   UNL     1       8.272  17.194   9.560  1.00  0.00     0.041 C 
ATOM      6  O   UNL     1       7.047  17.486   9.527  1.00  0.00    -0.550 OA
ATOM      7  O   UNL     1       9.191  18.002   8.902  1.00  0.00    -0.550 OA
ENDBRANCH   4   5
ENDBRANCH   3   4
ENDBRANCH   2   3
ENDBRANCH   1   2
BRANCH   1   8
ATOM      8  C   UNL     1      10.607  18.633  13.968  1.00  0.00     0.000 C 
BRANCH   8   9
ATOM      9  C   UNL     1      11.925  17.940  14.335  1.00  0.00    -0.000 C 
BRANCH   9  10
ATOM     10  C   UNL     1      11.912  17.475  15.799  1.00  0.00    -0.000 C 
BRANCH  10  11
ATOM     11  C   UNL     1      10.851  16.397  16.069  1.00  0.00    -0.000 C 
BRANCH  11  12
ATOM     12  C   UNL     1      11.407  15.204  16.862  1.00  0.00    -0.003 C 
ATOM     13  C   UNL     1      12.719  15.568  17.551  1.00  0.00     0.004 C 
ENDBRANCH  11  12
ENDBRANCH  10  11
ENDBRANCH   9  10
ENDBRANCH   8   9
ENDBRANCH   1   8
TORSDOF 9
ENDMDL
MODEL 3
REMARK VINA RESULT:    -3.897      3.575      6.292
REMARK INTER + INTRA:          -6.458
REMARK INTER:                  -5.638
REMARK INTRA:                  -0.820
REMARK UNBOUND:                -0.510
REMARK SMILES CCCCCCCCCCC(=O)[O-]
REMARK SMILES IDX 7 1 8 2 9 3 10 4 11 5 12 6 13 7 6 8 5 9 4 10 3 11 2 12 1 13
REMARK H PARENT
REMARK Flexibility Score: inf
ROOT
ATOM      1  C   UNL     1      11.431  18.961  14.682  1.00  0.00     0.000 C 
ENDROOT
BRANCH   1   2
ATOM      2  C   UNL     1      11.191  17.658  13.910  1.00  0.00     0.000 C 
BRANCH   2   3
ATOM      3  C   UNL     1      10.241  17.885  12.729  1.00  0.00     0.006 C 
BRANCH   3   4
ATOM      4  C   UNL     1       9.924  16.566  12.018  1.00  0.00     0.053 C 
BRANCH   4   5
ATOM      5  C   UNL     1       8.693  16.705  11.180  1.00  0.00     0.041 C 
ATOM      6  O   UNL     1       7.698  17.342  11.616  1.00  0.00    -0.550 OA
ATOM      7  O   UNL     1       8.662  16.175   9.896  1.00  0.00    -0.550 OA
ENDBRANCH   4   5
ENDBRANCH   3   4
ENDBRANCH   2   3
ENDBRANCH   1   2
BRANCH   1   8
ATOM      8  C   UNL     1      12.461  18.758  15.800  1.00  0.00     0.000 C 
BRANCH   8   9
ATOM      9  C   UNL     1      13.626  17.883  15.323  1.00  0.00    -0.000 C 
BRANCH   9  10
ATOM     10  C   UNL     1      13.878  16.722  16.298  1.00  0.00    -0.000 C 
BRANCH  10  11
ATOM     11  C   UNL     1      12.715  16.509  17.278  1.00  0.00    -0.000 C 
BRANCH  11  12
ATOM     12  C   UNL     1      11.785  15.362  16.852  1.00  0.00    -0.003 C 
ATOM     13  C   UNL     1      10.329  15.817  16.828  1.00  0.00     0.004 C 
ENDBRANCH  11  12
ENDBRANCH  10  11
ENDBRANCH   9  10
ENDBRANCH   8   9
ENDBRANCH   1   8
TORSDOF 9
ENDMDL
MODEL 4
REMARK VINA RESULT:    -3.873      3.435      6.516
REMARK INTER + INTRA:          -6.421
REMARK INTER:                  -5.660
REMARK INTRA:                  -0.761
REMARK UNBOUND:                -0.510
REMARK SMILES CCCCCCCCCCC(=O)[O-]
REMARK SMILES IDX 7 1 8 2 9 3 10 4 11 5 12 6 13 7 6 8 5 9 4 10 3 11 2 12 1 13
REMARK H PARENT
REMARK Flexibility Score: inf
ROOT
ATOM      1  C   UNL     1      10.992  16.751  14.711  1.00  0.00     0.000 C 
ENDROOT
BRANCH   1   2
ATOM      2  C   UNL     1      11.020  18.163  14.113  1.00  0.00     0.000 C 
BRANCH   2   3
ATOM      3  C   UNL     1      10.567  18.148  12.648  1.00  0.00     0.006 C 
BRANCH   3   4
ATOM      4  C   UNL     1      10.163  16.736  12.213  1.00  0.00     0.053 C 
BRANCH   4   5
ATOM      5  C   UNL     1       8.796  16.745  11.607  1.00  0.00     0.041 C 
ATOM      6  O   UNL     1       8.059  17.760  11.720  1.00  0.00    -0.550 OA
ATOM      7  O   UNL     1       8.353  15.651  10.872  1.00  0.00    -0.550 OA
ENDBRANCH   4   5
ENDBRANCH   3   4
ENDBRANCH   2   3
ENDBRANCH   1   2
BRANCH   1   8
ATOM      8  C   UNL     1      11.011  16.803  16.244  1.00  0.00     0.000 C 
BRANCH   8   9
ATOM      9  C   UNL     1      11.334  15.426  16.838  1.00  0.00    -0.000 C 
BRANCH   9  10
ATOM     10  C   UNL     1      12.736  15.412  17.465  1.00  0.00    -0.000 C 
BRANCH  10  11
ATOM     11  C   UNL     1      13.461  16.760  17.325  1.00  0.00    -0.000 C 
BRANCH  11  12
ATOM     12  C   UNL     1      14.645  16.695  16.349  1.00  0.00    -0.003 C 
ATOM     13  C   UNL     1      14.698  17.940  15.468  1.00  0.00     0.004 C 
ENDBRANCH  11  12
ENDBRANCH  10  11
ENDBRANCH   9  10
ENDBRANCH   8   9
ENDBRANCH   1   8
TORSDOF 9
ENDMDL
MODEL 5
REMARK VINA RESULT:    -3.847      1.611      2.606
REMARK INTER + INTRA:          -6.381
REMARK INTER:                  -5.750
REMARK INTRA:                  -0.631
REMARK UNBOUND:                -0.510
REMARK SMILES CCCCCCCCCCC(=O)[O-]
REMARK SMILES IDX 7 1 8 2 9 3 10 4 11 5 12 6 13 7 6 8 5 9 4 10 3 11 2 12 1 13
REMARK H PARENT
REMARK Flexibility Score: inf
ROOT
ATOM      1  C   UNL     1      10.251  18.101  12.848  1.00  0.00     0.000 C 
ENDROOT
BRANCH   1   2
ATOM      2  C   UNL     1      11.062  18.257  14.141  1.00  0.00     0.000 C 
BRANCH   2   3
ATOM      3  C   UNL     1      11.167  16.923  14.889  1.00  0.00     0.006 C 
BRANCH   3   4
ATOM      4  C   UNL     1      12.384  16.908  15.817  1.00  0.00     0.053 C 
BRANCH   4   5
ATOM      5  C   UNL     1      12.220  15.870  16.881  1.00  0.00     0.041 C 
ATOM      6  O   UNL     1      11.208  15.120  16.884  1.00  0.00    -0.550 OA
ATOM      7  O   UNL     1      13.210  15.695  17.841  1.00  0.00    -0.550 OA
ENDBRANCH   4   5
ENDBRANCH   3   4
ENDBRANCH   2   3
ENDBRANCH   1   2
BRANCH   1   8
ATOM      8  C   UNL     1      10.125  16.625  12.453  1.00  0.00     0.000 C 
BRANCH   8   9
ATOM      9  C   UNL     1       8.809  16.364  11.710  1.00  0.00    -0.000 C 
BRANCH   9  10
ATOM     10  C   UNL     1       8.990  16.536  10.194  1.00  0.00    -0.000 C 
BRANCH  10  11
ATOM     11  C   UNL     1       8.126  17.669   9.618  1.00  0.00    -0.000 C 
BRANCH  11  12
ATOM     12  C   UNL     1       8.881  19.004   9.533  1.00  0.00    -0.003 C 
ATOM     13  C   UNL     1      10.195  18.843   8.774  1.00  0.00     0.004 C 
ENDBRANCH  11  12
ENDBRANCH  10  11
ENDBRANCH   9  10
ENDBRANCH   8   9
ENDBRANCH   1   8
TORSDOF 9
ENDMDL
MODEL 6
REMARK VINA RESULT:    -3.803      3.993      5.951
REMARK INTER + INTRA:          -6.314
REMARK INTER:                  -5.632
REMARK INTRA:                  -0.682
REMARK UNBOUND:                -0.510
REMARK SMILES CCCCCCCCCCC(=O)[O-]
REMARK SMILES IDX 7 1 8 2 9 3 10 4 11 5 12 6 13 7 6 8 5 9 4 10 3 11 2 12 1 13
REMARK H PARENT
REMARK Flexibility Score: inf
ROOT
ATOM      1  C   UNL     1      16.165  16.581  15.702  1.00  0.00     0.000 C 
ENDROOT
BRANCH   1   2
ATOM      2  C   UNL     1      16.204  17.880  14.887  1.00  0.00     0.000 C 
BRANCH   2   3
ATOM      3  C   UNL     1      17.647  18.351  14.674  1.00  0.00     0.006 C 
BRANCH   3   4
ATOM      4  C   UNL     1      18.335  18.635  16.012  1.00  0.00     0.053 C 
BRANCH   4   5
ATOM      5  C   UNL     1      19.764  18.195  15.971  1.00  0.00     0.041 C 
ATOM      6  O   UNL     1      20.581  18.767  15.203  1.00  0.00    -0.550 OA
ATOM      7  O   UNL     1      20.205  17.185  16.818  1.00  0.00    -0.550 OA
ENDBRANCH   4   5
ENDBRANCH   3   4
ENDBRANCH   2   3
ENDBRANCH   1   2
BRANCH   1   8
ATOM      8  C   UNL     1      14.738  16.266  16.168  1.00  0.00     0.000 C 
BRANCH   8   9
ATOM      9  C   UNL     1      14.257  17.291  17.202  1.00  0.00    -0.000 C 
BRANCH   9  10
ATOM     10  C   UNL     1      12.917  17.913  16.777  1.00  0.00    -0.000 C 
BRANCH  10  11
ATOM     11  C   UNL     1      12.302  17.216  15.554  1.00  0.00    -0.000 C 
BRANCH  11  12
ATOM     12  C   UNL     1      10.966  16.528  15.875  1.00  0.00    -0.003 C 
ATOM     13  C   UNL     1      11.179  15.300  16.754  1.00  0.00     0.004 C 
ENDBRANCH  11  12
ENDBRANCH  10  11
ENDBRANCH   9  10
ENDBRANCH   8   9
ENDBRANCH   1   8
TORSDOF 9
ENDMDL
MODEL 7
REMARK VINA RESULT:    -3.795      1.679      2.457
REMARK INTER + INTRA:          -6.302
REMARK INTER:                  -5.533
REMARK INTRA:                  -0.768
REMARK UNBOUND:                -0.510
REMARK SMILES CCCCCCCCCCC(=O)[O-]
REMARK SMILES IDX 7 1 8 2 9 3 10 4 11 5 12 6 13 7 6 8 5 9 4 10 3 11 2 12 1 13
REMARK H PARENT
REMARK Flexibility Score: inf
ROOT
ATOM      1  C   UNL     1      10.959  18.475  12.985  1.00  0.00     0.000 C 
ENDROOT
BRANCH   1   2
ATOM      2  C   UNL     1      10.981  17.374  14.052  1.00  0.00     0.000 C 
BRANCH   2   3
ATOM      3  C   UNL     1      12.148  17.574  15.025  1.00  0.00     0.006 C 
BRANCH   3   4
ATOM      4  C   UNL     1      11.686  17.419  16.477  1.00  0.00     0.053 C 
BRANCH   4   5
ATOM      5  C   UNL     1      11.942  16.028  16.963  1.00  0.00     0.041 C 
ATOM      6  O   UNL     1      12.997  15.762  17.597  1.00  0.00    -0.550 OA
ATOM      7  O   UNL     1      10.992  15.034  16.760  1.00  0.00    -0.550 OA
ENDBRANCH   4   5
ENDBRANCH   3   4
ENDBRANCH   2   3
ENDBRANCH   1   2
BRANCH   1   8
ATOM      8  C   UNL     1       9.602  19.189  12.960  1.00  0.00     0.000 C 
BRANCH   8   9
ATOM      9  C   UNL     1       9.221  19.598  11.531  1.00  0.00    -0.000 C 
BRANCH   9  10
ATOM     10  C   UNL     1       9.706  18.554  10.513  1.00  0.00    -0.000 C 
BRANCH  10  11
ATOM     11  C   UNL     1       8.553  17.754   9.889  1.00  0.00    -0.000 C 
BRANCH  11  12
ATOM     12  C   UNL     1       8.656  16.248  10.173  1.00  0.00    -0.003 C 
ATOM     13  C   UNL     1       8.280  15.935  11.618  1.00  0.00     0.004 C 
ENDBRANCH  11  12
ENDBRANCH  10  11
ENDBRANCH   9  10
ENDBRANCH   8   9
ENDBRANCH   1   8
TORSDOF 9
ENDMDL
MODEL 8
REMARK VINA RESULT:    -3.677      3.286      4.743
REMARK INTER + INTRA:          -6.122
REMARK INTER:                  -4.874
REMARK INTRA:                  -1.248
REMARK UNBOUND:                -0.510
REMARK SMILES CCCCCCCCCCC(=O)[O-]
REMARK SMILES IDX 7 1 8 2 9 3 10 4 11 5 12 6 13 7 6 8 5 9 4 10 3 11 2 12 1 13
REMARK H PARENT
REMARK Flexibility Score: inf
ROOT
ATOM      1  C   UNL     1      13.842  16.152  16.847  1.00  0.00     0.000 C 
ENDROOT
BRANCH   1   2
ATOM      2  C   UNL     1      14.446  17.333  17.616  1.00  0.00     0.000 C 
BRANCH   2   3
ATOM      3  C   UNL     1      15.481  18.074  16.762  1.00  0.00     0.006 C 
BRANCH   3   4
ATOM      4  C   UNL     1      15.646  17.403  15.395  1.00  0.00     0.053 C 
BRANCH   4   5
ATOM      5  C   UNL     1      16.916  17.848  14.742  1.00  0.00     0.041 C 
ATOM      6  O   UNL     1      16.927  18.154  13.521  1.00  0.00    -0.550 OA
ATOM      7  O   UNL     1      18.078  17.974  15.495  1.00  0.00    -0.550 OA
ENDBRANCH   4   5
ENDBRANCH   3   4
ENDBRANCH   2   3
ENDBRANCH   1   2
BRANCH   1   8
ATOM      8  C   UNL     1      12.402  15.880  17.298  1.00  0.00     0.000 C 
BRANCH   8   9
ATOM      9  C   UNL     1      11.443  16.944  16.750  1.00  0.00    -0.000 C 
BRANCH   9  10
ATOM     10  C   UNL     1      11.443  16.946  15.214  1.00  0.00    -0.000 C 
BRANCH  10  11
ATOM     11  C   UNL     1      11.674  18.345  14.623  1.00  0.00    -0.000 C 
BRANCH  11  12
ATOM     12  C   UNL     1      11.651  19.449  15.691  1.00  0.00    -0.003 C 
ATOM     13  C   UNL     1      12.874  20.353  15.574  1.00  0.00     0.004 C 
ENDBRANCH  11  12
ENDBRANCH  10  11
ENDBRANCH   9  10
ENDBRANCH   8   9
ENDBRANCH   1   8
TORSDOF 9
ENDMDL
MODEL 9
REMARK VINA RESULT:    -3.639      4.136      7.547
REMARK INTER + INTRA:          -6.064
REMARK INTER:                  -5.344
REMARK INTRA:                  -0.720
REMARK UNBOUND:                -0.510
REMARK SMILES CCCCCCCCCCC(=O)[O-]
REMARK SMILES IDX 7 1 8 2 9 3 10 4 11 5 12 6 13 7 6 8 5 9 4 10 3 11 2 12 1 13
REMARK H PARENT
REMARK Flexibility Score: inf
ROOT
ATOM      1  C   UNL     1      15.704  18.086  16.565  1.00  0.00     0.000 C 
ENDROOT
BRANCH   1   2
ATOM      2  C   UNL     1      14.716  17.254  17.394  1.00  0.00     0.000 C 
BRANCH   2   3
ATOM      3  C   UNL     1      13.837  16.384  16.489  1.00  0.00     0.006 C 
BRANCH   3   4
ATOM      4  C   UNL     1      12.612  15.866  17.249  1.00  0.00     0.053 C 
BRANCH   4   5
ATOM      5  C   UNL     1      11.357  16.446  16.677  1.00  0.00     0.041 C 
ATOM      6  O   UNL     1      10.250  15.877  16.870  1.00  0.00    -0.550 OA
ATOM      7  O   UNL     1      11.402  17.644  15.973  1.00  0.00    -0.550 OA
ENDBRANCH   4   5
ENDBRANCH   3   4
ENDBRANCH   2   3
ENDBRANCH   1   2
BRANCH   1   8
ATOM      8  C   UNL     1      16.166  17.314  15.323  1.00  0.00     0.000 C 
BRANCH   8   9
ATOM      9  C   UNL     1      17.307  18.051  14.610  1.00  0.00    -0.000 C 
BRANCH   9  10
ATOM     10  C   UNL     1      18.208  18.777  15.620  1.00  0.00    -0.000 C 
BRANCH  10  11
ATOM     11  C   UNL     1      19.595  18.128  15.751  1.00  0.00    -0.000 C 
BRANCH  11  12
ATOM     12  C   UNL     1      19.774  17.380  17.081  1.00  0.00    -0.003 C 
ATOM     13  C   UNL     1      19.055  18.101  18.217  1.00  0.00     0.004 C 
ENDBRANCH  11  12
ENDBRANCH  10  11
ENDBRANCH   9  10
ENDBRANCH   8   9
ENDBRANCH   1   8
TORSDOF 9
ENDMDL
