MODEL 1
REMARK VINA RESULT:    -2.686      0.000      0.000
REMARK INTER + INTRA:          -3.187
REMARK INTER:                  -3.157
REMARK INTRA:                  -0.030
REMARK UNBOUND:                -0.030
REMARK SMILES CCCCC(=O)[O-]
REMARK SMILES IDX 4 1 5 2 6 3 7 4 3 5 2 6 1 7
REMARK H PARENT
REMARK Flexibility Score: inf
ROOT
ATOM      1  C   UNL     1      57.954  27.855  50.313  1.00  0.00     0.053 C 
ENDROOT
BRANCH   1   2
ATOM      2  C   UNL     1      58.943  28.415  49.341  1.00  0.00     0.041 C 
ATOM      3  O   UNL     1      58.770  29.562  48.851  1.00  0.00    -0.550 OA
ATOM      4  O   UNL     1      60.031  27.651  48.937  1.00  0.00    -0.550 OA
ENDBRANCH   1   2
BRANCH   1   5
ATOM      5  C   UNL     1      56.690  28.721  50.349  1.00  0.00     0.006 C 
BRANCH   5   6
ATOM      6  C   UNL     1      55.401  27.885  50.314  1.00  0.00    -0.003 C 
ATOM      7  C   UNL     1      54.139  28.745  50.258  1.00  0.00     0.004 C 
ENDBRANCH   5   6
ENDBRANCH   1   5
TORSDOF 3
ENDMDL
MODEL 2
REMARK VINA RESULT:    -2.668     13.007     13.559
REMARK INTER + INTRA:          -3.166
REMARK INTER:                  -3.134
REMARK INTRA:                  -0.032
REMARK UNBOUND:                -0.030
REMARK SMILES CCCCC(=O)[O-]
REMARK SMILES IDX 4 1 5 2 6 3 7 4 3 5 2 6 1 7
REMARK H PARENT
REMARK Flexibility Score: inf
ROOT
ATOM      1  C   UNL     1      62.300  32.836  60.879  1.00  0.00     0.053 C 
ENDROOT
BRANCH   1   2
ATOM      2  C   UNL     1      61.081  31.971  60.913  1.00  0.00     0.041 C 
ATOM      3  O   UNL     1      60.334  31.888  59.903  1.00  0.00    -0.550 OA
ATOM      4  O   UNL     1      60.740  31.294  62.078  1.00  0.00    -0.550 OA
ENDBRANCH   1   2
BRANCH   1   5
ATOM      5  C   UNL     1      61.905  34.315  60.796  1.00  0.00     0.006 C 
BRANCH   5   6
ATOM      6  C   UNL     1      63.053  35.256  61.195  1.00  0.00    -0.003 C 
ATOM      7  C   UNL     1      64.329  34.505  61.574  1.00  0.00     0.004 C 
ENDBRANCH   5   6
ENDBRANCH   1   5
TORSDOF 3
ENDMDL
MODEL 3
REMARK VINA RESULT:    -2.666     13.075     13.584
REMARK INTER + INTRA:          -3.163
REMARK INTER:                  -3.104
REMARK INTRA:                  -0.059
REMARK UNBOUND:                -0.030
REMARK SMILES CCCCC(=O)[O-]
REMARK SMILES IDX 4 1 5 2 6 3 7 4 3 5 2 6 1 7
REMARK H PARENT
REMARK Flexibility Score: inf
ROOT
ATOM      1  C   UNL     1      62.482  32.011  60.885  1.00  0.00     0.053 C 
ENDROOT
BRANCH   1   2
ATOM      2  C   UNL     1      61.741  31.016  61.720  1.00  0.00     0.041 C 
ATOM      3  O   UNL     1      60.554  31.245  62.074  1.00  0.00    -0.550 OA
ATOM      4  O   UNL     1      62.376  29.858  62.149  1.00  0.00    -0.550 OA
ENDBRANCH   1   2
BRANCH   1   5
ATOM      5  C   UNL     1      61.656  33.292  60.718  1.00  0.00     0.006 C 
BRANCH   5   6
ATOM      6  C   UNL     1      62.492  34.565  60.921  1.00  0.00    -0.003 C 
ATOM      7  C   UNL     1      63.948  34.266  61.279  1.00  0.00     0.004 C 
ENDBRANCH   5   6
ENDBRANCH   1   5
TORSDOF 3
ENDMDL
MODEL 4
REMARK VINA RESULT:    -2.658     13.183     13.598
REMARK INTER + INTRA:          -3.154
REMARK INTER:                  -3.044
REMARK INTRA:                  -0.110
REMARK UNBOUND:                -0.030
REMARK SMILES CCCCC(=O)[O-]
REMARK SMILES IDX 4 1 5 2 6 3 7 4 3 5 2 6 1 7
REMARK H PARENT
REMARK Flexibility Score: inf
ROOT
ATOM      1  C   UNL     1      62.482  33.898  60.877  1.00  0.00     0.053 C 
ENDROOT
BRANCH   1   2
ATOM      2  C   UNL     1      63.923  33.714  61.232  1.00  0.00     0.041 C 
ATOM      3  O   UNL     1      64.516  32.642  60.938  1.00  0.00    -0.550 OA
ATOM      4  O   UNL     1      64.599  34.704  61.933  1.00  0.00    -0.550 OA
ENDBRANCH   1   2
BRANCH   1   5
ATOM      5  C   UNL     1      61.900  32.599  60.309  1.00  0.00     0.006 C 
BRANCH   5   6
ATOM      6  C   UNL     1      60.978  31.880  61.306  1.00  0.00    -0.003 C 
ATOM      7  C   UNL     1      61.600  30.605  61.874  1.00  0.00     0.004 C 
ENDBRANCH   5   6
ENDBRANCH   1   5
TORSDOF 3
ENDMDL
MODEL 5
REMARK VINA RESULT:    -2.651     12.680     13.181
REMARK INTER + INTRA:          -3.146
REMARK INTER:                  -3.047
REMARK INTRA:                  -0.099
REMARK UNBOUND:                -0.030
REMARK SMILES CCCCC(=O)[O-]
REMARK SMILES IDX 4 1 5 2 6 3 7 4 3 5 2 6 1 7
REMARK H PARENT
REMARK Flexibility Score: inf
ROOT
ATOM      1  C   UNL     1      61.214  31.037  62.010  1.00  0.00     0.053 C 
ENDROOT
BRANCH   1   2
ATOM      2  C   UNL     1      62.251  29.961  61.962  1.00  0.00     0.041 C 
ATOM      3  O   UNL     1      61.908  28.749  61.951  1.00  0.00    -0.550 OA
ATOM      4  O   UNL     1      63.600  30.294  61.981  1.00  0.00    -0.550 OA
ENDBRANCH   1   2
BRANCH   1   5
ATOM      5  C   UNL     1      61.049  31.684  60.630  1.00  0.00     0.006 C 
BRANCH   5   6
ATOM      6  C   UNL     1      61.274  33.203  60.660  1.00  0.00    -0.003 C 
ATOM      7  C   UNL     1      62.734  33.580  60.913  1.00  0.00     0.004 C 
ENDBRANCH   5   6
ENDBRANCH   1   5
TORSDOF 3
ENDMDL
MODEL 6
REMARK VINA RESULT:    -2.639     13.758     14.189
REMARK INTER + INTRA:          -3.131
REMARK INTER:                  -3.111
REMARK INTRA:                  -0.021
REMARK UNBOUND:                -0.030
REMARK SMILES CCCCC(=O)[O-]
REMARK SMILES IDX 4 1 5 2 6 3 7 4 3 5 2 6 1 7
REMARK H PARENT
REMARK Flexibility Score: inf
ROOT
ATOM      1  C   UNL     1      63.983  33.531  61.175  1.00  0.00     0.053 C 
ENDROOT
BRANCH   1   2
ATOM      2  C   UNL     1      64.127  34.970  61.555  1.00  0.00     0.041 C 
ATOM      3  O   UNL     1      65.240  35.415  61.943  1.00  0.00    -0.550 OA
ATOM      4  O   UNL     1      63.021  35.810  61.531  1.00  0.00    -0.550 OA
ENDBRANCH   1   2
BRANCH   1   5
ATOM      5  C   UNL     1      62.517  33.201  60.872  1.00  0.00     0.006 C 
BRANCH   5   6
ATOM      6  C   UNL     1      62.211  31.701  60.999  1.00  0.00    -0.003 C 
ATOM      7  C   UNL     1      60.859  31.426  61.658  1.00  0.00     0.004 C 
ENDBRANCH   5   6
ENDBRANCH   1   5
TORSDOF 3
ENDMDL
MODEL 7
REMARK VINA RESULT:    -2.585     13.248     13.688
REMARK INTER + INTRA:          -3.069
REMARK INTER:                  -3.050
REMARK INTRA:                  -0.019
REMARK UNBOUND:                -0.030
REMARK SMILES CCCCC(=O)[O-]
REMARK SMILES IDX 4 1 5 2 6 3 7 4 3 5 2 6 1 7
REMARK H PARENT
REMARK Flexibility Score: inf
ROOT
ATOM      1  C   UNL     1      62.563  32.101  60.893  1.00  0.00     0.053 C 
ENDROOT
BRANCH   1   2
ATOM      2  C   UNL     1      63.638  31.132  61.272  1.00  0.00     0.041 C 
ATOM      3  O   UNL     1      64.829  31.336  60.918  1.00  0.00    -0.550 OA
ATOM      4  O   UNL     1      63.317  29.976  61.972  1.00  0.00    -0.550 OA
ENDBRANCH   1   2
BRANCH   1   5
ATOM      5  C   UNL     1      63.106  33.535  60.908  1.00  0.00     0.006 C 
BRANCH   5   6
ATOM      6  C   UNL     1      61.991  34.588  60.812  1.00  0.00    -0.003 C 
ATOM      7  C   UNL     1      62.444  35.973  61.274  1.00  0.00     0.004 C 
ENDBRANCH   5   6
ENDBRANCH   1   5
TORSDOF 3
ENDMDL
MODEL 8
REMARK VINA RESULT:    -2.571      3.040      4.342
REMARK INTER + INTRA:          -3.051
REMARK INTER:                  -3.026
REMARK INTRA:                  -0.025
REMARK UNBOUND:                -0.030
REMARK SMILES CCCCC(=O)[O-]
REMARK SMILES IDX 4 1 5 2 6 3 7 4 3 5 2 6 1 7
REMARK H PARENT
REMARK Flexibility Score: inf
ROOT
ATOM      1  C   UNL     1      55.582  28.252  50.458  1.00  0.00     0.053 C 
ENDROOT
BRANCH   1   2
ATOM      2  C   UNL     1      54.730  27.127  49.963  1.00  0.00     0.041 C 
ATOM      3  O   UNL     1      55.247  26.011  49.694  1.00  0.00    -0.550 OA
ATOM      4  O   UNL     1      53.371  27.325  49.750  1.00  0.00    -0.550 OA
ENDBRANCH   1   2
BRANCH   1   5
ATOM      5  C   UNL     1      57.067  27.893  50.336  1.00  0.00     0.006 C 
BRANCH   5   6
ATOM      6  C   UNL     1      57.946  29.115  50.028  1.00  0.00    -0.003 C 
ATOM      7  C   UNL     1      59.187  28.761  49.209  1.00  0.00     0.004 C 
ENDBRANCH   5   6
ENDBRANCH   1   5
TORSDOF 3
ENDMDL
MODEL 9
REMARK VINA RESULT:    -2.426      3.744      4.710
REMARK INTER + INTRA:          -2.881
REMARK INTER:                  -2.860
REMARK INTRA:                  -0.021
REMARK UNBOUND:                -0.030
REMARK SMILES CCCCC(=O)[O-]
REMARK SMILES IDX 4 1 5 2 6 3 7 4 3 5 2 6 1 7
REMARK H PARENT
REMARK Flexibility Score: inf
ROOT
ATOM      1  C   UNL     1      55.338  26.554  49.986  1.00  0.00     0.053 C 
ENDROOT
BRANCH   1   2
ATOM      2  C   UNL     1      54.003  25.988  49.621  1.00  0.00     0.041 C 
ATOM      3  O   UNL     1      53.881  24.757  49.383  1.00  0.00    -0.550 OA
ATOM      4  O   UNL     1      52.903  26.826  49.492  1.00  0.00    -0.550 OA
ENDBRANCH   1   2
BRANCH   1   5
ATOM      5  C   UNL     1      55.221  28.054  50.281  1.00  0.00     0.006 C 
BRANCH   5   6
ATOM      6  C   UNL     1      56.466  28.617  50.984  1.00  0.00    -0.003 C 
ATOM      7  C   UNL     1      57.662  28.760  50.044  1.00  0.00     0.004 C 
ENDBRANCH   5   6
ENDBRANCH   1   5
TORSDOF 3
ENDMDL
