MODEL 1
REMARK VINA RESULT:    -4.528      0.000      0.000
REMARK INTER + INTRA:          -9.702
REMARK INTER:                  -8.235
REMARK INTRA:                  -1.467
REMARK UNBOUND:                -1.467
REMARK SMILES CCCCCCCCCCCCCC[C@@H](C)C(=O)[O-]
REMARK SMILES IDX 9 1 10 2 11 3 12 4 13 5 14 6 15 7 16 8 17 9 18 10 19 11 8 12
REMARK SMILES IDX 7 13 6 14 5 15 4 16 3 17 2 18 1 19
REMARK H PARENT
REMARK Flexibility Score: inf
ROOT
ATOM      1  C   UNL     1       4.291  -1.125  -5.093  1.00  0.00     0.000 C 
ENDROOT
BRANCH   1   2
ATOM      2  C   UNL     1       5.144  -2.305  -4.600  1.00  0.00     0.000 C 
BRANCH   2   3
ATOM      3  C   UNL     1       6.124  -1.853  -3.507  1.00  0.00     0.000 C 
BRANCH   3   4
ATOM      4  C   UNL     1       6.324  -0.327  -3.478  1.00  0.00     0.000 C 
BRANCH   4   5
ATOM      5  C   UNL     1       6.235   0.320  -2.082  1.00  0.00     0.001 C 
BRANCH   5   6
ATOM      6  C   UNL     1       5.513  -0.504  -0.992  1.00  0.00     0.009 C 
BRANCH   6   7
ATOM      7  C   UNL     1       6.360  -0.986   0.216  1.00  0.00     0.032 C 
ATOM      8  C   UNL     1       7.806  -1.344  -0.158  1.00  0.00     0.014 C 
BRANCH   7   9
ATOM      9  C   UNL     1       6.291  -0.046   1.392  1.00  0.00     0.044 C 
ATOM     10  O   UNL     1       7.090   0.924   1.494  1.00  0.00    -0.550 OA
ATOM     11  O   UNL     1       5.301  -0.217   2.351  1.00  0.00    -0.550 OA
ENDBRANCH   7   9
ENDBRANCH   6   7
ENDBRANCH   5   6
ENDBRANCH   4   5
ENDBRANCH   3   4
ENDBRANCH   2   3
ENDBRANCH   1   2
BRANCH   1  12
ATOM     12  C   UNL     1       2.787  -1.339  -4.860  1.00  0.00     0.000 C 
BRANCH  12  13
ATOM     13  C   UNL     1       2.498  -2.187  -3.609  1.00  0.00    -0.000 C 
BRANCH  13  14
ATOM     14  C   UNL     1       1.482  -3.310  -3.878  1.00  0.00    -0.000 C 
BRANCH  14  15
ATOM     15  C   UNL     1       2.151  -4.655  -4.197  1.00  0.00    -0.000 C 
BRANCH  15  16
ATOM     16  C   UNL     1       1.337  -5.822  -3.620  1.00  0.00    -0.000 C 
BRANCH  16  17
ATOM     17  C   UNL     1       0.620  -5.455  -2.311  1.00  0.00    -0.000 C 
BRANCH  17  18
ATOM     18  C   UNL     1       1.202  -6.186  -1.092  1.00  0.00    -0.003 C 
ATOM     19  C   UNL     1       1.814  -7.525  -1.495  1.00  0.00     0.004 C 
ENDBRANCH  17  18
ENDBRANCH  16  17
ENDBRANCH  15  16
ENDBRANCH  14  15
ENDBRANCH  13  14
ENDBRANCH  12  13
ENDBRANCH   1  12
TORSDOF 14
ENDMDL
MODEL 2
REMARK VINA RESULT:    -4.521      1.080      1.987
REMARK INTER + INTRA:          -9.689
REMARK INTER:                  -8.575
REMARK INTRA:                  -1.114
REMARK UNBOUND:                -1.467
REMARK SMILES CCCCCCCCCCCCCC[C@@H](C)C(=O)[O-]
REMARK SMILES IDX 9 1 10 2 11 3 12 4 13 5 14 6 15 7 16 8 17 9 18 10 19 11 8 12
REMARK SMILES IDX 7 13 6 14 5 15 4 16 3 17 2 18 1 19
REMARK H PARENT
REMARK Flexibility Score: inf
ROOT
ATOM      1  C   UNL     1       4.639  -1.339  -3.404  1.00  0.00     0.000 C 
ENDROOT
BRANCH   1   2
ATOM      2  C   UNL     1       6.165  -1.174  -3.341  1.00  0.00     0.000 C 
BRANCH   2   3
ATOM      3  C   UNL     1       6.858  -2.536  -3.188  1.00  0.00     0.000 C 
BRANCH   3   4
ATOM      4  C   UNL     1       7.733  -2.622  -1.924  1.00  0.00     0.000 C 
BRANCH   4   5
ATOM      5  C   UNL     1       7.034  -2.215  -0.613  1.00  0.00     0.001 C 
BRANCH   5   6
ATOM      6  C   UNL     1       7.666  -1.036   0.161  1.00  0.00     0.009 C 
BRANCH   6   7
ATOM      7  C   UNL     1       6.720   0.106   0.619  1.00  0.00     0.032 C 
ATOM      8  C   UNL     1       5.416   0.177  -0.189  1.00  0.00     0.014 C 
BRANCH   7   9
ATOM      9  C   UNL     1       6.472   0.102   2.106  1.00  0.00     0.044 C 
ATOM     10  O   UNL     1       5.340  -0.202   2.571  1.00  0.00    -0.550 OA
ATOM     11  O   UNL     1       7.515   0.382   2.977  1.00  0.00    -0.550 OA
ENDBRANCH   7   9
ENDBRANCH   6   7
ENDBRANCH   5   6
ENDBRANCH   4   5
ENDBRANCH   3   4
ENDBRANCH   2   3
ENDBRANCH   1   2
BRANCH   1  12
ATOM     12  C   UNL     1       4.080  -1.172  -4.826  1.00  0.00     0.000 C 
BRANCH  12  13
ATOM     13  C   UNL     1       2.582  -1.516  -4.916  1.00  0.00    -0.000 C 
BRANCH  13  14
ATOM     14  C   UNL     1       2.314  -2.761  -5.778  1.00  0.00    -0.000 C 
BRANCH  14  15
ATOM     15  C   UNL     1       1.839  -3.966  -4.952  1.00  0.00    -0.000 C 
BRANCH  15  16
ATOM     16  C   UNL     1       1.504  -3.546  -3.513  1.00  0.00    -0.000 C 
BRANCH  16  17
ATOM     17  C   UNL     1       0.514  -4.504  -2.831  1.00  0.00    -0.000 C 
BRANCH  17  18
ATOM     18  C   UNL     1       1.108  -5.902  -2.601  1.00  0.00    -0.003 C 
ATOM     19  C   UNL     1       1.151  -6.243  -1.114  1.00  0.00     0.004 C 
ENDBRANCH  17  18
ENDBRANCH  16  17
ENDBRANCH  15  16
ENDBRANCH  14  15
ENDBRANCH  13  14
ENDBRANCH  12  13
ENDBRANCH   1  12
TORSDOF 14
ENDMDL
MODEL 3
REMARK VINA RESULT:    -4.297      1.820      2.864
REMARK INTER + INTRA:          -9.280
REMARK INTER:                  -7.667
REMARK INTRA:                  -1.614
REMARK UNBOUND:                -1.467
REMARK SMILES CCCCCCCCCCCCCC[C@@H](C)C(=O)[O-]
REMARK SMILES IDX 9 1 10 2 11 3 12 4 13 5 14 6 15 7 16 8 17 9 18 10 19 11 8 12
REMARK SMILES IDX 7 13 6 14 5 15 4 16 3 17 2 18 1 19
REMARK H PARENT
REMARK Flexibility Score: inf
ROOT
ATOM      1  C   UNL     1       5.958  -2.582  -4.132  1.00  0.00     0.000 C 
ENDROOT
BRANCH   1   2
ATOM      2  C   UNL     1       7.327  -2.297  -3.494  1.00  0.00     0.000 C 
BRANCH   2   3
ATOM      3  C   UNL     1       7.685  -3.378  -2.464  1.00  0.00     0.000 C 
BRANCH   3   4
ATOM      4  C   UNL     1       8.047  -2.794  -1.086  1.00  0.00     0.000 C 
BRANCH   4   5
ATOM      5  C   UNL     1       6.936  -1.966  -0.412  1.00  0.00     0.001 C 
BRANCH   5   6
ATOM      6  C   UNL     1       7.403  -0.834   0.531  1.00  0.00     0.009 C 
BRANCH   6   7
ATOM      7  C   UNL     1       6.658   0.525   0.439  1.00  0.00     0.032 C 
ATOM      8  C   UNL     1       6.031   0.782  -0.940  1.00  0.00     0.014 C 
BRANCH   7   9
ATOM      9  C   UNL     1       5.675   0.732   1.561  1.00  0.00     0.044 C 
ATOM     10  O   UNL     1       5.392  -0.206   2.355  1.00  0.00    -0.550 OA
ATOM     11  O   UNL     1       5.112   1.986   1.758  1.00  0.00    -0.550 OA
ENDBRANCH   7   9
ENDBRANCH   6   7
ENDBRANCH   5   6
ENDBRANCH   4   5
ENDBRANCH   3   4
ENDBRANCH   2   3
ENDBRANCH   1   2
BRANCH   1  12
ATOM     12  C   UNL     1       4.930  -1.472  -3.856  1.00  0.00     0.000 C 
BRANCH  12  13
ATOM     13  C   UNL     1       4.092  -1.120  -5.098  1.00  0.00    -0.000 C 
BRANCH  13  14
ATOM     14  C   UNL     1       2.603  -1.455  -4.919  1.00  0.00    -0.000 C 
BRANCH  14  15
ATOM     15  C   UNL     1       2.326  -2.285  -3.656  1.00  0.00    -0.000 C 
BRANCH  15  16
ATOM     16  C   UNL     1       1.612  -3.599  -4.010  1.00  0.00    -0.000 C 
BRANCH  16  17
ATOM     17  C   UNL     1       2.179  -4.260  -5.275  1.00  0.00    -0.000 C 
BRANCH  17  18
ATOM     18  C   UNL     1       2.966  -5.544  -4.970  1.00  0.00    -0.003 C 
ATOM     19  C   UNL     1       4.345  -5.511  -5.622  1.00  0.00     0.004 C 
ENDBRANCH  17  18
ENDBRANCH  16  17
ENDBRANCH  15  16
ENDBRANCH  14  15
ENDBRANCH  13  14
ENDBRANCH  12  13
ENDBRANCH   1  12
TORSDOF 14
ENDMDL
MODEL 4
REMARK VINA RESULT:    -4.224      1.493      2.793
REMARK INTER + INTRA:          -9.149
REMARK INTER:                  -7.060
REMARK INTRA:                  -2.088
REMARK UNBOUND:                -1.467
REMARK SMILES CCCCCCCCCCCCCC[C@@H](C)C(=O)[O-]
REMARK SMILES IDX 9 1 10 2 11 3 12 4 13 5 14 6 15 7 16 8 17 9 18 10 19 11 8 12
REMARK SMILES IDX 7 13 6 14 5 15 4 16 3 17 2 18 1 19
REMARK H PARENT
REMARK Flexibility Score: inf
ROOT
ATOM      1  C   UNL     1       4.092  -1.178  -5.119  1.00  0.00     0.000 C 
ENDROOT
BRANCH   1   2
ATOM      2  C   UNL     1       4.980  -2.367  -4.723  1.00  0.00     0.000 C 
BRANCH   2   3
ATOM      3  C   UNL     1       6.006  -1.952  -3.658  1.00  0.00     0.000 C 
BRANCH   3   4
ATOM      4  C   UNL     1       6.254  -0.433  -3.626  1.00  0.00     0.000 C 
BRANCH   4   5
ATOM      5  C   UNL     1       6.198   0.212  -2.228  1.00  0.00     0.001 C 
BRANCH   5   6
ATOM      6  C   UNL     1       5.477  -0.601  -1.129  1.00  0.00     0.009 C 
BRANCH   6   7
ATOM      7  C   UNL     1       6.333  -1.106   0.063  1.00  0.00     0.032 C 
ATOM      8  C   UNL     1       7.701  -1.661  -0.363  1.00  0.00     0.014 C 
BRANCH   7   9
ATOM      9  C   UNL     1       6.449  -0.094   1.173  1.00  0.00     0.044 C 
ATOM     10  O   UNL     1       7.430   0.697   1.227  1.00  0.00    -0.550 OA
ATOM     11  O   UNL     1       5.438   0.007   2.118  1.00  0.00    -0.550 OA
ENDBRANCH   7   9
ENDBRANCH   6   7
ENDBRANCH   5   6
ENDBRANCH   4   5
ENDBRANCH   3   4
ENDBRANCH   2   3
ENDBRANCH   1   2
BRANCH   1  12
ATOM     12  C   UNL     1       2.606  -1.413  -4.803  1.00  0.00     0.000 C 
BRANCH  12  13
ATOM     13  C   UNL     1       2.399  -2.273  -3.543  1.00  0.00    -0.000 C 
BRANCH  13  14
ATOM     14  C   UNL     1       1.478  -3.477  -3.796  1.00  0.00    -0.000 C 
BRANCH  14  15
ATOM     15  C   UNL     1       2.209  -4.661  -4.446  1.00  0.00    -0.000 C 
BRANCH  15  16
ATOM     16  C   UNL     1       1.706  -4.896  -5.879  1.00  0.00    -0.000 C 
BRANCH  16  17
ATOM     17  C   UNL     1       2.849  -5.138  -6.876  1.00  0.00    -0.000 C 
BRANCH  17  18
ATOM     18  C   UNL     1       3.141  -3.910  -7.751  1.00  0.00    -0.003 C 
ATOM     19  C   UNL     1       1.873  -3.098  -8.000  1.00  0.00     0.004 C 
ENDBRANCH  17  18
ENDBRANCH  16  17
ENDBRANCH  15  16
ENDBRANCH  14  15
ENDBRANCH  13  14
ENDBRANCH  12  13
ENDBRANCH   1  12
TORSDOF 14
ENDMDL
MODEL 5
REMARK VINA RESULT:    -4.190      1.764      3.736
REMARK INTER + INTRA:          -9.086
REMARK INTER:                  -7.673
REMARK INTRA:                  -1.413
REMARK UNBOUND:                -1.467
REMARK SMILES CCCCCCCCCCCCCC[C@@H](C)C(=O)[O-]
REMARK SMILES IDX 9 1 10 2 11 3 12 4 13 5 14 6 15 7 16 8 17 9 18 10 19 11 8 12
REMARK SMILES IDX 7 13 6 14 5 15 4 16 3 17 2 18 1 19
REMARK H PARENT
REMARK Flexibility Score: inf
ROOT
ATOM      1  C   UNL     1       8.080  -3.668  -3.562  1.00  0.00     0.000 C 
ENDROOT
BRANCH   1   2
ATOM      2  C   UNL     1       8.529  -4.409  -2.294  1.00  0.00     0.000 C 
BRANCH   2   3
ATOM      3  C   UNL     1       7.995  -3.711  -1.034  1.00  0.00     0.000 C 
BRANCH   3   4
ATOM      4  C   UNL     1       7.628  -2.236  -1.279  1.00  0.00     0.000 C 
BRANCH   4   5
ATOM      5  C   UNL     1       6.738  -1.593  -0.198  1.00  0.00     0.001 C 
BRANCH   5   6
ATOM      6  C   UNL     1       7.385  -0.467   0.640  1.00  0.00     0.009 C 
BRANCH   6   7
ATOM      7  C   UNL     1       6.701   0.926   0.613  1.00  0.00     0.032 C 
ATOM      8  C   UNL     1       6.210   1.335  -0.783  1.00  0.00     0.014 C 
BRANCH   7   9
ATOM      9  C   UNL     1       5.628   1.072   1.661  1.00  0.00     0.044 C 
ATOM     10  O   UNL     1       5.014   2.163   1.810  1.00  0.00    -0.550 OA
ATOM     11  O   UNL     1       5.272  -0.022   2.437  1.00  0.00    -0.550 OA
ENDBRANCH   7   9
ENDBRANCH   6   7
ENDBRANCH   5   6
ENDBRANCH   4   5
ENDBRANCH   3   4
ENDBRANCH   2   3
ENDBRANCH   1   2
BRANCH   1  12
ATOM     12  C   UNL     1       7.027  -4.448  -4.367  1.00  0.00     0.000 C 
BRANCH  12  13
ATOM     13  C   UNL     1       5.884  -3.549  -4.871  1.00  0.00    -0.000 C 
BRANCH  13  14
ATOM     14  C   UNL     1       6.060  -2.080  -4.451  1.00  0.00    -0.000 C 
BRANCH  14  15
ATOM     15  C   UNL     1       4.817  -1.507  -3.753  1.00  0.00    -0.000 C 
BRANCH  15  16
ATOM     16  C   UNL     1       3.637  -1.407  -4.732  1.00  0.00    -0.000 C 
BRANCH  16  17
ATOM     17  C   UNL     1       2.327  -1.945  -4.137  1.00  0.00    -0.000 C 
BRANCH  17  18
ATOM     18  C   UNL     1       2.165  -3.460  -4.335  1.00  0.00    -0.003 C 
ATOM     19  C   UNL     1       1.166  -4.042  -3.339  1.00  0.00     0.004 C 
ENDBRANCH  17  18
ENDBRANCH  16  17
ENDBRANCH  15  16
ENDBRANCH  14  15
ENDBRANCH  13  14
ENDBRANCH  12  13
ENDBRANCH   1  12
TORSDOF 14
ENDMDL
MODEL 6
REMARK VINA RESULT:    -4.159      3.934      7.134
REMARK INTER + INTRA:          -9.031
REMARK INTER:                  -7.316
REMARK INTRA:                  -1.714
REMARK UNBOUND:                -1.467
REMARK SMILES CCCCCCCCCCCCCC[C@@H](C)C(=O)[O-]
REMARK SMILES IDX 9 1 10 2 11 3 12 4 13 5 14 6 15 7 16 8 17 9 18 10 19 11 8 12
REMARK SMILES IDX 7 13 6 14 5 15 4 16 3 17 2 18 1 19
REMARK H PARENT
REMARK Flexibility Score: inf
ROOT
ATOM      1  C   UNL     1       2.283  -3.314  -6.561  1.00  0.00     0.000 C 
ENDROOT
BRANCH   1   2
ATOM      2  C   UNL     1       2.994  -4.641  -6.255  1.00  0.00     0.000 C 
BRANCH   2   3
ATOM      3  C   UNL     1       2.612  -5.156  -4.859  1.00  0.00     0.000 C 
BRANCH   3   4
ATOM      4  C   UNL     1       1.139  -4.886  -4.505  1.00  0.00     0.000 C 
BRANCH   4   5
ATOM      5  C   UNL     1       0.910  -4.141  -3.176  1.00  0.00     0.001 C 
BRANCH   5   6
ATOM      6  C   UNL     1       0.325  -4.977  -2.015  1.00  0.00     0.009 C 
BRANCH   6   7
ATOM      7  C   UNL     1       0.519  -6.516  -2.075  1.00  0.00     0.032 C 
ATOM      8  C   UNL     1       1.561  -7.037  -1.074  1.00  0.00     0.014 C 
BRANCH   7   9
ATOM      9  C   UNL     1      -0.781  -7.274  -1.994  1.00  0.00     0.044 C 
ATOM     10  O   UNL     1      -1.720  -7.037  -2.800  1.00  0.00    -0.550 OA
ATOM     11  O   UNL     1      -0.928  -8.285  -1.053  1.00  0.00    -0.550 OA
ENDBRANCH   7   9
ENDBRANCH   6   7
ENDBRANCH   5   6
ENDBRANCH   4   5
ENDBRANCH   3   4
ENDBRANCH   2   3
ENDBRANCH   1   2
BRANCH   1  12
ATOM     12  C   UNL     1       3.112  -2.085  -6.151  1.00  0.00     0.000 C 
BRANCH  12  13
ATOM     13  C   UNL     1       2.525  -1.359  -4.928  1.00  0.00    -0.000 C 
BRANCH  13  14
ATOM     14  C   UNL     1       3.367  -1.569  -3.658  1.00  0.00    -0.000 C 
BRANCH  14  15
ATOM     15  C   UNL     1       4.834  -1.903  -3.964  1.00  0.00    -0.000 C 
BRANCH  15  16
ATOM     16  C   UNL     1       5.781  -0.953  -3.215  1.00  0.00    -0.000 C 
BRANCH  16  17
ATOM     17  C   UNL     1       6.706  -1.690  -2.234  1.00  0.00    -0.000 C 
BRANCH  17  18
ATOM     18  C   UNL     1       6.447  -1.301  -0.771  1.00  0.00    -0.003 C 
ATOM     19  C   UNL     1       5.468  -0.135  -0.676  1.00  0.00     0.004 C 
ENDBRANCH  17  18
ENDBRANCH  16  17
ENDBRANCH  15  16
ENDBRANCH  14  15
ENDBRANCH  13  14
ENDBRANCH  12  13
ENDBRANCH   1  12
TORSDOF 14
ENDMDL
MODEL 7
REMARK VINA RESULT:    -4.158      3.033      7.135
REMARK INTER + INTRA:          -9.028
REMARK INTER:                  -7.538
REMARK INTRA:                  -1.490
REMARK UNBOUND:                -1.467
REMARK SMILES CCCCCCCCCCCCCC[C@@H](C)C(=O)[O-]
REMARK SMILES IDX 9 1 10 2 11 3 12 4 13 5 14 6 15 7 16 8 17 9 18 10 19 11 8 12
REMARK SMILES IDX 7 13 6 14 5 15 4 16 3 17 2 18 1 19
REMARK H PARENT
REMARK Flexibility Score: inf
ROOT
ATOM      1  C   UNL     1       5.073  -0.768  -4.651  1.00  0.00     0.000 C 
ENDROOT
BRANCH   1   2
ATOM      2  C   UNL     1       3.990  -1.530  -3.872  1.00  0.00     0.000 C 
BRANCH   2   3
ATOM      3  C   UNL     1       2.620  -1.380  -4.550  1.00  0.00     0.000 C 
BRANCH   3   4
ATOM      4  C   UNL     1       2.218  -2.622  -5.366  1.00  0.00     0.000 C 
BRANCH   4   5
ATOM      5  C   UNL     1       2.085  -3.925  -4.555  1.00  0.00     0.001 C 
BRANCH   5   6
ATOM      6  C   UNL     1       1.195  -3.857  -3.293  1.00  0.00     0.009 C 
BRANCH   6   7
ATOM      7  C   UNL     1       0.290  -5.082  -2.991  1.00  0.00     0.032 C 
ATOM      8  C   UNL     1      -0.397  -5.654  -4.240  1.00  0.00     0.014 C 
BRANCH   7   9
ATOM      9  C   UNL     1       0.994  -6.146  -2.189  1.00  0.00     0.044 C 
ATOM     10  O   UNL     1       1.398  -7.207  -2.736  1.00  0.00    -0.550 OA
ATOM     11  O   UNL     1       1.248  -5.934  -0.840  1.00  0.00    -0.550 OA
ENDBRANCH   7   9
ENDBRANCH   6   7
ENDBRANCH   5   6
ENDBRANCH   4   5
ENDBRANCH   3   4
ENDBRANCH   2   3
ENDBRANCH   1   2
BRANCH   1  12
ATOM     12  C   UNL     1       6.455  -0.845  -3.981  1.00  0.00     0.000 C 
BRANCH  12  13
ATOM     13  C   UNL     1       6.708  -2.204  -3.304  1.00  0.00    -0.000 C 
BRANCH  13  14
ATOM     14  C   UNL     1       7.738  -2.114  -2.167  1.00  0.00    -0.000 C 
BRANCH  14  15
ATOM     15  C   UNL     1       7.116  -2.337  -0.780  1.00  0.00    -0.000 C 
BRANCH  15  16
ATOM     16  C   UNL     1       6.958  -1.006  -0.029  1.00  0.00    -0.000 C 
BRANCH  16  17
ATOM     17  C   UNL     1       5.647  -0.283  -0.374  1.00  0.00    -0.000 C 
BRANCH  17  18
ATOM     18  C   UNL     1       5.811   1.244  -0.433  1.00  0.00    -0.003 C 
ATOM     19  C   UNL     1       6.918   1.641  -1.405  1.00  0.00     0.004 C 
ENDBRANCH  17  18
ENDBRANCH  16  17
ENDBRANCH  15  16
ENDBRANCH  14  15
ENDBRANCH  13  14
ENDBRANCH  12  13
ENDBRANCH   1  12
TORSDOF 14
ENDMDL
MODEL 8
REMARK VINA RESULT:    -4.134      3.349      6.885
REMARK INTER + INTRA:          -8.986
REMARK INTER:                  -7.159
REMARK INTRA:                  -1.827
REMARK UNBOUND:                -1.467
REMARK SMILES CCCCCCCCCCCCCC[C@@H](C)C(=O)[O-]
REMARK SMILES IDX 9 1 10 2 11 3 12 4 13 5 14 6 15 7 16 8 17 9 18 10 19 11 8 12
REMARK SMILES IDX 7 13 6 14 5 15 4 16 3 17 2 18 1 19
REMARK H PARENT
REMARK Flexibility Score: inf
ROOT
ATOM      1  C   UNL     1       7.444  -3.514  -3.693  1.00  0.00     0.000 C 
ENDROOT
BRANCH   1   2
ATOM      2  C   UNL     1       6.158  -3.130  -4.442  1.00  0.00     0.000 C 
BRANCH   2   3
ATOM      3  C   UNL     1       6.277  -1.725  -5.050  1.00  0.00     0.000 C 
BRANCH   3   4
ATOM      4  C   UNL     1       5.121  -0.795  -4.636  1.00  0.00     0.000 C 
BRANCH   4   5
ATOM      5  C   UNL     1       3.978  -1.475  -3.860  1.00  0.00     0.001 C 
BRANCH   5   6
ATOM      6  C   UNL     1       2.561  -1.328  -4.460  1.00  0.00     0.009 C 
BRANCH   6   7
ATOM      7  C   UNL     1       1.965  -2.559  -5.193  1.00  0.00     0.032 C 
ATOM      8  C   UNL     1       2.606  -2.820  -6.564  1.00  0.00     0.014 C 
BRANCH   7   9
ATOM      9  C   UNL     1       1.935  -3.796  -4.333  1.00  0.00     0.044 C 
ATOM     10  O   UNL     1       1.172  -3.870  -3.332  1.00  0.00    -0.550 OA
ATOM     11  O   UNL     1       2.718  -4.890  -4.676  1.00  0.00    -0.550 OA
ENDBRANCH   7   9
ENDBRANCH   6   7
ENDBRANCH   5   6
ENDBRANCH   4   5
ENDBRANCH   3   4
ENDBRANCH   2   3
ENDBRANCH   1   2
BRANCH   1  12
ATOM     12  C   UNL     1       7.828  -2.495  -2.608  1.00  0.00     0.000 C 
BRANCH  12  13
ATOM     13  C   UNL     1       7.481  -2.984  -1.190  1.00  0.00    -0.000 C 
BRANCH  13  14
ATOM     14  C   UNL     1       6.983  -1.849  -0.280  1.00  0.00    -0.000 C 
BRANCH  14  15
ATOM     15  C   UNL     1       6.071  -0.854  -1.013  1.00  0.00    -0.000 C 
BRANCH  15  16
ATOM     16  C   UNL     1       5.478   0.170  -0.033  1.00  0.00    -0.000 C 
BRANCH  16  17
ATOM     17  C   UNL     1       5.782  -0.169   1.434  1.00  0.00    -0.000 C 
BRANCH  17  18
ATOM     18  C   UNL     1       6.461   0.988   2.180  1.00  0.00    -0.003 C 
ATOM     19  C   UNL     1       7.773   1.382   1.507  1.00  0.00     0.004 C 
ENDBRANCH  17  18
ENDBRANCH  16  17
ENDBRANCH  15  16
ENDBRANCH  14  15
ENDBRANCH  13  14
ENDBRANCH  12  13
ENDBRANCH   1  12
TORSDOF 14
ENDMDL
MODEL 9
REMARK VINA RESULT:    -4.027      3.976      7.293
REMARK INTER + INTRA:          -8.790
REMARK INTER:                  -6.905
REMARK INTRA:                  -1.884
REMARK UNBOUND:                -1.467
REMARK SMILES CCCCCCCCCCCCCC[C@@H](C)C(=O)[O-]
REMARK SMILES IDX 9 1 10 2 11 3 12 4 13 5 14 6 15 7 16 8 17 9 18 10 19 11 8 12
REMARK SMILES IDX 7 13 6 14 5 15 4 16 3 17 2 18 1 19
REMARK H PARENT
REMARK Flexibility Score: inf
ROOT
ATOM      1  C   UNL     1       6.225  -2.456  -4.619  1.00  0.00     0.000 C 
ENDROOT
BRANCH   1   2
ATOM      2  C   UNL     1       5.152  -1.370  -4.796  1.00  0.00     0.000 C 
BRANCH   2   3
ATOM      3  C   UNL     1       4.035  -1.529  -3.754  1.00  0.00     0.000 C 
BRANCH   3   4
ATOM      4  C   UNL     1       2.627  -1.490  -4.376  1.00  0.00     0.000 C 
BRANCH   4   5
ATOM      5  C   UNL     1       2.278  -2.685  -5.284  1.00  0.00     0.001 C 
BRANCH   5   6
ATOM      6  C   UNL     1       2.641  -4.086  -4.740  1.00  0.00     0.009 C 
BRANCH   6   7
ATOM      7  C   UNL     1       1.502  -4.919  -4.095  1.00  0.00     0.032 C 
ATOM      8  C   UNL     1       0.750  -4.166  -2.987  1.00  0.00     0.014 C 
BRANCH   7   9
ATOM      9  C   UNL     1       0.566  -5.520  -5.113  1.00  0.00     0.044 C 
ATOM     10  O   UNL     1      -0.629  -5.786  -4.815  1.00  0.00    -0.550 OA
ATOM     11  O   UNL     1       1.010  -5.734  -6.411  1.00  0.00    -0.550 OA
ENDBRANCH   7   9
ENDBRANCH   6   7
ENDBRANCH   5   6
ENDBRANCH   4   5
ENDBRANCH   3   4
ENDBRANCH   2   3
ENDBRANCH   1   2
BRANCH   1  12
ATOM     12  C   UNL     1       7.645  -1.877  -4.515  1.00  0.00     0.000 C 
BRANCH  12  13
ATOM     13  C   UNL     1       8.336  -2.243  -3.189  1.00  0.00    -0.000 C 
BRANCH  13  14
ATOM     14  C   UNL     1       7.502  -3.213  -2.337  1.00  0.00    -0.000 C 
BRANCH  14  15
ATOM     15  C   UNL     1       7.700  -3.002  -0.828  1.00  0.00    -0.000 C 
BRANCH  15  16
ATOM     16  C   UNL     1       7.705  -1.506  -0.480  1.00  0.00    -0.000 C 
BRANCH  16  17
ATOM     17  C   UNL     1       6.377  -1.036   0.134  1.00  0.00    -0.000 C 
BRANCH  17  18
ATOM     18  C   UNL     1       5.623  -0.051  -0.771  1.00  0.00    -0.003 C 
ATOM     19  C   UNL     1       6.558   0.576  -1.802  1.00  0.00     0.004 C 
ENDBRANCH  17  18
ENDBRANCH  16  17
ENDBRANCH  15  16
ENDBRANCH  14  15
ENDBRANCH  13  14
ENDBRANCH  12  13
ENDBRANCH   1  12
TORSDOF 14
ENDMDL
