MODEL 1
REMARK VINA RESULT:    -7.318      0.000      0.000
REMARK INTER + INTRA:         -11.392
REMARK INTER:                 -10.526
REMARK INTRA:                  -0.866
REMARK UNBOUND:                -0.866
REMARK SMILES O=c1c(O[C@@H]2O[C@@H](CO)[C@H](O)[C@@H](O)[C@H]2O)c(-c2ccc(O)cc2)oc2cc(O)cc(O)c12
REMARK SMILES IDX 4 1 3 2 16 3 24 4 2 5 25 6 1 7 32 8 26 9 30 10 27 11 29 12
REMARK SMILES IDX 17 13 18 14 19 15 20 16 23 17 22 18 21 19 31 21 28 23 5 25
REMARK SMILES IDX 14 26 6 27 12 28 7 29 10 30 15 31 13 33 8 35 9 36 11 38
REMARK H PARENT 21 20 31 22 28 24 15 32 13 34 9 37 11 39
REMARK Flexibility Score: inf
ROOT
ATOM      1  O   UNL     1      14.892 -38.180  -2.296  1.00  0.00    -0.454 OA
ENDROOT
BRANCH   1   2
ATOM      2  C   UNL     1      13.777 -38.249  -3.139  1.00  0.00     0.214 A 
ATOM      3  C   UNL     1      12.849 -37.190  -3.232  1.00  0.00     0.180 A 
ATOM      4  O   UNL     1      11.761 -37.333  -3.983  1.00  0.00    -0.452 OA
ATOM      5  C   UNL     1      13.571 -39.400  -3.905  1.00  0.00     0.239 A 
ATOM      6  C   UNL     1      11.508 -38.422  -4.702  1.00  0.00     0.146 A 
ATOM      7  O   UNL     1      14.417 -40.334  -3.849  1.00  0.00    -0.285 OA
ATOM      8  C   UNL     1      12.416 -39.508  -4.705  1.00  0.00     0.111 A 
ATOM      9  C   UNL     1      10.338 -38.480  -5.463  1.00  0.00     0.094 A 
ATOM     10  C   UNL     1      12.124 -40.647  -5.493  1.00  0.00     0.134 A 
ATOM     11  C   UNL     1      10.053 -39.606  -6.237  1.00  0.00     0.123 A 
ATOM     12  C   UNL     1      10.945 -40.684  -6.253  1.00  0.00     0.093 A 
BRANCH   3  13
ATOM     13  C   UNL     1      13.047 -35.906  -2.527  1.00  0.00     0.021 A 
ATOM     14  C   UNL     1      12.537 -35.739  -1.229  1.00  0.00     0.016 A 
ATOM     15  C   UNL     1      12.715 -34.529  -0.551  1.00  0.00     0.047 A 
ATOM     16  C   UNL     1      13.391 -33.468  -1.169  1.00  0.00     0.115 A 
ATOM     17  C   UNL     1      13.700 -34.828  -3.151  1.00  0.00     0.016 A 
ATOM     18  C   UNL     1      13.879 -33.622  -2.470  1.00  0.00     0.047 A 
BRANCH  16  19
ATOM     19  O   UNL     1      13.579 -32.261  -0.501  1.00  0.00    -0.508 OA
ATOM     20  H   UNL     1      13.870 -31.423  -0.993  1.00  0.00     0.293 HD
ENDBRANCH  16  19
ENDBRANCH   3  13
BRANCH  10  21
ATOM     21  O   UNL     1      12.994 -41.739  -5.526  1.00  0.00    -0.507 OA
ATOM     22  H   UNL     1      12.933 -42.447  -6.250  1.00  0.00     0.293 HD
ENDBRANCH  10  21
BRANCH  11  23
ATOM     23  O   UNL     1       8.882 -39.643  -6.991  1.00  0.00    -0.508 OA
ATOM     24  H   UNL     1       8.875 -39.990  -7.943  1.00  0.00     0.293 HD
ENDBRANCH  11  23
ENDBRANCH   1   2
BRANCH   1  25
ATOM     25  C   UNL     1      16.230 -38.398  -2.759  1.00  0.00     0.339 C 
ATOM     26  C   UNL     1      16.784 -37.120  -3.421  1.00  0.00     0.214 C 
ATOM     27  O   UNL     1      17.065 -38.838  -1.700  1.00  0.00    -0.332 OA
ATOM     28  C   UNL     1      17.030 -36.020  -2.367  1.00  0.00     0.180 C 
ATOM     29  C   UNL     1      17.143 -37.875  -0.660  1.00  0.00     0.179 C 
ATOM     30  C   UNL     1      17.810 -36.572  -1.161  1.00  0.00     0.177 C 
BRANCH  26  31
ATOM     31  O   UNL     1      17.951 -37.394  -4.159  1.00  0.00    -0.384 OA
ATOM     32  H   UNL     1      17.691 -37.894  -4.976  1.00  0.00     0.211 HD
ENDBRANCH  26  31
BRANCH  28  33
ATOM     33  O   UNL     1      17.738 -34.948  -2.936  1.00  0.00    -0.387 OA
ATOM     34  H   UNL     1      18.335 -34.592  -2.227  1.00  0.00     0.211 HD
ENDBRANCH  28  33
BRANCH  29  35
ATOM     35  C   UNL     1      17.922 -38.491   0.514  1.00  0.00     0.191 C 
BRANCH  35  36
ATOM     36  O   UNL     1      18.255 -39.829   0.257  1.00  0.00    -0.394 OA
ATOM     37  H   UNL     1      17.427 -40.275  -0.058  1.00  0.00     0.210 HD
ENDBRANCH  35  36
ENDBRANCH  29  35
BRANCH  30  38
ATOM     38  O   UNL     1      17.814 -35.621  -0.127  1.00  0.00    -0.387 OA
ATOM     39  H   UNL     1      17.659 -34.736  -0.550  1.00  0.00     0.211 HD
ENDBRANCH  30  38
ENDBRANCH   1  25
TORSDOF 11
ENDMDL
MODEL 2
REMARK VINA RESULT:    -7.265      3.172      5.319
REMARK INTER + INTRA:         -11.316
REMARK INTER:                 -10.237
REMARK INTRA:                  -1.079
REMARK UNBOUND:                -0.866
REMARK SMILES O=c1c(O[C@@H]2O[C@@H](CO)[C@H](O)[C@@H](O)[C@H]2O)c(-c2ccc(O)cc2)oc2cc(O)cc(O)c12
REMARK SMILES IDX 4 1 3 2 16 3 24 4 2 5 25 6 1 7 32 8 26 9 30 10 27 11 29 12
REMARK SMILES IDX 17 13 18 14 19 15 20 16 23 17 22 18 21 19 31 21 28 23 5 25
REMARK SMILES IDX 14 26 6 27 12 28 7 29 10 30 15 31 13 33 8 35 9 36 11 38
REMARK H PARENT 21 20 31 22 28 24 15 32 13 34 9 37 11 39
REMARK Flexibility Score: inf
ROOT
ATOM      1  O   UNL     1      14.933 -34.947  -0.207  1.00  0.00    -0.454 OA
ENDROOT
BRANCH   1   2
ATOM      2  C   UNL     1      13.988 -34.964  -1.239  1.00  0.00     0.214 A 
ATOM      3  C   UNL     1      14.313 -35.407  -2.538  1.00  0.00     0.180 A 
ATOM      4  O   UNL     1      13.406 -35.328  -3.507  1.00  0.00    -0.452 OA
ATOM      5  C   UNL     1      12.687 -34.522  -0.980  1.00  0.00     0.239 A 
ATOM      6  C   UNL     1      12.169 -34.885  -3.313  1.00  0.00     0.146 A 
ATOM      7  O   UNL     1      12.384 -34.157   0.189  1.00  0.00    -0.285 OA
ATOM      8  C   UNL     1      11.746 -34.470  -2.028  1.00  0.00     0.111 A 
ATOM      9  C   UNL     1      11.284 -34.839  -4.393  1.00  0.00     0.094 A 
ATOM     10  C   UNL     1      10.416 -34.017  -1.852  1.00  0.00     0.134 A 
ATOM     11  C   UNL     1       9.974 -34.390  -4.217  1.00  0.00     0.123 A 
ATOM     12  C   UNL     1       9.543 -33.982  -2.949  1.00  0.00     0.093 A 
BRANCH   3  13
ATOM     13  C   UNL     1      15.638 -35.975  -2.866  1.00  0.00     0.021 A 
ATOM     14  C   UNL     1      16.784 -35.171  -2.766  1.00  0.00     0.016 A 
ATOM     15  C   UNL     1      18.044 -35.694  -3.076  1.00  0.00     0.047 A 
ATOM     16  C   UNL     1      18.169 -37.024  -3.503  1.00  0.00     0.115 A 
ATOM     17  C   UNL     1      15.768 -37.299  -3.322  1.00  0.00     0.016 A 
ATOM     18  C   UNL     1      17.027 -37.821  -3.628  1.00  0.00     0.047 A 
BRANCH  16  19
ATOM     19  O   UNL     1      19.418 -37.557  -3.809  1.00  0.00    -0.508 OA
ATOM     20  H   UNL     1      19.943 -37.246  -4.618  1.00  0.00     0.293 HD
ENDBRANCH  16  19
ENDBRANCH   3  13
BRANCH  10  21
ATOM     21  O   UNL     1       9.959 -33.602  -0.600  1.00  0.00    -0.507 OA
ATOM     22  H   UNL     1       9.181 -32.959  -0.504  1.00  0.00     0.293 HD
ENDBRANCH  10  21
BRANCH  11  23
ATOM     23  O   UNL     1       9.107 -34.354  -5.307  1.00  0.00    -0.508 OA
ATOM     24  H   UNL     1       8.854 -33.481  -5.754  1.00  0.00     0.293 HD
ENDBRANCH  11  23
ENDBRANCH   1   2
BRANCH   1  25
ATOM     25  C   UNL     1      14.831 -35.781   0.953  1.00  0.00     0.339 C 
ATOM     26  C   UNL     1      14.873 -37.269   0.548  1.00  0.00     0.214 C 
ATOM     27  O   UNL     1      15.848 -35.469   1.890  1.00  0.00    -0.332 OA
ATOM     28  C   UNL     1      16.279 -37.661   0.046  1.00  0.00     0.180 C 
ATOM     29  C   UNL     1      17.143 -35.678   1.347  1.00  0.00     0.179 C 
ATOM     30  C   UNL     1      17.369 -37.172   1.016  1.00  0.00     0.177 C 
BRANCH  26  31
ATOM     31  O   UNL     1      14.458 -38.097   1.609  1.00  0.00    -0.384 OA
ATOM     32  H   UNL     1      14.048 -37.524   2.307  1.00  0.00     0.211 HD
ENDBRANCH  26  31
BRANCH  28  33
ATOM     33  O   UNL     1      16.372 -39.054  -0.105  1.00  0.00    -0.387 OA
ATOM     34  H   UNL     1      15.449 -39.387  -0.261  1.00  0.00     0.211 HD
ENDBRANCH  28  33
BRANCH  29  35
ATOM     35  C   UNL     1      18.183 -35.161   2.356  1.00  0.00     0.191 C 
BRANCH  35  36
ATOM     36  O   UNL     1      19.347 -34.722   1.706  1.00  0.00    -0.394 OA
ATOM     37  H   UNL     1      19.436 -33.753   1.902  1.00  0.00     0.210 HD
ENDBRANCH  35  36
ENDBRANCH  29  35
BRANCH  30  38
ATOM     38  O   UNL     1      18.633 -37.335   0.423  1.00  0.00    -0.387 OA
ATOM     39  H   UNL     1      19.264 -37.576   1.151  1.00  0.00     0.211 HD
ENDBRANCH  30  38
ENDBRANCH   1  25
TORSDOF 11
ENDMDL
MODEL 3
REMARK VINA RESULT:    -6.940      1.147      1.893
REMARK INTER + INTRA:         -10.848
REMARK INTER:                  -9.812
REMARK INTRA:                  -1.037
REMARK UNBOUND:                -0.866
REMARK SMILES O=c1c(O[C@@H]2O[C@@H](CO)[C@H](O)[C@@H](O)[C@H]2O)c(-c2ccc(O)cc2)oc2cc(O)cc(O)c12
REMARK SMILES IDX 4 1 3 2 16 3 24 4 2 5 25 6 1 7 32 8 26 9 30 10 27 11 29 12
REMARK SMILES IDX 17 13 18 14 19 15 20 16 23 17 22 18 21 19 31 21 28 23 5 25
REMARK SMILES IDX 14 26 6 27 12 28 7 29 10 30 15 31 13 33 8 35 9 36 11 38
REMARK H PARENT 21 20 31 22 28 24 15 32 13 34 9 37 11 39
REMARK Flexibility Score: inf
ROOT
ATOM      1  O   UNL     1      15.115 -37.978  -1.630  1.00  0.00    -0.454 OA
ENDROOT
BRANCH   1   2
ATOM      2  C   UNL     1      14.118 -38.066  -2.609  1.00  0.00     0.214 A 
ATOM      3  C   UNL     1      13.199 -37.019  -2.831  1.00  0.00     0.180 A 
ATOM      4  O   UNL     1      12.218 -37.179  -3.714  1.00  0.00    -0.452 OA
ATOM      5  C   UNL     1      14.023 -39.226  -3.383  1.00  0.00     0.239 A 
ATOM      6  C   UNL     1      12.071 -38.277  -4.448  1.00  0.00     0.146 A 
ATOM      7  O   UNL     1      14.864 -40.150  -3.210  1.00  0.00    -0.285 OA
ATOM      8  C   UNL     1      12.981 -39.353  -4.324  1.00  0.00     0.111 A 
ATOM      9  C   UNL     1      11.009 -38.355  -5.352  1.00  0.00     0.094 A 
ATOM     10  C   UNL     1      12.805 -40.502  -5.131  1.00  0.00     0.134 A 
ATOM     11  C   UNL     1      10.836 -39.490  -6.146  1.00  0.00     0.123 A 
ATOM     12  C   UNL     1      11.733 -40.559  -6.036  1.00  0.00     0.093 A 
BRANCH   3  13
ATOM     13  C   UNL     1      13.292 -35.726  -2.118  1.00  0.00     0.021 A 
ATOM     14  C   UNL     1      12.789 -35.614  -0.813  1.00  0.00     0.016 A 
ATOM     15  C   UNL     1      12.869 -34.397  -0.127  1.00  0.00     0.047 A 
ATOM     16  C   UNL     1      13.438 -33.276  -0.747  1.00  0.00     0.115 A 
ATOM     17  C   UNL     1      13.837 -34.590  -2.744  1.00  0.00     0.016 A 
ATOM     18  C   UNL     1      13.918 -33.377  -2.056  1.00  0.00     0.047 A 
BRANCH  16  19
ATOM     19  O   UNL     1      13.528 -32.061  -0.073  1.00  0.00    -0.508 OA
ATOM     20  H   UNL     1      12.704 -31.595   0.291  1.00  0.00     0.293 HD
ENDBRANCH  16  19
ENDBRANCH   3  13
BRANCH  10  21
ATOM     21  O   UNL     1      13.682 -41.585  -5.042  1.00  0.00    -0.507 OA
ATOM     22  H   UNL     1      13.782 -42.253  -5.798  1.00  0.00     0.293 HD
ENDBRANCH  10  21
BRANCH  11  23
ATOM     23  O   UNL     1       9.772 -39.547  -7.042  1.00  0.00    -0.508 OA
ATOM     24  H   UNL     1       9.669 -40.315  -7.696  1.00  0.00     0.293 HD
ENDBRANCH  11  23
ENDBRANCH   1   2
BRANCH   1  25
ATOM     25  C   UNL     1      16.216 -37.065  -1.723  1.00  0.00     0.339 C 
ATOM     26  C   UNL     1      16.389 -36.297  -0.397  1.00  0.00     0.214 C 
ATOM     27  O   UNL     1      17.405 -37.745  -2.089  1.00  0.00    -0.332 OA
ATOM     28  C   UNL     1      16.899 -37.235   0.717  1.00  0.00     0.180 C 
ATOM     29  C   UNL     1      17.765 -38.725  -1.127  1.00  0.00     0.179 C 
ATOM     30  C   UNL     1      18.099 -38.068   0.233  1.00  0.00     0.177 C 
BRANCH  26  31
ATOM     31  O   UNL     1      17.237 -35.185  -0.560  1.00  0.00    -0.384 OA
ATOM     32  H   UNL     1      18.083 -35.368  -0.076  1.00  0.00     0.211 HD
ENDBRANCH  26  31
BRANCH  28  33
ATOM     33  O   UNL     1      17.266 -36.492   1.851  1.00  0.00    -0.387 OA
ATOM     34  H   UNL     1      16.521 -36.576   2.501  1.00  0.00     0.211 HD
ENDBRANCH  28  33
BRANCH  29  35
ATOM     35  C   UNL     1      18.958 -39.526  -1.673  1.00  0.00     0.191 C 
BRANCH  35  36
ATOM     36  O   UNL     1      20.003 -38.677  -2.070  1.00  0.00    -0.394 OA
ATOM     37  H   UNL     1      20.490 -39.142  -2.798  1.00  0.00     0.210 HD
ENDBRANCH  35  36
ENDBRANCH  29  35
BRANCH  30  38
ATOM     38  O   UNL     1      18.389 -39.068   1.177  1.00  0.00    -0.387 OA
ATOM     39  H   UNL     1      19.082 -38.698   1.785  1.00  0.00     0.211 HD
ENDBRANCH  30  38
ENDBRANCH   1  25
TORSDOF 11
ENDMDL
MODEL 4
REMARK VINA RESULT:    -6.696      2.108      2.770
REMARK INTER + INTRA:         -10.498
REMARK INTER:                  -9.579
REMARK INTRA:                  -0.919
REMARK UNBOUND:                -0.866
REMARK SMILES O=c1c(O[C@@H]2O[C@@H](CO)[C@H](O)[C@@H](O)[C@H]2O)c(-c2ccc(O)cc2)oc2cc(O)cc(O)c12
REMARK SMILES IDX 4 1 3 2 16 3 24 4 2 5 25 6 1 7 32 8 26 9 30 10 27 11 29 12
REMARK SMILES IDX 17 13 18 14 19 15 20 16 23 17 22 18 21 19 31 21 28 23 5 25
REMARK SMILES IDX 14 26 6 27 12 28 7 29 10 30 15 31 13 33 8 35 9 36 11 38
REMARK H PARENT 21 20 31 22 28 24 15 32 13 34 9 37 11 39
REMARK Flexibility Score: inf
ROOT
ATOM      1  O   UNL     1      15.359 -36.074  -1.731  1.00  0.00    -0.454 OA
ENDROOT
BRANCH   1   2
ATOM      2  C   UNL     1      14.110 -36.258  -2.336  1.00  0.00     0.214 A 
ATOM      3  C   UNL     1      12.945 -35.632  -1.843  1.00  0.00     0.180 A 
ATOM      4  O   UNL     1      11.768 -35.902  -2.399  1.00  0.00    -0.452 OA
ATOM      5  C   UNL     1      14.010 -37.093  -3.453  1.00  0.00     0.239 A 
ATOM      6  C   UNL     1      11.622 -36.713  -3.441  1.00  0.00     0.146 A 
ATOM      7  O   UNL     1      15.055 -37.627  -3.916  1.00  0.00    -0.285 OA
ATOM      8  C   UNL     1      12.747 -37.340  -4.028  1.00  0.00     0.111 A 
ATOM      9  C   UNL     1      10.343 -36.935  -3.959  1.00  0.00     0.094 A 
ATOM     10  C   UNL     1      12.559 -38.187  -5.147  1.00  0.00     0.134 A 
ATOM     11  C   UNL     1      10.161 -37.772  -5.061  1.00  0.00     0.123 A 
ATOM     12  C   UNL     1      11.267 -38.394  -5.653  1.00  0.00     0.093 A 
BRANCH   3  13
ATOM     13  C   UNL     1      12.985 -34.665  -0.726  1.00  0.00     0.021 A 
ATOM     14  C   UNL     1      12.254 -34.924   0.444  1.00  0.00     0.016 A 
ATOM     15  C   UNL     1      12.280 -34.017   1.509  1.00  0.00     0.047 A 
ATOM     16  C   UNL     1      13.026 -32.834   1.408  1.00  0.00     0.115 A 
ATOM     17  C   UNL     1      13.709 -33.464  -0.830  1.00  0.00     0.016 A 
ATOM     18  C   UNL     1      13.737 -32.561   0.235  1.00  0.00     0.047 A 
BRANCH  16  19
ATOM     19  O   UNL     1      13.064 -31.926   2.463  1.00  0.00    -0.508 OA
ATOM     20  H   UNL     1      13.932 -31.492   2.757  1.00  0.00     0.293 HD
ENDBRANCH  16  19
ENDBRANCH   3  13
BRANCH  10  21
ATOM     21  O   UNL     1      13.642 -38.822  -5.756  1.00  0.00    -0.507 OA
ATOM     22  H   UNL     1      14.258 -39.439  -5.239  1.00  0.00     0.293 HD
ENDBRANCH  10  21
BRANCH  11  23
ATOM     23  O   UNL     1       8.878 -37.979  -5.562  1.00  0.00    -0.508 OA
ATOM     24  H   UNL     1       8.710 -38.589  -6.354  1.00  0.00     0.293 HD
ENDBRANCH  11  23
ENDBRANCH   1   2
BRANCH   1  25
ATOM     25  C   UNL     1      16.127 -37.156  -1.191  1.00  0.00     0.339 C 
ATOM     26  C   UNL     1      17.508 -36.652  -0.725  1.00  0.00     0.214 C 
ATOM     27  O   UNL     1      15.426 -37.797  -0.139  1.00  0.00    -0.332 OA
ATOM     28  C   UNL     1      17.372 -35.757   0.525  1.00  0.00     0.180 C 
ATOM     29  C   UNL     1      15.162 -36.906   0.934  1.00  0.00     0.179 C 
ATOM     30  C   UNL     1      16.479 -36.422   1.587  1.00  0.00     0.177 C 
BRANCH  26  31
ATOM     31  O   UNL     1      18.390 -37.725  -0.494  1.00  0.00    -0.384 OA
ATOM     32  H   UNL     1      17.942 -38.370   0.111  1.00  0.00     0.211 HD
ENDBRANCH  26  31
BRANCH  28  33
ATOM     33  O   UNL     1      18.637 -35.489   1.073  1.00  0.00    -0.387 OA
ATOM     34  H   UNL     1      19.217 -35.195   0.322  1.00  0.00     0.211 HD
ENDBRANCH  28  33
BRANCH  29  35
ATOM     35  C   UNL     1      14.260 -37.624   1.952  1.00  0.00     0.191 C 
BRANCH  35  36
ATOM     36  O   UNL     1      14.965 -37.936   3.124  1.00  0.00    -0.394 OA
ATOM     37  H   UNL     1      14.289 -38.070   3.838  1.00  0.00     0.210 HD
ENDBRANCH  35  36
ENDBRANCH  29  35
BRANCH  30  38
ATOM     38  O   UNL     1      16.185 -35.495   2.602  1.00  0.00    -0.387 OA
ATOM     39  H   UNL     1      16.467 -34.604   2.268  1.00  0.00     0.211 HD
ENDBRANCH  30  38
ENDBRANCH   1  25
TORSDOF 11
ENDMDL
MODEL 5
REMARK VINA RESULT:    -6.673      2.022      4.542
REMARK INTER + INTRA:         -10.465
REMARK INTER:                  -8.961
REMARK INTRA:                  -1.503
REMARK UNBOUND:                -0.866
REMARK SMILES O=c1c(O[C@@H]2O[C@@H](CO)[C@H](O)[C@@H](O)[C@H]2O)c(-c2ccc(O)cc2)oc2cc(O)cc(O)c12
REMARK SMILES IDX 4 1 3 2 16 3 24 4 2 5 25 6 1 7 32 8 26 9 30 10 27 11 29 12
REMARK SMILES IDX 17 13 18 14 19 15 20 16 23 17 22 18 21 19 31 21 28 23 5 25
REMARK SMILES IDX 14 26 6 27 12 28 7 29 10 30 15 31 13 33 8 35 9 36 11 38
REMARK H PARENT 21 20 31 22 28 24 15 32 13 34 9 37 11 39
REMARK Flexibility Score: inf
ROOT
ATOM      1  O   UNL     1      14.163 -36.495  -0.873  1.00  0.00    -0.454 OA
ENDROOT
BRANCH   1   2
ATOM      2  C   UNL     1      13.650 -37.105  -2.023  1.00  0.00     0.214 A 
ATOM      3  C   UNL     1      14.486 -37.747  -2.961  1.00  0.00     0.180 A 
ATOM      4  O   UNL     1      13.964 -38.240  -4.080  1.00  0.00    -0.452 OA
ATOM      5  C   UNL     1      12.272 -37.070  -2.257  1.00  0.00     0.239 A 
ATOM      6  C   UNL     1      12.665 -38.200  -4.358  1.00  0.00     0.146 A 
ATOM      7  O   UNL     1      11.519 -36.526  -1.404  1.00  0.00    -0.285 OA
ATOM      8  C   UNL     1      11.752 -37.620  -3.446  1.00  0.00     0.111 A 
ATOM      9  C   UNL     1      12.209 -38.747  -5.560  1.00  0.00     0.094 A 
ATOM     10  C   UNL     1      10.373 -37.608  -3.765  1.00  0.00     0.134 A 
ATOM     11  C   UNL     1      10.849 -38.731  -5.873  1.00  0.00     0.123 A 
ATOM     12  C   UNL     1       9.935 -38.164  -4.977  1.00  0.00     0.093 A 
BRANCH   3  13
ATOM     13  C   UNL     1      15.939 -37.906  -2.739  1.00  0.00     0.021 A 
ATOM     14  C   UNL     1      16.398 -38.751  -1.716  1.00  0.00     0.016 A 
ATOM     15  C   UNL     1      17.770 -38.910  -1.494  1.00  0.00     0.047 A 
ATOM     16  C   UNL     1      18.697 -38.214  -2.281  1.00  0.00     0.115 A 
ATOM     17  C   UNL     1      16.874 -37.189  -3.507  1.00  0.00     0.016 A 
ATOM     18  C   UNL     1      18.244 -37.352  -3.285  1.00  0.00     0.047 A 
BRANCH  16  19
ATOM     19  O   UNL     1      20.064 -38.368  -2.072  1.00  0.00    -0.508 OA
ATOM     20  H   UNL     1      20.733 -37.684  -2.410  1.00  0.00     0.293 HD
ENDBRANCH  16  19
ENDBRANCH   3  13
BRANCH  10  21
ATOM     21  O   UNL     1       9.439 -37.048  -2.893  1.00  0.00    -0.507 OA
ATOM     22  H   UNL     1       8.454 -36.996  -3.128  1.00  0.00     0.293 HD
ENDBRANCH  10  21
BRANCH  11  23
ATOM     23  O   UNL     1      10.414 -39.282  -7.076  1.00  0.00    -0.508 OA
ATOM     24  H   UNL     1       9.773 -38.786  -7.685  1.00  0.00     0.293 HD
ENDBRANCH  11  23
ENDBRANCH   1   2
BRANCH   1  25
ATOM     25  C   UNL     1      14.681 -35.159  -0.868  1.00  0.00     0.339 C 
ATOM     26  C   UNL     1      13.881 -34.278   0.113  1.00  0.00     0.214 C 
ATOM     27  O   UNL     1      16.065 -35.156  -0.559  1.00  0.00    -0.332 OA
ATOM     28  C   UNL     1      14.161 -34.690   1.573  1.00  0.00     0.180 C 
ATOM     29  C   UNL     1      16.316 -35.697   0.729  1.00  0.00     0.179 C 
ATOM     30  C   UNL     1      15.672 -34.823   1.831  1.00  0.00     0.177 C 
BRANCH  26  31
ATOM     31  O   UNL     1      14.150 -32.911  -0.095  1.00  0.00    -0.384 OA
ATOM     32  H   UNL     1      14.912 -32.838  -0.726  1.00  0.00     0.211 HD
ENDBRANCH  26  31
BRANCH  28  33
ATOM     33  O   UNL     1      13.612 -33.748   2.460  1.00  0.00    -0.387 OA
ATOM     34  H   UNL     1      12.627 -33.780   2.336  1.00  0.00     0.211 HD
ENDBRANCH  28  33
BRANCH  29  35
ATOM     35  C   UNL     1      17.837 -35.814   0.919  1.00  0.00     0.191 C 
BRANCH  35  36
ATOM     36  O   UNL     1      18.339 -34.741   1.672  1.00  0.00    -0.394 OA
ATOM     37  H   UNL     1      18.765 -34.116   1.031  1.00  0.00     0.210 HD
ENDBRANCH  35  36
ENDBRANCH  29  35
BRANCH  30  38
ATOM     38  O   UNL     1      15.885 -35.420   3.086  1.00  0.00    -0.387 OA
ATOM     39  H   UNL     1      16.208 -34.705   3.694  1.00  0.00     0.211 HD
ENDBRANCH  30  38
ENDBRANCH   1  25
TORSDOF 11
ENDMDL
MODEL 6
REMARK VINA RESULT:    -6.670      1.821      3.008
REMARK INTER + INTRA:         -10.460
REMARK INTER:                  -9.183
REMARK INTRA:                  -1.277
REMARK UNBOUND:                -0.866
REMARK SMILES O=c1c(O[C@@H]2O[C@@H](CO)[C@H](O)[C@@H](O)[C@H]2O)c(-c2ccc(O)cc2)oc2cc(O)cc(O)c12
REMARK SMILES IDX 4 1 3 2 16 3 24 4 2 5 25 6 1 7 32 8 26 9 30 10 27 11 29 12
REMARK SMILES IDX 17 13 18 14 19 15 20 16 23 17 22 18 21 19 31 21 28 23 5 25
REMARK SMILES IDX 14 26 6 27 12 28 7 29 10 30 15 31 13 33 8 35 9 36 11 38
REMARK H PARENT 21 20 31 22 28 24 15 32 13 34 9 37 11 39
REMARK Flexibility Score: inf
ROOT
ATOM      1  O   UNL     1      15.073 -37.028  -0.166  1.00  0.00    -0.454 OA
ENDROOT
BRANCH   1   2
ATOM      2  C   UNL     1      14.079 -36.994  -1.151  1.00  0.00     0.214 A 
ATOM      3  C   UNL     1      13.127 -35.955  -1.212  1.00  0.00     0.180 A 
ATOM      4  O   UNL     1      12.152 -36.007  -2.114  1.00  0.00    -0.452 OA
ATOM      5  C   UNL     1      14.021 -38.023  -2.096  1.00  0.00     0.239 A 
ATOM      6  C   UNL     1      12.040 -36.982  -3.010  1.00  0.00     0.146 A 
ATOM      7  O   UNL     1      14.891 -38.935  -2.064  1.00  0.00    -0.285 OA
ATOM      8  C   UNL     1      12.984 -38.035  -3.050  1.00  0.00     0.111 A 
ATOM      9  C   UNL     1      10.980 -36.951  -3.921  1.00  0.00     0.094 A 
ATOM     10  C   UNL     1      12.844 -39.050  -4.027  1.00  0.00     0.134 A 
ATOM     11  C   UNL     1      10.844 -37.954  -4.882  1.00  0.00     0.123 A 
ATOM     12  C   UNL     1      11.774 -38.999  -4.934  1.00  0.00     0.093 A 
BRANCH   3  13
ATOM     13  C   UNL     1      13.180 -34.786  -0.307  1.00  0.00     0.021 A 
ATOM     14  C   UNL     1      12.579 -34.860   0.959  1.00  0.00     0.016 A 
ATOM     15  C   UNL     1      12.619 -33.761   1.825  1.00  0.00     0.047 A 
ATOM     16  C   UNL     1      13.247 -32.573   1.426  1.00  0.00     0.115 A 
ATOM     17  C   UNL     1      13.784 -33.582  -0.711  1.00  0.00     0.016 A 
ATOM     18  C   UNL     1      13.825 -32.488   0.156  1.00  0.00     0.047 A 
BRANCH  16  19
ATOM     19  O   UNL     1      13.297 -31.475   2.281  1.00  0.00    -0.508 OA
ATOM     20  H   UNL     1      14.070 -30.819   2.256  1.00  0.00     0.293 HD
ENDBRANCH  16  19
ENDBRANCH   3  13
BRANCH  10  21
ATOM     21  O   UNL     1      13.755 -40.105  -4.103  1.00  0.00    -0.507 OA
ATOM     22  H   UNL     1      14.512 -40.203  -3.436  1.00  0.00     0.293 HD
ENDBRANCH  10  21
BRANCH  11  23
ATOM     23  O   UNL     1       9.782 -37.905  -5.782  1.00  0.00    -0.508 OA
ATOM     24  H   UNL     1       9.907 -38.125  -6.763  1.00  0.00     0.293 HD
ENDBRANCH  11  23
ENDBRANCH   1   2
BRANCH   1  25
ATOM     25  C   UNL     1      16.218 -36.167  -0.188  1.00  0.00     0.339 C 
ATOM     26  C   UNL     1      16.689 -35.864   1.249  1.00  0.00     0.214 C 
ATOM     27  O   UNL     1      17.259 -36.732  -0.968  1.00  0.00    -0.332 OA
ATOM     28  C   UNL     1      17.300 -37.122   1.902  1.00  0.00     0.180 C 
ATOM     29  C   UNL     1      17.692 -37.976  -0.440  1.00  0.00     0.179 C 
ATOM     30  C   UNL     1      18.317 -37.795   0.964  1.00  0.00     0.177 C 
BRANCH  26  31
ATOM     31  O   UNL     1      17.592 -34.784   1.272  1.00  0.00    -0.384 OA
ATOM     32  H   UNL     1      17.447 -34.242   0.454  1.00  0.00     0.211 HD
ENDBRANCH  26  31
BRANCH  28  33
ATOM     33  O   UNL     1      17.926 -36.787   3.114  1.00  0.00    -0.387 OA
ATOM     34  H   UNL     1      17.766 -35.818   3.260  1.00  0.00     0.211 HD
ENDBRANCH  28  33
BRANCH  29  35
ATOM     35  C   UNL     1      18.694 -38.600  -1.426  1.00  0.00     0.191 C 
BRANCH  35  36
ATOM     36  O   UNL     1      18.722 -39.998  -1.306  1.00  0.00    -0.394 OA
ATOM     37  H   UNL     1      19.508 -40.221  -0.743  1.00  0.00     0.210 HD
ENDBRANCH  35  36
ENDBRANCH  29  35
BRANCH  30  38
ATOM     38  O   UNL     1      18.676 -39.050   1.482  1.00  0.00    -0.387 OA
ATOM     39  H   UNL     1      19.068 -39.570   0.733  1.00  0.00     0.211 HD
ENDBRANCH  30  38
ENDBRANCH   1  25
TORSDOF 11
ENDMDL
MODEL 7
REMARK VINA RESULT:    -6.623      2.220      7.706
REMARK INTER + INTRA:         -10.393
REMARK INTER:                  -8.739
REMARK INTRA:                  -1.654
REMARK UNBOUND:                -0.866
REMARK SMILES O=c1c(O[C@@H]2O[C@@H](CO)[C@H](O)[C@@H](O)[C@H]2O)c(-c2ccc(O)cc2)oc2cc(O)cc(O)c12
REMARK SMILES IDX 4 1 3 2 16 3 24 4 2 5 25 6 1 7 32 8 26 9 30 10 27 11 29 12
REMARK SMILES IDX 17 13 18 14 19 15 20 16 23 17 22 18 21 19 31 21 28 23 5 25
REMARK SMILES IDX 14 26 6 27 12 28 7 29 10 30 15 31 13 33 8 35 9 36 11 38
REMARK H PARENT 21 20 31 22 28 24 15 32 13 34 9 37 11 39
REMARK Flexibility Score: inf
ROOT
ATOM      1  O   UNL     1      13.293 -35.497  -1.925  1.00  0.00    -0.454 OA
ENDROOT
BRANCH   1   2
ATOM      2  C   UNL     1      14.363 -36.196  -1.354  1.00  0.00     0.214 A 
ATOM      3  C   UNL     1      14.695 -37.507  -1.758  1.00  0.00     0.180 A 
ATOM      4  O   UNL     1      15.666 -38.163  -1.130  1.00  0.00    -0.452 OA
ATOM      5  C   UNL     1      15.119 -35.585  -0.349  1.00  0.00     0.239 A 
ATOM      6  C   UNL     1      16.388 -37.632  -0.149  1.00  0.00     0.146 A 
ATOM      7  O   UNL     1      14.845 -34.401  -0.010  1.00  0.00    -0.285 OA
ATOM      8  C   UNL     1      16.154 -36.304   0.280  1.00  0.00     0.111 A 
ATOM      9  C   UNL     1      17.391 -38.399   0.450  1.00  0.00     0.094 A 
ATOM     10  C   UNL     1      16.951 -35.764   1.318  1.00  0.00     0.134 A 
ATOM     11  C   UNL     1      18.174 -37.864   1.474  1.00  0.00     0.123 A 
ATOM     12  C   UNL     1      17.955 -36.550   1.905  1.00  0.00     0.093 A 
BRANCH   3  13
ATOM     13  C   UNL     1      14.003 -38.184  -2.875  1.00  0.00     0.021 A 
ATOM     14  C   UNL     1      13.194 -39.302  -2.617  1.00  0.00     0.016 A 
ATOM     15  C   UNL     1      12.536 -39.954  -3.665  1.00  0.00     0.047 A 
ATOM     16  C   UNL     1      12.692 -39.505  -4.983  1.00  0.00     0.115 A 
ATOM     17  C   UNL     1      14.177 -37.756  -4.204  1.00  0.00     0.016 A 
ATOM     18  C   UNL     1      13.516 -38.407  -5.248  1.00  0.00     0.047 A 
BRANCH  16  19
ATOM     19  O   UNL     1      12.037 -40.143  -6.033  1.00  0.00    -0.508 OA
ATOM     20  H   UNL     1      11.442 -40.948  -5.875  1.00  0.00     0.293 HD
ENDBRANCH  16  19
ENDBRANCH   3  13
BRANCH  10  21
ATOM     21  O   UNL     1      16.754 -34.458   1.769  1.00  0.00    -0.507 OA
ATOM     22  H   UNL     1      15.845 -34.011   1.726  1.00  0.00     0.293 HD
ENDBRANCH  10  21
BRANCH  11  23
ATOM     23  O   UNL     1      19.169 -38.645   2.058  1.00  0.00    -0.508 OA
ATOM     24  H   UNL     1      20.130 -38.326   2.111  1.00  0.00     0.293 HD
ENDBRANCH  11  23
ENDBRANCH   1   2
BRANCH   1  25
ATOM     25  C   UNL     1      12.018 -35.370  -1.284  1.00  0.00     0.339 C 
ATOM     26  C   UNL     1      11.509 -33.918  -1.386  1.00  0.00     0.214 C 
ATOM     27  O   UNL     1      11.085 -36.287  -1.830  1.00  0.00    -0.332 OA
ATOM     28  C   UNL     1      11.125 -33.572  -2.839  1.00  0.00     0.180 C 
ATOM     29  C   UNL     1      10.873 -36.055  -3.215  1.00  0.00     0.179 C 
ATOM     30  C   UNL     1      10.233 -34.667  -3.451  1.00  0.00     0.177 C 
BRANCH  26  31
ATOM     31  O   UNL     1      10.435 -33.692  -0.503  1.00  0.00    -0.384 OA
ATOM     32  H   UNL     1       9.674 -34.259  -0.790  1.00  0.00     0.211 HD
ENDBRANCH  26  31
BRANCH  28  33
ATOM     33  O   UNL     1      10.456 -32.337  -2.888  1.00  0.00    -0.387 OA
ATOM     34  H   UNL     1      10.021 -32.214  -2.004  1.00  0.00     0.211 HD
ENDBRANCH  28  33
BRANCH  29  35
ATOM     35  C   UNL     1       9.987 -37.185  -3.766  1.00  0.00     0.191 C 
BRANCH  35  36
ATOM     36  O   UNL     1      10.064 -37.254  -5.166  1.00  0.00    -0.394 OA
ATOM     37  H   UNL     1       9.151 -37.463  -5.493  1.00  0.00     0.210 HD
ENDBRANCH  35  36
ENDBRANCH  29  35
BRANCH  30  38
ATOM     38  O   UNL     1      10.095 -34.444  -4.832  1.00  0.00    -0.387 OA
ATOM     39  H   UNL     1       9.447 -33.699  -4.941  1.00  0.00     0.211 HD
ENDBRANCH  30  38
ENDBRANCH   1  25
TORSDOF 11
ENDMDL
MODEL 8
REMARK VINA RESULT:    -6.619      2.188      4.885
REMARK INTER + INTRA:         -10.387
REMARK INTER:                  -9.005
REMARK INTRA:                  -1.382
REMARK UNBOUND:                -0.866
REMARK SMILES O=c1c(O[C@@H]2O[C@@H](CO)[C@H](O)[C@@H](O)[C@H]2O)c(-c2ccc(O)cc2)oc2cc(O)cc(O)c12
REMARK SMILES IDX 4 1 3 2 16 3 24 4 2 5 25 6 1 7 32 8 26 9 30 10 27 11 29 12
REMARK SMILES IDX 17 13 18 14 19 15 20 16 23 17 22 18 21 19 31 21 28 23 5 25
REMARK SMILES IDX 14 26 6 27 12 28 7 29 10 30 15 31 13 33 8 35 9 36 11 38
REMARK H PARENT 21 20 31 22 28 24 15 32 13 34 9 37 11 39
REMARK Flexibility Score: inf
ROOT
ATOM      1  O   UNL     1      14.397 -36.025  -1.181  1.00  0.00    -0.454 OA
ENDROOT
BRANCH   1   2
ATOM      2  C   UNL     1      13.837 -36.737  -2.248  1.00  0.00     0.214 A 
ATOM      3  C   UNL     1      14.622 -37.549  -3.094  1.00  0.00     0.180 A 
ATOM      4  O   UNL     1      14.062 -38.141  -4.144  1.00  0.00    -0.452 OA
ATOM      5  C   UNL     1      12.463 -36.636  -2.490  1.00  0.00     0.239 A 
ATOM      6  C   UNL     1      12.768 -38.046  -4.430  1.00  0.00     0.146 A 
ATOM      7  O   UNL     1      11.754 -35.938  -1.715  1.00  0.00    -0.285 OA
ATOM      8  C   UNL     1      11.901 -37.294  -3.602  1.00  0.00     0.111 A 
ATOM      9  C   UNL     1      12.268 -38.706  -5.556  1.00  0.00     0.094 A 
ATOM     10  C   UNL     1      10.525 -37.225  -3.926  1.00  0.00     0.134 A 
ATOM     11  C   UNL     1      10.911 -38.635  -5.874  1.00  0.00     0.123 A 
ATOM     12  C   UNL     1      10.043 -37.897  -5.060  1.00  0.00     0.093 A 
BRANCH   3  13
ATOM     13  C   UNL     1      16.062 -37.780  -2.847  1.00  0.00     0.021 A 
ATOM     14  C   UNL     1      16.461 -38.789  -1.957  1.00  0.00     0.016 A 
ATOM     15  C   UNL     1      17.820 -39.018  -1.713  1.00  0.00     0.047 A 
ATOM     16  C   UNL     1      18.791 -38.230  -2.345  1.00  0.00     0.115 A 
ATOM     17  C   UNL     1      17.041 -36.976  -3.457  1.00  0.00     0.016 A 
ATOM     18  C   UNL     1      18.397 -37.209  -3.214  1.00  0.00     0.047 A 
BRANCH  16  19
ATOM     19  O   UNL     1      20.146 -38.452  -2.114  1.00  0.00    -0.508 OA
ATOM     20  H   UNL     1      20.762 -38.781  -2.849  1.00  0.00     0.293 HD
ENDBRANCH  16  19
ENDBRANCH   3  13
BRANCH  10  21
ATOM     21  O   UNL     1       9.636 -36.496  -3.135  1.00  0.00    -0.507 OA
ATOM     22  H   UNL     1       8.644 -36.704  -3.117  1.00  0.00     0.293 HD
ENDBRANCH  10  21
BRANCH  11  23
ATOM     23  O   UNL     1      10.433 -39.301  -7.000  1.00  0.00    -0.508 OA
ATOM     24  H   UNL     1       9.459 -39.246  -7.275  1.00  0.00     0.293 HD
ENDBRANCH  11  23
ENDBRANCH   1   2
BRANCH   1  25
ATOM     25  C   UNL     1      14.547 -36.582   0.131  1.00  0.00     0.339 C 
ATOM     26  C   UNL     1      15.951 -36.272   0.687  1.00  0.00     0.214 C 
ATOM     27  O   UNL     1      13.528 -36.111   0.998  1.00  0.00    -0.332 OA
ATOM     28  C   UNL     1      16.095 -34.769   1.005  1.00  0.00     0.180 C 
ATOM     29  C   UNL     1      13.576 -34.699   1.144  1.00  0.00     0.179 C 
ATOM     30  C   UNL     1      14.895 -34.258   1.821  1.00  0.00     0.177 C 
BRANCH  26  31
ATOM     31  O   UNL     1      16.238 -37.065   1.815  1.00  0.00    -0.384 OA
ATOM     32  H   UNL     1      15.708 -36.720   2.579  1.00  0.00     0.211 HD
ENDBRANCH  26  31
BRANCH  28  33
ATOM     33  O   UNL     1      17.284 -34.532   1.716  1.00  0.00    -0.387 OA
ATOM     34  H   UNL     1      17.843 -33.940   1.147  1.00  0.00     0.211 HD
ENDBRANCH  28  33
BRANCH  29  35
ATOM     35  C   UNL     1      12.349 -34.253   1.956  1.00  0.00     0.191 C 
BRANCH  35  36
ATOM     36  O   UNL     1      12.032 -32.909   1.701  1.00  0.00    -0.394 OA
ATOM     37  H   UNL     1      11.586 -32.884   0.815  1.00  0.00     0.210 HD
ENDBRANCH  35  36
ENDBRANCH  29  35
BRANCH  30  38
ATOM     38  O   UNL     1      14.938 -32.855   1.893  1.00  0.00    -0.387 OA
ATOM     39  H   UNL     1      15.868 -32.607   2.136  1.00  0.00     0.211 HD
ENDBRANCH  30  38
ENDBRANCH   1  25
TORSDOF 11
ENDMDL
