MODEL 1
REMARK VINA RESULT:    37.444      0.000      0.000
REMARK INTER + INTRA:          44.797
REMARK INTER:                  45.105
REMARK INTRA:                  -0.308
REMARK UNBOUND:                -0.308
REMARK SMILES O=c1c(O)c(-c2ccc(O)c(O)c2)oc2cc(O)cc(O)c12
REMARK SMILES IDX 5 1 3 2 2 3 1 4 22 5 20 6 19 7 17 8 16 9 15 10 14 11 6 12
REMARK SMILES IDX 7 13 8 14 9 15 13 16 11 17 10 18 12 20 4 22 21 24 18 26
REMARK H PARENT 10 19 12 21 4 23 21 25 18 27
REMARK Flexibility Score: inf
ROOT
ATOM      1  C   UNL     1      57.105  57.104  -4.694  1.00  0.00     0.180 A 
ATOM      2  C   UNL     1      56.765  55.740  -4.717  1.00  0.00     0.208 A 
ATOM      3  C   UNL     1      57.737  54.791  -4.363  1.00  0.00     0.238 A 
ATOM      4  O   UNL     1      57.444  53.569  -4.438  1.00  0.00    -0.285 OA
ATOM      5  C   UNL     1      59.030  55.218  -3.976  1.00  0.00     0.111 A 
ATOM      6  C   UNL     1      60.081  54.345  -3.559  1.00  0.00     0.134 A 
ATOM      7  C   UNL     1      61.359  54.867  -3.323  1.00  0.00     0.093 A 
ATOM      8  C   UNL     1      61.608  56.238  -3.426  1.00  0.00     0.123 A 
ATOM      9  C   UNL     1      60.574  57.104  -3.774  1.00  0.00     0.094 A 
ATOM     10  C   UNL     1      59.298  56.610  -4.051  1.00  0.00     0.146 A 
ATOM     11  O   UNL     1      58.344  57.469  -4.390  1.00  0.00    -0.452 OA
ENDROOT
BRANCH   1  12
ATOM     12  C   UNL     1      56.126  58.164  -5.030  1.00  0.00     0.025 A 
ATOM     13  C   UNL     1      55.865  58.523  -6.362  1.00  0.00     0.016 A 
ATOM     14  C   UNL     1      54.921  59.508  -6.655  1.00  0.00     0.051 A 
ATOM     15  C   UNL     1      54.211  60.146  -5.631  1.00  0.00     0.157 A 
ATOM     16  C   UNL     1      55.400  58.785  -4.003  1.00  0.00     0.062 A 
ATOM     17  C   UNL     1      54.451  59.776  -4.286  1.00  0.00     0.158 A 
BRANCH  15  18
ATOM     18  O   UNL     1      53.284  61.125  -5.991  1.00  0.00    -0.504 OA
ATOM     19  H   UNL     1      52.757  61.675  -5.327  1.00  0.00     0.293 HD
ENDBRANCH  15  18
BRANCH  17  20
ATOM     20  O   UNL     1      53.775  60.358  -3.212  1.00  0.00    -0.504 OA
ATOM     21  H   UNL     1      54.234  60.772  -2.414  1.00  0.00     0.293 HD
ENDBRANCH  17  20
ENDBRANCH   1  12
BRANCH   2  22
ATOM     22  O   UNL     1      55.490  55.339  -5.124  1.00  0.00    -0.502 OA
ATOM     23  H   UNL     1      54.735  55.996  -5.277  1.00  0.00     0.293 HD
ENDBRANCH   2  22
BRANCH   6  24
ATOM     24  O   UNL     1      59.915  52.975  -3.336  1.00  0.00    -0.507 OA
ATOM     25  H   UNL     1      60.607  52.372  -2.919  1.00  0.00     0.293 HD
ENDBRANCH   6  24
BRANCH   8  26
ATOM     26  O   UNL     1      62.878  56.750  -3.175  1.00  0.00    -0.508 OA
ATOM     27  H   UNL     1      63.287  56.723  -2.248  1.00  0.00     0.293 HD
ENDBRANCH   8  26
TORSDOF 6
ENDMDL
MODEL 2
REMARK VINA RESULT:    38.083      1.676      7.147
REMARK INTER + INTRA:          45.566
REMARK INTER:                  45.090
REMARK INTRA:                   0.477
REMARK UNBOUND:                -0.308
REMARK SMILES O=c1c(O)c(-c2ccc(O)c(O)c2)oc2cc(O)cc(O)c12
REMARK SMILES IDX 5 1 3 2 2 3 1 4 22 5 20 6 19 7 17 8 16 9 15 10 14 11 6 12
REMARK SMILES IDX 7 13 8 14 9 15 13 16 11 17 10 18 12 20 4 22 21 24 18 26
REMARK H PARENT 10 19 12 21 4 23 21 25 18 27
REMARK Flexibility Score: inf
ROOT
ATOM      1  C   UNL     1      58.391  56.921  -4.007  1.00  0.00     0.180 A 
ATOM      2  C   UNL     1      58.216  58.315  -3.958  1.00  0.00     0.208 A 
ATOM      3  C   UNL     1      56.960  58.854  -4.279  1.00  0.00     0.238 A 
ATOM      4  O   UNL     1      56.824  60.106  -4.286  1.00  0.00    -0.285 OA
ATOM      5  C   UNL     1      55.892  57.994  -4.629  1.00  0.00     0.111 A 
ATOM      6  C   UNL     1      54.567  58.429  -4.934  1.00  0.00     0.134 A 
ATOM      7  C   UNL     1      53.624  57.501  -5.394  1.00  0.00     0.093 A 
ATOM      8  C   UNL     1      53.940  56.144  -5.498  1.00  0.00     0.123 A 
ATOM      9  C   UNL     1      55.213  55.701  -5.145  1.00  0.00     0.094 A 
ATOM     10  C   UNL     1      56.185  56.608  -4.718  1.00  0.00     0.146 A 
ATOM     11  O   UNL     1      57.389  56.145  -4.402  1.00  0.00    -0.452 OA
ENDROOT
BRANCH   1  12
ATOM     12  C   UNL     1      59.678  56.276  -3.657  1.00  0.00     0.025 A 
ATOM     13  C   UNL     1      59.763  54.896  -3.418  1.00  0.00     0.016 A 
ATOM     14  C   UNL     1      60.992  54.307  -3.115  1.00  0.00     0.051 A 
ATOM     15  C   UNL     1      62.159  55.077  -3.055  1.00  0.00     0.157 A 
ATOM     16  C   UNL     1      60.850  57.048  -3.621  1.00  0.00     0.062 A 
ATOM     17  C   UNL     1      62.087  56.467  -3.317  1.00  0.00     0.158 A 
BRANCH  15  18
ATOM     18  O   UNL     1      63.354  54.429  -2.742  1.00  0.00    -0.504 OA
ATOM     19  H   UNL     1      64.039  54.144  -3.429  1.00  0.00     0.293 HD
ENDBRANCH  15  18
BRANCH  17  20
ATOM     20  O   UNL     1      63.209  57.298  -3.286  1.00  0.00    -0.504 OA
ATOM     21  H   UNL     1      64.137  57.005  -3.555  1.00  0.00     0.293 HD
ENDBRANCH  17  20
ENDBRANCH   1  12
BRANCH   2  22
ATOM     22  O   UNL     1      59.289  59.148  -3.631  1.00  0.00    -0.502 OA
ATOM     23  H   UNL     1      60.075  58.832  -3.077  1.00  0.00     0.293 HD
ENDBRANCH   2  22
BRANCH   6  24
ATOM     24  O   UNL     1      54.122  59.745  -4.777  1.00  0.00    -0.507 OA
ATOM     25  H   UNL     1      53.201  60.007  -4.460  1.00  0.00     0.293 HD
ENDBRANCH   6  24
BRANCH   8  26
ATOM     26  O   UNL     1      52.991  55.226  -5.941  1.00  0.00    -0.508 OA
ATOM     27  H   UNL     1      52.972  54.273  -5.593  1.00  0.00     0.293 HD
ENDBRANCH   8  26
TORSDOF 6
ENDMDL
MODEL 3
REMARK VINA RESULT:    39.289      1.466      3.062
REMARK INTER + INTRA:          47.020
REMARK INTER:                  47.350
REMARK INTRA:                  -0.330
REMARK UNBOUND:                -0.308
REMARK SMILES O=c1c(O)c(-c2ccc(O)c(O)c2)oc2cc(O)cc(O)c12
REMARK SMILES IDX 5 1 3 2 2 3 1 4 22 5 20 6 19 7 17 8 16 9 15 10 14 11 6 12
REMARK SMILES IDX 7 13 8 14 9 15 13 16 11 17 10 18 12 20 4 22 21 24 18 26
REMARK H PARENT 10 19 12 21 4 23 21 25 18 27
REMARK Flexibility Score: inf
ROOT
ATOM      1  C   UNL     1      57.350  58.515  -4.140  1.00  0.00     0.180 A 
ATOM      2  C   UNL     1      58.561  59.214  -3.993  1.00  0.00     0.208 A 
ATOM      3  C   UNL     1      59.754  58.487  -3.858  1.00  0.00     0.238 A 
ATOM      4  O   UNL     1      60.828  59.117  -3.672  1.00  0.00    -0.285 OA
ATOM      5  C   UNL     1      59.724  57.072  -3.887  1.00  0.00     0.111 A 
ATOM      6  C   UNL     1      60.877  56.234  -3.798  1.00  0.00     0.134 A 
ATOM      7  C   UNL     1      60.717  54.846  -3.706  1.00  0.00     0.093 A 
ATOM      8  C   UNL     1      59.449  54.262  -3.765  1.00  0.00     0.123 A 
ATOM      9  C   UNL     1      58.322  55.067  -3.911  1.00  0.00     0.094 A 
ATOM     10  C   UNL     1      58.447  56.457  -3.969  1.00  0.00     0.146 A 
ATOM     11  O   UNL     1      57.347  57.188  -4.097  1.00  0.00    -0.452 OA
ENDROOT
BRANCH   1  12
ATOM     12  C   UNL     1      56.055  59.212  -4.313  1.00  0.00     0.025 A 
ATOM     13  C   UNL     1      55.556  59.522  -5.588  1.00  0.00     0.016 A 
ATOM     14  C   UNL     1      54.321  60.158  -5.727  1.00  0.00     0.051 A 
ATOM     15  C   UNL     1      53.555  60.486  -4.603  1.00  0.00     0.157 A 
ATOM     16  C   UNL     1      55.279  59.519  -3.185  1.00  0.00     0.062 A 
ATOM     17  C   UNL     1      54.039  60.158  -3.314  1.00  0.00     0.158 A 
BRANCH  15  18
ATOM     18  O   UNL     1      52.332  61.124  -4.810  1.00  0.00    -0.504 OA
ATOM     19  H   UNL     1      52.220  61.968  -5.356  1.00  0.00     0.293 HD
ENDBRANCH  15  18
BRANCH  17  20
ATOM     20  O   UNL     1      53.328  60.444  -2.146  1.00  0.00    -0.504 OA
ATOM     21  H   UNL     1      52.321  60.491  -2.095  1.00  0.00     0.293 HD
ENDBRANCH  17  20
ENDBRANCH   1  12
BRANCH   2  22
ATOM     22  O   UNL     1      58.566  60.611  -3.945  1.00  0.00    -0.502 OA
ATOM     23  H   UNL     1      59.212  61.133  -3.366  1.00  0.00     0.293 HD
ENDBRANCH   2  22
BRANCH   6  24
ATOM     24  O   UNL     1      62.191  56.710  -3.826  1.00  0.00    -0.507 OA
ATOM     25  H   UNL     1      62.449  57.678  -3.941  1.00  0.00     0.293 HD
ENDBRANCH   6  24
BRANCH   8  26
ATOM     26  O   UNL     1      59.300  52.879  -3.688  1.00  0.00    -0.508 OA
ATOM     27  H   UNL     1      58.789  52.442  -2.929  1.00  0.00     0.293 HD
ENDBRANCH   8  26
TORSDOF 6
ENDMDL
