MODEL 1
REMARK VINA RESULT:    -3.833      0.000      0.000
REMARK INTER + INTRA:          -7.712
REMARK INTER:                  -6.073
REMARK INTRA:                  -1.638
REMARK UNBOUND:                -1.638
REMARK SMILES CCCCCCCCCCCC(=O)[O-]
REMARK SMILES IDX 7 1 8 2 9 3 10 4 11 5 12 6 13 7 14 8 6 9 5 10 4 11 3 12 2 13
REMARK SMILES IDX 1 14
REMARK H PARENT
REMARK Flexibility Score: inf
ROOT
ATOM      1  C   UNL     1      -7.607 -13.497  16.236  1.00  0.00     0.000 C 
ENDROOT
BRANCH   1   2
ATOM      2  C   UNL     1      -7.583 -11.957  16.289  1.00  0.00     0.000 C 
BRANCH   2   3
ATOM      3  C   UNL     1      -8.672 -11.253  15.454  1.00  0.00     0.000 C 
BRANCH   3   4
ATOM      4  C   UNL     1      -9.735 -10.503  16.275  1.00  0.00     0.006 C 
BRANCH   4   5
ATOM      5  C   UNL     1      -9.702 -10.867  17.765  1.00  0.00     0.053 C 
BRANCH   5   6
ATOM      6  C   UNL     1      -9.280  -9.688  18.582  1.00  0.00     0.041 C 
ATOM      7  O   UNL     1      -8.601  -9.853  19.628  1.00  0.00    -0.550 OA
ATOM      8  O   UNL     1      -9.682  -8.409  18.215  1.00  0.00    -0.550 OA
ENDBRANCH   5   6
ENDBRANCH   4   5
ENDBRANCH   3   4
ENDBRANCH   2   3
ENDBRANCH   1   2
BRANCH   1   9
ATOM      9  C   UNL     1      -7.866 -14.196  17.584  1.00  0.00     0.000 C 
BRANCH   9  10
ATOM     10  C   UNL     1      -9.348 -14.539  17.805  1.00  0.00    -0.000 C 
BRANCH  10  11
ATOM     11  C   UNL     1     -10.142 -14.621  16.491  1.00  0.00    -0.000 C 
BRANCH  11  12
ATOM     12  C   UNL     1     -11.526 -13.941  16.558  1.00  0.00    -0.000 C 
BRANCH  12  13
ATOM     13  C   UNL     1     -11.962 -13.376  15.198  1.00  0.00    -0.003 C 
ATOM     14  C   UNL     1     -10.998 -13.796  14.092  1.00  0.00     0.004 C 
ENDBRANCH  12  13
ENDBRANCH  11  12
ENDBRANCH  10  11
ENDBRANCH   9  10
ENDBRANCH   1   9
TORSDOF 10
ENDMDL
MODEL 2
REMARK VINA RESULT:    -3.798      1.348      2.469
REMARK INTER + INTRA:          -7.656
REMARK INTER:                  -6.442
REMARK INTRA:                  -1.214
REMARK UNBOUND:                -1.638
REMARK SMILES CCCCCCCCCCCC(=O)[O-]
REMARK SMILES IDX 7 1 8 2 9 3 10 4 11 5 12 6 13 7 14 8 6 9 5 10 4 11 3 12 2 13
REMARK SMILES IDX 1 14
REMARK H PARENT
REMARK Flexibility Score: inf
ROOT
ATOM      1  C   UNL     1      -8.648 -13.724  14.564  1.00  0.00     0.000 C 
ENDROOT
BRANCH   1   2
ATOM      2  C   UNL     1      -7.954 -12.741  15.529  1.00  0.00     0.000 C 
BRANCH   2   3
ATOM      3  C   UNL     1      -8.500 -11.299  15.503  1.00  0.00     0.000 C 
BRANCH   3   4
ATOM      4  C   UNL     1      -8.713 -10.661  16.887  1.00  0.00     0.006 C 
BRANCH   4   5
ATOM      5  C   UNL     1      -9.049  -9.167  16.808  1.00  0.00     0.053 C 
BRANCH   5   6
ATOM      6  C   UNL     1      -9.464  -8.652  18.149  1.00  0.00     0.041 C 
ATOM      7  O   UNL     1     -10.178  -9.360  18.906  1.00  0.00    -0.550 OA
ATOM      8  O   UNL     1      -9.104  -7.369  18.542  1.00  0.00    -0.550 OA
ENDBRANCH   5   6
ENDBRANCH   4   5
ENDBRANCH   3   4
ENDBRANCH   2   3
ENDBRANCH   1   2
BRANCH   1   9
ATOM      9  C   UNL     1      -9.782 -13.120  13.716  1.00  0.00     0.000 C 
BRANCH   9  10
ATOM     10  C   UNL     1     -11.086 -13.930  13.796  1.00  0.00    -0.000 C 
BRANCH  10  11
ATOM     11  C   UNL     1     -12.026 -13.436  14.907  1.00  0.00    -0.000 C 
BRANCH  11  12
ATOM     12  C   UNL     1     -12.018 -14.325  16.169  1.00  0.00    -0.000 C 
BRANCH  12  13
ATOM     13  C   UNL     1     -11.135 -13.743  17.283  1.00  0.00    -0.003 C 
ATOM     14  C   UNL     1     -11.666 -12.395  17.760  1.00  0.00     0.004 C 
ENDBRANCH  12  13
ENDBRANCH  11  12
ENDBRANCH  10  11
ENDBRANCH   9  10
ENDBRANCH   1   9
TORSDOF 10
ENDMDL
MODEL 3
REMARK VINA RESULT:    -3.676      1.551      2.190
REMARK INTER + INTRA:          -7.463
REMARK INTER:                  -5.963
REMARK INTRA:                  -1.500
REMARK UNBOUND:                -1.638
REMARK SMILES CCCCCCCCCCCC(=O)[O-]
REMARK SMILES IDX 7 1 8 2 9 3 10 4 11 5 12 6 13 7 14 8 6 9 5 10 4 11 3 12 2 13
REMARK SMILES IDX 1 14
REMARK H PARENT
REMARK Flexibility Score: inf
ROOT
ATOM      1  C   UNL     1      -7.930 -13.847  17.503  1.00  0.00     0.000 C 
ENDROOT
BRANCH   1   2
ATOM      2  C   UNL     1      -7.413 -13.754  16.053  1.00  0.00     0.000 C 
BRANCH   2   3
ATOM      3  C   UNL     1      -7.256 -12.323  15.502  1.00  0.00     0.000 C 
BRANCH   3   4
ATOM      4  C   UNL     1      -7.939 -11.226  16.339  1.00  0.00     0.006 C 
BRANCH   4   5
ATOM      5  C   UNL     1      -8.799 -10.280  15.491  1.00  0.00     0.053 C 
BRANCH   5   6
ATOM      6  C   UNL     1      -8.471  -8.855  15.804  1.00  0.00     0.041 C 
ATOM      7  O   UNL     1      -7.774  -8.175  15.006  1.00  0.00    -0.550 OA
ATOM      8  O   UNL     1      -8.891  -8.292  17.003  1.00  0.00    -0.550 OA
ENDBRANCH   5   6
ENDBRANCH   4   5
ENDBRANCH   3   4
ENDBRANCH   2   3
ENDBRANCH   1   2
BRANCH   1   9
ATOM      9  C   UNL     1      -9.297 -14.535  17.669  1.00  0.00     0.000 C 
BRANCH   9  10
ATOM     10  C   UNL     1     -10.474 -13.547  17.627  1.00  0.00    -0.000 C 
BRANCH  10  11
ATOM     11  C   UNL     1     -11.609 -14.013  16.700  1.00  0.00    -0.000 C 
BRANCH  11  12
ATOM     12  C   UNL     1     -11.134 -14.408  15.286  1.00  0.00    -0.000 C 
BRANCH  12  13
ATOM     13  C   UNL     1     -10.887 -13.182  14.394  1.00  0.00    -0.003 C 
ATOM     14  C   UNL     1      -9.963 -13.523  13.229  1.00  0.00     0.004 C 
ENDBRANCH  12  13
ENDBRANCH  11  12
ENDBRANCH  10  11
ENDBRANCH   9  10
ENDBRANCH   1   9
TORSDOF 10
ENDMDL
MODEL 4
REMARK VINA RESULT:    -3.616      2.502      4.684
REMARK INTER + INTRA:          -7.368
REMARK INTER:                  -5.754
REMARK INTRA:                  -1.614
REMARK UNBOUND:                -1.638
REMARK SMILES CCCCCCCCCCCC(=O)[O-]
REMARK SMILES IDX 7 1 8 2 9 3 10 4 11 5 12 6 13 7 14 8 6 9 5 10 4 11 3 12 2 13
REMARK SMILES IDX 1 14
REMARK H PARENT
REMARK Flexibility Score: inf
ROOT
ATOM      1  C   UNL     1      -6.666 -12.107  16.487  1.00  0.00     0.000 C 
ENDROOT
BRANCH   1   2
ATOM      2  C   UNL     1      -7.285 -13.518  16.517  1.00  0.00     0.000 C 
BRANCH   2   3
ATOM      3  C   UNL     1      -7.926 -13.927  17.859  1.00  0.00     0.000 C 
BRANCH   3   4
ATOM      4  C   UNL     1      -9.339 -14.527  17.747  1.00  0.00     0.006 C 
BRANCH   4   5
ATOM      5  C   UNL     1      -9.752 -14.811  16.297  1.00  0.00     0.053 C 
BRANCH   5   6
ATOM      6  C   UNL     1     -11.136 -14.310  16.039  1.00  0.00     0.041 C 
ATOM      7  O   UNL     1     -11.551 -14.171  14.859  1.00  0.00    -0.550 OA
ATOM      8  O   UNL     1     -11.953 -13.946  17.103  1.00  0.00    -0.550 OA
ENDBRANCH   5   6
ENDBRANCH   4   5
ENDBRANCH   3   4
ENDBRANCH   2   3
ENDBRANCH   1   2
BRANCH   1   9
ATOM      9  C   UNL     1      -7.357 -11.107  15.542  1.00  0.00     0.000 C 
BRANCH   9  10
ATOM     10  C   UNL     1      -8.850 -11.412  15.335  1.00  0.00    -0.000 C 
BRANCH  10  11
ATOM     11  C   UNL     1      -9.767 -10.434  16.086  1.00  0.00    -0.000 C 
BRANCH  11  12
ATOM     12  C   UNL     1     -10.170 -10.918  17.495  1.00  0.00    -0.000 C 
BRANCH  12  13
ATOM     13  C   UNL     1      -9.821  -9.890  18.583  1.00  0.00    -0.003 C 
ATOM     14  C   UNL     1      -8.419 -10.125  19.134  1.00  0.00     0.004 C 
ENDBRANCH  12  13
ENDBRANCH  11  12
ENDBRANCH  10  11
ENDBRANCH   9  10
ENDBRANCH   1   9
TORSDOF 10
ENDMDL
MODEL 5
REMARK VINA RESULT:    -3.592      3.528      5.842
REMARK INTER + INTRA:          -7.330
REMARK INTER:                  -6.585
REMARK INTRA:                  -0.745
REMARK UNBOUND:                -1.638
REMARK SMILES CCCCCCCCCCCC(=O)[O-]
REMARK SMILES IDX 7 1 8 2 9 3 10 4 11 5 12 6 13 7 14 8 6 9 5 10 4 11 3 12 2 13
REMARK SMILES IDX 1 14
REMARK H PARENT
REMARK Flexibility Score: inf
ROOT
ATOM      1  C   UNL     1     -10.134 -11.196  16.929  1.00  0.00     0.000 C 
ENDROOT
BRANCH   1   2
ATOM      2  C   UNL     1      -9.249 -12.166  17.736  1.00  0.00     0.000 C 
BRANCH   2   3
ATOM      3  C   UNL     1      -9.679 -13.646  17.683  1.00  0.00     0.000 C 
BRANCH   3   4
ATOM      4  C   UNL     1     -11.041 -13.902  17.014  1.00  0.00     0.006 C 
BRANCH   4   5
ATOM      5  C   UNL     1     -10.916 -14.645  15.677  1.00  0.00     0.053 C 
BRANCH   5   6
ATOM      6  C   UNL     1     -11.545 -13.851  14.578  1.00  0.00     0.041 C 
ATOM      7  O   UNL     1     -12.555 -13.137  14.810  1.00  0.00    -0.550 OA
ATOM      8  O   UNL     1     -11.047 -13.939  13.284  1.00  0.00    -0.550 OA
ENDBRANCH   5   6
ENDBRANCH   4   5
ENDBRANCH   3   4
ENDBRANCH   2   3
ENDBRANCH   1   2
BRANCH   1   9
ATOM      9  C   UNL     1      -9.576 -10.787  15.553  1.00  0.00     0.000 C 
BRANCH   9  10
ATOM     10  C   UNL     1      -8.335  -9.885  15.654  1.00  0.00    -0.000 C 
BRANCH  10  11
ATOM     11  C   UNL     1      -8.631  -8.542  16.341  1.00  0.00    -0.000 C 
BRANCH  11  12
ATOM     12  C   UNL     1      -7.717  -7.390  15.871  1.00  0.00    -0.000 C 
BRANCH  12  13
ATOM     13  C   UNL     1      -7.414  -7.467  14.367  1.00  0.00    -0.003 C 
ATOM     14  C   UNL     1      -7.597  -6.109  13.697  1.00  0.00     0.004 C 
ENDBRANCH  12  13
ENDBRANCH  11  12
ENDBRANCH  10  11
ENDBRANCH   9  10
ENDBRANCH   1   9
TORSDOF 10
ENDMDL
MODEL 6
REMARK VINA RESULT:    -3.568      2.914      4.877
REMARK INTER + INTRA:          -7.293
REMARK INTER:                  -5.673
REMARK INTRA:                  -1.620
REMARK UNBOUND:                -1.638
REMARK SMILES CCCCCCCCCCCC(=O)[O-]
REMARK SMILES IDX 7 1 8 2 9 3 10 4 11 5 12 6 13 7 14 8 6 9 5 10 4 11 3 12 2 13
REMARK SMILES IDX 1 14
REMARK H PARENT
REMARK Flexibility Score: inf
ROOT
ATOM      1  C   UNL     1      -7.738 -12.269  18.261  1.00  0.00     0.000 C 
ENDROOT
BRANCH   1   2
ATOM      2  C   UNL     1      -8.908 -13.272  18.240  1.00  0.00     0.000 C 
BRANCH   2   3
ATOM      3  C   UNL     1     -10.266 -12.689  17.799  1.00  0.00     0.000 C 
BRANCH   3   4
ATOM      4  C   UNL     1     -10.993 -13.492  16.706  1.00  0.00     0.006 C 
BRANCH   4   5
ATOM      5  C   UNL     1     -11.072 -12.742  15.370  1.00  0.00     0.053 C 
BRANCH   5   6
ATOM      6  C   UNL     1     -10.298 -13.467  14.317  1.00  0.00     0.041 C 
ATOM      7  O   UNL     1      -9.059 -13.646  14.451  1.00  0.00    -0.550 OA
ATOM      8  O   UNL     1     -10.936 -13.902  13.161  1.00  0.00    -0.550 OA
ENDBRANCH   5   6
ENDBRANCH   4   5
ENDBRANCH   3   4
ENDBRANCH   2   3
ENDBRANCH   1   2
BRANCH   1   9
ATOM      9  C   UNL     1      -7.020 -12.069  16.913  1.00  0.00     0.000 C 
BRANCH   9  10
ATOM     10  C   UNL     1      -7.034 -10.606  16.439  1.00  0.00    -0.000 C 
BRANCH  10  11
ATOM     11  C   UNL     1      -8.201 -10.302  15.485  1.00  0.00    -0.000 C 
BRANCH  11  12
ATOM     12  C   UNL     1      -9.366  -9.539  16.153  1.00  0.00    -0.000 C 
BRANCH  12  13
ATOM     13  C   UNL     1      -8.907  -8.742  17.383  1.00  0.00    -0.003 C 
ATOM     14  C   UNL     1      -9.773  -9.055  18.598  1.00  0.00     0.004 C 
ENDBRANCH  12  13
ENDBRANCH  11  12
ENDBRANCH  10  11
ENDBRANCH   9  10
ENDBRANCH   1   9
TORSDOF 10
ENDMDL
MODEL 7
REMARK VINA RESULT:    -3.546      2.665      4.432
REMARK INTER + INTRA:          -7.258
REMARK INTER:                  -5.852
REMARK INTRA:                  -1.406
REMARK UNBOUND:                -1.638
REMARK SMILES CCCCCCCCCCCC(=O)[O-]
REMARK SMILES IDX 7 1 8 2 9 3 10 4 11 5 12 6 13 7 14 8 6 9 5 10 4 11 3 12 2 13
REMARK SMILES IDX 1 14
REMARK H PARENT
REMARK Flexibility Score: inf
ROOT
ATOM      1  C   UNL     1      -8.050 -13.976  17.221  1.00  0.00     0.000 C 
ENDROOT
BRANCH   1   2
ATOM      2  C   UNL     1      -7.766 -13.166  15.940  1.00  0.00     0.000 C 
BRANCH   2   3
ATOM      3  C   UNL     1      -8.393 -13.733  14.651  1.00  0.00     0.000 C 
BRANCH   3   4
ATOM      4  C   UNL     1      -9.629 -12.971  14.141  1.00  0.00     0.006 C 
BRANCH   4   5
ATOM      5  C   UNL     1     -10.861 -13.872  13.985  1.00  0.00     0.053 C 
BRANCH   5   6
ATOM      6  C   UNL     1     -11.610 -13.962  15.276  1.00  0.00     0.041 C 
ATOM      7  O   UNL     1     -12.275 -12.978  15.692  1.00  0.00    -0.550 OA
ATOM      8  O   UNL     1     -11.532 -15.116  16.045  1.00  0.00    -0.550 OA
ENDBRANCH   5   6
ENDBRANCH   4   5
ENDBRANCH   3   4
ENDBRANCH   2   3
ENDBRANCH   1   2
BRANCH   1   9
ATOM      9  C   UNL     1      -8.850 -13.231  18.305  1.00  0.00     0.000 C 
BRANCH   9  10
ATOM     10  C   UNL     1      -9.598 -12.004  17.760  1.00  0.00    -0.000 C 
BRANCH  10  11
ATOM     11  C   UNL     1      -9.112 -10.685  18.383  1.00  0.00    -0.000 C 
BRANCH  11  12
ATOM     12  C   UNL     1      -9.350  -9.450  17.488  1.00  0.00    -0.000 C 
BRANCH  12  13
ATOM     13  C   UNL     1      -9.386  -9.814  15.995  1.00  0.00    -0.003 C 
ATOM     14  C   UNL     1      -8.053  -9.507  15.321  1.00  0.00     0.004 C 
ENDBRANCH  12  13
ENDBRANCH  11  12
ENDBRANCH  10  11
ENDBRANCH   9  10
ENDBRANCH   1   9
TORSDOF 10
ENDMDL
MODEL 8
REMARK VINA RESULT:    -3.529      2.019      3.389
REMARK INTER + INTRA:          -7.231
REMARK INTER:                  -5.759
REMARK INTRA:                  -1.472
REMARK UNBOUND:                -1.638
REMARK SMILES CCCCCCCCCCCC(=O)[O-]
REMARK SMILES IDX 7 1 8 2 9 3 10 4 11 5 12 6 13 7 14 8 6 9 5 10 4 11 3 12 2 13
REMARK SMILES IDX 1 14
REMARK H PARENT
REMARK Flexibility Score: inf
ROOT
ATOM      1  C   UNL     1      -9.753 -10.522  16.248  1.00  0.00     0.000 C 
ENDROOT
BRANCH   1   2
ATOM      2  C   UNL     1      -8.290 -10.153  15.931  1.00  0.00     0.000 C 
BRANCH   2   3
ATOM      3  C   UNL     1      -7.375 -11.341  15.572  1.00  0.00     0.000 C 
BRANCH   3   4
ATOM      4  C   UNL     1      -8.091 -12.698  15.453  1.00  0.00     0.006 C 
BRANCH   4   5
ATOM      5  C   UNL     1      -7.255 -13.861  16.002  1.00  0.00     0.053 C 
BRANCH   5   6
ATOM      6  C   UNL     1      -6.990 -13.672  17.462  1.00  0.00     0.041 C 
ATOM      7  O   UNL     1      -5.818 -13.763  17.910  1.00  0.00    -0.550 OA
ATOM      8  O   UNL     1      -8.046 -13.445  18.336  1.00  0.00    -0.550 OA
ENDBRANCH   5   6
ENDBRANCH   4   5
ENDBRANCH   3   4
ENDBRANCH   2   3
ENDBRANCH   1   2
BRANCH   1   9
ATOM      9  C   UNL     1     -10.109 -10.569  17.745  1.00  0.00     0.000 C 
BRANCH   9  10
ATOM     10  C   UNL     1     -11.099 -11.694  18.090  1.00  0.00    -0.000 C 
BRANCH  10  11
ATOM     11  C   UNL     1     -11.538 -12.498  16.856  1.00  0.00    -0.000 C 
BRANCH  11  12
ATOM     12  C   UNL     1     -11.234 -14.008  16.959  1.00  0.00    -0.000 C 
BRANCH  12  13
ATOM     13  C   UNL     1     -11.312 -14.709  15.594  1.00  0.00    -0.003 C 
ATOM     14  C   UNL     1     -11.550 -13.705  14.471  1.00  0.00     0.004 C 
ENDBRANCH  12  13
ENDBRANCH  11  12
ENDBRANCH  10  11
ENDBRANCH   9  10
ENDBRANCH   1   9
TORSDOF 10
ENDMDL
MODEL 9
REMARK VINA RESULT:    -3.516      1.929      3.033
REMARK INTER + INTRA:          -7.209
REMARK INTER:                  -6.026
REMARK INTRA:                  -1.183
REMARK UNBOUND:                -1.638
REMARK SMILES CCCCCCCCCCCC(=O)[O-]
REMARK SMILES IDX 7 1 8 2 9 3 10 4 11 5 12 6 13 7 14 8 6 9 5 10 4 11 3 12 2 13
REMARK SMILES IDX 1 14
REMARK H PARENT
REMARK Flexibility Score: inf
ROOT
ATOM      1  C   UNL     1     -11.167 -12.241  17.694  1.00  0.00     0.000 C 
ENDROOT
BRANCH   1   2
ATOM      2  C   UNL     1      -9.946 -11.301  17.661  1.00  0.00     0.000 C 
BRANCH   2   3
ATOM      3  C   UNL     1      -9.689 -10.604  16.309  1.00  0.00     0.000 C 
BRANCH   3   4
ATOM      4  C   UNL     1      -8.216 -10.258  16.026  1.00  0.00     0.006 C 
BRANCH   4   5
ATOM      5  C   UNL     1      -8.056  -8.984  15.187  1.00  0.00     0.053 C 
BRANCH   5   6
ATOM      6  C   UNL     1      -7.598  -7.848  16.044  1.00  0.00     0.041 C 
ATOM      7  O   UNL     1      -6.509  -7.267  15.798  1.00  0.00    -0.550 OA
ATOM      8  O   UNL     1      -8.350  -7.463  17.148  1.00  0.00    -0.550 OA
ENDBRANCH   5   6
ENDBRANCH   4   5
ENDBRANCH   3   4
ENDBRANCH   2   3
ENDBRANCH   1   2
BRANCH   1   9
ATOM      9  C   UNL     1     -10.882 -13.702  17.298  1.00  0.00     0.000 C 
BRANCH   9  10
ATOM     10  C   UNL     1     -11.933 -14.275  16.333  1.00  0.00    -0.000 C 
BRANCH  10  11
ATOM     11  C   UNL     1     -12.039 -13.474  15.025  1.00  0.00    -0.000 C 
BRANCH  11  12
ATOM     12  C   UNL     1     -11.127 -14.003  13.897  1.00  0.00    -0.000 C 
BRANCH  12  13
ATOM     13  C   UNL     1      -9.889 -13.117  13.689  1.00  0.00    -0.003 C 
ATOM     14  C   UNL     1      -8.664 -13.711  14.376  1.00  0.00     0.004 C 
ENDBRANCH  12  13
ENDBRANCH  11  12
ENDBRANCH  10  11
ENDBRANCH   9  10
ENDBRANCH   1   9
TORSDOF 10
ENDMDL
