MODEL 1
REMARK VINA RESULT:    -5.987      0.000      0.000
REMARK INTER + INTRA:          -7.905
REMARK INTER:                  -7.387
REMARK INTRA:                  -0.518
REMARK UNBOUND:                -0.518
REMARK SMILES CC(C)=CCC[C@@H](C)c1ccc(C)cc1
REMARK SMILES IDX 6 1 7 2 8 3 9 4 13 5 12 6 11 7 14 8 10 9 15 10 5 11 4 12
REMARK SMILES IDX 2 13 1 14 3 15
REMARK H PARENT
REMARK Flexibility Score: inf
ROOT
ATOM      1  C   UNL     1      -0.521 -26.174  -0.263  1.00  0.00     0.012 C 
ENDROOT
BRANCH   1   2
ATOM      2  C   UNL     1       0.711 -26.023   0.662  1.00  0.00     0.016 C 
ATOM      3  C   UNL     1       1.164 -27.357   1.277  1.00  0.00     0.013 C 
BRANCH   2   4
ATOM      4  C   UNL     1       1.859 -25.374  -0.091  1.00  0.00    -0.045 A 
ATOM      5  C   UNL     1       5.130 -23.556  -2.248  1.00  0.00     0.044 C 
ATOM      6  C   UNL     1       4.008 -24.180  -1.472  1.00  0.00    -0.051 A 
ATOM      7  C   UNL     1       2.891 -23.416  -1.107  1.00  0.00     0.004 A 
ATOM      8  C   UNL     1       4.036 -25.548  -1.166  1.00  0.00     0.004 A 
ATOM      9  C   UNL     1       1.828 -24.005  -0.416  1.00  0.00     0.004 A 
ATOM     10  C   UNL     1       2.974 -26.139  -0.476  1.00  0.00     0.004 A 
ENDBRANCH   2   4
ENDBRANCH   1   2
BRANCH   1  11
ATOM     11  C   UNL     1      -1.186 -27.562  -0.190  1.00  0.00     0.028 C 
BRANCH  11  12
ATOM     12  C   UNL     1      -1.604 -28.079  -1.547  1.00  0.00    -0.028 C 
ATOM     13  C   UNL     1      -2.738 -28.782  -1.751  1.00  0.00    -0.080 C 
ATOM     14  C   UNL     1      -3.681 -29.110  -0.617  1.00  0.00     0.039 C 
ATOM     15  C   UNL     1      -3.060 -29.247  -3.148  1.00  0.00     0.039 C 
ENDBRANCH  11  12
ENDBRANCH   1  11
TORSDOF 4
ENDMDL
MODEL 2
REMARK VINA RESULT:    -5.566      5.590      9.341
REMARK INTER + INTRA:          -7.385
REMARK INTER:                  -6.195
REMARK INTRA:                  -1.190
REMARK UNBOUND:                -0.518
REMARK SMILES CC(C)=CCC[C@@H](C)c1ccc(C)cc1
REMARK SMILES IDX 6 1 7 2 8 3 9 4 13 5 12 6 11 7 14 8 10 9 15 10 5 11 4 12
REMARK SMILES IDX 2 13 1 14 3 15
REMARK H PARENT
REMARK Flexibility Score: inf
ROOT
ATOM      1  C   UNL     1      -7.268 -30.370  -6.455  1.00  0.00     0.012 C 
ENDROOT
BRANCH   1   2
ATOM      2  C   UNL     1      -6.621 -31.386  -5.482  1.00  0.00     0.016 C 
ATOM      3  C   UNL     1      -6.015 -32.600  -6.203  1.00  0.00     0.013 C 
BRANCH   2   4
ATOM      4  C   UNL     1      -5.570 -30.701  -4.628  1.00  0.00    -0.045 A 
ATOM      5  C   UNL     1      -2.568 -28.736  -2.223  1.00  0.00     0.044 C 
ATOM      6  C   UNL     1      -3.597 -29.445  -3.052  1.00  0.00    -0.051 A 
ATOM      7  C   UNL     1      -4.799 -29.873  -2.471  1.00  0.00     0.004 A 
ATOM      8  C   UNL     1      -3.395 -29.626  -4.428  1.00  0.00     0.004 A 
ATOM      9  C   UNL     1      -5.774 -30.502  -3.250  1.00  0.00     0.004 A 
ATOM     10  C   UNL     1      -4.370 -30.254  -5.208  1.00  0.00     0.004 A 
ENDBRANCH   2   4
ENDBRANCH   1   2
BRANCH   1  11
ATOM     11  C   UNL     1      -8.707 -29.973  -6.072  1.00  0.00     0.028 C 
BRANCH  11  12
ATOM     12  C   UNL     1      -8.752 -28.858  -5.053  1.00  0.00    -0.028 C 
ATOM     13  C   UNL     1      -9.120 -29.047  -3.769  1.00  0.00    -0.080 C 
ATOM     14  C   UNL     1      -9.524 -30.408  -3.254  1.00  0.00     0.039 C 
ATOM     15  C   UNL     1      -9.127 -27.863  -2.836  1.00  0.00     0.039 C 
ENDBRANCH  11  12
ENDBRANCH   1  11
TORSDOF 4
ENDMDL
MODEL 3
REMARK VINA RESULT:    -5.495      1.164      7.172
REMARK INTER + INTRA:          -7.298
REMARK INTER:                  -6.822
REMARK INTRA:                  -0.476
REMARK UNBOUND:                -0.518
REMARK SMILES CC(C)=CCC[C@@H](C)c1ccc(C)cc1
REMARK SMILES IDX 6 1 7 2 8 3 9 4 13 5 12 6 11 7 14 8 10 9 15 10 5 11 4 12
REMARK SMILES IDX 2 13 1 14 3 15
REMARK H PARENT
REMARK Flexibility Score: inf
ROOT
ATOM      1  C   UNL     1      -0.612 -27.134  -0.526  1.00  0.00     0.012 C 
ENDROOT
BRANCH   1   2
ATOM      2  C   UNL     1      -1.733 -27.920   0.197  1.00  0.00     0.016 C 
ATOM      3  C   UNL     1      -2.547 -27.046   1.164  1.00  0.00     0.013 C 
BRANCH   2   4
ATOM      4  C   UNL     1      -2.651 -28.581  -0.816  1.00  0.00    -0.045 A 
ATOM      5  C   UNL     1      -5.286 -30.455  -3.679  1.00  0.00     0.044 C 
ATOM      6  C   UNL     1      -4.356 -29.831  -2.682  1.00  0.00    -0.051 A 
ATOM      7  C   UNL     1      -3.168 -29.223  -3.108  1.00  0.00     0.004 A 
ATOM      8  C   UNL     1      -4.701 -29.791  -1.323  1.00  0.00     0.004 A 
ATOM      9  C   UNL     1      -2.318 -28.609  -2.184  1.00  0.00     0.004 A 
ATOM     10  C   UNL     1      -3.852 -29.178  -0.397  1.00  0.00     0.004 A 
ENDBRANCH   2   4
ENDBRANCH   1   2
BRANCH   1  11
ATOM     11  C   UNL     1       0.160 -26.167   0.392  1.00  0.00     0.028 C 
BRANCH  11  12
ATOM     12  C   UNL     1       1.600 -25.988  -0.030  1.00  0.00    -0.028 C 
ATOM     13  C   UNL     1       2.121 -24.795  -0.386  1.00  0.00    -0.080 C 
ATOM     14  C   UNL     1       1.286 -23.537  -0.390  1.00  0.00     0.039 C 
ATOM     15  C   UNL     1       3.572 -24.731  -0.789  1.00  0.00     0.039 C 
ENDBRANCH  11  12
ENDBRANCH   1  11
TORSDOF 4
ENDMDL
MODEL 4
REMARK VINA RESULT:    -5.493      4.032      6.918
REMARK INTER + INTRA:          -7.295
REMARK INTER:                  -6.332
REMARK INTRA:                  -0.963
REMARK UNBOUND:                -0.518
REMARK SMILES CC(C)=CCC[C@@H](C)c1ccc(C)cc1
REMARK SMILES IDX 6 1 7 2 8 3 9 4 13 5 12 6 11 7 14 8 10 9 15 10 5 11 4 12
REMARK SMILES IDX 2 13 1 14 3 15
REMARK H PARENT
REMARK Flexibility Score: inf
ROOT
ATOM      1  C   UNL     1      -3.888 -31.363  -3.710  1.00  0.00     0.012 C 
ENDROOT
BRANCH   1   2
ATOM      2  C   UNL     1      -4.507 -30.012  -3.275  1.00  0.00     0.016 C 
ATOM      3  C   UNL     1      -5.943 -30.156  -2.747  1.00  0.00     0.013 C 
BRANCH   2   4
ATOM      4  C   UNL     1      -3.627 -29.340  -2.236  1.00  0.00    -0.045 A 
ATOM      5  C   UNL     1      -1.113 -27.410   0.698  1.00  0.00     0.044 C 
ATOM      6  C   UNL     1      -1.972 -28.107  -0.314  1.00  0.00    -0.051 A 
ATOM      7  C   UNL     1      -3.202 -28.661   0.065  1.00  0.00     0.004 A 
ATOM      8  C   UNL     1      -1.583 -28.150  -1.661  1.00  0.00     0.004 A 
ATOM      9  C   UNL     1      -4.020 -29.279  -0.885  1.00  0.00     0.004 A 
ATOM     10  C   UNL     1      -2.400 -28.767  -2.613  1.00  0.00     0.004 A 
ENDBRANCH   2   4
ENDBRANCH   1   2
BRANCH   1  11
ATOM     11  C   UNL     1      -3.898 -31.589  -5.234  1.00  0.00     0.028 C 
BRANCH  11  12
ATOM     12  C   UNL     1      -3.678 -30.314  -6.014  1.00  0.00    -0.028 C 
ATOM     13  C   UNL     1      -2.479 -29.956  -6.519  1.00  0.00    -0.080 C 
ATOM     14  C   UNL     1      -1.253 -30.818  -6.334  1.00  0.00     0.039 C 
ATOM     15  C   UNL     1      -2.373 -28.662  -7.284  1.00  0.00     0.039 C 
ENDBRANCH  11  12
ENDBRANCH   1  11
TORSDOF 4
ENDMDL
MODEL 5
REMARK VINA RESULT:    -5.444      5.166      9.521
REMARK INTER + INTRA:          -7.235
REMARK INTER:                  -6.595
REMARK INTRA:                  -0.639
REMARK UNBOUND:                -0.518
REMARK SMILES CC(C)=CCC[C@@H](C)c1ccc(C)cc1
REMARK SMILES IDX 6 1 7 2 8 3 9 4 13 5 12 6 11 7 14 8 10 9 15 10 5 11 4 12
REMARK SMILES IDX 2 13 1 14 3 15
REMARK H PARENT
REMARK Flexibility Score: inf
ROOT
ATOM      1  C   UNL     1      -7.562 -30.229  -4.922  1.00  0.00     0.012 C 
ENDROOT
BRANCH   1   2
ATOM      2  C   UNL     1      -6.299 -31.122  -4.861  1.00  0.00     0.016 C 
ATOM      3  C   UNL     1      -5.775 -31.510  -6.252  1.00  0.00     0.013 C 
BRANCH   2   4
ATOM      4  C   UNL     1      -5.208 -30.437  -4.058  1.00  0.00    -0.045 A 
ATOM      5  C   UNL     1      -2.093 -28.471  -1.802  1.00  0.00     0.044 C 
ATOM      6  C   UNL     1      -3.161 -29.181  -2.579  1.00  0.00    -0.051 A 
ATOM      7  C   UNL     1      -4.338 -29.599  -1.943  1.00  0.00     0.004 A 
ATOM      8  C   UNL     1      -3.021 -29.371  -3.962  1.00  0.00     0.004 A 
ATOM      9  C   UNL     1      -5.350 -30.228  -2.674  1.00  0.00     0.004 A 
ATOM     10  C   UNL     1      -4.032 -30.000  -4.694  1.00  0.00     0.004 A 
ENDBRANCH   2   4
ENDBRANCH   1   2
BRANCH   1  11
ATOM     11  C   UNL     1      -7.889 -29.709  -6.335  1.00  0.00     0.028 C 
BRANCH  11  12
ATOM     12  C   UNL     1      -9.310 -30.006  -6.751  1.00  0.00    -0.028 C 
ATOM     13  C   UNL     1      -9.651 -30.375  -8.003  1.00  0.00    -0.080 C 
ATOM     14  C   UNL     1      -8.617 -30.513  -9.096  1.00  0.00     0.039 C 
ATOM     15  C   UNL     1     -11.101 -30.650  -8.308  1.00  0.00     0.039 C 
ENDBRANCH  11  12
ENDBRANCH   1  11
TORSDOF 4
ENDMDL
MODEL 6
REMARK VINA RESULT:    -5.420      1.033      6.646
REMARK INTER + INTRA:          -7.206
REMARK INTER:                  -6.487
REMARK INTRA:                  -0.719
REMARK UNBOUND:                -0.518
REMARK SMILES CC(C)=CCC[C@@H](C)c1ccc(C)cc1
REMARK SMILES IDX 6 1 7 2 8 3 9 4 13 5 12 6 11 7 14 8 10 9 15 10 5 11 4 12
REMARK SMILES IDX 2 13 1 14 3 15
REMARK H PARENT
REMARK Flexibility Score: inf
ROOT
ATOM      1  C   UNL     1       0.375 -25.091  -0.354  1.00  0.00     0.012 C 
ENDROOT
BRANCH   1   2
ATOM      2  C   UNL     1       0.596 -26.610  -0.154  1.00  0.00     0.016 C 
ATOM      3  C   UNL     1       1.258 -26.946   1.191  1.00  0.00     0.013 C 
BRANCH   2   4
ATOM      4  C   UNL     1      -0.719 -27.356  -0.295  1.00  0.00    -0.045 A 
ATOM      5  C   UNL     1      -4.446 -29.498  -0.719  1.00  0.00     0.044 C 
ATOM      6  C   UNL     1      -3.166 -28.728  -0.581  1.00  0.00    -0.051 A 
ATOM      7  C   UNL     1      -2.827 -28.137   0.644  1.00  0.00     0.004 A 
ATOM      8  C   UNL     1      -2.267 -28.653  -1.655  1.00  0.00     0.004 A 
ATOM      9  C   UNL     1      -1.617 -27.450   0.784  1.00  0.00     0.004 A 
ATOM     10  C   UNL     1      -1.057 -27.967  -1.515  1.00  0.00     0.004 A 
ENDBRANCH   2   4
ENDBRANCH   1   2
BRANCH   1  11
ATOM     11  C   UNL     1       1.542 -24.222   0.152  1.00  0.00     0.028 C 
BRANCH  11  12
ATOM     12  C   UNL     1       2.546 -23.906  -0.932  1.00  0.00    -0.028 C 
ATOM     13  C   UNL     1       3.848 -24.252  -0.855  1.00  0.00    -0.080 C 
ATOM     14  C   UNL     1       4.402 -24.985   0.343  1.00  0.00     0.039 C 
ATOM     15  C   UNL     1       4.762 -23.889  -1.997  1.00  0.00     0.039 C 
ENDBRANCH  11  12
ENDBRANCH   1  11
TORSDOF 4
ENDMDL
MODEL 7
REMARK VINA RESULT:    -5.327      2.699      5.459
REMARK INTER + INTRA:          -7.090
REMARK INTER:                  -6.457
REMARK INTRA:                  -0.633
REMARK UNBOUND:                -0.518
REMARK SMILES CC(C)=CCC[C@@H](C)c1ccc(C)cc1
REMARK SMILES IDX 6 1 7 2 8 3 9 4 13 5 12 6 11 7 14 8 10 9 15 10 5 11 4 12
REMARK SMILES IDX 2 13 1 14 3 15
REMARK H PARENT
REMARK Flexibility Score: inf
ROOT
ATOM      1  C   UNL     1      -3.590 -30.334  -2.178  1.00  0.00     0.012 C 
ENDROOT
BRANCH   1   2
ATOM      2  C   UNL     1      -3.993 -29.417  -0.997  1.00  0.00     0.016 C 
ATOM      3  C   UNL     1      -4.491 -30.203   0.226  1.00  0.00     0.013 C 
BRANCH   2   4
ATOM      4  C   UNL     1      -2.833 -28.518  -0.609  1.00  0.00    -0.045 A 
ATOM      5  C   UNL     1       0.473 -25.953   0.463  1.00  0.00     0.044 C 
ATOM      6  C   UNL     1      -0.661 -26.867   0.105  1.00  0.00    -0.051 A 
ATOM      7  C   UNL     1      -1.760 -27.000   0.965  1.00  0.00     0.004 A 
ATOM      8  C   UNL     1      -0.663 -27.543  -1.124  1.00  0.00     0.004 A 
ATOM      9  C   UNL     1      -2.834 -27.824   0.615  1.00  0.00     0.004 A 
ATOM     10  C   UNL     1      -1.737 -28.366  -1.476  1.00  0.00     0.004 A 
ENDBRANCH   2   4
ENDBRANCH   1   2
BRANCH   1  11
ATOM     11  C   UNL     1      -4.319 -30.006  -3.496  1.00  0.00     0.028 C 
BRANCH  11  12
ATOM     12  C   UNL     1      -3.371 -29.602  -4.600  1.00  0.00    -0.028 C 
ATOM     13  C   UNL     1      -3.305 -30.242  -5.787  1.00  0.00    -0.080 C 
ATOM     14  C   UNL     1      -4.186 -31.429  -6.095  1.00  0.00     0.039 C 
ATOM     15  C   UNL     1      -2.323 -29.752  -6.819  1.00  0.00     0.039 C 
ENDBRANCH  11  12
ENDBRANCH   1  11
TORSDOF 4
ENDMDL
MODEL 8
REMARK VINA RESULT:    -5.207      1.531      2.542
REMARK INTER + INTRA:          -6.943
REMARK INTER:                  -6.538
REMARK INTRA:                  -0.405
REMARK UNBOUND:                -0.518
REMARK SMILES CC(C)=CCC[C@@H](C)c1ccc(C)cc1
REMARK SMILES IDX 6 1 7 2 8 3 9 4 13 5 12 6 11 7 14 8 10 9 15 10 5 11 4 12
REMARK SMILES IDX 2 13 1 14 3 15
REMARK H PARENT
REMARK Flexibility Score: inf
ROOT
ATOM      1  C   UNL     1      -1.078 -27.827  -1.104  1.00  0.00     0.012 C 
ENDROOT
BRANCH   1   2
ATOM      2  C   UNL     1      -1.097 -26.612  -0.144  1.00  0.00     0.016 C 
ATOM      3  C   UNL     1      -1.847 -26.898   1.166  1.00  0.00     0.013 C 
BRANCH   2   4
ATOM      4  C   UNL     1       0.319 -26.150   0.149  1.00  0.00    -0.045 A 
ATOM      5  C   UNL     1       4.338 -24.805   0.981  1.00  0.00     0.044 C 
ATOM      6  C   UNL     1       2.953 -25.286   0.666  1.00  0.00    -0.051 A 
ATOM      7  C   UNL     1       2.507 -26.523   1.152  1.00  0.00     0.004 A 
ATOM      8  C   UNL     1       2.070 -24.472  -0.058  1.00  0.00     0.004 A 
ATOM      9  C   UNL     1       1.204 -26.956   0.890  1.00  0.00     0.004 A 
ATOM     10  C   UNL     1       0.767 -24.903  -0.321  1.00  0.00     0.004 A 
ENDBRANCH   2   4
ENDBRANCH   1   2
BRANCH   1  11
ATOM     11  C   UNL     1      -2.462 -28.468  -1.323  1.00  0.00     0.028 C 
BRANCH  11  12
ATOM     12  C   UNL     1      -2.677 -28.916  -2.750  1.00  0.00    -0.028 C 
ATOM     13  C   UNL     1      -3.778 -29.583  -3.156  1.00  0.00    -0.080 C 
ATOM     14  C   UNL     1      -4.887 -29.937  -2.194  1.00  0.00     0.039 C 
ATOM     15  C   UNL     1      -3.890 -29.980  -4.605  1.00  0.00     0.039 C 
ENDBRANCH  11  12
ENDBRANCH   1  11
TORSDOF 4
ENDMDL
MODEL 9
REMARK VINA RESULT:    -5.060      4.592      6.849
REMARK INTER + INTRA:          -6.761
REMARK INTER:                  -5.307
REMARK INTRA:                  -1.454
REMARK UNBOUND:                -0.518
REMARK SMILES CC(C)=CCC[C@@H](C)c1ccc(C)cc1
REMARK SMILES IDX 6 1 7 2 8 3 9 4 13 5 12 6 11 7 14 8 10 9 15 10 5 11 4 12
REMARK SMILES IDX 2 13 1 14 3 15
REMARK H PARENT
REMARK Flexibility Score: inf
ROOT
ATOM      1  C   UNL     1      -5.244 -30.333  -4.059  1.00  0.00     0.012 C 
ENDROOT
BRANCH   1   2
ATOM      2  C   UNL     1      -3.730 -30.573  -4.274  1.00  0.00     0.016 C 
ATOM      3  C   UNL     1      -3.181 -29.847  -5.512  1.00  0.00     0.013 C 
BRANCH   2   4
ATOM      4  C   UNL     1      -2.952 -30.166  -3.036  1.00  0.00    -0.045 A 
ATOM      5  C   UNL     1      -0.717 -29.033   0.483  1.00  0.00     0.044 C 
ATOM      6  C   UNL     1      -1.518 -29.430  -0.721  1.00  0.00    -0.051 A 
ATOM      7  C   UNL     1      -2.188 -28.458  -1.476  1.00  0.00     0.004 A 
ATOM      8  C   UNL     1      -1.548 -30.769  -1.141  1.00  0.00     0.004 A 
ATOM      9  C   UNL     1      -2.905 -28.822  -2.620  1.00  0.00     0.004 A 
ATOM     10  C   UNL     1      -2.264 -31.134  -2.284  1.00  0.00     0.004 A 
ENDBRANCH   2   4
ENDBRANCH   1   2
BRANCH   1  11
ATOM     11  C   UNL     1      -5.802 -30.988  -2.781  1.00  0.00     0.028 C 
BRANCH  11  12
ATOM     12  C   UNL     1      -6.481 -29.995  -1.867  1.00  0.00    -0.028 C 
ATOM     13  C   UNL     1      -6.144 -29.836  -0.569  1.00  0.00    -0.080 C 
ATOM     14  C   UNL     1      -5.049 -30.658   0.070  1.00  0.00     0.039 C 
ATOM     15  C   UNL     1      -6.886 -28.814   0.251  1.00  0.00     0.039 C 
ENDBRANCH  11  12
ENDBRANCH   1  11
TORSDOF 4
ENDMDL
