MODEL 1
REMARK VINA RESULT:    -6.034      0.000      0.000
REMARK INTER + INTRA:          -7.401
REMARK INTER:                  -7.092
REMARK INTRA:                  -0.309
REMARK UNBOUND:                -0.309
REMARK SMILES O=c1c(O)c(-c2ccc(O)c(O)c2)oc2cc(O)ccc12
REMARK SMILES IDX 5 1 3 2 2 3 1 4 21 5 15 6 14 7 16 8 17 9 19 10 20 11 6 12
REMARK SMILES IDX 7 13 8 14 9 15 13 16 11 17 10 18 12 20 4 22 18 24
REMARK H PARENT 10 19 12 21 4 23 18 25
REMARK Flexibility Score: inf
ROOT
ATOM      1  C   UNL     1      74.651  17.411 136.385  1.00  0.00     0.180 A 
ATOM      2  C   UNL     1      73.807  16.625 137.196  1.00  0.00     0.208 A 
ATOM      3  C   UNL     1      72.435  16.580 136.901  1.00  0.00     0.235 A 
ATOM      4  O   UNL     1      71.661  15.875 137.604  1.00  0.00    -0.285 OA
ATOM      5  C   UNL     1      71.936  17.329 135.824  1.00  0.00     0.069 A 
ATOM      6  C   UNL     1      72.843  18.110 135.075  1.00  0.00     0.142 A 
ATOM      7  O   UNL     1      74.136  18.119 135.382  1.00  0.00    -0.452 OA
ATOM      8  C   UNL     1      72.383  18.879 134.001  1.00  0.00     0.094 A 
ATOM      9  C   UNL     1      71.025  18.877 133.661  1.00  0.00     0.119 A 
ATOM     10  C   UNL     1      70.123  18.101 134.402  1.00  0.00     0.047 A 
ATOM     11  C   UNL     1      70.573  17.331 135.478  1.00  0.00     0.020 A 
ENDROOT
BRANCH   1  12
ATOM     12  C   UNL     1      76.111  17.497 136.620  1.00  0.00     0.025 A 
ATOM     13  C   UNL     1      76.608  18.432 137.537  1.00  0.00     0.016 A 
ATOM     14  C   UNL     1      77.982  18.542 137.760  1.00  0.00     0.051 A 
ATOM     15  C   UNL     1      78.886  17.735 137.061  1.00  0.00     0.157 A 
ATOM     16  C   UNL     1      77.016  16.699 135.899  1.00  0.00     0.062 A 
ATOM     17  C   UNL     1      78.396  16.805 136.113  1.00  0.00     0.158 A 
BRANCH  15  18
ATOM     18  O   UNL     1      80.246  17.889 137.335  1.00  0.00    -0.504 OA
ATOM     19  H   UNL     1      80.961  17.953 136.626  1.00  0.00     0.293 HD
ENDBRANCH  15  18
BRANCH  17  20
ATOM     20  O   UNL     1      79.238  15.981 135.363  1.00  0.00    -0.504 OA
ATOM     21  H   UNL     1      79.683  15.150 135.724  1.00  0.00     0.293 HD
ENDBRANCH  17  20
ENDBRANCH   1  12
BRANCH   2  22
ATOM     22  O   UNL     1      74.324  15.929 138.291  1.00  0.00    -0.502 OA
ATOM     23  H   UNL     1      75.235  15.485 138.269  1.00  0.00     0.293 HD
ENDBRANCH   2  22
BRANCH   9  24
ATOM     24  O   UNL     1      70.585  19.648 132.588  1.00  0.00    -0.508 OA
ATOM     25  H   UNL     1      71.070  19.644 131.699  1.00  0.00     0.293 HD
ENDBRANCH   9  24
TORSDOF 5
ENDMDL
MODEL 2
REMARK VINA RESULT:    -6.028      9.410     11.404
REMARK INTER + INTRA:          -7.393
REMARK INTER:                  -7.076
REMARK INTRA:                  -0.317
REMARK UNBOUND:                -0.309
REMARK SMILES O=c1c(O)c(-c2ccc(O)c(O)c2)oc2cc(O)ccc12
REMARK SMILES IDX 5 1 3 2 2 3 1 4 21 5 15 6 14 7 16 8 17 9 19 10 20 11 6 12
REMARK SMILES IDX 7 13 8 14 9 15 13 16 11 17 10 18 12 20 4 22 18 24
REMARK H PARENT 10 19 12 21 4 23 18 25
REMARK Flexibility Score: inf
ROOT
ATOM      1  C   UNL     1      72.239  25.136 130.400  1.00  0.00     0.180 A 
ATOM      2  C   UNL     1      71.934  25.160 131.777  1.00  0.00     0.208 A 
ATOM      3  C   UNL     1      72.575  26.103 132.595  1.00  0.00     0.235 A 
ATOM      4  O   UNL     1      72.311  26.152 133.827  1.00  0.00    -0.285 OA
ATOM      5  C   UNL     1      73.513  26.983 132.031  1.00  0.00     0.069 A 
ATOM      6  C   UNL     1      73.779  26.879 130.649  1.00  0.00     0.142 A 
ATOM      7  O   UNL     1      73.146  25.978 129.907  1.00  0.00    -0.452 OA
ATOM      8  C   UNL     1      74.715  27.731 130.052  1.00  0.00     0.094 A 
ATOM      9  C   UNL     1      75.388  28.689 130.818  1.00  0.00     0.119 A 
ATOM     10  C   UNL     1      75.124  28.796 132.190  1.00  0.00     0.047 A 
ATOM     11  C   UNL     1      74.192  27.948 132.796  1.00  0.00     0.020 A 
ENDROOT
BRANCH   1  12
ATOM     12  C   UNL     1      71.594  24.183 129.468  1.00  0.00     0.025 A 
ATOM     13  C   UNL     1      70.388  24.536 128.847  1.00  0.00     0.016 A 
ATOM     14  C   UNL     1      69.753  23.645 127.978  1.00  0.00     0.051 A 
ATOM     15  C   UNL     1      70.299  22.382 127.726  1.00  0.00     0.157 A 
ATOM     16  C   UNL     1      72.135  22.907 129.235  1.00  0.00     0.062 A 
ATOM     17  C   UNL     1      71.503  22.005 128.369  1.00  0.00     0.158 A 
BRANCH  15  18
ATOM     18  O   UNL     1      69.619  21.541 126.844  1.00  0.00    -0.504 OA
ATOM     19  H   UNL     1      69.126  20.707 127.125  1.00  0.00     0.293 HD
ENDBRANCH  15  18
BRANCH  17  20
ATOM     20  O   UNL     1      72.097  20.755 128.182  1.00  0.00    -0.504 OA
ATOM     21  H   UNL     1      73.063  20.622 127.924  1.00  0.00     0.293 HD
ENDBRANCH  17  20
ENDBRANCH   1  12
BRANCH   2  22
ATOM     22  O   UNL     1      71.034  24.239 132.318  1.00  0.00    -0.502 OA
ATOM     23  H   UNL     1      70.911  23.311 131.931  1.00  0.00     0.293 HD
ENDBRANCH   2  22
BRANCH   9  24
ATOM     24  O   UNL     1      76.316  29.529 130.206  1.00  0.00    -0.508 OA
ATOM     25  H   UNL     1      76.910  29.202 129.454  1.00  0.00     0.293 HD
ENDBRANCH   9  24
TORSDOF 5
ENDMDL
MODEL 3
REMARK VINA RESULT:    -5.910      8.514     10.655
REMARK INTER + INTRA:          -7.255
REMARK INTER:                  -6.935
REMARK INTRA:                  -0.320
REMARK UNBOUND:                -0.309
REMARK SMILES O=c1c(O)c(-c2ccc(O)c(O)c2)oc2cc(O)ccc12
REMARK SMILES IDX 5 1 3 2 2 3 1 4 21 5 15 6 14 7 16 8 17 9 19 10 20 11 6 12
REMARK SMILES IDX 7 13 8 14 9 15 13 16 11 17 10 18 12 20 4 22 18 24
REMARK H PARENT 10 19 12 21 4 23 18 25
REMARK Flexibility Score: inf
ROOT
ATOM      1  C   UNL     1      69.839  21.649 129.777  1.00  0.00     0.180 A 
ATOM      2  C   UNL     1      71.099  21.602 129.143  1.00  0.00     0.208 A 
ATOM      3  C   UNL     1      71.947  22.716 129.241  1.00  0.00     0.235 A 
ATOM      4  O   UNL     1      73.082  22.695 128.692  1.00  0.00    -0.285 OA
ATOM      5  C   UNL     1      71.518  23.851 129.947  1.00  0.00     0.069 A 
ATOM      6  C   UNL     1      70.233  23.827 130.534  1.00  0.00     0.142 A 
ATOM      7  O   UNL     1      69.464  22.750 130.425  1.00  0.00    -0.452 OA
ATOM      8  C   UNL     1      69.765  24.943 131.237  1.00  0.00     0.094 A 
ATOM      9  C   UNL     1      70.565  26.083 131.366  1.00  0.00     0.119 A 
ATOM     10  C   UNL     1      71.841  26.109 130.786  1.00  0.00     0.047 A 
ATOM     11  C   UNL     1      72.317  25.000 130.080  1.00  0.00     0.020 A 
ENDROOT
BRANCH   1  12
ATOM     12  C   UNL     1      68.895  20.509 129.735  1.00  0.00     0.025 A 
ATOM     13  C   UNL     1      67.963  20.424 128.692  1.00  0.00     0.016 A 
ATOM     14  C   UNL     1      67.051  19.367 128.643  1.00  0.00     0.051 A 
ATOM     15  C   UNL     1      67.040  18.387 129.641  1.00  0.00     0.157 A 
ATOM     16  C   UNL     1      68.873  19.539 130.751  1.00  0.00     0.062 A 
ATOM     17  C   UNL     1      67.960  18.477 130.713  1.00  0.00     0.158 A 
BRANCH  15  18
ATOM     18  O   UNL     1      66.109  17.353 129.530  1.00  0.00    -0.504 OA
ATOM     19  H   UNL     1      66.005  16.612 130.207  1.00  0.00     0.293 HD
ENDBRANCH  15  18
BRANCH  17  20
ATOM     20  O   UNL     1      67.995  17.549 131.756  1.00  0.00    -0.504 OA
ATOM     21  H   UNL     1      67.316  17.511 132.501  1.00  0.00     0.293 HD
ENDBRANCH  17  20
ENDBRANCH   1  12
BRANCH   2  22
ATOM     22  O   UNL     1      71.478  20.479 128.405  1.00  0.00    -0.502 OA
ATOM     23  H   UNL     1      71.693  20.527 127.416  1.00  0.00     0.293 HD
ENDBRANCH   2  22
BRANCH   9  24
ATOM     24  O   UNL     1      70.083  27.184 132.070  1.00  0.00    -0.508 OA
ATOM     25  H   UNL     1      70.631  27.629 132.796  1.00  0.00     0.293 HD
ENDBRANCH   9  24
TORSDOF 5
ENDMDL
MODEL 4
REMARK VINA RESULT:    -5.879      8.696     11.445
REMARK INTER + INTRA:          -7.219
REMARK INTER:                  -6.895
REMARK INTRA:                  -0.324
REMARK UNBOUND:                -0.309
REMARK SMILES O=c1c(O)c(-c2ccc(O)c(O)c2)oc2cc(O)ccc12
REMARK SMILES IDX 5 1 3 2 2 3 1 4 21 5 15 6 14 7 16 8 17 9 19 10 20 11 6 12
REMARK SMILES IDX 7 13 8 14 9 15 13 16 11 17 10 18 12 20 4 22 18 24
REMARK H PARENT 10 19 12 21 4 23 18 25
REMARK Flexibility Score: inf
ROOT
ATOM      1  C   UNL     1      72.052  25.183 130.301  1.00  0.00     0.180 A 
ATOM      2  C   UNL     1      71.645  26.268 129.496  1.00  0.00     0.208 A 
ATOM      3  C   UNL     1      72.281  27.508 129.661  1.00  0.00     0.235 A 
ATOM      4  O   UNL     1      71.943  28.490 128.945  1.00  0.00    -0.285 OA
ATOM      5  C   UNL     1      73.286  27.645 130.631  1.00  0.00     0.069 A 
ATOM      6  C   UNL     1      73.619  26.518 131.412  1.00  0.00     0.142 A 
ATOM      7  O   UNL     1      73.000  25.359 131.219  1.00  0.00    -0.452 OA
ATOM      8  C   UNL     1      74.609  26.617 132.397  1.00  0.00     0.094 A 
ATOM      9  C   UNL     1      75.275  27.829 132.610  1.00  0.00     0.119 A 
ATOM     10  C   UNL     1      74.947  28.950 131.833  1.00  0.00     0.047 A 
ATOM     11  C   UNL     1      73.958  28.861 130.849  1.00  0.00     0.020 A 
ENDROOT
BRANCH   1  12
ATOM     12  C   UNL     1      71.444  23.839 130.176  1.00  0.00     0.025 A 
ATOM     13  C   UNL     1      70.380  23.483 131.014  1.00  0.00     0.016 A 
ATOM     14  C   UNL     1      69.804  22.213 130.925  1.00  0.00     0.051 A 
ATOM     15  C   UNL     1      70.289  21.272 130.011  1.00  0.00     0.157 A 
ATOM     16  C   UNL     1      71.949  22.889 129.271  1.00  0.00     0.062 A 
ATOM     17  C   UNL     1      71.381  21.612 129.177  1.00  0.00     0.158 A 
BRANCH  15  18
ATOM     18  O   UNL     1      69.665  20.023 129.967  1.00  0.00    -0.504 OA
ATOM     19  H   UNL     1      68.750  19.835 130.349  1.00  0.00     0.293 HD
ENDBRANCH  15  18
BRANCH  17  20
ATOM     20  O   UNL     1      71.932  20.719 128.256  1.00  0.00    -0.504 OA
ATOM     21  H   UNL     1      72.091  20.938 127.284  1.00  0.00     0.293 HD
ENDBRANCH  17  20
ENDBRANCH   1  12
BRANCH   2  22
ATOM     22  O   UNL     1      70.608  26.114 128.574  1.00  0.00    -0.502 OA
ATOM     23  H   UNL     1      70.129  25.232 128.439  1.00  0.00     0.293 HD
ENDBRANCH   2  22
BRANCH   9  24
ATOM     24  O   UNL     1      76.258  27.910 133.593  1.00  0.00    -0.508 OA
ATOM     25  H   UNL     1      77.184  28.265 133.388  1.00  0.00     0.293 HD
ENDBRANCH   9  24
TORSDOF 5
ENDMDL
MODEL 5
REMARK VINA RESULT:    -5.835      9.005     11.185
REMARK INTER + INTRA:          -7.167
REMARK INTER:                  -6.870
REMARK INTRA:                  -0.296
REMARK UNBOUND:                -0.309
REMARK SMILES O=c1c(O)c(-c2ccc(O)c(O)c2)oc2cc(O)ccc12
REMARK SMILES IDX 5 1 3 2 2 3 1 4 21 5 15 6 14 7 16 8 17 9 19 10 20 11 6 12
REMARK SMILES IDX 7 13 8 14 9 15 13 16 11 17 10 18 12 20 4 22 18 24
REMARK H PARENT 10 19 12 21 4 23 18 25
REMARK Flexibility Score: inf
ROOT
ATOM      1  C   UNL     1      72.596  26.437 130.315  1.00  0.00     0.180 A 
ATOM      2  C   UNL     1      71.525  26.596 131.221  1.00  0.00     0.208 A 
ATOM      3  C   UNL     1      70.689  25.499 131.478  1.00  0.00     0.235 A 
ATOM      4  O   UNL     1      69.732  25.613 132.292  1.00  0.00    -0.285 OA
ATOM      5  C   UNL     1      70.923  24.282 130.819  1.00  0.00     0.069 A 
ATOM      6  C   UNL     1      72.001  24.211 129.910  1.00  0.00     0.142 A 
ATOM      7  O   UNL     1      72.774  25.270 129.700  1.00  0.00    -0.452 OA
ATOM      8  C   UNL     1      72.260  23.019 129.224  1.00  0.00     0.094 A 
ATOM      9  C   UNL     1      71.457  21.893 129.438  1.00  0.00     0.119 A 
ATOM     10  C   UNL     1      70.388  21.960 130.341  1.00  0.00     0.047 A 
ATOM     11  C   UNL     1      70.119  23.147 131.029  1.00  0.00     0.020 A 
ENDROOT
BRANCH   1  12
ATOM     12  C   UNL     1      73.533  27.540 130.004  1.00  0.00     0.025 A 
ATOM     13  C   UNL     1      73.181  28.492 129.038  1.00  0.00     0.016 A 
ATOM     14  C   UNL     1      74.058  29.530 128.716  1.00  0.00     0.051 A 
ATOM     15  C   UNL     1      75.308  29.628 129.338  1.00  0.00     0.157 A 
ATOM     16  C   UNL     1      74.796  27.621 130.615  1.00  0.00     0.062 A 
ATOM     17  C   UNL     1      75.685  28.656 130.296  1.00  0.00     0.158 A 
BRANCH  15  18
ATOM     18  O   UNL     1      76.136  30.692 128.976  1.00  0.00    -0.504 OA
ATOM     19  H   UNL     1      76.501  30.833 128.046  1.00  0.00     0.293 HD
ENDBRANCH  15  18
BRANCH  17  20
ATOM     20  O   UNL     1      76.922  28.676 130.942  1.00  0.00    -0.504 OA
ATOM     21  H   UNL     1      77.402  27.851 131.269  1.00  0.00     0.293 HD
ENDBRANCH  17  20
ENDBRANCH   1  12
BRANCH   2  22
ATOM     22  O   UNL     1      71.287  27.833 131.824  1.00  0.00    -0.502 OA
ATOM     23  H   UNL     1      70.671  28.525 131.415  1.00  0.00     0.293 HD
ENDBRANCH   2  22
BRANCH   9  24
ATOM     24  O   UNL     1      71.730  20.714 128.747  1.00  0.00    -0.508 OA
ATOM     25  H   UNL     1      71.036  19.983 128.654  1.00  0.00     0.293 HD
ENDBRANCH   9  24
TORSDOF 5
ENDMDL
MODEL 6
REMARK VINA RESULT:    -5.789      9.331     10.319
REMARK INTER + INTRA:          -7.113
REMARK INTER:                  -6.911
REMARK INTRA:                  -0.201
REMARK UNBOUND:                -0.309
REMARK SMILES O=c1c(O)c(-c2ccc(O)c(O)c2)oc2cc(O)ccc12
REMARK SMILES IDX 5 1 3 2 2 3 1 4 21 5 15 6 14 7 16 8 17 9 19 10 20 11 6 12
REMARK SMILES IDX 7 13 8 14 9 15 13 16 11 17 10 18 12 20 4 22 18 24
REMARK H PARENT 10 19 12 21 4 23 18 25
REMARK Flexibility Score: inf
ROOT
ATOM      1  C   UNL     1      71.018  24.827 130.476  1.00  0.00     0.180 A 
ATOM      2  C   UNL     1      69.621  24.800 130.671  1.00  0.00     0.208 A 
ATOM      3  C   UNL     1      68.838  23.988 129.836  1.00  0.00     0.235 A 
ATOM      4  O   UNL     1      67.588  23.938 129.998  1.00  0.00    -0.285 OA
ATOM      5  C   UNL     1      69.455  23.242 128.820  1.00  0.00     0.069 A 
ATOM      6  C   UNL     1      70.856  23.342 128.675  1.00  0.00     0.142 A 
ATOM      7  O   UNL     1      71.563  24.115 129.491  1.00  0.00    -0.452 OA
ATOM      8  C   UNL     1      71.508  22.622 127.668  1.00  0.00     0.094 A 
ATOM      9  C   UNL     1      70.778  21.798 126.803  1.00  0.00     0.119 A 
ATOM     10  C   UNL     1      69.387  21.696 126.946  1.00  0.00     0.047 A 
ATOM     11  C   UNL     1      68.727  22.413 127.948  1.00  0.00     0.020 A 
ENDROOT
BRANCH   1  12
ATOM     12  C   UNL     1      71.916  25.643 131.325  1.00  0.00     0.025 A 
ATOM     13  C   UNL     1      72.652  26.686 130.747  1.00  0.00     0.016 A 
ATOM     14  C   UNL     1      73.518  27.456 131.527  1.00  0.00     0.051 A 
ATOM     15  C   UNL     1      73.678  27.190 132.891  1.00  0.00     0.157 A 
ATOM     16  C   UNL     1      72.090  25.358 132.690  1.00  0.00     0.062 A 
ATOM     17  C   UNL     1      72.959  26.122 133.479  1.00  0.00     0.158 A 
BRANCH  15  18
ATOM     18  O   UNL     1      74.554  28.001 133.615  1.00  0.00    -0.504 OA
ATOM     19  H   UNL     1      74.262  28.789 134.174  1.00  0.00     0.293 HD
ENDBRANCH  15  18
BRANCH  17  20
ATOM     20  O   UNL     1      73.083  25.784 134.828  1.00  0.00    -0.504 OA
ATOM     21  H   UNL     1      73.557  24.958 135.162  1.00  0.00     0.293 HD
ENDBRANCH  17  20
ENDBRANCH   1  12
BRANCH   2  22
ATOM     22  O   UNL     1      69.030  25.592 131.658  1.00  0.00    -0.502 OA
ATOM     23  H   UNL     1      68.027  25.622 131.798  1.00  0.00     0.293 HD
ENDBRANCH   2  22
BRANCH   9  24
ATOM     24  O   UNL     1      71.443  21.088 125.806  1.00  0.00    -0.508 OA
ATOM     25  H   UNL     1      71.101  20.194 125.475  1.00  0.00     0.293 HD
ENDBRANCH   9  24
TORSDOF 5
ENDMDL
MODEL 7
REMARK VINA RESULT:    -5.707      9.358     10.137
REMARK INTER + INTRA:          -7.016
REMARK INTER:                  -6.715
REMARK INTRA:                  -0.301
REMARK UNBOUND:                -0.309
REMARK SMILES O=c1c(O)c(-c2ccc(O)c(O)c2)oc2cc(O)ccc12
REMARK SMILES IDX 5 1 3 2 2 3 1 4 21 5 15 6 14 7 16 8 17 9 19 10 20 11 6 12
REMARK SMILES IDX 7 13 8 14 9 15 13 16 11 17 10 18 12 20 4 22 18 24
REMARK H PARENT 10 19 12 21 4 23 18 25
REMARK Flexibility Score: inf
ROOT
ATOM      1  C   UNL     1      72.168  25.259 131.162  1.00  0.00     0.180 A 
ATOM      2  C   UNL     1      70.766  25.301 131.318  1.00  0.00     0.208 A 
ATOM      3  C   UNL     1      69.975  24.427 130.557  1.00  0.00     0.235 A 
ATOM      4  O   UNL     1      68.720  24.438 130.686  1.00  0.00    -0.285 OA
ATOM      5  C   UNL     1      70.590  23.550 129.651  1.00  0.00     0.069 A 
ATOM      6  C   UNL     1      71.997  23.585 129.537  1.00  0.00     0.142 A 
ATOM      7  O   UNL     1      72.711  24.421 130.281  1.00  0.00    -0.452 OA
ATOM      8  C   UNL     1      72.647  22.733 128.637  1.00  0.00     0.094 A 
ATOM      9  C   UNL     1      71.910  21.842 127.849  1.00  0.00     0.119 A 
ATOM     10  C   UNL     1      70.513  21.804 127.962  1.00  0.00     0.047 A 
ATOM     11  C   UNL     1      69.854  22.652 128.856  1.00  0.00     0.020 A 
ENDROOT
BRANCH   1  12
ATOM     12  C   UNL     1      73.073  26.135 131.941  1.00  0.00     0.025 A 
ATOM     13  C   UNL     1      73.644  25.657 133.127  1.00  0.00     0.016 A 
ATOM     14  C   UNL     1      74.486  26.473 133.885  1.00  0.00     0.051 A 
ATOM     15  C   UNL     1      74.759  27.785 133.485  1.00  0.00     0.157 A 
ATOM     16  C   UNL     1      73.326  27.460 131.545  1.00  0.00     0.062 A 
ATOM     17  C   UNL     1      74.165  28.288 132.302  1.00  0.00     0.158 A 
BRANCH  15  18
ATOM     18  O   UNL     1      75.613  28.548 134.284  1.00  0.00    -0.504 OA
ATOM     19  H   UNL     1      76.321  28.156 134.887  1.00  0.00     0.293 HD
ENDBRANCH  15  18
BRANCH  17  20
ATOM     20  O   UNL     1      74.375  29.593 131.850  1.00  0.00    -0.504 OA
ATOM     21  H   UNL     1      75.269  30.060 131.869  1.00  0.00     0.293 HD
ENDBRANCH  17  20
ENDBRANCH   1  12
BRANCH   2  22
ATOM     22  O   UNL     1      70.179  26.220 132.191  1.00  0.00    -0.502 OA
ATOM     23  H   UNL     1      69.292  26.042 132.648  1.00  0.00     0.293 HD
ENDBRANCH   2  22
BRANCH   9  24
ATOM     24  O   UNL     1      72.573  21.001 126.959  1.00  0.00    -0.508 OA
ATOM     25  H   UNL     1      72.352  20.997 125.970  1.00  0.00     0.293 HD
ENDBRANCH   9  24
TORSDOF 5
ENDMDL
MODEL 8
REMARK VINA RESULT:    -5.685      9.387     10.922
REMARK INTER + INTRA:          -6.990
REMARK INTER:                  -6.690
REMARK INTRA:                  -0.301
REMARK UNBOUND:                -0.309
REMARK SMILES O=c1c(O)c(-c2ccc(O)c(O)c2)oc2cc(O)ccc12
REMARK SMILES IDX 5 1 3 2 2 3 1 4 21 5 15 6 14 7 16 8 17 9 19 10 20 11 6 12
REMARK SMILES IDX 7 13 8 14 9 15 13 16 11 17 10 18 12 20 4 22 18 24
REMARK H PARENT 10 19 12 21 4 23 18 25
REMARK Flexibility Score: inf
ROOT
ATOM      1  C   UNL     1      72.441  26.092 130.135  1.00  0.00     0.180 A 
ATOM      2  C   UNL     1      71.201  26.655 129.767  1.00  0.00     0.208 A 
ATOM      3  C   UNL     1      70.220  25.823 129.206  1.00  0.00     0.235 A 
ATOM      4  O   UNL     1      69.100  26.301 128.879  1.00  0.00    -0.285 OA
ATOM      5  C   UNL     1      70.501  24.462 129.006  1.00  0.00     0.069 A 
ATOM      6  C   UNL     1      71.774  23.980 129.380  1.00  0.00     0.142 A 
ATOM      7  O   UNL     1      72.672  24.799 129.916  1.00  0.00    -0.452 OA
ATOM      8  C   UNL     1      72.096  22.632 129.187  1.00  0.00     0.094 A 
ATOM      9  C   UNL     1      71.159  21.755 128.628  1.00  0.00     0.119 A 
ATOM     10  C   UNL     1      69.894  22.231 128.259  1.00  0.00     0.047 A 
ATOM     11  C   UNL     1      69.564  23.576 128.445  1.00  0.00     0.020 A 
ENDROOT
BRANCH   1  12
ATOM     12  C   UNL     1      73.520  26.898 130.749  1.00  0.00     0.025 A 
ATOM     13  C   UNL     1      74.392  27.624 129.927  1.00  0.00     0.016 A 
ATOM     14  C   UNL     1      75.428  28.377 130.485  1.00  0.00     0.051 A 
ATOM     15  C   UNL     1      75.624  28.406 131.870  1.00  0.00     0.157 A 
ATOM     16  C   UNL     1      73.727  26.906 132.140  1.00  0.00     0.062 A 
ATOM     17  C   UNL     1      74.766  27.654 132.708  1.00  0.00     0.158 A 
BRANCH  15  18
ATOM     18  O   UNL     1      76.673  29.182 132.365  1.00  0.00    -0.504 OA
ATOM     19  H   UNL     1      77.355  28.851 133.031  1.00  0.00     0.293 HD
ENDBRANCH  15  18
BRANCH  17  20
ATOM     20  O   UNL     1      74.912  27.618 134.097  1.00  0.00    -0.504 OA
ATOM     21  H   UNL     1      74.166  27.812 134.748  1.00  0.00     0.293 HD
ENDBRANCH  17  20
ENDBRANCH   1  12
BRANCH   2  22
ATOM     22  O   UNL     1      70.969  28.022 129.932  1.00  0.00    -0.502 OA
ATOM     23  H   UNL     1      70.271  28.522 129.394  1.00  0.00     0.293 HD
ENDBRANCH   2  22
BRANCH   9  24
ATOM     24  O   UNL     1      71.496  20.416 128.444  1.00  0.00    -0.508 OA
ATOM     25  H   UNL     1      71.332  19.726 129.167  1.00  0.00     0.293 HD
ENDBRANCH   9  24
TORSDOF 5
ENDMDL
MODEL 9
REMARK VINA RESULT:    -5.534      8.993     10.499
REMARK INTER + INTRA:          -6.814
REMARK INTER:                  -6.501
REMARK INTRA:                  -0.312
REMARK UNBOUND:                -0.309
REMARK SMILES O=c1c(O)c(-c2ccc(O)c(O)c2)oc2cc(O)ccc12
REMARK SMILES IDX 5 1 3 2 2 3 1 4 21 5 15 6 14 7 16 8 17 9 19 10 20 11 6 12
REMARK SMILES IDX 7 13 8 14 9 15 13 16 11 17 10 18 12 20 4 22 18 24
REMARK H PARENT 10 19 12 21 4 23 18 25
REMARK Flexibility Score: inf
ROOT
ATOM      1  C   UNL     1      69.885  22.917 129.677  1.00  0.00     0.180 A 
ATOM      2  C   UNL     1      69.547  21.813 130.487  1.00  0.00     0.208 A 
ATOM      3  C   UNL     1      68.982  20.679 129.883  1.00  0.00     0.235 A 
ATOM      4  O   UNL     1      68.682  19.675 130.585  1.00  0.00    -0.285 OA
ATOM      5  C   UNL     1      68.750  20.677 128.499  1.00  0.00     0.069 A 
ATOM      6  C   UNL     1      69.095  21.831 127.762  1.00  0.00     0.142 A 
ATOM      7  O   UNL     1      69.635  22.881 128.369  1.00  0.00    -0.452 OA
ATOM      8  C   UNL     1      68.868  21.872 126.381  1.00  0.00     0.094 A 
ATOM      9  C   UNL     1      68.305  20.772 125.725  1.00  0.00     0.119 A 
ATOM     10  C   UNL     1      67.964  19.625 126.454  1.00  0.00     0.047 A 
ATOM     11  C   UNL     1      68.183  19.575 127.834  1.00  0.00     0.020 A 
ENDROOT
BRANCH   1  12
ATOM     12  C   UNL     1      70.500  24.143 130.234  1.00  0.00     0.025 A 
ATOM     13  C   UNL     1      71.896  24.254 130.282  1.00  0.00     0.016 A 
ATOM     14  C   UNL     1      72.497  25.393 130.820  1.00  0.00     0.051 A 
ATOM     15  C   UNL     1      71.719  26.435 131.337  1.00  0.00     0.157 A 
ATOM     16  C   UNL     1      69.714  25.177 130.772  1.00  0.00     0.062 A 
ATOM     17  C   UNL     1      70.308  26.322 131.318  1.00  0.00     0.158 A 
BRANCH  15  18
ATOM     18  O   UNL     1      72.381  27.550 131.855  1.00  0.00    -0.504 OA
ATOM     19  H   UNL     1      73.005  28.135 131.320  1.00  0.00     0.293 HD
ENDBRANCH  15  18
BRANCH  17  20
ATOM     20  O   UNL     1      69.467  27.311 131.833  1.00  0.00    -0.504 OA
ATOM     21  H   UNL     1      68.832  27.860 131.273  1.00  0.00     0.293 HD
ENDBRANCH  17  20
ENDBRANCH   1  12
BRANCH   2  22
ATOM     22  O   UNL     1      69.744  21.863 131.869  1.00  0.00    -0.502 OA
ATOM     23  H   UNL     1      70.330  21.196 132.357  1.00  0.00     0.293 HD
ENDBRANCH   2  22
BRANCH   9  24
ATOM     24  O   UNL     1      68.088  20.830 124.350  1.00  0.00    -0.508 OA
ATOM     25  H   UNL     1      67.408  21.465 123.949  1.00  0.00     0.293 HD
ENDBRANCH   9  24
TORSDOF 5
ENDMDL
