MODEL 1
REMARK VINA RESULT:    -4.665      0.000      0.000
REMARK INTER + INTRA:          -8.941
REMARK INTER:                  -8.209
REMARK INTRA:                  -0.731
REMARK UNBOUND:                -0.731
REMARK SMILES CCCCCCCCCCCCCCC(=O)[O-]
REMARK SMILES IDX 9 1 10 2 11 3 12 4 13 5 14 6 15 7 16 8 17 9 8 10 7 11 6 12
REMARK SMILES IDX 5 13 4 14 3 15 2 16 1 17
REMARK H PARENT
REMARK Flexibility Score: inf
ROOT
ATOM      1  C   UNL     1      -8.800   4.571 -11.854  1.00  0.00     0.000 C 
ENDROOT
BRANCH   1   2
ATOM      2  C   UNL     1      -7.514   5.276 -12.308  1.00  0.00     0.000 C 
BRANCH   2   3
ATOM      3  C   UNL     1      -6.837   4.500 -13.447  1.00  0.00     0.000 C 
BRANCH   3   4
ATOM      4  C   UNL     1      -5.893   5.375 -14.293  1.00  0.00     0.000 C 
BRANCH   4   5
ATOM      5  C   UNL     1      -6.309   5.542 -15.766  1.00  0.00     0.006 C 
BRANCH   5   6
ATOM      6  C   UNL     1      -7.728   6.101 -15.927  1.00  0.00     0.053 C 
BRANCH   6   7
ATOM      7  C   UNL     1      -8.060   6.270 -17.376  1.00  0.00     0.041 C 
ATOM      8  O   UNL     1      -7.647   5.434 -18.223  1.00  0.00    -0.550 OA
ATOM      9  O   UNL     1      -8.787   7.375 -17.798  1.00  0.00    -0.550 OA
ENDBRANCH   6   7
ENDBRANCH   5   6
ENDBRANCH   4   5
ENDBRANCH   3   4
ENDBRANCH   2   3
ENDBRANCH   1   2
BRANCH   1  10
ATOM     10  C   UNL     1      -9.466   5.265 -10.655  1.00  0.00     0.000 C 
BRANCH  10  11
ATOM     11  C   UNL     1      -9.307   4.473  -9.349  1.00  0.00    -0.000 C 
BRANCH  11  12
ATOM     12  C   UNL     1      -9.051   5.413  -8.164  1.00  0.00    -0.000 C 
BRANCH  12  13
ATOM     13  C   UNL     1      -7.549   5.561  -7.893  1.00  0.00    -0.000 C 
BRANCH  13  14
ATOM     14  C   UNL     1      -7.296   6.137  -6.495  1.00  0.00    -0.000 C 
BRANCH  14  15
ATOM     15  C   UNL     1      -7.648   5.112  -5.406  1.00  0.00    -0.000 C 
BRANCH  15  16
ATOM     16  C   UNL     1      -8.657   5.659  -4.384  1.00  0.00    -0.003 C 
ATOM     17  C   UNL     1      -9.294   6.975  -4.830  1.00  0.00     0.004 C 
ENDBRANCH  15  16
ENDBRANCH  14  15
ENDBRANCH  13  14
ENDBRANCH  12  13
ENDBRANCH  11  12
ENDBRANCH  10  11
ENDBRANCH   1  10
TORSDOF 13
ENDMDL
MODEL 2
REMARK VINA RESULT:    -4.647      5.287      9.465
REMARK INTER + INTRA:          -8.910
REMARK INTER:                  -8.043
REMARK INTRA:                  -0.866
REMARK UNBOUND:                -0.731
REMARK SMILES CCCCCCCCCCCCCCC(=O)[O-]
REMARK SMILES IDX 9 1 10 2 11 3 12 4 13 5 14 6 15 7 16 8 17 9 8 10 7 11 6 12
REMARK SMILES IDX 5 13 4 14 3 15 2 16 1 17
REMARK H PARENT
REMARK Flexibility Score: inf
ROOT
ATOM      1  C   UNL     1      -9.026   4.469  -9.512  1.00  0.00     0.000 C 
ENDROOT
BRANCH   1   2
ATOM      2  C   UNL     1      -9.132   5.431  -8.320  1.00  0.00     0.000 C 
BRANCH   2   3
ATOM      3  C   UNL     1      -7.765   5.617  -7.644  1.00  0.00     0.000 C 
BRANCH   3   4
ATOM      4  C   UNL     1      -7.829   5.477  -6.112  1.00  0.00     0.000 C 
BRANCH   4   5
ATOM      5  C   UNL     1      -9.224   5.693  -5.497  1.00  0.00     0.006 C 
BRANCH   5   6
ATOM      6  C   UNL     1      -9.350   7.032  -4.759  1.00  0.00     0.053 C 
BRANCH   6   7
ATOM      7  C   UNL     1      -8.998   6.866  -3.315  1.00  0.00     0.041 C 
ATOM      8  O   UNL     1      -8.912   5.716  -2.811  1.00  0.00    -0.550 OA
ATOM      9  O   UNL     1      -8.810   7.985  -2.513  1.00  0.00    -0.550 OA
ENDBRANCH   6   7
ENDBRANCH   5   6
ENDBRANCH   4   5
ENDBRANCH   3   4
ENDBRANCH   2   3
ENDBRANCH   1   2
BRANCH   1  10
ATOM     10  C   UNL     1      -9.508   5.100 -10.829  1.00  0.00     0.000 C 
BRANCH  10  11
ATOM     11  C   UNL     1      -8.601   4.753 -12.018  1.00  0.00    -0.000 C 
BRANCH  11  12
ATOM     12  C   UNL     1      -7.308   5.577 -11.982  1.00  0.00    -0.000 C 
BRANCH  12  13
ATOM     13  C   UNL     1      -6.221   4.936 -12.852  1.00  0.00    -0.000 C 
BRANCH  13  14
ATOM     14  C   UNL     1      -6.833   4.236 -14.072  1.00  0.00    -0.000 C 
BRANCH  14  15
ATOM     15  C   UNL     1      -6.036   4.553 -15.346  1.00  0.00    -0.000 C 
BRANCH  15  16
ATOM     16  C   UNL     1      -6.419   5.907 -15.961  1.00  0.00    -0.003 C 
ATOM     17  C   UNL     1      -7.912   6.210 -15.840  1.00  0.00     0.004 C 
ENDBRANCH  15  16
ENDBRANCH  14  15
ENDBRANCH  13  14
ENDBRANCH  12  13
ENDBRANCH  11  12
ENDBRANCH  10  11
ENDBRANCH   1  10
TORSDOF 13
ENDMDL
MODEL 3
REMARK VINA RESULT:    -4.605      3.933      8.728
REMARK INTER + INTRA:          -8.835
REMARK INTER:                  -7.907
REMARK INTRA:                  -0.928
REMARK UNBOUND:                -0.731
REMARK SMILES CCCCCCCCCCCCCCC(=O)[O-]
REMARK SMILES IDX 9 1 10 2 11 3 12 4 13 5 14 6 15 7 16 8 17 9 8 10 7 11 6 12
REMARK SMILES IDX 5 13 4 14 3 15 2 16 1 17
REMARK H PARENT
REMARK Flexibility Score: inf
ROOT
ATOM      1  C   UNL     1      -8.105   5.435 -12.698  1.00  0.00     0.000 C 
ENDROOT
BRANCH   1   2
ATOM      2  C   UNL     1      -8.869   4.472 -11.778  1.00  0.00     0.000 C 
BRANCH   2   3
ATOM      3  C   UNL     1      -9.491   5.225 -10.592  1.00  0.00     0.000 C 
BRANCH   3   4
ATOM      4  C   UNL     1      -9.166   4.579  -9.233  1.00  0.00     0.000 C 
BRANCH   4   5
ATOM      5  C   UNL     1      -9.031   5.567  -8.059  1.00  0.00     0.006 C 
BRANCH   5   6
ATOM      6  C   UNL     1      -7.729   5.382  -7.269  1.00  0.00     0.053 C 
BRANCH   6   7
ATOM      7  C   UNL     1      -7.121   6.711  -6.951  1.00  0.00     0.041 C 
ATOM      8  O   UNL     1      -6.085   7.096  -7.554  1.00  0.00    -0.550 OA
ATOM      9  O   UNL     1      -7.671   7.505  -5.953  1.00  0.00    -0.550 OA
ENDBRANCH   6   7
ENDBRANCH   5   6
ENDBRANCH   4   5
ENDBRANCH   3   4
ENDBRANCH   2   3
ENDBRANCH   1   2
BRANCH   1  10
ATOM     10  C   UNL     1      -6.635   5.611 -12.283  1.00  0.00     0.000 C 
BRANCH  10  11
ATOM     11  C   UNL     1      -5.655   5.237 -13.404  1.00  0.00    -0.000 C 
BRANCH  11  12
ATOM     12  C   UNL     1      -6.284   4.225 -14.369  1.00  0.00    -0.000 C 
BRANCH  12  13
ATOM     13  C   UNL     1      -6.086   4.657 -15.827  1.00  0.00    -0.000 C 
BRANCH  13  14
ATOM     14  C   UNL     1      -6.269   6.171 -15.982  1.00  0.00    -0.000 C 
BRANCH  14  15
ATOM     15  C   UNL     1      -7.741   6.524 -16.249  1.00  0.00    -0.000 C 
BRANCH  15  16
ATOM     16  C   UNL     1      -8.200   6.112 -17.656  1.00  0.00    -0.003 C 
ATOM     17  C   UNL     1      -9.001   7.206 -18.360  1.00  0.00     0.004 C 
ENDBRANCH  15  16
ENDBRANCH  14  15
ENDBRANCH  13  14
ENDBRANCH  12  13
ENDBRANCH  11  12
ENDBRANCH  10  11
ENDBRANCH   1  10
TORSDOF 13
ENDMDL
MODEL 4
REMARK VINA RESULT:    -4.581      4.505      9.026
REMARK INTER + INTRA:          -8.794
REMARK INTER:                  -7.977
REMARK INTRA:                  -0.817
REMARK UNBOUND:                -0.731
REMARK SMILES CCCCCCCCCCCCCCC(=O)[O-]
REMARK SMILES IDX 9 1 10 2 11 3 12 4 13 5 14 6 15 7 16 8 17 9 8 10 7 11 6 12
REMARK SMILES IDX 5 13 4 14 3 15 2 16 1 17
REMARK H PARENT
REMARK Flexibility Score: inf
ROOT
ATOM      1  C   UNL     1      -8.378   5.180 -11.572  1.00  0.00     0.000 C 
ENDROOT
BRANCH   1   2
ATOM      2  C   UNL     1      -9.600   5.048 -10.650  1.00  0.00     0.000 C 
BRANCH   2   3
ATOM      3  C   UNL     1      -9.191   4.504  -9.273  1.00  0.00     0.000 C 
BRANCH   3   4
ATOM      4  C   UNL     1      -9.080   5.604  -8.201  1.00  0.00     0.000 C 
BRANCH   4   5
ATOM      5  C   UNL     1      -7.720   5.675  -7.482  1.00  0.00     0.006 C 
BRANCH   5   6
ATOM      6  C   UNL     1      -7.830   5.439  -5.971  1.00  0.00     0.053 C 
BRANCH   6   7
ATOM      7  C   UNL     1      -8.117   6.724  -5.262  1.00  0.00     0.041 C 
ATOM      8  O   UNL     1      -7.439   7.754  -5.516  1.00  0.00    -0.550 OA
ATOM      9  O   UNL     1      -9.104   6.774  -4.286  1.00  0.00    -0.550 OA
ENDBRANCH   6   7
ENDBRANCH   5   6
ENDBRANCH   4   5
ENDBRANCH   3   4
ENDBRANCH   2   3
ENDBRANCH   1   2
BRANCH   1  10
ATOM     10  C   UNL     1      -8.580   4.483 -12.927  1.00  0.00     0.000 C 
BRANCH  10  11
ATOM     11  C   UNL     1      -7.253   4.127 -13.612  1.00  0.00    -0.000 C 
BRANCH  11  12
ATOM     12  C   UNL     1      -6.165   5.154 -13.271  1.00  0.00    -0.000 C 
BRANCH  12  13
ATOM     13  C   UNL     1      -5.220   5.371 -14.458  1.00  0.00    -0.000 C 
BRANCH  13  14
ATOM     14  C   UNL     1      -5.980   5.298 -15.788  1.00  0.00    -0.000 C 
BRANCH  14  15
ATOM     15  C   UNL     1      -6.420   6.697 -16.248  1.00  0.00    -0.000 C 
BRANCH  15  16
ATOM     16  C   UNL     1      -7.943   6.813 -16.410  1.00  0.00    -0.003 C 
ATOM     17  C   UNL     1      -8.384   6.825 -17.873  1.00  0.00     0.004 C 
ENDBRANCH  15  16
ENDBRANCH  14  15
ENDBRANCH  13  14
ENDBRANCH  12  13
ENDBRANCH  11  12
ENDBRANCH  10  11
ENDBRANCH   1  10
TORSDOF 13
ENDMDL
MODEL 5
REMARK VINA RESULT:    -4.534      1.777      3.527
REMARK INTER + INTRA:          -8.711
REMARK INTER:                  -7.935
REMARK INTRA:                  -0.776
REMARK UNBOUND:                -0.731
REMARK SMILES CCCCCCCCCCCCCCC(=O)[O-]
REMARK SMILES IDX 9 1 10 2 11 3 12 4 13 5 14 6 15 7 16 8 17 9 8 10 7 11 6 12
REMARK SMILES IDX 5 13 4 14 3 15 2 16 1 17
REMARK H PARENT
REMARK Flexibility Score: inf
ROOT
ATOM      1  C   UNL     1      -9.053   5.519  -8.282  1.00  0.00     0.000 C 
ENDROOT
BRANCH   1   2
ATOM      2  C   UNL     1      -9.273   4.473  -9.385  1.00  0.00     0.000 C 
BRANCH   2   3
ATOM      3  C   UNL     1      -9.508   5.150 -10.744  1.00  0.00     0.000 C 
BRANCH   3   4
ATOM      4  C   UNL     1      -8.741   4.471 -11.894  1.00  0.00     0.000 C 
BRANCH   4   5
ATOM      5  C   UNL     1      -7.682   5.355 -12.578  1.00  0.00     0.006 C 
BRANCH   5   6
ATOM      6  C   UNL     1      -7.893   5.475 -14.093  1.00  0.00     0.053 C 
BRANCH   6   7
ATOM      7  C   UNL     1      -6.700   4.951 -14.828  1.00  0.00     0.041 C 
ATOM      8  O   UNL     1      -6.075   3.949 -14.391  1.00  0.00    -0.550 OA
ATOM      9  O   UNL     1      -6.250   5.597 -15.972  1.00  0.00    -0.550 OA
ENDBRANCH   6   7
ENDBRANCH   5   6
ENDBRANCH   4   5
ENDBRANCH   3   4
ENDBRANCH   2   3
ENDBRANCH   1   2
BRANCH   1  10
ATOM     10  C   UNL     1      -7.640   5.459  -7.681  1.00  0.00     0.000 C 
BRANCH  10  11
ATOM     11  C   UNL     1      -7.458   6.422  -6.499  1.00  0.00    -0.000 C 
BRANCH  11  12
ATOM     12  C   UNL     1      -7.295   5.651  -5.183  1.00  0.00    -0.000 C 
BRANCH  12  13
ATOM     13  C   UNL     1      -8.574   5.722  -4.340  1.00  0.00    -0.000 C 
BRANCH  13  14
ATOM     14  C   UNL     1      -9.456   6.898  -4.776  1.00  0.00    -0.000 C 
BRANCH  14  15
ATOM     15  C   UNL     1      -9.730   7.847  -3.598  1.00  0.00    -0.000 C 
BRANCH  15  16
ATOM     16  C   UNL     1      -9.205   7.297  -2.263  1.00  0.00    -0.003 C 
ATOM     17  C   UNL     1     -10.326   6.965  -1.279  1.00  0.00     0.004 C 
ENDBRANCH  15  16
ENDBRANCH  14  15
ENDBRANCH  13  14
ENDBRANCH  12  13
ENDBRANCH  11  12
ENDBRANCH  10  11
ENDBRANCH   1  10
TORSDOF 13
ENDMDL
MODEL 6
REMARK VINA RESULT:    -4.531      5.486      9.718
REMARK INTER + INTRA:          -8.706
REMARK INTER:                  -7.952
REMARK INTRA:                  -0.754
REMARK UNBOUND:                -0.731
REMARK SMILES CCCCCCCCCCCCCCC(=O)[O-]
REMARK SMILES IDX 9 1 10 2 11 3 12 4 13 5 14 6 15 7 16 8 17 9 8 10 7 11 6 12
REMARK SMILES IDX 5 13 4 14 3 15 2 16 1 17
REMARK H PARENT
REMARK Flexibility Score: inf
ROOT
ATOM      1  C   UNL     1      -9.110   5.504  -8.275  1.00  0.00     0.000 C 
ENDROOT
BRANCH   1   2
ATOM      2  C   UNL     1      -7.632   5.645  -7.886  1.00  0.00     0.000 C 
BRANCH   2   3
ATOM      3  C   UNL     1      -7.475   5.760  -6.362  1.00  0.00     0.000 C 
BRANCH   3   4
ATOM      4  C   UNL     1      -8.799   5.554  -5.604  1.00  0.00     0.000 C 
BRANCH   4   5
ATOM      5  C   UNL     1      -8.718   5.779  -4.083  1.00  0.00     0.006 C 
BRANCH   5   6
ATOM      6  C   UNL     1      -7.280   5.753  -3.550  1.00  0.00     0.053 C 
BRANCH   6   7
ATOM      7  C   UNL     1      -6.970   4.417  -2.953  1.00  0.00     0.041 C 
ATOM      8  O   UNL     1      -6.381   3.538  -3.635  1.00  0.00    -0.550 OA
ATOM      9  O   UNL     1      -7.373   4.125  -1.656  1.00  0.00    -0.550 OA
ENDBRANCH   6   7
ENDBRANCH   5   6
ENDBRANCH   4   5
ENDBRANCH   3   4
ENDBRANCH   2   3
ENDBRANCH   1   2
BRANCH   1  10
ATOM     10  C   UNL     1      -9.328   4.505  -9.423  1.00  0.00     0.000 C 
BRANCH  10  11
ATOM     11  C   UNL     1      -9.419   5.190 -10.794  1.00  0.00    -0.000 C 
BRANCH  11  12
ATOM     12  C   UNL     1      -8.578   4.444 -11.838  1.00  0.00    -0.000 C 
BRANCH  12  13
ATOM     13  C   UNL     1      -7.679   5.411 -12.616  1.00  0.00    -0.000 C 
BRANCH  13  14
ATOM     14  C   UNL     1      -8.122   5.520 -14.079  1.00  0.00    -0.000 C 
BRANCH  14  15
ATOM     15  C   UNL     1      -6.909   5.542 -15.022  1.00  0.00    -0.000 C 
BRANCH  15  16
ATOM     16  C   UNL     1      -5.719   4.741 -14.471  1.00  0.00    -0.003 C 
ATOM     17  C   UNL     1      -5.625   3.337 -15.067  1.00  0.00     0.004 C 
ENDBRANCH  15  16
ENDBRANCH  14  15
ENDBRANCH  13  14
ENDBRANCH  12  13
ENDBRANCH  11  12
ENDBRANCH  10  11
ENDBRANCH   1  10
TORSDOF 13
ENDMDL
MODEL 7
REMARK VINA RESULT:    -4.487      5.315      9.394
REMARK INTER + INTRA:          -8.629
REMARK INTER:                  -7.731
REMARK INTRA:                  -0.898
REMARK UNBOUND:                -0.731
REMARK SMILES CCCCCCCCCCCCCCC(=O)[O-]
REMARK SMILES IDX 9 1 10 2 11 3 12 4 13 5 14 6 15 7 16 8 17 9 8 10 7 11 6 12
REMARK SMILES IDX 5 13 4 14 3 15 2 16 1 17
REMARK H PARENT
REMARK Flexibility Score: inf
ROOT
ATOM      1  C   UNL     1      -6.566   6.086  -8.104  1.00  0.00     0.000 C 
ENDROOT
BRANCH   1   2
ATOM      2  C   UNL     1      -5.781   7.098  -7.256  1.00  0.00     0.000 C 
BRANCH   2   3
ATOM      3  C   UNL     1      -6.447   7.297  -5.886  1.00  0.00     0.000 C 
BRANCH   3   4
ATOM      4  C   UNL     1      -5.597   6.759  -4.720  1.00  0.00     0.000 C 
BRANCH   4   5
ATOM      5  C   UNL     1      -6.167   5.510  -4.024  1.00  0.00     0.006 C 
BRANCH   5   6
ATOM      6  C   UNL     1      -6.894   5.836  -2.713  1.00  0.00     0.053 C 
BRANCH   6   7
ATOM      7  C   UNL     1      -8.375   5.753  -2.904  1.00  0.00     0.041 C 
ATOM      8  O   UNL     1      -8.856   5.523  -4.045  1.00  0.00    -0.550 OA
ATOM      9  O   UNL     1      -9.228   5.977  -1.831  1.00  0.00    -0.550 OA
ENDBRANCH   6   7
ENDBRANCH   5   6
ENDBRANCH   4   5
ENDBRANCH   3   4
ENDBRANCH   2   3
ENDBRANCH   1   2
BRANCH   1  10
ATOM     10  C   UNL     1      -7.795   5.525  -7.371  1.00  0.00     0.000 C 
BRANCH  10  11
ATOM     11  C   UNL     1      -9.078   5.618  -8.209  1.00  0.00    -0.000 C 
BRANCH  11  12
ATOM     12  C   UNL     1      -9.135   4.497  -9.254  1.00  0.00    -0.000 C 
BRANCH  12  13
ATOM     13  C   UNL     1      -9.559   5.041 -10.623  1.00  0.00    -0.000 C 
BRANCH  13  14
ATOM     14  C   UNL     1      -8.349   5.206 -11.550  1.00  0.00    -0.000 C 
BRANCH  14  15
ATOM     15  C   UNL     1      -8.634   4.613 -12.939  1.00  0.00    -0.000 C 
BRANCH  15  16
ATOM     16  C   UNL     1      -7.621   5.075 -13.997  1.00  0.00    -0.003 C 
ATOM     17  C   UNL     1      -6.236   4.460 -13.798  1.00  0.00     0.004 C 
ENDBRANCH  15  16
ENDBRANCH  14  15
ENDBRANCH  13  14
ENDBRANCH  12  13
ENDBRANCH  11  12
ENDBRANCH  10  11
ENDBRANCH   1  10
TORSDOF 13
ENDMDL
MODEL 8
REMARK VINA RESULT:    -4.424      2.553      4.985
REMARK INTER + INTRA:          -8.517
REMARK INTER:                  -7.369
REMARK INTRA:                  -1.148
REMARK UNBOUND:                -0.731
REMARK SMILES CCCCCCCCCCCCCCC(=O)[O-]
REMARK SMILES IDX 9 1 10 2 11 3 12 4 13 5 14 6 15 7 16 8 17 9 8 10 7 11 6 12
REMARK SMILES IDX 5 13 4 14 3 15 2 16 1 17
REMARK H PARENT
REMARK Flexibility Score: inf
ROOT
ATOM      1  C   UNL     1      -6.705   6.388  -7.938  1.00  0.00     0.000 C 
ENDROOT
BRANCH   1   2
ATOM      2  C   UNL     1      -7.767   5.448  -7.350  1.00  0.00     0.000 C 
BRANCH   2   3
ATOM      3  C   UNL     1      -9.075   5.531  -8.151  1.00  0.00     0.000 C 
BRANCH   3   4
ATOM      4  C   UNL     1      -9.113   4.557  -9.343  1.00  0.00     0.000 C 
BRANCH   4   5
ATOM      5  C   UNL     1      -9.366   5.215 -10.712  1.00  0.00     0.006 C 
BRANCH   5   6
ATOM      6  C   UNL     1      -8.726   4.444 -11.873  1.00  0.00     0.053 C 
BRANCH   6   7
ATOM      7  C   UNL     1      -7.769   5.322 -12.617  1.00  0.00     0.041 C 
ATOM      8  O   UNL     1      -6.721   5.737 -12.056  1.00  0.00    -0.550 OA
ATOM      9  O   UNL     1      -8.058   5.720 -13.915  1.00  0.00    -0.550 OA
ENDBRANCH   6   7
ENDBRANCH   5   6
ENDBRANCH   4   5
ENDBRANCH   3   4
ENDBRANCH   2   3
ENDBRANCH   1   2
BRANCH   1  10
ATOM     10  C   UNL     1      -5.798   7.005  -6.861  1.00  0.00     0.000 C 
BRANCH  10  11
ATOM     11  C   UNL     1      -6.590   7.576  -5.676  1.00  0.00    -0.000 C 
BRANCH  11  12
ATOM     12  C   UNL     1      -6.017   7.081  -4.342  1.00  0.00    -0.000 C 
BRANCH  12  13
ATOM     13  C   UNL     1      -7.138   6.700  -3.368  1.00  0.00    -0.000 C 
BRANCH  13  14
ATOM     14  C   UNL     1      -7.789   5.371  -3.771  1.00  0.00    -0.000 C 
BRANCH  14  15
ATOM     15  C   UNL     1      -6.724   4.310  -4.088  1.00  0.00    -0.000 C 
BRANCH  15  16
ATOM     16  C   UNL     1      -6.176   3.628  -2.825  1.00  0.00    -0.003 C 
ATOM     17  C   UNL     1      -4.738   4.037  -2.508  1.00  0.00     0.004 C 
ENDBRANCH  15  16
ENDBRANCH  14  15
ENDBRANCH  13  14
ENDBRANCH  12  13
ENDBRANCH  11  12
ENDBRANCH  10  11
ENDBRANCH   1  10
TORSDOF 13
ENDMDL
MODEL 9
REMARK VINA RESULT:    -4.402      1.667      2.508
REMARK INTER + INTRA:          -8.479
REMARK INTER:                  -7.747
REMARK INTRA:                  -0.733
REMARK UNBOUND:                -0.731
REMARK SMILES CCCCCCCCCCCCCCC(=O)[O-]
REMARK SMILES IDX 9 1 10 2 11 3 12 4 13 5 14 6 15 7 16 8 17 9 8 10 7 11 6 12
REMARK SMILES IDX 5 13 4 14 3 15 2 16 1 17
REMARK H PARENT
REMARK Flexibility Score: inf
ROOT
ATOM      1  C   UNL     1      -9.527   5.129 -10.653  1.00  0.00     0.000 C 
ENDROOT
BRANCH   1   2
ATOM      2  C   UNL     1      -8.327   4.934 -11.590  1.00  0.00     0.000 C 
BRANCH   2   3
ATOM      3  C   UNL     1      -8.793   4.627 -13.021  1.00  0.00     0.000 C 
BRANCH   3   4
ATOM      4  C   UNL     1      -7.836   5.174 -14.096  1.00  0.00     0.000 C 
BRANCH   4   5
ATOM      5  C   UNL     1      -6.363   5.281 -13.660  1.00  0.00     0.006 C 
BRANCH   5   6
ATOM      6  C   UNL     1      -5.422   5.642 -14.817  1.00  0.00     0.053 C 
BRANCH   6   7
ATOM      7  C   UNL     1      -5.291   4.489 -15.761  1.00  0.00     0.041 C 
ATOM      8  O   UNL     1      -4.727   3.426 -15.390  1.00  0.00    -0.550 OA
ATOM      9  O   UNL     1      -5.751   4.605 -17.066  1.00  0.00    -0.550 OA
ENDBRANCH   6   7
ENDBRANCH   5   6
ENDBRANCH   4   5
ENDBRANCH   3   4
ENDBRANCH   2   3
ENDBRANCH   1   2
BRANCH   1  10
ATOM     10  C   UNL     1      -9.333   4.447  -9.289  1.00  0.00     0.000 C 
BRANCH  10  11
ATOM     11  C   UNL     1      -9.068   5.450  -8.157  1.00  0.00    -0.000 C 
BRANCH  11  12
ATOM     12  C   UNL     1      -7.563   5.627  -7.921  1.00  0.00    -0.000 C 
BRANCH  12  13
ATOM     13  C   UNL     1      -7.295   6.371  -6.607  1.00  0.00    -0.000 C 
BRANCH  13  14
ATOM     14  C   UNL     1      -8.563   6.448  -5.749  1.00  0.00    -0.000 C 
BRANCH  14  15
ATOM     15  C   UNL     1      -8.375   5.700  -4.420  1.00  0.00    -0.000 C 
BRANCH  15  16
ATOM     16  C   UNL     1      -7.192   4.720  -4.457  1.00  0.00    -0.003 C 
ATOM     17  C   UNL     1      -6.176   4.979  -3.346  1.00  0.00     0.004 C 
ENDBRANCH  15  16
ENDBRANCH  14  15
ENDBRANCH  13  14
ENDBRANCH  12  13
ENDBRANCH  11  12
ENDBRANCH  10  11
ENDBRANCH   1  10
TORSDOF 13
ENDMDL
