MODEL 1
REMARK VINA RESULT:    -4.990      0.000      0.000
REMARK INTER + INTRA:          -7.477
REMARK INTER:                  -7.032
REMARK INTRA:                  -0.445
REMARK UNBOUND:                -0.445
REMARK SMILES CCCCCCCCC(=O)[O-]
REMARK SMILES IDX 6 1 7 2 8 3 9 4 10 5 11 6 5 7 4 8 3 9 2 10 1 11
REMARK H PARENT
REMARK Flexibility Score: inf
ROOT
ATOM      1  C   UNL     1     -17.001  33.355  -0.734  1.00  0.00     0.000 C 
ENDROOT
BRANCH   1   2
ATOM      2  C   UNL     1     -18.216  32.415  -0.799  1.00  0.00     0.006 C 
BRANCH   2   3
ATOM      3  C   UNL     1     -18.158  31.454  -1.994  1.00  0.00     0.053 C 
BRANCH   3   4
ATOM      4  C   UNL     1     -18.570  30.077  -1.575  1.00  0.00     0.041 C 
ATOM      5  O   UNL     1     -17.731  29.294  -1.059  1.00  0.00    -0.550 OA
ATOM      6  O   UNL     1     -19.870  29.642  -1.802  1.00  0.00    -0.550 OA
ENDBRANCH   3   4
ENDBRANCH   2   3
ENDBRANCH   1   2
BRANCH   1   7
ATOM      7  C   UNL     1     -16.275  33.287   0.621  1.00  0.00     0.000 C 
BRANCH   7   8
ATOM      8  C   UNL     1     -16.661  32.044   1.438  1.00  0.00    -0.000 C 
BRANCH   8   9
ATOM      9  C   UNL     1     -15.631  30.908   1.309  1.00  0.00    -0.000 C 
BRANCH   9  10
ATOM     10  C   UNL     1     -15.723  29.897   2.463  1.00  0.00    -0.003 C 
ATOM     11  C   UNL     1     -16.223  28.525   2.010  1.00  0.00     0.004 C 
ENDBRANCH   9  10
ENDBRANCH   8   9
ENDBRANCH   7   8
ENDBRANCH   1   7
TORSDOF 7
ENDMDL
MODEL 2
REMARK VINA RESULT:    -4.902      1.283      3.732
REMARK INTER + INTRA:          -7.353
REMARK INTER:                  -7.007
REMARK INTRA:                  -0.346
REMARK UNBOUND:                -0.445
REMARK SMILES CCCCCCCCC(=O)[O-]
REMARK SMILES IDX 6 1 7 2 8 3 9 4 10 5 11 6 5 7 4 8 3 9 2 10 1 11
REMARK H PARENT
REMARK Flexibility Score: inf
ROOT
ATOM      1  C   UNL     1     -15.851  29.780   2.346  1.00  0.00     0.000 C 
ENDROOT
BRANCH   1   2
ATOM      2  C   UNL     1     -16.294  28.403   1.827  1.00  0.00     0.006 C 
BRANCH   2   3
ATOM      3  C   UNL     1     -16.138  28.264   0.307  1.00  0.00     0.053 C 
BRANCH   3   4
ATOM      4  C   UNL     1     -17.449  27.907  -0.322  1.00  0.00     0.041 C 
ATOM      5  O   UNL     1     -17.926  26.750  -0.180  1.00  0.00    -0.550 OA
ATOM      6  O   UNL     1     -18.119  28.837  -1.106  1.00  0.00    -0.550 OA
ENDBRANCH   3   4
ENDBRANCH   2   3
ENDBRANCH   1   2
BRANCH   1   7
ATOM      7  C   UNL     1     -15.705  30.817   1.217  1.00  0.00     0.000 C 
BRANCH   7   8
ATOM      8  C   UNL     1     -16.683  31.994   1.365  1.00  0.00    -0.000 C 
BRANCH   8   9
ATOM      9  C   UNL     1     -16.228  33.240   0.585  1.00  0.00    -0.000 C 
BRANCH   9  10
ATOM     10  C   UNL     1     -17.009  33.430  -0.725  1.00  0.00    -0.003 C 
ATOM     11  C   UNL     1     -18.096  32.373  -0.927  1.00  0.00     0.004 C 
ENDBRANCH   9  10
ENDBRANCH   8   9
ENDBRANCH   7   8
ENDBRANCH   1   7
TORSDOF 7
ENDMDL
MODEL 3
REMARK VINA RESULT:    -4.845      0.997      1.731
REMARK INTER + INTRA:          -7.273
REMARK INTER:                  -6.925
REMARK INTRA:                  -0.348
REMARK UNBOUND:                -0.445
REMARK SMILES CCCCCCCCC(=O)[O-]
REMARK SMILES IDX 6 1 7 2 8 3 9 4 10 5 11 6 5 7 4 8 3 9 2 10 1 11
REMARK H PARENT
REMARK Flexibility Score: inf
ROOT
ATOM      1  C   UNL     1     -16.373  33.167   0.551  1.00  0.00     0.000 C 
ENDROOT
BRANCH   1   2
ATOM      2  C   UNL     1     -16.991  33.076  -0.853  1.00  0.00     0.006 C 
BRANCH   2   3
ATOM      3  C   UNL     1     -18.315  32.300  -0.868  1.00  0.00     0.053 C 
BRANCH   3   4
ATOM      4  C   UNL     1     -18.212  31.109  -1.769  1.00  0.00     0.041 C 
ATOM      5  O   UNL     1     -18.243  31.254  -3.019  1.00  0.00    -0.550 OA
ATOM      6  O   UNL     1     -18.129  29.832  -1.226  1.00  0.00    -0.550 OA
ENDBRANCH   3   4
ENDBRANCH   2   3
ENDBRANCH   1   2
BRANCH   1   7
ATOM      7  C   UNL     1     -16.681  31.929   1.413  1.00  0.00     0.000 C 
BRANCH   7   8
ATOM      8  C   UNL     1     -15.606  30.838   1.287  1.00  0.00    -0.000 C 
BRANCH   8   9
ATOM      9  C   UNL     1     -15.972  29.556   2.057  1.00  0.00    -0.000 C 
BRANCH   9  10
ATOM     10  C   UNL     1     -16.258  28.371   1.122  1.00  0.00    -0.003 C 
ATOM     11  C   UNL     1     -16.489  27.062   1.877  1.00  0.00     0.004 C 
ENDBRANCH   9  10
ENDBRANCH   8   9
ENDBRANCH   7   8
ENDBRANCH   1   7
TORSDOF 7
ENDMDL
MODEL 4
REMARK VINA RESULT:    -4.751      2.520      3.786
REMARK INTER + INTRA:          -7.139
REMARK INTER:                  -6.893
REMARK INTRA:                  -0.246
REMARK UNBOUND:                -0.445
REMARK SMILES CCCCCCCCC(=O)[O-]
REMARK SMILES IDX 6 1 7 2 8 3 9 4 10 5 11 6 5 7 4 8 3 9 2 10 1 11
REMARK H PARENT
REMARK Flexibility Score: inf
ROOT
ATOM      1  C   UNL     1     -18.155  31.379  -1.813  1.00  0.00     0.000 C 
ENDROOT
BRANCH   1   2
ATOM      2  C   UNL     1     -18.191  32.368  -0.637  1.00  0.00     0.006 C 
BRANCH   2   3
ATOM      3  C   UNL     1     -16.940  33.254  -0.570  1.00  0.00     0.053 C 
BRANCH   3   4
ATOM      4  C   UNL     1     -16.286  33.132   0.771  1.00  0.00     0.041 C 
ATOM      5  O   UNL     1     -16.161  32.004   1.315  1.00  0.00    -0.550 OA
ATOM      6  O   UNL     1     -15.858  34.271   1.442  1.00  0.00    -0.550 OA
ENDBRANCH   3   4
ENDBRANCH   2   3
ENDBRANCH   1   2
BRANCH   1   7
ATOM      7  C   UNL     1     -18.361  29.921  -1.364  1.00  0.00     0.000 C 
BRANCH   7   8
ATOM      8  C   UNL     1     -17.205  29.401  -0.493  1.00  0.00    -0.000 C 
BRANCH   8   9
ATOM      9  C   UNL     1     -17.263  27.878  -0.282  1.00  0.00    -0.000 C 
BRANCH   9  10
ATOM     10  C   UNL     1     -16.713  27.454   1.088  1.00  0.00    -0.003 C 
ATOM     11  C   UNL     1     -16.198  26.014   1.101  1.00  0.00     0.004 C 
ENDBRANCH   9  10
ENDBRANCH   8   9
ENDBRANCH   7   8
ENDBRANCH   1   7
TORSDOF 7
ENDMDL
MODEL 5
REMARK VINA RESULT:    -4.710      2.903      4.680
REMARK INTER + INTRA:          -7.082
REMARK INTER:                  -6.732
REMARK INTRA:                  -0.350
REMARK UNBOUND:                -0.445
REMARK SMILES CCCCCCCCC(=O)[O-]
REMARK SMILES IDX 6 1 7 2 8 3 9 4 10 5 11 6 5 7 4 8 3 9 2 10 1 11
REMARK H PARENT
REMARK Flexibility Score: inf
ROOT
ATOM      1  C   UNL     1     -16.240  29.020   1.471  1.00  0.00     0.000 C 
ENDROOT
BRANCH   1   2
ATOM      2  C   UNL     1     -15.462  30.339   1.610  1.00  0.00     0.006 C 
BRANCH   2   3
ATOM      3  C   UNL     1     -16.330  31.486   2.141  1.00  0.00     0.053 C 
BRANCH   3   4
ATOM      4  C   UNL     1     -16.649  32.452   1.042  1.00  0.00     0.041 C 
ATOM      5  O   UNL     1     -16.047  33.555   0.973  1.00  0.00    -0.550 OA
ATOM      6  O   UNL     1     -17.647  32.153   0.123  1.00  0.00    -0.550 OA
ENDBRANCH   3   4
ENDBRANCH   2   3
ENDBRANCH   1   2
BRANCH   1   7
ATOM      7  C   UNL     1     -16.591  28.694   0.008  1.00  0.00     0.000 C 
BRANCH   7   8
ATOM      8  C   UNL     1     -16.660  27.181  -0.259  1.00  0.00    -0.000 C 
BRANCH   8   9
ATOM      9  C   UNL     1     -16.884  26.364   1.025  1.00  0.00    -0.000 C 
BRANCH   9  10
ATOM     10  C   UNL     1     -18.176  25.533   0.975  1.00  0.00    -0.003 C 
ATOM     11  C   UNL     1     -18.211  24.560  -0.204  1.00  0.00     0.004 C 
ENDBRANCH   9  10
ENDBRANCH   8   9
ENDBRANCH   7   8
ENDBRANCH   1   7
TORSDOF 7
ENDMDL
MODEL 6
REMARK VINA RESULT:    -4.687      1.865      4.110
REMARK INTER + INTRA:          -7.049
REMARK INTER:                  -6.765
REMARK INTRA:                  -0.284
REMARK UNBOUND:                -0.445
REMARK SMILES CCCCCCCCC(=O)[O-]
REMARK SMILES IDX 6 1 7 2 8 3 9 4 10 5 11 6 5 7 4 8 3 9 2 10 1 11
REMARK H PARENT
REMARK Flexibility Score: inf
ROOT
ATOM      1  C   UNL     1     -15.962  29.538   1.804  1.00  0.00     0.000 C 
ENDROOT
BRANCH   1   2
ATOM      2  C   UNL     1     -16.207  28.540   0.662  1.00  0.00     0.006 C 
BRANCH   2   3
ATOM      3  C   UNL     1     -16.678  27.168   1.163  1.00  0.00     0.053 C 
BRANCH   3   4
ATOM      4  C   UNL     1     -17.477  26.472   0.106  1.00  0.00     0.041 C 
ATOM      5  O   UNL     1     -17.371  26.818  -1.099  1.00  0.00    -0.550 OA
ATOM      6  O   UNL     1     -18.376  25.473   0.459  1.00  0.00    -0.550 OA
ENDBRANCH   3   4
ENDBRANCH   2   3
ENDBRANCH   1   2
BRANCH   1   7
ATOM      7  C   UNL     1     -15.522  30.922   1.295  1.00  0.00     0.000 C 
BRANCH   7   8
ATOM      8  C   UNL     1     -16.655  31.961   1.355  1.00  0.00    -0.000 C 
BRANCH   8   9
ATOM      9  C   UNL     1     -16.292  33.271   0.634  1.00  0.00    -0.000 C 
BRANCH   9  10
ATOM     10  C   UNL     1     -16.997  33.408  -0.725  1.00  0.00    -0.003 C 
ATOM     11  C   UNL     1     -18.084  32.355  -0.939  1.00  0.00     0.004 C 
ENDBRANCH   9  10
ENDBRANCH   8   9
ENDBRANCH   7   8
ENDBRANCH   1   7
TORSDOF 7
ENDMDL
MODEL 7
REMARK VINA RESULT:    -4.628      2.300      3.939
REMARK INTER + INTRA:          -6.966
REMARK INTER:                  -6.543
REMARK INTRA:                  -0.423
REMARK UNBOUND:                -0.445
REMARK SMILES CCCCCCCCC(=O)[O-]
REMARK SMILES IDX 6 1 7 2 8 3 9 4 10 5 11 6 5 7 4 8 3 9 2 10 1 11
REMARK H PARENT
REMARK Flexibility Score: inf
ROOT
ATOM      1  C   UNL     1     -15.904  30.012   2.317  1.00  0.00     0.000 C 
ENDROOT
BRANCH   1   2
ATOM      2  C   UNL     1     -15.683  31.033   1.190  1.00  0.00     0.006 C 
BRANCH   2   3
ATOM      3  C   UNL     1     -16.689  32.191   1.233  1.00  0.00     0.053 C 
BRANCH   3   4
ATOM      4  C   UNL     1     -17.261  32.436  -0.128  1.00  0.00     0.041 C 
ATOM      5  O   UNL     1     -17.031  33.519  -0.727  1.00  0.00    -0.550 OA
ATOM      6  O   UNL     1     -18.089  31.487  -0.715  1.00  0.00    -0.550 OA
ENDBRANCH   3   4
ENDBRANCH   2   3
ENDBRANCH   1   2
BRANCH   1   7
ATOM      7  C   UNL     1     -16.215  28.602   1.785  1.00  0.00     0.000 C 
BRANCH   7   8
ATOM      8  C   UNL     1     -16.290  28.553   0.250  1.00  0.00    -0.000 C 
BRANCH   8   9
ATOM      9  C   UNL     1     -16.893  27.236  -0.270  1.00  0.00    -0.000 C 
BRANCH   9  10
ATOM     10  C   UNL     1     -16.889  26.128   0.794  1.00  0.00    -0.003 C 
ATOM     11  C   UNL     1     -18.226  25.393   0.890  1.00  0.00     0.004 C 
ENDBRANCH   9  10
ENDBRANCH   8   9
ENDBRANCH   7   8
ENDBRANCH   1   7
TORSDOF 7
ENDMDL
MODEL 8
REMARK VINA RESULT:    -4.617      3.003      4.765
REMARK INTER + INTRA:          -6.951
REMARK INTER:                  -6.680
REMARK INTRA:                  -0.271
REMARK UNBOUND:                -0.445
REMARK SMILES CCCCCCCCC(=O)[O-]
REMARK SMILES IDX 6 1 7 2 8 3 9 4 10 5 11 6 5 7 4 8 3 9 2 10 1 11
REMARK H PARENT
REMARK Flexibility Score: inf
ROOT
ATOM      1  C   UNL     1     -16.393  28.124   0.158  1.00  0.00     0.000 C 
ENDROOT
BRANCH   1   2
ATOM      2  C   UNL     1     -17.370  27.002  -0.231  1.00  0.00     0.006 C 
BRANCH   2   3
ATOM      3  C   UNL     1     -17.585  25.986   0.899  1.00  0.00     0.053 C 
BRANCH   3   4
ATOM      4  C   UNL     1     -18.520  24.904   0.456  1.00  0.00     0.041 C 
ATOM      5  O   UNL     1     -18.085  23.920  -0.198  1.00  0.00    -0.550 OA
ATOM      6  O   UNL     1     -19.879  25.007   0.724  1.00  0.00    -0.550 OA
ENDBRANCH   3   4
ENDBRANCH   2   3
ENDBRANCH   1   2
BRANCH   1   7
ATOM      7  C   UNL     1     -16.316  28.338   1.680  1.00  0.00     0.000 C 
BRANCH   7   8
ATOM      8  C   UNL     1     -15.813  29.742   2.055  1.00  0.00    -0.000 C 
BRANCH   8   9
ATOM      9  C   UNL     1     -16.052  30.773   0.937  1.00  0.00    -0.000 C 
BRANCH   9  10
ATOM     10  C   UNL     1     -16.613  32.100   1.472  1.00  0.00    -0.003 C 
ATOM     11  C   UNL     1     -16.275  33.291   0.576  1.00  0.00     0.004 C 
ENDBRANCH   9  10
ENDBRANCH   8   9
ENDBRANCH   7   8
ENDBRANCH   1   7
TORSDOF 7
ENDMDL
MODEL 9
REMARK VINA RESULT:    -4.600      4.068      6.134
REMARK INTER + INTRA:          -6.927
REMARK INTER:                  -6.551
REMARK INTRA:                  -0.376
REMARK UNBOUND:                -0.445
REMARK SMILES CCCCCCCCC(=O)[O-]
REMARK SMILES IDX 6 1 7 2 8 3 9 4 10 5 11 6 5 7 4 8 3 9 2 10 1 11
REMARK H PARENT
REMARK Flexibility Score: inf
ROOT
ATOM      1  C   UNL     1     -16.217  26.185   0.968  1.00  0.00     0.000 C 
ENDROOT
BRANCH   1   2
ATOM      2  C   UNL     1     -16.646  27.633   1.250  1.00  0.00     0.006 C 
BRANCH   2   3
ATOM      3  C   UNL     1     -16.205  28.608   0.149  1.00  0.00     0.053 C 
BRANCH   3   4
ATOM      4  C   UNL     1     -17.399  29.221  -0.514  1.00  0.00     0.041 C 
ATOM      5  O   UNL     1     -18.254  28.491  -1.081  1.00  0.00    -0.550 OA
ATOM      6  O   UNL     1     -17.541  30.602  -0.549  1.00  0.00    -0.550 OA
ENDBRANCH   3   4
ENDBRANCH   2   3
ENDBRANCH   1   2
BRANCH   1   7
ATOM      7  C   UNL     1     -17.243  25.421   0.111  1.00  0.00     0.000 C 
BRANCH   7   8
ATOM      8  C   UNL     1     -18.563  25.167   0.858  1.00  0.00    -0.000 C 
BRANCH   8   9
ATOM      9  C   UNL     1     -19.476  24.171   0.120  1.00  0.00    -0.000 C 
BRANCH   9  10
ATOM     10  C   UNL     1     -18.796  23.553  -1.112  1.00  0.00    -0.003 C 
ATOM     11  C   UNL     1     -19.697  22.565  -1.854  1.00  0.00     0.004 C 
ENDBRANCH   9  10
ENDBRANCH   8   9
ENDBRANCH   7   8
ENDBRANCH   1   7
TORSDOF 7
ENDMDL
