MODEL 1
REMARK VINA RESULT:    -3.846      0.000      0.000
REMARK INTER + INTRA:          -9.272
REMARK INTER:                  -6.994
REMARK INTRA:                  -2.278
REMARK UNBOUND:                -2.278
REMARK SMILES CCCCCCCCCCCCCCCC(=O)[O-]
REMARK SMILES IDX 9 1 10 2 11 3 12 4 13 5 14 6 15 7 16 8 17 9 18 10 8 11 7 12
REMARK SMILES IDX 6 13 5 14 4 15 3 16 2 17 1 18
REMARK H PARENT
REMARK Flexibility Score: inf
ROOT
ATOM      1  C   UNL     1      -6.748  -2.482   8.543  1.00  0.00     0.000 C 
ENDROOT
BRANCH   1   2
ATOM      2  C   UNL     1      -7.381  -3.261   7.376  1.00  0.00     0.000 C 
BRANCH   2   3
ATOM      3  C   UNL     1      -8.855  -3.663   7.577  1.00  0.00     0.000 C 
BRANCH   3   4
ATOM      4  C   UNL     1      -9.182  -5.051   7.002  1.00  0.00     0.000 C 
BRANCH   4   5
ATOM      5  C   UNL     1      -7.999  -5.677   6.240  1.00  0.00     0.000 C 
BRANCH   5   6
ATOM      6  C   UNL     1      -7.869  -7.208   6.368  1.00  0.00     0.006 C 
BRANCH   6   7
ATOM      7  C   UNL     1      -6.468  -7.760   6.055  1.00  0.00     0.053 C 
BRANCH   7   8
ATOM      8  C   UNL     1      -6.126  -8.935   6.918  1.00  0.00     0.041 C 
ATOM      9  O   UNL     1      -5.556  -9.942   6.422  1.00  0.00    -0.550 OA
ATOM     10  O   UNL     1      -6.407  -8.905   8.278  1.00  0.00    -0.550 OA
ENDBRANCH   7   8
ENDBRANCH   6   7
ENDBRANCH   5   6
ENDBRANCH   4   5
ENDBRANCH   3   4
ENDBRANCH   2   3
ENDBRANCH   1   2
BRANCH   1  11
ATOM     11  C   UNL     1      -5.612  -3.252   9.233  1.00  0.00     0.000 C 
BRANCH  11  12
ATOM     12  C   UNL     1      -5.972  -4.737   9.391  1.00  0.00    -0.000 C 
BRANCH  12  13
ATOM     13  C   UNL     1      -5.005  -5.674   8.645  1.00  0.00    -0.000 C 
BRANCH  13  14
ATOM     14  C   UNL     1      -3.969  -4.963   7.756  1.00  0.00    -0.000 C 
BRANCH  14  15
ATOM     15  C   UNL     1      -3.832  -5.601   6.366  1.00  0.00    -0.000 C 
BRANCH  15  16
ATOM     16  C   UNL     1      -4.576  -4.778   5.307  1.00  0.00    -0.000 C 
BRANCH  16  17
ATOM     17  C   UNL     1      -3.739  -3.576   4.856  1.00  0.00    -0.003 C 
ATOM     18  C   UNL     1      -4.414  -2.262   5.232  1.00  0.00     0.004 C 
ENDBRANCH  16  17
ENDBRANCH  15  16
ENDBRANCH  14  15
ENDBRANCH  13  14
ENDBRANCH  12  13
ENDBRANCH  11  12
ENDBRANCH   1  11
TORSDOF 14
ENDMDL
MODEL 2
REMARK VINA RESULT:    -3.802     18.641     21.627
REMARK INTER + INTRA:          -9.192
REMARK INTER:                  -7.111
REMARK INTRA:                  -2.081
REMARK UNBOUND:                -2.278
REMARK SMILES CCCCCCCCCCCCCCCC(=O)[O-]
REMARK SMILES IDX 9 1 10 2 11 3 12 4 13 5 14 6 15 7 16 8 17 9 18 10 8 11 7 12
REMARK SMILES IDX 6 13 5 14 4 15 3 16 2 17 1 18
REMARK H PARENT
REMARK Flexibility Score: inf
ROOT
ATOM      1  C   UNL     1       0.091   7.345  -8.768  1.00  0.00     0.000 C 
ENDROOT
BRANCH   1   2
ATOM      2  C   UNL     1       0.310   6.144  -9.706  1.00  0.00     0.000 C 
BRANCH   2   3
ATOM      3  C   UNL     1       0.890   4.884  -9.036  1.00  0.00     0.000 C 
BRANCH   3   4
ATOM      4  C   UNL     1       1.817   5.207  -7.852  1.00  0.00     0.000 C 
BRANCH   4   5
ATOM      5  C   UNL     1       1.230   4.774  -6.496  1.00  0.00     0.000 C 
BRANCH   5   6
ATOM      6  C   UNL     1       1.678   5.615  -5.284  1.00  0.00     0.006 C 
BRANCH   6   7
ATOM      7  C   UNL     1       2.514   6.855  -5.640  1.00  0.00     0.053 C 
BRANCH   7   8
ATOM      8  C   UNL     1       2.621   7.806  -4.488  1.00  0.00     0.041 C 
ATOM      9  O   UNL     1       2.514   7.387  -3.306  1.00  0.00    -0.550 OA
ATOM     10  O   UNL     1       2.869   9.153  -4.720  1.00  0.00    -0.550 OA
ENDBRANCH   7   8
ENDBRANCH   6   7
ENDBRANCH   5   6
ENDBRANCH   4   5
ENDBRANCH   3   4
ENDBRANCH   2   3
ENDBRANCH   1   2
BRANCH   1  11
ATOM     11  C   UNL     1       0.731   8.639  -9.291  1.00  0.00     0.000 C 
BRANCH  11  12
ATOM     12  C   UNL     1       1.466   9.382  -8.166  1.00  0.00    -0.000 C 
BRANCH  12  13
ATOM     13  C   UNL     1       2.999   9.280  -8.280  1.00  0.00    -0.000 C 
BRANCH  13  14
ATOM     14  C   UNL     1       3.507   8.230  -9.283  1.00  0.00    -0.000 C 
BRANCH  14  15
ATOM     15  C   UNL     1       4.743   7.469  -8.782  1.00  0.00    -0.000 C 
BRANCH  15  16
ATOM     16  C   UNL     1       5.281   8.087  -7.487  1.00  0.00    -0.000 C 
BRANCH  16  17
ATOM     17  C   UNL     1       6.801   8.280  -7.558  1.00  0.00    -0.003 C 
ATOM     18  C   UNL     1       7.288   8.289  -9.002  1.00  0.00     0.004 C 
ENDBRANCH  16  17
ENDBRANCH  15  16
ENDBRANCH  14  15
ENDBRANCH  13  14
ENDBRANCH  12  13
ENDBRANCH  11  12
ENDBRANCH   1  11
TORSDOF 14
ENDMDL
MODEL 3
REMARK VINA RESULT:    -3.787     18.431     21.472
REMARK INTER + INTRA:          -9.165
REMARK INTER:                  -7.118
REMARK INTRA:                  -2.047
REMARK UNBOUND:                -2.278
REMARK SMILES CCCCCCCCCCCCCCCC(=O)[O-]
REMARK SMILES IDX 9 1 10 2 11 3 12 4 13 5 14 6 15 7 16 8 17 9 18 10 8 11 7 12
REMARK SMILES IDX 6 13 5 14 4 15 3 16 2 17 1 18
REMARK H PARENT
REMARK Flexibility Score: inf
ROOT
ATOM      1  C   UNL     1       1.027   8.669  -6.772  1.00  0.00     0.000 C 
ENDROOT
BRANCH   1   2
ATOM      2  C   UNL     1       1.143   9.121  -8.239  1.00  0.00     0.000 C 
BRANCH   2   3
ATOM      3  C   UNL     1       0.971   8.004  -9.287  1.00  0.00     0.000 C 
BRANCH   3   4
ATOM      4  C   UNL     1       2.311   7.469  -9.817  1.00  0.00     0.000 C 
BRANCH   4   5
ATOM      5  C   UNL     1       2.469   5.949  -9.621  1.00  0.00     0.000 C 
BRANCH   5   6
ATOM      6  C   UNL     1       1.321   5.260  -8.856  1.00  0.00     0.006 C 
BRANCH   6   7
ATOM      7  C   UNL     1       1.616   4.981  -7.374  1.00  0.00     0.053 C 
BRANCH   7   8
ATOM      8  C   UNL     1       0.517   4.199  -6.723  1.00  0.00     0.041 C 
ATOM      9  O   UNL     1       0.256   4.365  -5.503  1.00  0.00    -0.550 OA
ATOM     10  O   UNL     1      -0.241   3.309  -7.473  1.00  0.00    -0.550 OA
ENDBRANCH   7   8
ENDBRANCH   6   7
ENDBRANCH   5   6
ENDBRANCH   4   5
ENDBRANCH   3   4
ENDBRANCH   2   3
ENDBRANCH   1   2
BRANCH   1  11
ATOM     11  C   UNL     1       1.580   9.702  -5.780  1.00  0.00     0.000 C 
BRANCH  11  12
ATOM     12  C   UNL     1       2.972   9.292  -5.279  1.00  0.00    -0.000 C 
BRANCH  12  13
ATOM     13  C   UNL     1       3.404   7.900  -5.776  1.00  0.00    -0.000 C 
BRANCH  13  14
ATOM     14  C   UNL     1       4.648   7.891  -6.683  1.00  0.00    -0.000 C 
BRANCH  14  15
ATOM     15  C   UNL     1       4.862   9.221  -7.421  1.00  0.00    -0.000 C 
BRANCH  15  16
ATOM     16  C   UNL     1       5.308   8.981  -8.868  1.00  0.00    -0.000 C 
BRANCH  16  17
ATOM     17  C   UNL     1       6.368   7.876  -8.942  1.00  0.00    -0.003 C 
ATOM     18  C   UNL     1       7.449   8.216  -9.963  1.00  0.00     0.004 C 
ENDBRANCH  16  17
ENDBRANCH  15  16
ENDBRANCH  14  15
ENDBRANCH  13  14
ENDBRANCH  12  13
ENDBRANCH  11  12
ENDBRANCH   1  11
TORSDOF 14
ENDMDL
MODEL 4
REMARK VINA RESULT:    -3.771     19.445     22.075
REMARK INTER + INTRA:          -9.135
REMARK INTER:                  -6.782
REMARK INTRA:                  -2.353
REMARK UNBOUND:                -2.278
REMARK SMILES CCCCCCCCCCCCCCCC(=O)[O-]
REMARK SMILES IDX 9 1 10 2 11 3 12 4 13 5 14 6 15 7 16 8 17 9 18 10 8 11 7 12
REMARK SMILES IDX 6 13 5 14 4 15 3 16 2 17 1 18
REMARK H PARENT
REMARK Flexibility Score: inf
ROOT
ATOM      1  C   UNL     1       1.394   9.478  -5.994  1.00  0.00     0.000 C 
ENDROOT
BRANCH   1   2
ATOM      2  C   UNL     1       1.462   9.837  -7.489  1.00  0.00     0.000 C 
BRANCH   2   3
ATOM      3  C   UNL     1       1.044   8.711  -8.454  1.00  0.00     0.000 C 
BRANCH   3   4
ATOM      4  C   UNL     1       2.203   8.215  -9.335  1.00  0.00     0.000 C 
BRANCH   4   5
ATOM      5  C   UNL     1       3.576   8.734  -8.867  1.00  0.00     0.000 C 
BRANCH   5   6
ATOM      6  C   UNL     1       4.581   7.647  -8.437  1.00  0.00     0.006 C 
BRANCH   6   7
ATOM      7  C   UNL     1       5.824   8.177  -7.705  1.00  0.00     0.053 C 
BRANCH   7   8
ATOM      8  C   UNL     1       7.027   8.208  -8.598  1.00  0.00     0.041 C 
ATOM      9  O   UNL     1       6.899   8.447  -9.827  1.00  0.00    -0.550 OA
ATOM     10  O   UNL     1       8.293   8.003  -8.065  1.00  0.00    -0.550 OA
ENDBRANCH   7   8
ENDBRANCH   6   7
ENDBRANCH   5   6
ENDBRANCH   4   5
ENDBRANCH   3   4
ENDBRANCH   2   3
ENDBRANCH   1   2
BRANCH   1  11
ATOM     11  C   UNL     1       2.747   9.623  -5.280  1.00  0.00     0.000 C 
BRANCH  11  12
ATOM     12  C   UNL     1       3.326   8.248  -4.916  1.00  0.00    -0.000 C 
BRANCH  12  13
ATOM     13  C   UNL     1       2.262   7.135  -4.888  1.00  0.00    -0.000 C 
BRANCH  13  14
ATOM     14  C   UNL     1       2.369   6.105  -6.026  1.00  0.00    -0.000 C 
BRANCH  14  15
ATOM     15  C   UNL     1       1.254   5.050  -5.988  1.00  0.00    -0.000 C 
BRANCH  15  16
ATOM     16  C   UNL     1       0.420   5.083  -7.274  1.00  0.00    -0.000 C 
BRANCH  16  17
ATOM     17  C   UNL     1       1.308   4.909  -8.512  1.00  0.00    -0.003 C 
ATOM     18  C   UNL     1       0.472   4.823  -9.783  1.00  0.00     0.004 C 
ENDBRANCH  16  17
ENDBRANCH  15  16
ENDBRANCH  14  15
ENDBRANCH  13  14
ENDBRANCH  12  13
ENDBRANCH  11  12
ENDBRANCH   1  11
TORSDOF 14
ENDMDL
MODEL 5
REMARK VINA RESULT:    -3.765     19.191     22.396
REMARK INTER + INTRA:          -9.125
REMARK INTER:                  -6.530
REMARK INTRA:                  -2.594
REMARK UNBOUND:                -2.278
REMARK SMILES CCCCCCCCCCCCCCCC(=O)[O-]
REMARK SMILES IDX 9 1 10 2 11 3 12 4 13 5 14 6 15 7 16 8 17 9 18 10 8 11 7 12
REMARK SMILES IDX 6 13 5 14 4 15 3 16 2 17 1 18
REMARK H PARENT
REMARK Flexibility Score: inf
ROOT
ATOM      1  C   UNL     1       1.793   9.049  -5.632  1.00  0.00     0.000 C 
ENDROOT
BRANCH   1   2
ATOM      2  C   UNL     1       2.885   8.033  -5.250  1.00  0.00     0.000 C 
BRANCH   2   3
ATOM      3  C   UNL     1       4.104   7.994  -6.191  1.00  0.00     0.000 C 
BRANCH   3   4
ATOM      4  C   UNL     1       3.983   6.919  -7.283  1.00  0.00     0.000 C 
BRANCH   4   5
ATOM      5  C   UNL     1       4.357   7.441  -8.683  1.00  0.00     0.000 C 
BRANCH   5   6
ATOM      6  C   UNL     1       4.850   8.902  -8.732  1.00  0.00     0.006 C 
BRANCH   6   7
ATOM      7  C   UNL     1       6.238   9.088  -9.366  1.00  0.00     0.053 C 
BRANCH   7   8
ATOM      8  C   UNL     1       7.296   8.328  -8.628  1.00  0.00     0.041 C 
ATOM      9  O   UNL     1       7.399   8.435  -7.378  1.00  0.00    -0.550 OA
ATOM     10  O   UNL     1       8.149   7.477  -9.318  1.00  0.00    -0.550 OA
ENDBRANCH   7   8
ENDBRANCH   6   7
ENDBRANCH   5   6
ENDBRANCH   4   5
ENDBRANCH   3   4
ENDBRANCH   2   3
ENDBRANCH   1   2
BRANCH   1  11
ATOM     11  C   UNL     1       0.841   8.527  -6.719  1.00  0.00     0.000 C 
BRANCH  11  12
ATOM     12  C   UNL     1       1.121   9.209  -8.067  1.00  0.00    -0.000 C 
BRANCH  12  13
ATOM     13  C   UNL     1       0.764   8.323  -9.274  1.00  0.00    -0.000 C 
BRANCH  13  14
ATOM     14  C   UNL     1       0.048   7.006  -8.924  1.00  0.00    -0.000 C 
BRANCH  14  15
ATOM     15  C   UNL     1       0.723   5.773  -9.543  1.00  0.00    -0.000 C 
BRANCH  15  16
ATOM     16  C   UNL     1       1.206   4.806  -8.456  1.00  0.00    -0.000 C 
BRANCH  16  17
ATOM     17  C   UNL     1       0.303   4.872  -7.219  1.00  0.00    -0.003 C 
ATOM     18  C   UNL     1       1.124   4.849  -5.935  1.00  0.00     0.004 C 
ENDBRANCH  16  17
ENDBRANCH  15  16
ENDBRANCH  14  15
ENDBRANCH  13  14
ENDBRANCH  12  13
ENDBRANCH  11  12
ENDBRANCH   1  11
TORSDOF 14
ENDMDL
MODEL 6
REMARK VINA RESULT:    -3.753     18.658     21.706
REMARK INTER + INTRA:          -9.103
REMARK INTER:                  -6.807
REMARK INTRA:                  -2.296
REMARK UNBOUND:                -2.278
REMARK SMILES CCCCCCCCCCCCCCCC(=O)[O-]
REMARK SMILES IDX 9 1 10 2 11 3 12 4 13 5 14 6 15 7 16 8 17 9 18 10 8 11 7 12
REMARK SMILES IDX 6 13 5 14 4 15 3 16 2 17 1 18
REMARK H PARENT
REMARK Flexibility Score: inf
ROOT
ATOM      1  C   UNL     1       3.096   8.329  -5.226  1.00  0.00     0.000 C 
ENDROOT
BRANCH   1   2
ATOM      2  C   UNL     1       1.638   8.610  -5.630  1.00  0.00     0.000 C 
BRANCH   2   3
ATOM      3  C   UNL     1       1.461   9.469  -6.897  1.00  0.00     0.000 C 
BRANCH   3   4
ATOM      4  C   UNL     1       0.801   8.701  -8.054  1.00  0.00     0.000 C 
BRANCH   4   5
ATOM      5  C   UNL     1       0.193   7.357  -7.612  1.00  0.00     0.000 C 
BRANCH   5   6
ATOM      6  C   UNL     1       0.605   6.136  -8.460  1.00  0.00     0.006 C 
BRANCH   6   7
ATOM      7  C   UNL     1       1.350   5.039  -7.683  1.00  0.00     0.053 C 
BRANCH   7   8
ATOM      8  C   UNL     1       0.413   4.188  -6.881  1.00  0.00     0.041 C 
ATOM      9  O   UNL     1       0.282   4.381  -5.644  1.00  0.00    -0.550 OA
ATOM     10  O   UNL     1      -0.338   3.202  -7.506  1.00  0.00    -0.550 OA
ENDBRANCH   7   8
ENDBRANCH   6   7
ENDBRANCH   5   6
ENDBRANCH   4   5
ENDBRANCH   3   4
ENDBRANCH   2   3
ENDBRANCH   1   2
BRANCH   1  11
ATOM     11  C   UNL     1       4.092   8.557  -6.373  1.00  0.00     0.000 C 
BRANCH  11  12
ATOM     12  C   UNL     1       4.346   7.255  -7.147  1.00  0.00    -0.000 C 
BRANCH  12  13
ATOM     13  C   UNL     1       4.267   7.438  -8.674  1.00  0.00    -0.000 C 
BRANCH  13  14
ATOM     14  C   UNL     1       4.316   8.898  -9.157  1.00  0.00    -0.000 C 
BRANCH  14  15
ATOM     15  C   UNL     1       5.666   9.280  -9.779  1.00  0.00    -0.000 C 
BRANCH  15  16
ATOM     16  C   UNL     1       6.615   9.860  -8.724  1.00  0.00    -0.000 C 
BRANCH  16  17
ATOM     17  C   UNL     1       7.728   8.865  -8.376  1.00  0.00    -0.003 C 
ATOM     18  C   UNL     1       7.933   7.853  -9.498  1.00  0.00     0.004 C 
ENDBRANCH  16  17
ENDBRANCH  15  16
ENDBRANCH  14  15
ENDBRANCH  13  14
ENDBRANCH  12  13
ENDBRANCH  11  12
ENDBRANCH   1  11
TORSDOF 14
ENDMDL
MODEL 7
REMARK VINA RESULT:    -3.673      2.175      4.331
REMARK INTER + INTRA:          -8.957
REMARK INTER:                  -6.449
REMARK INTRA:                  -2.508
REMARK UNBOUND:                -2.278
REMARK SMILES CCCCCCCCCCCCCCCC(=O)[O-]
REMARK SMILES IDX 9 1 10 2 11 3 12 4 13 5 14 6 15 7 16 8 17 9 18 10 8 11 7 12
REMARK SMILES IDX 6 13 5 14 4 15 3 16 2 17 1 18
REMARK H PARENT
REMARK Flexibility Score: inf
ROOT
ATOM      1  C   UNL     1      -5.981  -3.195   7.030  1.00  0.00     0.000 C 
ENDROOT
BRANCH   1   2
ATOM      2  C   UNL     1      -4.842  -3.062   6.003  1.00  0.00     0.000 C 
BRANCH   2   3
ATOM      3  C   UNL     1      -4.434  -4.372   5.302  1.00  0.00     0.000 C 
BRANCH   3   4
ATOM      4  C   UNL     1      -4.132  -5.512   6.290  1.00  0.00     0.000 C 
BRANCH   4   5
ATOM      5  C   UNL     1      -5.033  -6.743   6.077  1.00  0.00     0.000 C 
BRANCH   5   6
ATOM      6  C   UNL     1      -6.390  -6.459   5.402  1.00  0.00     0.006 C 
BRANCH   6   7
ATOM      7  C   UNL     1      -7.577  -7.230   6.002  1.00  0.00     0.053 C 
BRANCH   7   8
ATOM      8  C   UNL     1      -8.890  -6.626   5.610  1.00  0.00     0.041 C 
ATOM      9  O   UNL     1      -9.154  -5.432   5.908  1.00  0.00    -0.550 OA
ATOM     10  O   UNL     1      -9.811  -7.374   4.887  1.00  0.00    -0.550 OA
ENDBRANCH   7   8
ENDBRANCH   6   7
ENDBRANCH   5   6
ENDBRANCH   4   5
ENDBRANCH   3   4
ENDBRANCH   2   3
ENDBRANCH   1   2
BRANCH   1  11
ATOM     11  C   UNL     1      -5.527  -2.916   8.470  1.00  0.00     0.000 C 
BRANCH  11  12
ATOM     12  C   UNL     1      -6.386  -3.695   9.477  1.00  0.00    -0.000 C 
BRANCH  12  13
ATOM     13  C   UNL     1      -7.176  -4.847   8.829  1.00  0.00    -0.000 C 
BRANCH  13  14
ATOM     14  C   UNL     1      -6.863  -6.246   9.391  1.00  0.00    -0.000 C 
BRANCH  14  15
ATOM     15  C   UNL     1      -5.367  -6.464   9.657  1.00  0.00    -0.000 C 
BRANCH  15  16
ATOM     16  C   UNL     1      -5.066  -7.943   9.929  1.00  0.00    -0.000 C 
BRANCH  16  17
ATOM     17  C   UNL     1      -6.202  -8.839   9.422  1.00  0.00    -0.003 C 
ATOM     18  C   UNL     1      -5.761  -9.659   8.215  1.00  0.00     0.004 C 
ENDBRANCH  16  17
ENDBRANCH  15  16
ENDBRANCH  14  15
ENDBRANCH  13  14
ENDBRANCH  12  13
ENDBRANCH  11  12
ENDBRANCH   1  11
TORSDOF 14
ENDMDL
MODEL 8
REMARK VINA RESULT:    -3.609      1.794      4.785
REMARK INTER + INTRA:          -8.841
REMARK INTER:                  -6.444
REMARK INTRA:                  -2.397
REMARK UNBOUND:                -2.278
REMARK SMILES CCCCCCCCCCCCCCCC(=O)[O-]
REMARK SMILES IDX 9 1 10 2 11 3 12 4 13 5 14 6 15 7 16 8 17 9 18 10 8 11 7 12
REMARK SMILES IDX 6 13 5 14 4 15 3 16 2 17 1 18
REMARK H PARENT
REMARK Flexibility Score: inf
ROOT
ATOM      1  C   UNL     1      -5.324  -5.557   5.295  1.00  0.00     0.000 C 
ENDROOT
BRANCH   1   2
ATOM      2  C   UNL     1      -4.309  -4.412   5.457  1.00  0.00     0.000 C 
BRANCH   2   3
ATOM      3  C   UNL     1      -4.878  -3.108   6.050  1.00  0.00     0.000 C 
BRANCH   3   4
ATOM      4  C   UNL     1      -6.163  -3.331   6.864  1.00  0.00     0.000 C 
BRANCH   4   5
ATOM      5  C   UNL     1      -6.081  -2.744   8.286  1.00  0.00     0.000 C 
BRANCH   5   6
ATOM      6  C   UNL     1      -5.078  -3.437   9.229  1.00  0.00     0.006 C 
BRANCH   6   7
ATOM      7  C   UNL     1      -5.439  -4.886   9.595  1.00  0.00     0.053 C 
BRANCH   7   8
ATOM      8  C   UNL     1      -4.258  -5.800   9.488  1.00  0.00     0.041 C 
ATOM      9  O   UNL     1      -4.347  -6.999   9.860  1.00  0.00    -0.550 OA
ATOM     10  O   UNL     1      -3.066  -5.334   8.948  1.00  0.00    -0.550 OA
ENDBRANCH   7   8
ENDBRANCH   6   7
ENDBRANCH   5   6
ENDBRANCH   4   5
ENDBRANCH   3   4
ENDBRANCH   2   3
ENDBRANCH   1   2
BRANCH   1  11
ATOM     11  C   UNL     1      -4.961  -6.802   6.118  1.00  0.00     0.000 C 
BRANCH  11  12
ATOM     12  C   UNL     1      -5.967  -7.936   5.871  1.00  0.00    -0.000 C 
BRANCH  12  13
ATOM     13  C   UNL     1      -6.341  -8.700   7.155  1.00  0.00    -0.000 C 
BRANCH  13  14
ATOM     14  C   UNL     1      -7.130  -7.880   8.191  1.00  0.00    -0.000 C 
BRANCH  14  15
ATOM     15  C   UNL     1      -8.537  -7.498   7.710  1.00  0.00    -0.000 C 
BRANCH  15  16
ATOM     16  C   UNL     1      -8.644  -5.989   7.463  1.00  0.00    -0.000 C 
BRANCH  16  17
ATOM     17  C   UNL     1      -9.088  -5.695   6.026  1.00  0.00    -0.003 C 
ATOM     18  C   UNL     1      -9.535  -6.968   5.316  1.00  0.00     0.004 C 
ENDBRANCH  16  17
ENDBRANCH  15  16
ENDBRANCH  14  15
ENDBRANCH  13  14
ENDBRANCH  12  13
ENDBRANCH  11  12
ENDBRANCH   1  11
TORSDOF 14
ENDMDL
MODEL 9
REMARK VINA RESULT:    -3.609     19.415     22.353
REMARK INTER + INTRA:          -8.840
REMARK INTER:                  -6.675
REMARK INTRA:                  -2.166
REMARK UNBOUND:                -2.278
REMARK SMILES CCCCCCCCCCCCCCCC(=O)[O-]
REMARK SMILES IDX 9 1 10 2 11 3 12 4 13 5 14 6 15 7 16 8 17 9 18 10 8 11 7 12
REMARK SMILES IDX 6 13 5 14 4 15 3 16 2 17 1 18
REMARK H PARENT
REMARK Flexibility Score: inf
ROOT
ATOM      1  C   UNL     1      -0.006   6.945  -9.137  1.00  0.00     0.000 C 
ENDROOT
BRANCH   1   2
ATOM      2  C   UNL     1       0.669   8.094  -9.906  1.00  0.00     0.000 C 
BRANCH   2   3
ATOM      3  C   UNL     1       2.029   8.552  -9.345  1.00  0.00     0.000 C 
BRANCH   3   4
ATOM      4  C   UNL     1       3.219   7.818  -9.985  1.00  0.00     0.000 C 
BRANCH   4   5
ATOM      5  C   UNL     1       4.253   7.337  -8.950  1.00  0.00     0.000 C 
BRANCH   5   6
ATOM      6  C   UNL     1       4.787   8.425  -7.997  1.00  0.00     0.006 C 
BRANCH   6   7
ATOM      7  C   UNL     1       6.177   8.133  -7.407  1.00  0.00     0.053 C 
BRANCH   7   8
ATOM      8  C   UNL     1       7.276   8.642  -8.288  1.00  0.00     0.041 C 
ATOM      9  O   UNL     1       7.270   9.837  -8.685  1.00  0.00    -0.550 OA
ATOM     10  O   UNL     1       8.324   7.804  -8.645  1.00  0.00    -0.550 OA
ENDBRANCH   7   8
ENDBRANCH   6   7
ENDBRANCH   5   6
ENDBRANCH   4   5
ENDBRANCH   3   4
ENDBRANCH   2   3
ENDBRANCH   1   2
BRANCH   1  11
ATOM     11  C   UNL     1       0.367   5.557  -9.680  1.00  0.00     0.000 C 
BRANCH  11  12
ATOM     12  C   UNL     1       1.189   4.767  -8.652  1.00  0.00    -0.000 C 
BRANCH  12  13
ATOM     13  C   UNL     1       0.403   4.454  -7.365  1.00  0.00    -0.000 C 
BRANCH  13  14
ATOM     14  C   UNL     1       1.063   4.946  -6.065  1.00  0.00    -0.000 C 
BRANCH  14  15
ATOM     15  C   UNL     1       2.246   5.892  -6.312  1.00  0.00    -0.000 C 
BRANCH  15  16
ATOM     16  C   UNL     1       1.885   7.334  -5.937  1.00  0.00    -0.000 C 
BRANCH  16  17
ATOM     17  C   UNL     1       2.855   7.890  -4.888  1.00  0.00    -0.003 C 
ATOM     18  C   UNL     1       2.990   9.404  -5.009  1.00  0.00     0.004 C 
ENDBRANCH  16  17
ENDBRANCH  15  16
ENDBRANCH  14  15
ENDBRANCH  13  14
ENDBRANCH  12  13
ENDBRANCH  11  12
ENDBRANCH   1  11
TORSDOF 14
ENDMDL
