MODEL 1
REMARK VINA RESULT:    -2.368      0.000      0.000
REMARK INTER + INTRA:          -2.483
REMARK INTER:                  -3.613
REMARK INTRA:                   1.130
REMARK UNBOUND:                 1.130
REMARK SMILES CC1=CCC[C@H](C)C(=O)C[C@H](C(C)C)C(=O)C1
REMARK SMILES IDX 8 1 9 2 6 3 7 4 5 5 4 6 3 7 2 8 1 9 10 11 11 12 15 13 16 14
REMARK SMILES IDX 17 15 12 17 13 18 14 19
REMARK H PARENT
REMARK Flexibility Score: 70.00
ROOT
ATOM      1  C   UNL     1      28.073  39.940  18.621  1.00  0.00     0.136 C 
ATOM      2  O   UNL     1      29.125  40.492  18.907  1.00  0.00    -0.299 OA
ENDROOT
BRANCH   1   3
ATOM      3  C   UNL     1      28.121  38.593  17.925  1.00  0.00     0.053 C 
ATOM      4  C   UNL     1      28.465  38.760  16.440  1.00  0.00     0.016 C 
BRANCH   3   5
ATOM      5  C   UNL     1      29.104  37.630  18.616  1.00  0.00     0.015 C 
BRANCH   5   6
ATOM      6  C   UNL     1      28.527  37.055  19.922  1.00  0.00     0.028 C 
BRANCH   6   7
ATOM      7  C   UNL     1      27.022  37.003  19.861  1.00  0.00    -0.028 C 
ATOM      8  C   UNL     1      26.197  37.645  20.720  1.00  0.00    -0.070 CG0
ATOM      9  C   UNL     1      24.712  37.434  20.566  1.00  0.00     0.039 C 
ATOM     10  G   UNL     1      26.702  38.574  21.815  1.00  0.00     0.000 G0
ENDBRANCH   6   7
ENDBRANCH   5   6
ENDBRANCH   3   5
ENDBRANCH   1   3
BRANCH   1  11
ATOM     11  C   UNL     1      26.773  40.616  18.999  1.00  0.00     0.087 C 
BRANCH  11  12
ATOM     12  C   UNL     1      26.662  40.868  20.527  1.00  0.00     0.066 C 
BRANCH  12  13
ATOM     13  C   UNL     1      27.405  39.803  21.322  1.00  0.00     0.140 C 
ATOM     14  O   UNL     1      28.582  39.967  21.607  1.00  0.00    -0.299 OA
BRANCH  13  15
ATOM     15  C   UNL     1      26.693  38.572  21.827  1.00  0.00     0.106 CG0
ATOM     16  G   UNL     1      26.230  37.669  20.693  1.00  0.00     0.000 G0
ENDBRANCH  13  15
ENDBRANCH  12  13
BRANCH  12  17
ATOM     17  C   UNL     1      27.108  42.314  20.910  1.00  0.00    -0.006 C 
ATOM     18  C   UNL     1      26.687  43.335  19.843  1.00  0.00     0.008 C 
ATOM     19  C   UNL     1      26.627  42.770  22.298  1.00  0.00     0.008 C 
ENDBRANCH  12  17
ENDBRANCH  11  12
ENDBRANCH   1  11
TORSDOF 1
ENDMDL
MODEL 2
REMARK VINA RESULT:    -1.558      1.765      3.969
REMARK INTER + INTRA:          -1.247
REMARK INTER:                  -2.537
REMARK INTRA:                   1.290
REMARK UNBOUND:                 1.130
REMARK SMILES CC1=CCC[C@H](C)C(=O)C[C@H](C(C)C)C(=O)C1
REMARK SMILES IDX 8 1 9 2 6 3 7 4 5 5 4 6 3 7 2 8 1 9 10 11 11 12 15 13 16 14
REMARK SMILES IDX 17 15 12 17 13 18 14 19
REMARK H PARENT
REMARK Flexibility Score: 70.00
ROOT
ATOM      1  C   UNL     1      26.951  38.720  18.041  1.00  0.00     0.136 C 
ATOM      2  O   UNL     1      26.422  38.446  16.974  1.00  0.00    -0.299 OA
ENDROOT
BRANCH   1   3
ATOM      3  C   UNL     1      28.441  39.001  18.068  1.00  0.00     0.053 C 
ATOM      4  C   UNL     1      29.121  38.450  16.808  1.00  0.00     0.016 C 
BRANCH   3   5
ATOM      5  C   UNL     1      28.734  40.503  18.243  1.00  0.00     0.015 C 
BRANCH   5   6
ATOM      6  C   UNL     1      29.053  40.862  19.704  1.00  0.00     0.028 C 
BRANCH   6   7
ATOM      7  C   UNL     1      28.429  42.182  20.076  1.00  0.00    -0.028 C 
ATOM      8  C   UNL     1      27.178  42.327  20.573  1.00  0.00    -0.070 CG0
ATOM      9  C   UNL     1      26.676  43.725  20.828  1.00  0.00     0.039 C 
ATOM     10  G   UNL     1      26.273  41.145  20.894  1.00  0.00     0.000 G0
ENDBRANCH   6   7
ENDBRANCH   5   6
ENDBRANCH   3   5
ENDBRANCH   1   3
BRANCH   1  11
ATOM     11  C   UNL     1      26.086  38.793  19.281  1.00  0.00     0.087 C 
BRANCH  11  12
ATOM     12  C   UNL     1      26.910  38.622  20.585  1.00  0.00     0.066 C 
BRANCH  12  13
ATOM     13  C   UNL     1      26.982  39.923  21.374  1.00  0.00     0.140 C 
ATOM     14  O   UNL     1      27.687  39.993  22.369  1.00  0.00    -0.299 OA
BRANCH  13  15
ATOM     15  C   UNL     1      26.246  41.155  20.909  1.00  0.00     0.106 CG0
ATOM     16  G   UNL     1      27.191  42.309  20.602  1.00  0.00     0.000 G0
ENDBRANCH  13  15
ENDBRANCH  12  13
BRANCH  12  17
ATOM     17  C   UNL     1      26.388  37.432  21.449  1.00  0.00    -0.006 C 
ATOM     18  C   UNL     1      24.885  37.196  21.234  1.00  0.00     0.008 C 
ATOM     19  C   UNL     1      27.164  36.120  21.243  1.00  0.00     0.008 C 
ENDBRANCH  12  17
ENDBRANCH  11  12
ENDBRANCH   1  11
TORSDOF 1
ENDMDL
MODEL 3
REMARK VINA RESULT:    -1.437      1.864      3.295
REMARK INTER + INTRA:          -1.063
REMARK INTER:                  -2.304
REMARK INTRA:                   1.241
REMARK UNBOUND:                 1.130
REMARK SMILES CC1=CCC[C@H](C)C(=O)C[C@H](C(C)C)C(=O)C1
REMARK SMILES IDX 8 1 9 2 6 3 7 4 5 5 4 6 3 7 2 8 1 9 10 11 11 12 15 13 16 14
REMARK SMILES IDX 17 15 12 17 13 18 14 19
REMARK H PARENT
REMARK Flexibility Score: 70.00
ROOT
ATOM      1  C   UNL     1      28.112  36.740  20.098  1.00  0.00     0.136 C 
ATOM      2  O   UNL     1      29.085  37.282  20.603  1.00  0.00    -0.299 OA
ENDROOT
BRANCH   1   3
ATOM      3  C   UNL     1      27.596  35.450  20.707  1.00  0.00     0.053 C 
ATOM      4  C   UNL     1      28.533  34.281  20.378  1.00  0.00     0.016 C 
BRANCH   3   5
ATOM      5  C   UNL     1      27.388  35.582  22.228  1.00  0.00     0.015 C 
BRANCH   5   6
ATOM      6  C   UNL     1      26.189  36.482  22.570  1.00  0.00     0.028 C 
BRANCH   6   7
ATOM      7  C   UNL     1      25.060  36.257  21.598  1.00  0.00    -0.028 C 
ATOM      8  C   UNL     1      24.462  37.234  20.876  1.00  0.00    -0.070 CG0
ATOM      9  C   UNL     1      23.298  36.852  19.997  1.00  0.00     0.039 C 
ATOM     10  G   UNL     1      24.924  38.684  20.905  1.00  0.00     0.000 G0
ENDBRANCH   6   7
ENDBRANCH   5   6
ENDBRANCH   3   5
ENDBRANCH   1   3
BRANCH   1  11
ATOM     11  C   UNL     1      27.453  37.398  18.905  1.00  0.00     0.087 C 
BRANCH  11  12
ATOM     12  C   UNL     1      26.927  38.820  19.233  1.00  0.00     0.066 C 
BRANCH  12  13
ATOM     13  C   UNL     1      26.368  38.896  20.648  1.00  0.00     0.140 C 
ATOM     14  O   UNL     1      27.110  39.165  21.581  1.00  0.00    -0.299 OA
BRANCH  13  15
ATOM     15  C   UNL     1      24.895  38.710  20.913  1.00  0.00     0.106 CG0
ATOM     16  G   UNL     1      24.478  37.247  20.851  1.00  0.00     0.000 G0
ENDBRANCH  13  15
ENDBRANCH  12  13
BRANCH  12  17
ATOM     17  C   UNL     1      28.005  39.915  18.962  1.00  0.00    -0.006 C 
ATOM     18  C   UNL     1      28.811  39.611  17.689  1.00  0.00     0.008 C 
ATOM     19  C   UNL     1      27.444  41.347  18.902  1.00  0.00     0.008 C 
ENDBRANCH  12  17
ENDBRANCH  11  12
ENDBRANCH   1  11
TORSDOF 1
ENDMDL
MODEL 4
REMARK VINA RESULT:    -0.987      1.606      2.583
REMARK INTER + INTRA:          -0.376
REMARK INTER:                  -3.069
REMARK INTRA:                   2.694
REMARK UNBOUND:                 1.130
REMARK SMILES CC1=CCC[C@H](C)C(=O)C[C@H](C(C)C)C(=O)C1
REMARK SMILES IDX 8 1 9 2 6 3 7 4 5 5 4 6 3 7 2 8 1 9 10 11 11 12 15 13 16 14
REMARK SMILES IDX 17 15 12 17 13 18 14 19
REMARK H PARENT
REMARK Flexibility Score: 70.00
ROOT
ATOM      1  C   UNL     1      28.099  39.648  17.977  1.00  0.00     0.136 C 
ATOM      2  O   UNL     1      28.235  39.915  16.792  1.00  0.00    -0.299 OA
ENDROOT
BRANCH   1   3
ATOM      3  C   UNL     1      27.728  38.230  18.369  1.00  0.00     0.053 C 
ATOM      4  C   UNL     1      28.860  37.572  19.167  1.00  0.00     0.016 C 
BRANCH   3   5
ATOM      5  C   UNL     1      26.401  38.184  19.149  1.00  0.00     0.015 C 
BRANCH   5   6
ATOM      6  C   UNL     1      26.569  37.540  20.536  1.00  0.00     0.028 C 
BRANCH   6   7
ATOM      7  C   UNL     1      27.428  38.404  21.423  1.00  0.00    -0.028 C 
ATOM      8  C   UNL     1      27.230  39.727  21.629  1.00  0.00    -0.070 CG0
ATOM      9  C   UNL     1      28.222  40.464  22.492  1.00  0.00     0.039 C 
ATOM     10  G   UNL     1      26.051  40.489  21.041  1.00  0.00     0.000 G0
ENDBRANCH   6   7
ENDBRANCH   5   6
ENDBRANCH   3   5
ENDBRANCH   1   3
BRANCH   1  11
ATOM     11  C   UNL     1      28.336  40.739  18.998  1.00  0.00     0.087 C 
BRANCH  11  12
ATOM     12  C   UNL     1      27.177  41.770  19.038  1.00  0.00     0.066 C 
BRANCH  12  13
ATOM     13  C   UNL     1      26.482  41.776  20.394  1.00  0.00     0.140 C 
ATOM     14  O   UNL     1      26.215  42.838  20.936  1.00  0.00    -0.299 OA
BRANCH  13  15
ATOM     15  C   UNL     1      26.055  40.488  21.053  1.00  0.00     0.106 CG0
ATOM     16  G   UNL     1      27.234  39.719  21.633  1.00  0.00     0.000 G0
ENDBRANCH  13  15
ENDBRANCH  12  13
BRANCH  12  17
ATOM     17  C   UNL     1      27.652  43.194  18.610  1.00  0.00    -0.006 C 
ATOM     18  C   UNL     1      26.462  44.125  18.329  1.00  0.00     0.008 C 
ATOM     19  C   UNL     1      28.620  43.858  19.605  1.00  0.00     0.008 C 
ENDBRANCH  12  17
ENDBRANCH  11  12
ENDBRANCH   1  11
TORSDOF 1
ENDMDL
MODEL 5
REMARK VINA RESULT:    -0.185     12.095     14.109
REMARK INTER + INTRA:           0.848
REMARK INTER:                   0.483
REMARK INTRA:                   0.364
REMARK UNBOUND:                 1.130
REMARK SMILES CC1=CCC[C@H](C)C(=O)C[C@H](C(C)C)C(=O)C1
REMARK SMILES IDX 8 1 9 2 6 3 7 4 5 5 4 6 3 7 2 8 1 9 10 11 11 12 15 13 16 14
REMARK SMILES IDX 17 15 12 17 13 18 14 19
REMARK H PARENT
REMARK Flexibility Score: 70.00
ROOT
ATOM      1  C   UNL     1      27.802  25.650  26.263  1.00  0.00     0.136 C 
ATOM      2  O   UNL     1      28.615  24.842  26.688  1.00  0.00    -0.299 OA
ENDROOT
BRANCH   1   3
ATOM      3  C   UNL     1      26.347  25.236  26.158  1.00  0.00     0.053 C 
ATOM      4  C   UNL     1      26.217  23.875  25.462  1.00  0.00     0.016 C 
BRANCH   3   5
ATOM      5  C   UNL     1      25.658  25.221  27.536  1.00  0.00     0.015 C 
BRANCH   5   6
ATOM      6  C   UNL     1      24.211  25.738  27.464  1.00  0.00     0.028 C 
BRANCH   6   7
ATOM      7  C   UNL     1      24.039  26.958  28.332  1.00  0.00    -0.028 C 
ATOM      8  C   UNL     1      24.366  28.217  27.958  1.00  0.00    -0.070 CG0
ATOM      9  C   UNL     1      24.197  29.322  28.970  1.00  0.00     0.039 C 
ATOM     10  G   UNL     1      24.878  28.561  26.566  1.00  0.00     0.000 G0
ENDBRANCH   6   7
ENDBRANCH   5   6
ENDBRANCH   3   5
ENDBRANCH   1   3
BRANCH   1  11
ATOM     11  C   UNL     1      28.284  27.034  25.888  1.00  0.00     0.087 C 
BRANCH  11  12
ATOM     12  C   UNL     1      27.135  27.937  25.365  1.00  0.00     0.066 C 
BRANCH  12  13
ATOM     13  C   UNL     1      26.390  28.611  26.510  1.00  0.00     0.140 C 
ATOM     14  O   UNL     1      27.012  29.234  27.357  1.00  0.00    -0.299 OA
BRANCH  13  15
ATOM     15  C   UNL     1      24.883  28.580  26.582  1.00  0.00     0.106 CG0
ATOM     16  G   UNL     1      24.380  28.225  27.973  1.00  0.00     0.000 G0
ENDBRANCH  13  15
ENDBRANCH  12  13
BRANCH  12  17
ATOM     17  C   UNL     1      27.640  28.961  24.301  1.00  0.00    -0.006 C 
ATOM     18  C   UNL     1      29.080  29.411  24.590  1.00  0.00     0.008 C 
ATOM     19  C   UNL     1      27.522  28.466  22.849  1.00  0.00     0.008 C 
ENDBRANCH  12  17
ENDBRANCH  11  12
ENDBRANCH   1  11
TORSDOF 1
ENDMDL
MODEL 6
REMARK VINA RESULT:     0.554     12.869     14.601
REMARK INTER + INTRA:           1.976
REMARK INTER:                   1.922
REMARK INTRA:                   0.054
REMARK UNBOUND:                 1.130
REMARK SMILES CC1=CCC[C@H](C)C(=O)C[C@H](C(C)C)C(=O)C1
REMARK SMILES IDX 8 1 9 2 6 3 7 4 5 5 4 6 3 7 2 8 1 9 10 11 11 12 15 13 16 14
REMARK SMILES IDX 17 15 12 17 13 18 14 19
REMARK H PARENT
REMARK Flexibility Score: 70.00
ROOT
ATOM      1  C   UNL     1      26.792  28.395  25.721  1.00  0.00     0.136 C 
ATOM      2  O   UNL     1      26.595  29.491  25.218  1.00  0.00    -0.299 OA
ENDROOT
BRANCH   1   3
ATOM      3  C   UNL     1      27.644  27.389  24.969  1.00  0.00     0.053 C 
ATOM      4  C   UNL     1      28.709  28.101  24.125  1.00  0.00     0.016 C 
BRANCH   3   5
ATOM      5  C   UNL     1      28.287  26.364  25.921  1.00  0.00     0.015 C 
BRANCH   5   6
ATOM      6  C   UNL     1      27.650  24.970  25.784  1.00  0.00     0.028 C 
BRANCH   6   7
ATOM      7  C   UNL     1      27.347  24.388  27.141  1.00  0.00    -0.028 C 
ATOM      8  C   UNL     1      26.139  24.446  27.749  1.00  0.00    -0.070 CG0
ATOM      9  C   UNL     1      26.019  23.875  29.139  1.00  0.00     0.039 C 
ATOM     10  G   UNL     1      24.907  25.045  27.086  1.00  0.00     0.000 G0
ENDBRANCH   6   7
ENDBRANCH   5   6
ENDBRANCH   3   5
ENDBRANCH   1   3
BRANCH   1  11
ATOM     11  C   UNL     1      26.200  28.104  27.083  1.00  0.00     0.087 C 
BRANCH  11  12
ATOM     12  C   UNL     1      24.711  27.674  26.999  1.00  0.00     0.066 C 
BRANCH  12  13
ATOM     13  C   UNL     1      24.472  26.351  27.713  1.00  0.00     0.140 C 
ATOM     14  O   UNL     1      23.881  26.336  28.783  1.00  0.00    -0.299 OA
BRANCH  13  15
ATOM     15  C   UNL     1      24.893  25.044  27.090  1.00  0.00     0.106 CG0
ATOM     16  G   UNL     1      26.123  24.453  27.765  1.00  0.00     0.000 G0
ENDBRANCH  13  15
ENDBRANCH  12  13
BRANCH  12  17
ATOM     17  C   UNL     1      23.753  28.801  27.498  1.00  0.00    -0.006 C 
ATOM     18  C   UNL     1      24.304  29.494  28.754  1.00  0.00     0.008 C 
ATOM     19  C   UNL     1      23.404  29.848  26.426  1.00  0.00     0.008 C 
ENDBRANCH  12  17
ENDBRANCH  11  12
ENDBRANCH   1  11
TORSDOF 1
ENDMDL
