MODEL 1
REMARK VINA RESULT:    -3.520      0.000      0.000
REMARK INTER + INTRA:          -3.520
REMARK INTER:                  -3.520
REMARK INTRA:                   0.000
REMARK UNBOUND:                 0.000
REMARK SMILES O=C1CCCCC1
REMARK SMILES IDX 5 1 4 2 3 3 2 4 1 5 7 6 6 7
REMARK H PARENT
REMARK Flexibility Score: inf
ROOT
ATOM      1  C   UNL     1      17.753  43.657   1.748  1.00  0.00     0.001 C 
ATOM      2  C   UNL     1      17.901  42.275   1.094  1.00  0.00     0.008 C 
ATOM      3  C   UNL     1      19.084  42.241   0.117  1.00  0.00     0.075 C 
ATOM      4  C   UNL     1      20.325  42.774   0.780  1.00  0.00     0.132 C 
ATOM      5  O   UNL     1      21.397  42.207   0.627  1.00  0.00    -0.300 OA
ATOM      6  C   UNL     1      20.249  44.061   1.552  1.00  0.00     0.075 C 
ATOM      7  C   UNL     1      19.038  44.051   2.492  1.00  0.00     0.008 C 
ENDROOT
TORSDOF 0
ENDMDL
MODEL 2
REMARK VINA RESULT:    -3.468      2.010      2.475
REMARK INTER + INTRA:          -3.468
REMARK INTER:                  -3.468
REMARK INTRA:                   0.000
REMARK UNBOUND:                 0.000
REMARK SMILES O=C1CCCCC1
REMARK SMILES IDX 5 1 4 2 3 3 2 4 1 5 7 6 6 7
REMARK H PARENT
REMARK Flexibility Score: inf
ROOT
ATOM      1  C   UNL     1      16.924  44.882   0.057  1.00  0.00     0.001 C 
ATOM      2  C   UNL     1      16.873  44.260   1.460  1.00  0.00     0.008 C 
ATOM      3  C   UNL     1      18.174  43.516   1.790  1.00  0.00     0.075 C 
ATOM      4  C   UNL     1      19.363  44.396   1.520  1.00  0.00     0.132 C 
ATOM      5  O   UNL     1      20.291  44.439   2.315  1.00  0.00    -0.300 OA
ATOM      6  C   UNL     1      19.441  45.147   0.220  1.00  0.00     0.075 C 
ATOM      7  C   UNL     1      18.109  45.850  -0.071  1.00  0.00     0.008 C 
ENDROOT
TORSDOF 0
ENDMDL
MODEL 3
REMARK VINA RESULT:    -3.436      2.113      2.807
REMARK INTER + INTRA:          -3.436
REMARK INTER:                  -3.436
REMARK INTRA:                   0.000
REMARK UNBOUND:                 0.000
REMARK SMILES O=C1CCCCC1
REMARK SMILES IDX 5 1 4 2 3 3 2 4 1 5 7 6 6 7
REMARK H PARENT
REMARK Flexibility Score: inf
ROOT
ATOM      1  C   UNL     1      19.930  44.523   1.711  1.00  0.00     0.001 C 
ATOM      2  C   UNL     1      19.788  42.994   1.741  1.00  0.00     0.008 C 
ATOM      3  C   UNL     1      18.316  42.566   1.658  1.00  0.00     0.075 C 
ATOM      4  C   UNL     1      17.637  43.253   0.504  1.00  0.00     0.132 C 
ATOM      5  O   UNL     1      16.883  42.627  -0.227  1.00  0.00    -0.300 OA
ATOM      6  C   UNL     1      17.820  44.733   0.320  1.00  0.00     0.075 C 
ATOM      7  C   UNL     1      19.303  45.106   0.436  1.00  0.00     0.008 C 
ENDROOT
TORSDOF 0
ENDMDL
MODEL 4
REMARK VINA RESULT:    -3.435      2.748      3.447
REMARK INTER + INTRA:          -3.435
REMARK INTER:                  -3.435
REMARK INTRA:                   0.000
REMARK UNBOUND:                 0.000
REMARK SMILES O=C1CCCCC1
REMARK SMILES IDX 5 1 4 2 3 3 2 4 1 5 7 6 6 7
REMARK H PARENT
REMARK Flexibility Score: inf
ROOT
ATOM      1  C   UNL     1      19.602  44.519   1.587  1.00  0.00     0.001 C 
ATOM      2  C   UNL     1      18.519  43.448   1.777  1.00  0.00     0.008 C 
ATOM      3  C   UNL     1      17.113  44.032   1.583  1.00  0.00     0.075 C 
ATOM      4  C   UNL     1      17.039  44.797   0.291  1.00  0.00     0.132 C 
ATOM      5  O   UNL     1      16.068  44.677  -0.442  1.00  0.00    -0.300 OA
ATOM      6  C   UNL     1      18.125  45.782  -0.043  1.00  0.00     0.075 C 
ATOM      7  C   UNL     1      19.505  45.155   0.191  1.00  0.00     0.008 C 
ENDROOT
TORSDOF 0
ENDMDL
MODEL 5
REMARK VINA RESULT:    -3.410      2.424      3.260
REMARK INTER + INTRA:          -3.410
REMARK INTER:                  -3.410
REMARK INTRA:                   0.000
REMARK UNBOUND:                 0.000
REMARK SMILES O=C1CCCCC1
REMARK SMILES IDX 5 1 4 2 3 3 2 4 1 5 7 6 6 7
REMARK H PARENT
REMARK Flexibility Score: inf
ROOT
ATOM      1  C   UNL     1      19.414  42.837   1.827  1.00  0.00     0.001 C 
ATOM      2  C   UNL     1      19.774  44.329   1.848  1.00  0.00     0.008 C 
ATOM      3  C   UNL     1      19.319  45.034   0.563  1.00  0.00     0.075 C 
ATOM      4  C   UNL     1      17.874  44.726   0.281  1.00  0.00     0.132 C 
ATOM      5  O   UNL     1      17.115  45.612  -0.082  1.00  0.00    -0.300 OA
ATOM      6  C   UNL     1      17.398  43.302   0.359  1.00  0.00     0.075 C 
ATOM      7  C   UNL     1      17.900  42.641   1.648  1.00  0.00     0.008 C 
ENDROOT
TORSDOF 0
ENDMDL
MODEL 6
REMARK VINA RESULT:    -3.402      1.362      2.270
REMARK INTER + INTRA:          -3.402
REMARK INTER:                  -3.402
REMARK INTRA:                   0.000
REMARK UNBOUND:                 0.000
REMARK SMILES O=C1CCCCC1
REMARK SMILES IDX 5 1 4 2 3 3 2 4 1 5 7 6 6 7
REMARK H PARENT
REMARK Flexibility Score: inf
ROOT
ATOM      1  C   UNL     1      17.536  44.621   0.488  1.00  0.00     0.001 C 
ATOM      2  C   UNL     1      18.888  45.279   0.175  1.00  0.00     0.008 C 
ATOM      3  C   UNL     1      19.930  44.958   1.255  1.00  0.00     0.075 C 
ATOM      4  C   UNL     1      19.980  43.477   1.510  1.00  0.00     0.132 C 
ATOM      5  O   UNL     1      21.055  42.909   1.635  1.00  0.00    -0.300 OA
ATOM      6  C   UNL     1      18.695  42.721   1.704  1.00  0.00     0.075 C 
ATOM      7  C   UNL     1      17.684  43.097   0.614  1.00  0.00     0.008 C 
ENDROOT
TORSDOF 0
ENDMDL
MODEL 7
REMARK VINA RESULT:    -3.391      1.902      2.228
REMARK INTER + INTRA:          -3.391
REMARK INTER:                  -3.391
REMARK INTRA:                   0.000
REMARK UNBOUND:                 0.000
REMARK SMILES O=C1CCCCC1
REMARK SMILES IDX 5 1 4 2 3 3 2 4 1 5 7 6 6 7
REMARK H PARENT
REMARK Flexibility Score: inf
ROOT
ATOM      1  C   UNL     1      18.078  42.431   1.696  1.00  0.00     0.001 C 
ATOM      2  C   UNL     1      17.540  43.022   0.384  1.00  0.00     0.008 C 
ATOM      3  C   UNL     1      17.710  44.546   0.345  1.00  0.00     0.075 C 
ATOM      4  C   UNL     1      19.125  44.923   0.687  1.00  0.00     0.132 C 
ATOM      5  O   UNL     1      19.706  45.784   0.043  1.00  0.00    -0.300 OA
ATOM      6  C   UNL     1      19.782  44.299   1.886  1.00  0.00     0.075 C 
ATOM      7  C   UNL     1      19.561  42.781   1.887  1.00  0.00     0.008 C 
ENDROOT
TORSDOF 0
ENDMDL
MODEL 8
REMARK VINA RESULT:    -3.390      2.526      3.387
REMARK INTER + INTRA:          -3.390
REMARK INTER:                  -3.390
REMARK INTRA:                   0.000
REMARK UNBOUND:                 0.000
REMARK SMILES O=C1CCCCC1
REMARK SMILES IDX 5 1 4 2 3 3 2 4 1 5 7 6 6 7
REMARK H PARENT
REMARK Flexibility Score: inf
ROOT
ATOM      1  C   UNL     1      20.030  43.638   0.740  1.00  0.00     0.001 C 
ATOM      2  C   UNL     1      19.455  45.043   0.510  1.00  0.00     0.008 C 
ATOM      3  C   UNL     1      17.950  44.991   0.213  1.00  0.00     0.075 C 
ATOM      4  C   UNL     1      17.240  44.170   1.254  1.00  0.00     0.132 C 
ATOM      5  O   UNL     1      16.179  44.554   1.724  1.00  0.00    -0.300 OA
ATOM      6  C   UNL     1      17.800  42.829   1.638  1.00  0.00     0.075 C 
ATOM      7  C   UNL     1      19.307  42.934   1.899  1.00  0.00     0.008 C 
ENDROOT
TORSDOF 0
ENDMDL
MODEL 9
REMARK VINA RESULT:    -0.813     14.031     14.988
REMARK INTER + INTRA:          -0.813
REMARK INTER:                  -0.813
REMARK INTRA:                   0.000
REMARK UNBOUND:                 0.000
REMARK SMILES O=C1CCCCC1
REMARK SMILES IDX 5 1 4 2 3 3 2 4 1 5 7 6 6 7
REMARK H PARENT
REMARK Flexibility Score: inf
ROOT
ATOM      1  C   UNL     1      14.468  44.359 -13.626  1.00  0.00     0.001 C 
ATOM      2  C   UNL     1      15.224  43.502 -14.651  1.00  0.00     0.008 C 
ATOM      3  C   UNL     1      16.393  42.750 -14.000  1.00  0.00     0.075 C 
ATOM      4  C   UNL     1      15.925  42.018 -12.772  1.00  0.00     0.132 C 
ATOM      5  O   UNL     1      16.299  40.875 -12.557  1.00  0.00    -0.300 OA
ATOM      6  C   UNL     1      15.071  42.741 -11.768  1.00  0.00     0.075 C 
ATOM      7  C   UNL     1      13.936  43.492 -12.474  1.00  0.00     0.008 C 
ENDROOT
TORSDOF 0
ENDMDL
