MODEL 1
REMARK VINA RESULT:    -7.588      0.000      0.000
REMARK INTER + INTRA:          -9.227
REMARK INTER:                  -8.918
REMARK INTRA:                  -0.309
REMARK UNBOUND:                -0.309
REMARK SMILES O=c1cc(-c2ccc(O)c(O)c2)oc2cc(O)cc(O)c12
REMARK SMILES IDX 4 1 3 2 2 3 1 4 21 5 19 6 18 7 16 8 15 9 14 10 13 11 5 12
REMARK SMILES IDX 6 13 7 14 8 15 12 16 10 17 9 18 11 20 20 22 17 24
REMARK H PARENT 9 19 11 21 20 23 17 25
REMARK Flexibility Score: inf
ROOT
ATOM      1  C   UNL     1     -38.948  12.799   8.040  1.00  0.00     0.138 A 
ATOM      2  C   UNL     1     -39.061  11.510   8.578  1.00  0.00     0.100 A 
ATOM      3  C   UNL     1     -40.133  11.205   9.419  1.00  0.00     0.197 A 
ATOM      4  O   UNL     1     -40.176  10.056   9.930  1.00  0.00    -0.289 OA
ATOM      5  C   UNL     1     -41.113  12.188   9.694  1.00  0.00     0.107 A 
ATOM      6  C   UNL     1     -42.267  11.981  10.510  1.00  0.00     0.134 A 
ATOM      7  C   UNL     1     -43.116  13.058  10.790  1.00  0.00     0.093 A 
ATOM      8  C   UNL     1     -42.886  14.320  10.238  1.00  0.00     0.123 A 
ATOM      9  C   UNL     1     -41.791  14.520   9.400  1.00  0.00     0.094 A 
ATOM     10  C   UNL     1     -40.906  13.475   9.129  1.00  0.00     0.146 A 
ATOM     11  O   UNL     1     -39.865  13.713   8.339  1.00  0.00    -0.456 OA
ENDROOT
BRANCH   1  12
ATOM     12  C   UNL     1     -37.831  13.179   7.137  1.00  0.00     0.021 A 
ATOM     13  C   UNL     1     -36.584  12.527   7.188  1.00  0.00     0.016 A 
ATOM     14  C   UNL     1     -35.548  12.912   6.333  1.00  0.00     0.051 A 
ATOM     15  C   UNL     1     -35.736  13.956   5.418  1.00  0.00     0.157 A 
ATOM     16  C   UNL     1     -38.007  14.234   6.225  1.00  0.00     0.062 A 
ATOM     17  C   UNL     1     -36.972  14.621   5.366  1.00  0.00     0.158 A 
BRANCH  15  18
ATOM     18  O   UNL     1     -34.701  14.335   4.565  1.00  0.00    -0.504 OA
ATOM     19  H   UNL     1     -34.745  14.163   3.567  1.00  0.00     0.293 HD
ENDBRANCH  15  18
BRANCH  17  20
ATOM     20  O   UNL     1     -37.191  15.666   4.470  1.00  0.00    -0.504 OA
ATOM     21  H   UNL     1     -38.123  15.956   4.198  1.00  0.00     0.293 HD
ENDBRANCH  17  20
ENDBRANCH   1  12
BRANCH   6  22
ATOM     22  O   UNL     1     -42.635  10.743  11.047  1.00  0.00    -0.507 OA
ATOM     23  H   UNL     1     -43.379  10.159  10.701  1.00  0.00     0.293 HD
ENDBRANCH   6  22
BRANCH   8  24
ATOM     24  O   UNL     1     -43.746  15.382  10.510  1.00  0.00    -0.508 OA
ATOM     25  H   UNL     1     -44.496  15.633   9.875  1.00  0.00     0.293 HD
ENDBRANCH   8  24
TORSDOF 5
ENDMDL
MODEL 2
REMARK VINA RESULT:    -7.308      1.136      2.662
REMARK INTER + INTRA:          -8.899
REMARK INTER:                  -8.611
REMARK INTRA:                  -0.288
REMARK UNBOUND:                -0.309
REMARK SMILES O=c1cc(-c2ccc(O)c(O)c2)oc2cc(O)cc(O)c12
REMARK SMILES IDX 4 1 3 2 2 3 1 4 21 5 19 6 18 7 16 8 15 9 14 10 13 11 5 12
REMARK SMILES IDX 6 13 7 14 8 15 12 16 10 17 9 18 11 20 20 22 17 24
REMARK H PARENT 9 19 11 21 20 23 17 25
REMARK Flexibility Score: inf
ROOT
ATOM      1  C   UNL     1     -39.058  13.290   8.030  1.00  0.00     0.138 A 
ATOM      2  C   UNL     1     -40.000  14.313   8.196  1.00  0.00     0.100 A 
ATOM      3  C   UNL     1     -41.110  14.103   9.016  1.00  0.00     0.197 A 
ATOM      4  O   UNL     1     -41.967  15.021   9.099  1.00  0.00    -0.289 OA
ATOM      5  C   UNL     1     -41.257  12.873   9.699  1.00  0.00     0.107 A 
ATOM      6  C   UNL     1     -42.330  12.558  10.587  1.00  0.00     0.134 A 
ATOM      7  C   UNL     1     -42.421  11.270  11.130  1.00  0.00     0.093 A 
ATOM      8  C   UNL     1     -41.448  10.305  10.863  1.00  0.00     0.123 A 
ATOM      9  C   UNL     1     -40.370  10.617  10.038  1.00  0.00     0.094 A 
ATOM     10  C   UNL     1     -40.269  11.882   9.453  1.00  0.00     0.146 A 
ATOM     11  O   UNL     1     -39.235  12.132   8.659  1.00  0.00    -0.456 OA
ENDROOT
BRANCH   1  12
ATOM     12  C   UNL     1     -37.856  13.460   7.173  1.00  0.00     0.021 A 
ATOM     13  C   UNL     1     -36.676  12.725   7.400  1.00  0.00     0.016 A 
ATOM     14  C   UNL     1     -35.557  12.912   6.584  1.00  0.00     0.051 A 
ATOM     15  C   UNL     1     -35.594  13.839   5.535  1.00  0.00     0.157 A 
ATOM     16  C   UNL     1     -37.879  14.398   6.126  1.00  0.00     0.062 A 
ATOM     17  C   UNL     1     -36.761  14.587   5.307  1.00  0.00     0.158 A 
BRANCH  15  18
ATOM     18  O   UNL     1     -34.476  14.021   4.722  1.00  0.00    -0.504 OA
ATOM     19  H   UNL     1     -34.070  14.938   4.574  1.00  0.00     0.293 HD
ENDBRANCH  15  18
BRANCH  17  20
ATOM     20  O   UNL     1     -36.828  15.520   4.274  1.00  0.00    -0.504 OA
ATOM     21  H   UNL     1     -37.213  16.448   4.411  1.00  0.00     0.293 HD
ENDBRANCH  17  20
ENDBRANCH   1  12
BRANCH   6  22
ATOM     22  O   UNL     1     -43.312  13.471  10.985  1.00  0.00    -0.507 OA
ATOM     23  H   UNL     1     -43.231  14.110  11.760  1.00  0.00     0.293 HD
ENDBRANCH   6  22
BRANCH   8  24
ATOM     24  O   UNL     1     -41.539   9.031  11.421  1.00  0.00    -0.508 OA
ATOM     25  H   UNL     1     -41.391   8.874  12.411  1.00  0.00     0.293 HD
ENDBRANCH   8  24
TORSDOF 5
ENDMDL
MODEL 3
REMARK VINA RESULT:    -6.989      1.906      7.239
REMARK INTER + INTRA:          -8.524
REMARK INTER:                  -8.232
REMARK INTRA:                  -0.292
REMARK UNBOUND:                -0.309
REMARK SMILES O=c1cc(-c2ccc(O)c(O)c2)oc2cc(O)cc(O)c12
REMARK SMILES IDX 4 1 3 2 2 3 1 4 21 5 19 6 18 7 16 8 15 9 14 10 13 11 5 12
REMARK SMILES IDX 6 13 7 14 8 15 12 16 10 17 9 18 11 20 20 22 17 24
REMARK H PARENT 9 19 11 21 20 23 17 25
REMARK Flexibility Score: inf
ROOT
ATOM      1  C   UNL     1     -39.778  12.903   7.967  1.00  0.00     0.138 A 
ATOM      2  C   UNL     1     -39.252  14.157   7.631  1.00  0.00     0.100 A 
ATOM      3  C   UNL     1     -38.238  14.249   6.677  1.00  0.00     0.197 A 
ATOM      4  O   UNL     1     -37.750  15.384   6.439  1.00  0.00    -0.289 OA
ATOM      5  C   UNL     1     -37.773  13.079   6.031  1.00  0.00     0.107 A 
ATOM      6  C   UNL     1     -36.767  13.054   5.018  1.00  0.00     0.134 A 
ATOM      7  C   UNL     1     -36.318  11.824   4.521  1.00  0.00     0.093 A 
ATOM      8  C   UNL     1     -36.879  10.622   4.958  1.00  0.00     0.123 A 
ATOM      9  C   UNL     1     -37.897  10.638   5.910  1.00  0.00     0.094 A 
ATOM     10  C   UNL     1     -38.342  11.847   6.450  1.00  0.00     0.146 A 
ATOM     11  O   UNL     1     -39.302  11.816   7.368  1.00  0.00    -0.456 OA
ENDROOT
BRANCH   1  12
ATOM     12  C   UNL     1     -40.861  12.746   8.972  1.00  0.00     0.021 A 
ATOM     13  C   UNL     1     -41.159  11.497   9.549  1.00  0.00     0.016 A 
ATOM     14  C   UNL     1     -42.190  11.378  10.485  1.00  0.00     0.051 A 
ATOM     15  C   UNL     1     -42.943  12.500  10.856  1.00  0.00     0.157 A 
ATOM     16  C   UNL     1     -41.630  13.864   9.339  1.00  0.00     0.062 A 
ATOM     17  C   UNL     1     -42.662  13.748  10.278  1.00  0.00     0.158 A 
BRANCH  15  18
ATOM     18  O   UNL     1     -43.969  12.376  11.791  1.00  0.00    -0.504 OA
ATOM     19  H   UNL     1     -44.698  11.679  11.693  1.00  0.00     0.293 HD
ENDBRANCH  15  18
BRANCH  17  20
ATOM     20  O   UNL     1     -43.395  14.882  10.621  1.00  0.00    -0.504 OA
ATOM     21  H   UNL     1     -43.309  15.325  11.529  1.00  0.00     0.293 HD
ENDBRANCH  17  20
ENDBRANCH   1  12
BRANCH   6  22
ATOM     22  O   UNL     1     -36.195  14.199   4.453  1.00  0.00    -0.507 OA
ATOM     23  H   UNL     1     -36.062  15.076   4.930  1.00  0.00     0.293 HD
ENDBRANCH   6  22
BRANCH   8  24
ATOM     24  O   UNL     1     -36.438   9.404   4.446  1.00  0.00    -0.508 OA
ATOM     25  H   UNL     1     -35.617   9.344   3.854  1.00  0.00     0.293 HD
ENDBRANCH   8  24
TORSDOF 5
ENDMDL
MODEL 4
REMARK VINA RESULT:    -6.891      5.268      8.107
REMARK INTER + INTRA:          -8.408
REMARK INTER:                  -8.129
REMARK INTRA:                  -0.279
REMARK UNBOUND:                -0.309
REMARK SMILES O=c1cc(-c2ccc(O)c(O)c2)oc2cc(O)cc(O)c12
REMARK SMILES IDX 4 1 3 2 2 3 1 4 21 5 19 6 18 7 16 8 15 9 14 10 13 11 5 12
REMARK SMILES IDX 6 13 7 14 8 15 12 16 10 17 9 18 11 20 20 22 17 24
REMARK H PARENT 9 19 11 21 20 23 17 25
REMARK Flexibility Score: inf
ROOT
ATOM      1  C   UNL     1     -33.870  14.333   2.608  1.00  0.00     0.138 A 
ATOM      2  C   UNL     1     -33.941  14.509   3.996  1.00  0.00     0.100 A 
ATOM      3  C   UNL     1     -35.119  14.193   4.673  1.00  0.00     0.197 A 
ATOM      4  O   UNL     1     -35.169  14.415   5.911  1.00  0.00    -0.289 OA
ATOM      5  C   UNL     1     -36.221  13.666   3.959  1.00  0.00     0.107 A 
ATOM      6  C   UNL     1     -37.462  13.277   4.547  1.00  0.00     0.134 A 
ATOM      7  C   UNL     1     -38.516  12.860   3.724  1.00  0.00     0.093 A 
ATOM      8  C   UNL     1     -38.355  12.763   2.341  1.00  0.00     0.123 A 
ATOM      9  C   UNL     1     -37.132  13.092   1.761  1.00  0.00     0.094 A 
ATOM     10  C   UNL     1     -36.073  13.545   2.551  1.00  0.00     0.146 A 
ATOM     11  O   UNL     1     -34.929  13.865   1.956  1.00  0.00    -0.456 OA
ENDROOT
BRANCH   1  12
ATOM     12  C   UNL     1     -32.639  14.648   1.837  1.00  0.00     0.021 A 
ATOM     13  C   UNL     1     -32.697  15.269   0.574  1.00  0.00     0.016 A 
ATOM     14  C   UNL     1     -31.524  15.545  -0.133  1.00  0.00     0.051 A 
ATOM     15  C   UNL     1     -30.276  15.201   0.404  1.00  0.00     0.157 A 
ATOM     16  C   UNL     1     -31.384  14.294   2.362  1.00  0.00     0.062 A 
ATOM     17  C   UNL     1     -30.208  14.571   1.657  1.00  0.00     0.158 A 
BRANCH  15  18
ATOM     18  O   UNL     1     -29.108  15.480  -0.305  1.00  0.00    -0.504 OA
ATOM     19  H   UNL     1     -28.800  16.431  -0.468  1.00  0.00     0.293 HD
ENDBRANCH  15  18
BRANCH  17  20
ATOM     20  O   UNL     1     -28.983  14.211   2.216  1.00  0.00    -0.504 OA
ATOM     21  H   UNL     1     -28.872  13.375   2.779  1.00  0.00     0.293 HD
ENDBRANCH  17  20
ENDBRANCH   1  12
BRANCH   6  22
ATOM     22  O   UNL     1     -37.705  13.259   5.925  1.00  0.00    -0.507 OA
ATOM     23  H   UNL     1     -37.805  14.076   6.507  1.00  0.00     0.293 HD
ENDBRANCH   6  22
BRANCH   8  24
ATOM     24  O   UNL     1     -39.404  12.332   1.531  1.00  0.00    -0.508 OA
ATOM     25  H   UNL     1     -40.081  12.982   1.149  1.00  0.00     0.293 HD
ENDBRANCH   8  24
TORSDOF 5
ENDMDL
MODEL 5
REMARK VINA RESULT:    -6.828      2.015      3.455
REMARK INTER + INTRA:          -8.335
REMARK INTER:                  -8.063
REMARK INTRA:                  -0.272
REMARK UNBOUND:                -0.309
REMARK SMILES O=c1cc(-c2ccc(O)c(O)c2)oc2cc(O)cc(O)c12
REMARK SMILES IDX 4 1 3 2 2 3 1 4 21 5 19 6 18 7 16 8 15 9 14 10 13 11 5 12
REMARK SMILES IDX 6 13 7 14 8 15 12 16 10 17 9 18 11 20 20 22 17 24
REMARK H PARENT 9 19 11 21 20 23 17 25
REMARK Flexibility Score: inf
ROOT
ATOM      1  C   UNL     1     -36.936  13.406   5.822  1.00  0.00     0.138 A 
ATOM      2  C   UNL     1     -36.756  12.028   5.997  1.00  0.00     0.100 A 
ATOM      3  C   UNL     1     -37.542  11.341   6.924  1.00  0.00     0.197 A 
ATOM      4  O   UNL     1     -37.317  10.115   7.098  1.00  0.00    -0.289 OA
ATOM      5  C   UNL     1     -38.536  12.034   7.654  1.00  0.00     0.107 A 
ATOM      6  C   UNL     1     -39.419  11.432   8.601  1.00  0.00     0.134 A 
ATOM      7  C   UNL     1     -40.298  12.238   9.336  1.00  0.00     0.093 A 
ATOM      8  C   UNL     1     -40.366  13.615   9.115  1.00  0.00     0.123 A 
ATOM      9  C   UNL     1     -39.545  14.206   8.158  1.00  0.00     0.094 A 
ATOM     10  C   UNL     1     -38.633  13.434   7.434  1.00  0.00     0.146 A 
ATOM     11  O   UNL     1     -37.856  14.040   6.543  1.00  0.00    -0.456 OA
ENDROOT
BRANCH   1  12
ATOM     12  C   UNL     1     -36.132  14.187   4.847  1.00  0.00     0.021 A 
ATOM     13  C   UNL     1     -36.737  15.035   3.900  1.00  0.00     0.016 A 
ATOM     14  C   UNL     1     -35.955  15.750   2.988  1.00  0.00     0.051 A 
ATOM     15  C   UNL     1     -34.560  15.625   3.002  1.00  0.00     0.157 A 
ATOM     16  C   UNL     1     -34.732  14.057   4.845  1.00  0.00     0.062 A 
ATOM     17  C   UNL     1     -33.947  14.773   3.934  1.00  0.00     0.158 A 
BRANCH  15  18
ATOM     18  O   UNL     1     -33.784  16.342   2.092  1.00  0.00    -0.504 OA
ATOM     19  H   UNL     1     -33.071  16.993   2.399  1.00  0.00     0.293 HD
ENDBRANCH  15  18
BRANCH  17  20
ATOM     20  O   UNL     1     -32.561  14.623   3.971  1.00  0.00    -0.504 OA
ATOM     21  H   UNL     1     -31.989  15.079   4.672  1.00  0.00     0.293 HD
ENDBRANCH  17  20
ENDBRANCH   1  12
BRANCH   6  22
ATOM     22  O   UNL     1     -39.489  10.056   8.843  1.00  0.00    -0.507 OA
ATOM     23  H   UNL     1     -40.241   9.589   9.325  1.00  0.00     0.293 HD
ENDBRANCH   6  22
BRANCH   8  24
ATOM     24  O   UNL     1     -41.255  14.408   9.839  1.00  0.00    -0.508 OA
ATOM     25  H   UNL     1     -41.976  14.951   9.379  1.00  0.00     0.293 HD
ENDBRANCH   8  24
TORSDOF 5
ENDMDL
MODEL 6
REMARK VINA RESULT:    -6.793      1.640      3.143
REMARK INTER + INTRA:          -8.293
REMARK INTER:                  -8.020
REMARK INTRA:                  -0.273
REMARK UNBOUND:                -0.309
REMARK SMILES O=c1cc(-c2ccc(O)c(O)c2)oc2cc(O)cc(O)c12
REMARK SMILES IDX 4 1 3 2 2 3 1 4 21 5 19 6 18 7 16 8 15 9 14 10 13 11 5 12
REMARK SMILES IDX 6 13 7 14 8 15 12 16 10 17 9 18 11 20 20 22 17 24
REMARK H PARENT 9 19 11 21 20 23 17 25
REMARK Flexibility Score: inf
ROOT
ATOM      1  C   UNL     1     -38.187  13.098   7.193  1.00  0.00     0.138 A 
ATOM      2  C   UNL     1     -39.081  14.012   7.767  1.00  0.00     0.100 A 
ATOM      3  C   UNL     1     -40.107  13.549   8.592  1.00  0.00     0.197 A 
ATOM      4  O   UNL     1     -40.925  14.390   9.047  1.00  0.00    -0.289 OA
ATOM      5  C   UNL     1     -40.216  12.166   8.870  1.00  0.00     0.107 A 
ATOM      6  C   UNL     1     -41.201  11.583   9.723  1.00  0.00     0.134 A 
ATOM      7  C   UNL     1     -41.272  10.189   9.844  1.00  0.00     0.093 A 
ATOM      8  C   UNL     1     -40.357   9.362   9.189  1.00  0.00     0.123 A 
ATOM      9  C   UNL     1     -39.361   9.923   8.394  1.00  0.00     0.094 A 
ATOM     10  C   UNL     1     -39.286  11.308   8.225  1.00  0.00     0.146 A 
ATOM     11  O   UNL     1     -38.331  11.801   7.444  1.00  0.00    -0.456 OA
ENDROOT
BRANCH   1  12
ATOM     12  C   UNL     1     -37.075  13.535   6.310  1.00  0.00     0.021 A 
ATOM     13  C   UNL     1     -35.754  13.087   6.508  1.00  0.00     0.016 A 
ATOM     14  C   UNL     1     -34.725  13.522   5.669  1.00  0.00     0.051 A 
ATOM     15  C   UNL     1     -34.995  14.415   4.624  1.00  0.00     0.157 A 
ATOM     16  C   UNL     1     -37.333  14.441   5.267  1.00  0.00     0.062 A 
ATOM     17  C   UNL     1     -36.306  14.877   4.424  1.00  0.00     0.158 A 
BRANCH  15  18
ATOM     18  O   UNL     1     -33.966  14.844   3.787  1.00  0.00    -0.504 OA
ATOM     19  H   UNL     1     -33.400  14.189   3.261  1.00  0.00     0.293 HD
ENDBRANCH  15  18
BRANCH  17  20
ATOM     20  O   UNL     1     -36.606  15.769   3.396  1.00  0.00    -0.504 OA
ATOM     21  H   UNL     1     -36.179  15.699   2.479  1.00  0.00     0.293 HD
ENDBRANCH  17  20
ENDBRANCH   1  12
BRANCH   6  22
ATOM     22  O   UNL     1     -42.113  12.320  10.486  1.00  0.00    -0.507 OA
ATOM     23  H   UNL     1     -42.426  12.075  11.412  1.00  0.00     0.293 HD
ENDBRANCH   6  22
BRANCH   8  24
ATOM     24  O   UNL     1     -40.425   7.977   9.328  1.00  0.00    -0.508 OA
ATOM     25  H   UNL     1     -40.101   7.512  10.168  1.00  0.00     0.293 HD
ENDBRANCH   8  24
TORSDOF 5
ENDMDL
MODEL 7
REMARK VINA RESULT:    -6.787      2.247      6.946
REMARK INTER + INTRA:          -8.286
REMARK INTER:                  -7.999
REMARK INTRA:                  -0.287
REMARK UNBOUND:                -0.309
REMARK SMILES O=c1cc(-c2ccc(O)c(O)c2)oc2cc(O)cc(O)c12
REMARK SMILES IDX 4 1 3 2 2 3 1 4 21 5 19 6 18 7 16 8 15 9 14 10 13 11 5 12
REMARK SMILES IDX 6 13 7 14 8 15 12 16 10 17 9 18 11 20 20 22 17 24
REMARK H PARENT 9 19 11 21 20 23 17 25
REMARK Flexibility Score: inf
ROOT
ATOM      1  C   UNL     1     -40.669  11.984   7.811  1.00  0.00     0.138 A 
ATOM      2  C   UNL     1     -40.951  11.096   6.764  1.00  0.00     0.100 A 
ATOM      3  C   UNL     1     -40.099  11.038   5.660  1.00  0.00     0.197 A 
ATOM      4  O   UNL     1     -40.411  10.271   4.712  1.00  0.00    -0.289 OA
ATOM      5  C   UNL     1     -38.941  11.849   5.621  1.00  0.00     0.107 A 
ATOM      6  C   UNL     1     -37.983  11.850   4.562  1.00  0.00     0.134 A 
ATOM      7  C   UNL     1     -36.926  12.770   4.588  1.00  0.00     0.093 A 
ATOM      8  C   UNL     1     -36.761  13.648   5.661  1.00  0.00     0.123 A 
ATOM      9  C   UNL     1     -37.662  13.621   6.724  1.00  0.00     0.094 A 
ATOM     10  C   UNL     1     -38.746  12.740   6.711  1.00  0.00     0.146 A 
ATOM     11  O   UNL     1     -39.591  12.759   7.736  1.00  0.00    -0.456 OA
ENDROOT
BRANCH   1  12
ATOM     12  C   UNL     1     -41.537  12.086   9.012  1.00  0.00     0.021 A 
ATOM     13  C   UNL     1     -41.926  10.947   9.742  1.00  0.00     0.016 A 
ATOM     14  C   UNL     1     -42.752  11.071  10.862  1.00  0.00     0.051 A 
ATOM     15  C   UNL     1     -43.209  12.331  11.268  1.00  0.00     0.157 A 
ATOM     16  C   UNL     1     -42.012  13.346   9.418  1.00  0.00     0.062 A 
ATOM     17  C   UNL     1     -42.838  13.474  10.540  1.00  0.00     0.158 A 
BRANCH  15  18
ATOM     18  O   UNL     1     -44.031  12.451  12.388  1.00  0.00    -0.504 OA
ATOM     19  H   UNL     1     -43.981  13.257  13.000  1.00  0.00     0.293 HD
ENDBRANCH  15  18
BRANCH  17  20
ATOM     20  O   UNL     1     -43.279  14.741  10.915  1.00  0.00    -0.504 OA
ATOM     21  H   UNL     1     -43.632  15.411  10.239  1.00  0.00     0.293 HD
ENDBRANCH  17  20
ENDBRANCH   1  12
BRANCH   6  22
ATOM     22  O   UNL     1     -38.008  10.963   3.482  1.00  0.00    -0.507 OA
ATOM     23  H   UNL     1     -38.524  11.103   2.628  1.00  0.00     0.293 HD
ENDBRANCH   6  22
BRANCH   8  24
ATOM     24  O   UNL     1     -35.698  14.548   5.686  1.00  0.00    -0.508 OA
ATOM     25  H   UNL     1     -34.804  14.324   5.265  1.00  0.00     0.293 HD
ENDBRANCH   8  24
TORSDOF 5
ENDMDL
MODEL 8
REMARK VINA RESULT:    -6.770      2.002      7.481
REMARK INTER + INTRA:          -8.267
REMARK INTER:                  -7.972
REMARK INTRA:                  -0.295
REMARK UNBOUND:                -0.309
REMARK SMILES O=c1cc(-c2ccc(O)c(O)c2)oc2cc(O)cc(O)c12
REMARK SMILES IDX 4 1 3 2 2 3 1 4 21 5 19 6 18 7 16 8 15 9 14 10 13 11 5 12
REMARK SMILES IDX 6 13 7 14 8 15 12 16 10 17 9 18 11 20 20 22 17 24
REMARK H PARENT 9 19 11 21 20 23 17 25
REMARK Flexibility Score: inf
ROOT
ATOM      1  C   UNL     1     -39.544  12.344   7.850  1.00  0.00     0.138 A 
ATOM      2  C   UNL     1     -39.141  13.667   7.626  1.00  0.00     0.100 A 
ATOM      3  C   UNL     1     -38.172  13.939   6.658  1.00  0.00     0.197 A 
ATOM      4  O   UNL     1     -37.791  15.130   6.520  1.00  0.00    -0.289 OA
ATOM      5  C   UNL     1     -37.631  12.882   5.888  1.00  0.00     0.107 A 
ATOM      6  C   UNL     1     -36.663  13.043   4.852  1.00  0.00     0.134 A 
ATOM      7  C   UNL     1     -36.128  11.910   4.224  1.00  0.00     0.093 A 
ATOM      8  C   UNL     1     -36.568  10.627   4.556  1.00  0.00     0.123 A 
ATOM      9  C   UNL     1     -37.549  10.462   5.532  1.00  0.00     0.094 A 
ATOM     10  C   UNL     1     -38.077  11.569   6.200  1.00  0.00     0.146 A 
ATOM     11  O   UNL     1     -38.998  11.366   7.135  1.00  0.00    -0.456 OA
ENDROOT
BRANCH   1  12
ATOM     12  C   UNL     1     -40.574  11.998   8.864  1.00  0.00     0.021 A 
ATOM     13  C   UNL     1     -41.744  12.764   9.021  1.00  0.00     0.016 A 
ATOM     14  C   UNL     1     -42.691  12.420   9.990  1.00  0.00     0.051 A 
ATOM     15  C   UNL     1     -42.483  11.312  10.821  1.00  0.00     0.157 A 
ATOM     16  C   UNL     1     -40.366  10.895   9.711  1.00  0.00     0.062 A 
ATOM     17  C   UNL     1     -41.313  10.547  10.681  1.00  0.00     0.158 A 
BRANCH  15  18
ATOM     18  O   UNL     1     -43.431  10.971  11.785  1.00  0.00    -0.504 OA
ATOM     19  H   UNL     1     -44.389  11.294  11.725  1.00  0.00     0.293 HD
ENDBRANCH  15  18
BRANCH  17  20
ATOM     20  O   UNL     1     -41.074   9.441  11.495  1.00  0.00    -0.504 OA
ATOM     21  H   UNL     1     -40.741   9.536  12.448  1.00  0.00     0.293 HD
ENDBRANCH  17  20
ENDBRANCH   1  12
BRANCH   6  22
ATOM     22  O   UNL     1     -36.211  14.282   4.386  1.00  0.00    -0.507 OA
ATOM     23  H   UNL     1     -36.139  15.119   4.943  1.00  0.00     0.293 HD
ENDBRANCH   6  22
BRANCH   8  24
ATOM     24  O   UNL     1     -36.042   9.507   3.916  1.00  0.00    -0.508 OA
ATOM     25  H   UNL     1     -35.148   9.540   3.440  1.00  0.00     0.293 HD
ENDBRANCH   8  24
TORSDOF 5
ENDMDL
MODEL 9
REMARK VINA RESULT:    -6.530      2.352      7.380
REMARK INTER + INTRA:          -7.984
REMARK INTER:                  -7.701
REMARK INTRA:                  -0.284
REMARK UNBOUND:                -0.309
REMARK SMILES O=c1cc(-c2ccc(O)c(O)c2)oc2cc(O)cc(O)c12
REMARK SMILES IDX 4 1 3 2 2 3 1 4 21 5 19 6 18 7 16 8 15 9 14 10 13 11 5 12
REMARK SMILES IDX 6 13 7 14 8 15 12 16 10 17 9 18 11 20 20 22 17 24
REMARK H PARENT 9 19 11 21 20 23 17 25
REMARK Flexibility Score: inf
ROOT
ATOM      1  C   UNL     1     -40.077  11.377   7.225  1.00  0.00     0.138 A 
ATOM      2  C   UNL     1     -40.459  11.092   5.908  1.00  0.00     0.100 A 
ATOM      3  C   UNL     1     -39.553  11.297   4.866  1.00  0.00     0.197 A 
ATOM      4  O   UNL     1     -39.945  11.084   3.689  1.00  0.00    -0.289 OA
ATOM      5  C   UNL     1     -38.246  11.758   5.152  1.00  0.00     0.107 A 
ATOM      6  C   UNL     1     -37.227  11.972   4.175  1.00  0.00     0.134 A 
ATOM      7  C   UNL     1     -36.001  12.525   4.566  1.00  0.00     0.093 A 
ATOM      8  C   UNL     1     -35.737  12.817   5.906  1.00  0.00     0.123 A 
ATOM      9  C   UNL     1     -36.707  12.565   6.874  1.00  0.00     0.094 A 
ATOM     10  C   UNL     1     -37.952  12.047   6.511  1.00  0.00     0.146 A 
ATOM     11  O   UNL     1     -38.854  11.838   7.464  1.00  0.00    -0.456 OA
ENDROOT
BRANCH   1  12
ATOM     12  C   UNL     1     -40.999  11.173   8.373  1.00  0.00     0.021 A 
ATOM     13  C   UNL     1     -42.271  11.774   8.415  1.00  0.00     0.016 A 
ATOM     14  C   UNL     1     -43.114  11.574   9.512  1.00  0.00     0.051 A 
ATOM     15  C   UNL     1     -42.698  10.777  10.586  1.00  0.00     0.157 A 
ATOM     16  C   UNL     1     -40.585  10.386   9.461  1.00  0.00     0.062 A 
ATOM     17  C   UNL     1     -41.426  10.182  10.560  1.00  0.00     0.158 A 
BRANCH  15  18
ATOM     18  O   UNL     1     -43.542  10.577  11.678  1.00  0.00    -0.504 OA
ATOM     19  H   UNL     1     -43.747   9.649  12.028  1.00  0.00     0.293 HD
ENDBRANCH  15  18
BRANCH  17  20
ATOM     20  O   UNL     1     -40.981   9.387  11.615  1.00  0.00    -0.504 OA
ATOM     21  H   UNL     1     -39.996   9.211  11.779  1.00  0.00     0.293 HD
ENDBRANCH  17  20
ENDBRANCH   1  12
BRANCH   6  22
ATOM     22  O   UNL     1     -37.356  11.642   2.822  1.00  0.00    -0.507 OA
ATOM     23  H   UNL     1     -36.760  11.980   2.083  1.00  0.00     0.293 HD
ENDBRANCH   6  22
BRANCH   8  24
ATOM     24  O   UNL     1     -34.509  13.352   6.288  1.00  0.00    -0.508 OA
ATOM     25  H   UNL     1     -33.770  13.518   5.614  1.00  0.00     0.293 HD
ENDBRANCH   8  24
TORSDOF 5
ENDMDL
