MODEL 1
REMARK VINA RESULT:    -6.440      0.000      0.000
REMARK INTER + INTRA:          -8.162
REMARK INTER:                  -7.757
REMARK INTRA:                  -0.405
REMARK UNBOUND:                -0.405
REMARK SMILES O=c1c(O)c(-c2ccc(O)cc2O)oc2cc(O)cc(O)c12
REMARK SMILES IDX 5 1 3 2 2 3 1 4 22 5 20 6 19 7 17 8 16 9 15 10 14 11 6 12
REMARK SMILES IDX 8 13 7 14 9 15 11 16 12 17 10 18 13 20 4 22 21 24 18 26
REMARK H PARENT 10 19 13 21 4 23 21 25 18 27
REMARK Flexibility Score: inf
ROOT
ATOM      1  C   UNL     1     123.234 124.215 143.403  1.00  0.00     0.184 A 
ATOM      2  C   UNL     1     123.766 124.752 144.586  1.00  0.00     0.208 A 
ATOM      3  C   UNL     1     124.797 124.063 145.243  1.00  0.00     0.238 A 
ATOM      4  O   UNL     1     125.319 124.587 146.261  1.00  0.00    -0.285 OA
ATOM      5  C   UNL     1     125.246 122.817 144.737  1.00  0.00     0.111 A 
ATOM      6  C   UNL     1     126.254 122.010 145.345  1.00  0.00     0.134 A 
ATOM      7  C   UNL     1     126.690 120.847 144.698  1.00  0.00     0.093 A 
ATOM      8  C   UNL     1     126.111 120.429 143.498  1.00  0.00     0.123 A 
ATOM      9  C   UNL     1     125.088 121.181 142.925  1.00  0.00     0.094 A 
ATOM     10  C   UNL     1     124.657 122.366 143.526  1.00  0.00     0.146 A 
ATOM     11  O   UNL     1     123.694 123.062 142.934  1.00  0.00    -0.451 OA
ENDROOT
BRANCH   1  12
ATOM     12  C   UNL     1     122.153 124.895 142.659  1.00  0.00     0.063 A 
ATOM     13  C   UNL     1     121.495 126.476 140.934  1.00  0.00     0.047 A 
ATOM     14  C   UNL     1     122.493 125.811 141.652  1.00  0.00     0.020 A 
ATOM     15  C   UNL     1     120.146 126.243 141.224  1.00  0.00     0.119 A 
ATOM     16  C   UNL     1     119.799 125.349 142.242  1.00  0.00     0.093 A 
ATOM     17  C   UNL     1     120.794 124.682 142.971  1.00  0.00     0.130 A 
BRANCH  15  18
ATOM     18  O   UNL     1     119.144 126.897 140.512  1.00  0.00    -0.508 OA
ATOM     19  H   UNL     1     119.362 127.567 139.784  1.00  0.00     0.293 HD
ENDBRANCH  15  18
BRANCH  17  20
ATOM     20  O   UNL     1     120.435 123.830 144.016  1.00  0.00    -0.507 OA
ATOM     21  H   UNL     1     119.464 123.649 144.245  1.00  0.00     0.293 HD
ENDBRANCH  17  20
ENDBRANCH   1  12
BRANCH   2  22
ATOM     22  O   UNL     1     123.256 125.946 145.102  1.00  0.00    -0.502 OA
ATOM     23  H   UNL     1     122.510 125.968 145.787  1.00  0.00     0.293 HD
ENDBRANCH   2  22
BRANCH   6  24
ATOM     24  O   UNL     1     126.837 122.287 146.585  1.00  0.00    -0.507 OA
ATOM     25  H   UNL     1     126.418 122.851 147.308  1.00  0.00     0.293 HD
ENDBRANCH   6  24
BRANCH   8  26
ATOM     26  O   UNL     1     126.540 119.262 142.870  1.00  0.00    -0.508 OA
ATOM     27  H   UNL     1     126.872 118.466 143.402  1.00  0.00     0.293 HD
ENDBRANCH   8  26
TORSDOF 6
ENDMDL
MODEL 2
REMARK VINA RESULT:    -6.380      3.362      5.302
REMARK INTER + INTRA:          -8.090
REMARK INTER:                  -7.656
REMARK INTRA:                  -0.434
REMARK UNBOUND:                -0.405
REMARK SMILES O=c1c(O)c(-c2ccc(O)cc2O)oc2cc(O)cc(O)c12
REMARK SMILES IDX 5 1 3 2 2 3 1 4 22 5 20 6 19 7 17 8 16 9 15 10 14 11 6 12
REMARK SMILES IDX 8 13 7 14 9 15 11 16 12 17 10 18 13 20 4 22 21 24 18 26
REMARK H PARENT 10 19 13 21 4 23 21 25 18 27
REMARK Flexibility Score: inf
ROOT
ATOM      1  C   UNL     1     121.697 124.498 139.789  1.00  0.00     0.184 A 
ATOM      2  C   UNL     1     120.678 125.121 140.527  1.00  0.00     0.208 A 
ATOM      3  C   UNL     1     120.363 124.626 141.803  1.00  0.00     0.238 A 
ATOM      4  O   UNL     1     119.500 125.233 142.488  1.00  0.00    -0.285 OA
ATOM      5  C   UNL     1     121.034 123.481 142.300  1.00  0.00     0.111 A 
ATOM      6  C   UNL     1     120.767 122.867 143.560  1.00  0.00     0.134 A 
ATOM      7  C   UNL     1     121.566 121.801 143.993  1.00  0.00     0.093 A 
ATOM      8  C   UNL     1     122.583 121.288 143.184  1.00  0.00     0.123 A 
ATOM      9  C   UNL     1     122.816 121.845 141.930  1.00  0.00     0.094 A 
ATOM     10  C   UNL     1     122.061 122.933 141.485  1.00  0.00     0.146 A 
ATOM     11  O   UNL     1     122.332 123.447 140.291  1.00  0.00    -0.451 OA
ENDROOT
BRANCH   1  12
ATOM     12  C   UNL     1     122.083 124.974 138.444  1.00  0.00     0.063 A 
ATOM     13  C   UNL     1     121.599 125.087 136.064  1.00  0.00     0.047 A 
ATOM     14  C   UNL     1     121.261 124.659 137.350  1.00  0.00     0.020 A 
ATOM     15  C   UNL     1     122.770 125.824 135.853  1.00  0.00     0.119 A 
ATOM     16  C   UNL     1     123.607 126.122 136.933  1.00  0.00     0.093 A 
ATOM     17  C   UNL     1     123.278 125.691 138.227  1.00  0.00     0.130 A 
BRANCH  15  18
ATOM     18  O   UNL     1     123.115 126.259 134.576  1.00  0.00    -0.508 OA
ATOM     19  H   UNL     1     122.585 125.978 133.759  1.00  0.00     0.293 HD
ENDBRANCH  15  18
BRANCH  17  20
ATOM     20  O   UNL     1     124.145 125.953 139.288  1.00  0.00    -0.507 OA
ATOM     21  H   UNL     1     124.062 126.794 139.847  1.00  0.00     0.293 HD
ENDBRANCH  17  20
ENDBRANCH   1  12
BRANCH   2  22
ATOM     22  O   UNL     1     119.983 126.204 139.984  1.00  0.00    -0.502 OA
ATOM     23  H   UNL     1     119.567 126.927 140.559  1.00  0.00     0.293 HD
ENDBRANCH   2  22
BRANCH   6  24
ATOM     24  O   UNL     1     119.720 123.243 144.408  1.00  0.00    -0.507 OA
ATOM     25  H   UNL     1     119.767 123.251 145.415  1.00  0.00     0.293 HD
ENDBRANCH   6  24
BRANCH   8  26
ATOM     26  O   UNL     1     123.361 120.217 143.616  1.00  0.00    -0.508 OA
ATOM     27  H   UNL     1     123.032 119.261 143.548  1.00  0.00     0.293 HD
ENDBRANCH   8  26
TORSDOF 6
ENDMDL
MODEL 3
REMARK VINA RESULT:    -6.331     16.108     17.760
REMARK INTER + INTRA:          -8.032
REMARK INTER:                  -7.598
REMARK INTRA:                  -0.434
REMARK UNBOUND:                -0.405
REMARK SMILES O=c1c(O)c(-c2ccc(O)cc2O)oc2cc(O)cc(O)c12
REMARK SMILES IDX 5 1 3 2 2 3 1 4 22 5 20 6 19 7 17 8 16 9 15 10 14 11 6 12
REMARK SMILES IDX 8 13 7 14 9 15 11 16 12 17 10 18 13 20 4 22 21 24 18 26
REMARK H PARENT 10 19 13 21 4 23 21 25 18 27
REMARK Flexibility Score: inf
ROOT
ATOM      1  C   UNL     1     132.617 133.047 132.901  1.00  0.00     0.184 A 
ATOM      2  C   UNL     1     133.927 133.205 132.421  1.00  0.00     0.208 A 
ATOM      3  C   UNL     1     134.625 134.385 132.725  1.00  0.00     0.238 A 
ATOM      4  O   UNL     1     135.823 134.488 132.354  1.00  0.00    -0.285 OA
ATOM      5  C   UNL     1     133.984 135.414 133.459  1.00  0.00     0.111 A 
ATOM      6  C   UNL     1     134.580 136.668 133.787  1.00  0.00     0.134 A 
ATOM      7  C   UNL     1     133.888 137.569 134.607  1.00  0.00     0.093 A 
ATOM      8  C   UNL     1     132.597 137.285 135.060  1.00  0.00     0.123 A 
ATOM      9  C   UNL     1     131.985 136.087 134.700  1.00  0.00     0.094 A 
ATOM     10  C   UNL     1     132.665 135.153 133.914  1.00  0.00     0.146 A 
ATOM     11  O   UNL     1     132.051 134.013 133.612  1.00  0.00    -0.451 OA
ENDROOT
BRANCH   1  12
ATOM     12  C   UNL     1     131.830 131.828 132.623  1.00  0.00     0.063 A 
ATOM     13  C   UNL     1     130.503 130.525 131.057  1.00  0.00     0.047 A 
ATOM     14  C   UNL     1     131.259 131.663 131.352  1.00  0.00     0.020 A 
ATOM     15  C   UNL     1     130.298 129.544 132.035  1.00  0.00     0.119 A 
ATOM     16  C   UNL     1     130.844 129.712 133.312  1.00  0.00     0.093 A 
ATOM     17  C   UNL     1     131.599 130.854 133.617  1.00  0.00     0.130 A 
BRANCH  15  18
ATOM     18  O   UNL     1     129.551 128.404 131.751  1.00  0.00    -0.508 OA
ATOM     19  H   UNL     1     128.992 127.946 132.462  1.00  0.00     0.293 HD
ENDBRANCH  15  18
BRANCH  17  20
ATOM     20  O   UNL     1     132.097 131.032 134.908  1.00  0.00    -0.507 OA
ATOM     21  H   UNL     1     131.938 130.348 135.638  1.00  0.00     0.293 HD
ENDBRANCH  17  20
ENDBRANCH   1  12
BRANCH   2  22
ATOM     22  O   UNL     1     134.510 132.205 131.639  1.00  0.00    -0.502 OA
ATOM     23  H   UNL     1     135.513 132.117 131.529  1.00  0.00     0.293 HD
ENDBRANCH   2  22
BRANCH   6  24
ATOM     24  O   UNL     1     135.827 137.090 133.316  1.00  0.00    -0.507 OA
ATOM     25  H   UNL     1     136.154 136.985 132.368  1.00  0.00     0.293 HD
ENDBRANCH   6  24
BRANCH   8  26
ATOM     26  O   UNL     1     131.910 138.193 135.861  1.00  0.00    -0.508 OA
ATOM     27  H   UNL     1     131.292 138.891 135.462  1.00  0.00     0.293 HD
ENDBRANCH   8  26
TORSDOF 6
ENDMDL
MODEL 4
REMARK VINA RESULT:    -6.297      1.800      6.778
REMARK INTER + INTRA:          -7.991
REMARK INTER:                  -7.588
REMARK INTRA:                  -0.403
REMARK UNBOUND:                -0.405
REMARK SMILES O=c1c(O)c(-c2ccc(O)cc2O)oc2cc(O)cc(O)c12
REMARK SMILES IDX 5 1 3 2 2 3 1 4 22 5 20 6 19 7 17 8 16 9 15 10 14 11 6 12
REMARK SMILES IDX 8 13 7 14 9 15 11 16 12 17 10 18 13 20 4 22 21 24 18 26
REMARK H PARENT 10 19 13 21 4 23 21 25 18 27
REMARK Flexibility Score: inf
ROOT
ATOM      1  C   UNL     1     123.285 122.999 142.419  1.00  0.00     0.184 A 
ATOM      2  C   UNL     1     122.175 123.369 143.195  1.00  0.00     0.208 A 
ATOM      3  C   UNL     1     121.194 124.198 142.627  1.00  0.00     0.238 A 
ATOM      4  O   UNL     1     120.166 124.465 143.302  1.00  0.00    -0.285 OA
ATOM      5  C   UNL     1     121.365 124.690 141.309  1.00  0.00     0.111 A 
ATOM      6  C   UNL     1     120.458 125.572 140.648  1.00  0.00     0.134 A 
ATOM      7  C   UNL     1     120.676 125.910 139.307  1.00  0.00     0.093 A 
ATOM      8  C   UNL     1     121.802 125.448 138.621  1.00  0.00     0.123 A 
ATOM      9  C   UNL     1     122.722 124.632 139.274  1.00  0.00     0.094 A 
ATOM     10  C   UNL     1     122.513 124.247 140.601  1.00  0.00     0.146 A 
ATOM     11  O   UNL     1     123.405 123.449 141.177  1.00  0.00    -0.451 OA
ENDROOT
BRANCH   1  12
ATOM     12  C   UNL     1     124.348 122.124 142.955  1.00  0.00     0.063 A 
ATOM     13  C   UNL     1     125.227 119.879 143.270  1.00  0.00     0.047 A 
ATOM     14  C   UNL     1     124.243 120.737 142.771  1.00  0.00     0.020 A 
ATOM     15  C   UNL     1     126.322 120.397 143.971  1.00  0.00     0.119 A 
ATOM     16  C   UNL     1     126.422 121.777 144.180  1.00  0.00     0.093 A 
ATOM     17  C   UNL     1     125.436 122.644 143.687  1.00  0.00     0.130 A 
BRANCH  15  18
ATOM     18  O   UNL     1     127.311 119.553 144.469  1.00  0.00    -0.508 OA
ATOM     19  H   UNL     1     127.095 118.617 144.792  1.00  0.00     0.293 HD
ENDBRANCH  15  18
BRANCH  17  20
ATOM     20  O   UNL     1     125.523 124.012 143.944  1.00  0.00    -0.507 OA
ATOM     21  H   UNL     1     125.699 124.368 144.877  1.00  0.00     0.293 HD
ENDBRANCH  17  20
ENDBRANCH   1  12
BRANCH   2  22
ATOM     22  O   UNL     1     122.066 122.928 144.516  1.00  0.00    -0.502 OA
ATOM     23  H   UNL     1     122.438 122.037 144.824  1.00  0.00     0.293 HD
ENDBRANCH   2  22
BRANCH   6  24
ATOM     24  O   UNL     1     119.349 126.161 141.264  1.00  0.00    -0.507 OA
ATOM     25  H   UNL     1     119.301 126.428 142.236  1.00  0.00     0.293 HD
ENDBRANCH   6  24
BRANCH   8  26
ATOM     26  O   UNL     1     122.021 125.803 137.293  1.00  0.00    -0.508 OA
ATOM     27  H   UNL     1     121.553 125.324 136.532  1.00  0.00     0.293 HD
ENDBRANCH   8  26
TORSDOF 6
ENDMDL
MODEL 5
REMARK VINA RESULT:    -6.278     16.812     18.281
REMARK INTER + INTRA:          -7.967
REMARK INTER:                  -7.562
REMARK INTRA:                  -0.405
REMARK UNBOUND:                -0.405
REMARK SMILES O=c1c(O)c(-c2ccc(O)cc2O)oc2cc(O)cc(O)c12
REMARK SMILES IDX 5 1 3 2 2 3 1 4 22 5 20 6 19 7 17 8 16 9 15 10 14 11 6 12
REMARK SMILES IDX 8 13 7 14 9 15 11 16 12 17 10 18 13 20 4 22 21 24 18 26
REMARK H PARENT 10 19 13 21 4 23 21 25 18 27
REMARK Flexibility Score: inf
ROOT
ATOM      1  C   UNL     1     135.042 134.026 135.762  1.00  0.00     0.184 A 
ATOM      2  C   UNL     1     135.835 133.738 136.884  1.00  0.00     0.208 A 
ATOM      3  C   UNL     1     135.815 134.620 137.977  1.00  0.00     0.238 A 
ATOM      4  O   UNL     1     136.471 134.318 139.007  1.00  0.00    -0.285 OA
ATOM      5  C   UNL     1     135.042 135.806 137.910  1.00  0.00     0.111 A 
ATOM      6  C   UNL     1     134.979 136.792 138.939  1.00  0.00     0.134 A 
ATOM      7  C   UNL     1     134.099 137.874 138.807  1.00  0.00     0.093 A 
ATOM      8  C   UNL     1     133.326 138.037 137.656  1.00  0.00     0.123 A 
ATOM      9  C   UNL     1     133.421 137.109 136.622  1.00  0.00     0.094 A 
ATOM     10  C   UNL     1     134.261 135.999 136.740  1.00  0.00     0.146 A 
ATOM     11  O   UNL     1     134.304 135.128 135.738  1.00  0.00    -0.451 OA
ENDROOT
BRANCH   1  12
ATOM     12  C   UNL     1     135.013 133.136 134.583  1.00  0.00     0.063 A 
ATOM     13  C   UNL     1     134.219 131.084 133.549  1.00  0.00     0.047 A 
ATOM     14  C   UNL     1     134.263 131.952 134.644  1.00  0.00     0.020 A 
ATOM     15  C   UNL     1     134.937 131.383 132.385  1.00  0.00     0.119 A 
ATOM     16  C   UNL     1     135.707 132.550 132.325  1.00  0.00     0.093 A 
ATOM     17  C   UNL     1     135.760 133.423 133.422  1.00  0.00     0.130 A 
BRANCH  15  18
ATOM     18  O   UNL     1     134.897 130.528 131.287  1.00  0.00    -0.508 OA
ATOM     19  H   UNL     1     134.029 130.323 130.806  1.00  0.00     0.293 HD
ENDBRANCH  15  18
BRANCH  17  20
ATOM     20  O   UNL     1     136.570 134.557 133.366  1.00  0.00    -0.507 OA
ATOM     21  H   UNL     1     137.492 134.574 133.788  1.00  0.00     0.293 HD
ENDBRANCH  17  20
ENDBRANCH   1  12
BRANCH   2  22
ATOM     22  O   UNL     1     136.644 132.598 136.896  1.00  0.00    -0.502 OA
ATOM     23  H   UNL     1     137.558 132.577 136.460  1.00  0.00     0.293 HD
ENDBRANCH   2  22
BRANCH   6  24
ATOM     24  O   UNL     1     135.772 136.774 140.091  1.00  0.00    -0.507 OA
ATOM     25  H   UNL     1     135.420 136.788 141.036  1.00  0.00     0.293 HD
ENDBRANCH   6  24
BRANCH   8  26
ATOM     26  O   UNL     1     132.466 139.125 137.525  1.00  0.00    -0.508 OA
ATOM     27  H   UNL     1     132.560 139.787 136.763  1.00  0.00     0.293 HD
ENDBRANCH   8  26
TORSDOF 6
ENDMDL
MODEL 6
REMARK VINA RESULT:    -6.228      1.487      2.873
REMARK INTER + INTRA:          -7.907
REMARK INTER:                  -7.492
REMARK INTRA:                  -0.415
REMARK UNBOUND:                -0.405
REMARK SMILES O=c1c(O)c(-c2ccc(O)cc2O)oc2cc(O)cc(O)c12
REMARK SMILES IDX 5 1 3 2 2 3 1 4 22 5 20 6 19 7 17 8 16 9 15 10 14 11 6 12
REMARK SMILES IDX 8 13 7 14 9 15 11 16 12 17 10 18 13 20 4 22 21 24 18 26
REMARK H PARENT 10 19 13 21 4 23 21 25 18 27
REMARK Flexibility Score: inf
ROOT
ATOM      1  C   UNL     1     123.409 123.174 142.738  1.00  0.00     0.184 A 
ATOM      2  C   UNL     1     123.399 121.781 142.562  1.00  0.00     0.208 A 
ATOM      3  C   UNL     1     124.434 121.017 143.124  1.00  0.00     0.238 A 
ATOM      4  O   UNL     1     124.380 119.764 143.025  1.00  0.00    -0.285 OA
ATOM      5  C   UNL     1     125.494 121.662 143.809  1.00  0.00     0.111 A 
ATOM      6  C   UNL     1     126.616 120.992 144.382  1.00  0.00     0.134 A 
ATOM      7  C   UNL     1     127.551 121.723 145.127  1.00  0.00     0.093 A 
ATOM      8  C   UNL     1     127.435 123.108 145.268  1.00  0.00     0.123 A 
ATOM      9  C   UNL     1     126.373 123.778 144.667  1.00  0.00     0.094 A 
ATOM     10  C   UNL     1     125.405 123.072 143.949  1.00  0.00     0.146 A 
ATOM     11  O   UNL     1     124.396 123.750 143.410  1.00  0.00    -0.451 OA
ENDROOT
BRANCH   1  12
ATOM     12  C   UNL     1     122.346 124.034 142.178  1.00  0.00     0.063 A 
ATOM     13  C   UNL     1     121.576 125.481 140.382  1.00  0.00     0.047 A 
ATOM     14  C   UNL     1     122.558 124.655 140.938  1.00  0.00     0.020 A 
ATOM     15  C   UNL     1     120.377 125.706 141.067  1.00  0.00     0.119 A 
ATOM     16  C   UNL     1     120.167 125.110 142.315  1.00  0.00     0.093 A 
ATOM     17  C   UNL     1     121.150 124.285 142.882  1.00  0.00     0.130 A 
BRANCH  15  18
ATOM     18  O   UNL     1     119.390 126.523 140.521  1.00  0.00    -0.508 OA
ATOM     19  H   UNL     1     119.474 126.903 139.585  1.00  0.00     0.293 HD
ENDBRANCH  15  18
BRANCH  17  20
ATOM     20  O   UNL     1     120.948 123.736 144.148  1.00  0.00    -0.507 OA
ATOM     21  H   UNL     1     121.644 123.145 144.589  1.00  0.00     0.293 HD
ENDBRANCH  17  20
ENDBRANCH   1  12
BRANCH   2  22
ATOM     22  O   UNL     1     122.381 121.177 141.821  1.00  0.00    -0.502 OA
ATOM     23  H   UNL     1     121.999 120.269 142.060  1.00  0.00     0.293 HD
ENDBRANCH   2  22
BRANCH   6  24
ATOM     24  O   UNL     1     126.876 119.627 144.229  1.00  0.00    -0.507 OA
ATOM     25  H   UNL     1     126.252 118.885 144.505  1.00  0.00     0.293 HD
ENDBRANCH   6  24
BRANCH   8  26
ATOM     26  O   UNL     1     128.378 123.829 145.996  1.00  0.00    -0.508 OA
ATOM     27  H   UNL     1     129.008 123.373 146.647  1.00  0.00     0.293 HD
ENDBRANCH   8  26
TORSDOF 6
ENDMDL
MODEL 7
REMARK VINA RESULT:    -6.206     16.667     17.922
REMARK INTER + INTRA:          -7.881
REMARK INTER:                  -7.461
REMARK INTRA:                  -0.421
REMARK UNBOUND:                -0.405
REMARK SMILES O=c1c(O)c(-c2ccc(O)cc2O)oc2cc(O)cc(O)c12
REMARK SMILES IDX 5 1 3 2 2 3 1 4 22 5 20 6 19 7 17 8 16 9 15 10 14 11 6 12
REMARK SMILES IDX 8 13 7 14 9 15 11 16 12 17 10 18 13 20 4 22 21 24 18 26
REMARK H PARENT 10 19 13 21 4 23 21 25 18 27
REMARK Flexibility Score: inf
ROOT
ATOM      1  C   UNL     1     133.604 135.150 135.018  1.00  0.00     0.184 A 
ATOM      2  C   UNL     1     134.949 134.906 134.698  1.00  0.00     0.208 A 
ATOM      3  C   UNL     1     135.252 133.958 133.708  1.00  0.00     0.238 A 
ATOM      4  O   UNL     1     136.455 133.798 133.375  1.00  0.00    -0.285 OA
ATOM      5  C   UNL     1     134.207 133.228 133.089  1.00  0.00     0.111 A 
ATOM      6  C   UNL     1     134.400 132.213 132.104  1.00  0.00     0.134 A 
ATOM      7  C   UNL     1     133.286 131.631 131.485  1.00  0.00     0.093 A 
ATOM      8  C   UNL     1     131.987 131.983 131.859  1.00  0.00     0.123 A 
ATOM      9  C   UNL     1     131.789 132.933 132.858  1.00  0.00     0.094 A 
ATOM     10  C   UNL     1     132.879 133.559 133.468  1.00  0.00     0.146 A 
ATOM     11  O   UNL     1     132.644 134.475 134.401  1.00  0.00    -0.451 OA
ENDROOT
BRANCH   1  12
ATOM     12  C   UNL     1     133.218 136.139 136.046  1.00  0.00     0.063 A 
ATOM     13  C   UNL     1     133.073 136.743 138.396  1.00  0.00     0.047 A 
ATOM     14  C   UNL     1     133.434 135.833 137.398  1.00  0.00     0.020 A 
ATOM     15  C   UNL     1     132.480 137.964 138.055  1.00  0.00     0.119 A 
ATOM     16  C   UNL     1     132.240 138.266 136.710  1.00  0.00     0.093 A 
ATOM     17  C   UNL     1     132.593 137.356 135.703  1.00  0.00     0.130 A 
BRANCH  15  18
ATOM     18  O   UNL     1     132.122 138.880 139.040  1.00  0.00    -0.508 OA
ATOM     19  H   UNL     1     132.407 139.851 138.990  1.00  0.00     0.293 HD
ENDBRANCH  15  18
BRANCH  17  20
ATOM     20  O   UNL     1     132.303 137.649 134.370  1.00  0.00    -0.507 OA
ATOM     21  H   UNL     1     131.348 137.715 134.036  1.00  0.00     0.293 HD
ENDBRANCH  17  20
ENDBRANCH   1  12
BRANCH   2  22
ATOM     22  O   UNL     1     135.964 135.588 135.375  1.00  0.00    -0.502 OA
ATOM     23  H   UNL     1     136.756 135.998 134.895  1.00  0.00     0.293 HD
ENDBRANCH   2  22
BRANCH   6  24
ATOM     24  O   UNL     1     135.651 131.724 131.718  1.00  0.00    -0.507 OA
ATOM     25  H   UNL     1     136.188 131.040 132.229  1.00  0.00     0.293 HD
ENDBRANCH   6  24
BRANCH   8  26
ATOM     26  O   UNL     1     130.886 131.387 131.251  1.00  0.00    -0.508 OA
ATOM     27  H   UNL     1     130.580 130.455 131.504  1.00  0.00     0.293 HD
ENDBRANCH   8  26
TORSDOF 6
ENDMDL
MODEL 8
REMARK VINA RESULT:    -6.193      1.819      7.013
REMARK INTER + INTRA:          -7.866
REMARK INTER:                  -7.450
REMARK INTRA:                  -0.416
REMARK UNBOUND:                -0.405
REMARK SMILES O=c1c(O)c(-c2ccc(O)cc2O)oc2cc(O)cc(O)c12
REMARK SMILES IDX 5 1 3 2 2 3 1 4 22 5 20 6 19 7 17 8 16 9 15 10 14 11 6 12
REMARK SMILES IDX 8 13 7 14 9 15 11 16 12 17 10 18 13 20 4 22 21 24 18 26
REMARK H PARENT 10 19 13 21 4 23 21 25 18 27
REMARK Flexibility Score: inf
ROOT
ATOM      1  C   UNL     1     123.399 123.182 142.937  1.00  0.00     0.184 A 
ATOM      2  C   UNL     1     122.216 122.757 142.313  1.00  0.00     0.208 A 
ATOM      3  C   UNL     1     121.296 123.720 141.870  1.00  0.00     0.238 A 
ATOM      4  O   UNL     1     120.273 123.335 141.247  1.00  0.00    -0.285 OA
ATOM      5  C   UNL     1     121.547 125.095 142.107  1.00  0.00     0.111 A 
ATOM      6  C   UNL     1     120.665 126.155 141.741  1.00  0.00     0.134 A 
ATOM      7  C   UNL     1     121.066 127.484 141.931  1.00  0.00     0.093 A 
ATOM      8  C   UNL     1     122.291 127.789 142.530  1.00  0.00     0.123 A 
ATOM      9  C   UNL     1     123.135 126.760 142.940  1.00  0.00     0.094 A 
ATOM     10  C   UNL     1     122.779 125.425 142.730  1.00  0.00     0.146 A 
ATOM     11  O   UNL     1     123.625 124.476 143.118  1.00  0.00    -0.451 OA
ENDROOT
BRANCH   1  12
ATOM     12  C   UNL     1     124.412 122.219 143.419  1.00  0.00     0.063 A 
ATOM     13  C   UNL     1     125.192 120.733 145.178  1.00  0.00     0.047 A 
ATOM     14  C   UNL     1     124.250 121.642 144.688  1.00  0.00     0.020 A 
ATOM     15  C   UNL     1     126.314 120.401 144.411  1.00  0.00     0.119 A 
ATOM     16  C   UNL     1     126.495 120.990 143.155  1.00  0.00     0.093 A 
ATOM     17  C   UNL     1     125.557 121.907 142.658  1.00  0.00     0.130 A 
BRANCH  15  18
ATOM     18  O   UNL     1     127.257 119.493 144.887  1.00  0.00    -0.508 OA
ATOM     19  H   UNL     1     127.370 119.317 145.879  1.00  0.00     0.293 HD
ENDBRANCH  15  18
BRANCH  17  20
ATOM     20  O   UNL     1     125.775 122.524 141.426  1.00  0.00    -0.507 OA
ATOM     21  H   UNL     1     126.503 123.217 141.300  1.00  0.00     0.293 HD
ENDBRANCH  17  20
ENDBRANCH   1  12
BRANCH   2  22
ATOM     22  O   UNL     1     121.959 121.392 142.156  1.00  0.00    -0.502 OA
ATOM     23  H   UNL     1     122.040 120.923 141.262  1.00  0.00     0.293 HD
ENDBRANCH   2  22
BRANCH   6  24
ATOM     24  O   UNL     1     119.384 125.963 141.216  1.00  0.00    -0.507 OA
ATOM     25  H   UNL     1     118.674 125.372 141.623  1.00  0.00     0.293 HD
ENDBRANCH   6  24
BRANCH   8  26
ATOM     26  O   UNL     1     122.674 129.112 142.730  1.00  0.00    -0.508 OA
ATOM     27  H   UNL     1     122.712 129.775 141.965  1.00  0.00     0.293 HD
ENDBRANCH   8  26
TORSDOF 6
ENDMDL
MODEL 9
REMARK VINA RESULT:    -6.162      4.243      8.055
REMARK INTER + INTRA:          -7.828
REMARK INTER:                  -7.411
REMARK INTRA:                  -0.416
REMARK UNBOUND:                -0.405
REMARK SMILES O=c1c(O)c(-c2ccc(O)cc2O)oc2cc(O)cc(O)c12
REMARK SMILES IDX 5 1 3 2 2 3 1 4 22 5 20 6 19 7 17 8 16 9 15 10 14 11 6 12
REMARK SMILES IDX 8 13 7 14 9 15 11 16 12 17 10 18 13 20 4 22 21 24 18 26
REMARK H PARENT 10 19 13 21 4 23 21 25 18 27
REMARK Flexibility Score: inf
ROOT
ATOM      1  C   UNL     1     121.672 125.869 139.028  1.00  0.00     0.184 A 
ATOM      2  C   UNL     1     122.509 126.995 138.995  1.00  0.00     0.208 A 
ATOM      3  C   UNL     1     122.807 127.586 137.756  1.00  0.00     0.238 A 
ATOM      4  O   UNL     1     123.497 128.638 137.741  1.00  0.00    -0.285 OA
ATOM      5  C   UNL     1     122.307 127.009 136.563  1.00  0.00     0.111 A 
ATOM      6  C   UNL     1     122.579 127.497 135.249  1.00  0.00     0.134 A 
ATOM      7  C   UNL     1     121.945 126.908 134.148  1.00  0.00     0.093 A 
ATOM      8  C   UNL     1     121.097 125.810 134.307  1.00  0.00     0.123 A 
ATOM      9  C   UNL     1     120.867 125.292 135.579  1.00  0.00     0.094 A 
ATOM     10  C   UNL     1     121.456 125.881 136.701  1.00  0.00     0.146 A 
ATOM     11  O   UNL     1     121.192 125.367 137.898  1.00  0.00    -0.451 OA
ENDROOT
BRANCH   1  12
ATOM     12  C   UNL     1     121.314 125.204 140.298  1.00  0.00     0.063 A 
ATOM     13  C   UNL     1     121.746 123.437 141.911  1.00  0.00     0.047 A 
ATOM     14  C   UNL     1     122.061 124.093 140.718  1.00  0.00     0.020 A 
ATOM     15  C   UNL     1     120.671 123.876 142.692  1.00  0.00     0.119 A 
ATOM     16  C   UNL     1     119.906 124.968 142.269  1.00  0.00     0.093 A 
ATOM     17  C   UNL     1     120.213 125.629 141.070  1.00  0.00     0.130 A 
BRANCH  15  18
ATOM     18  O   UNL     1     120.350 123.233 143.884  1.00  0.00    -0.508 OA
ATOM     19  H   UNL     1     120.054 123.751 144.703  1.00  0.00     0.293 HD
ENDBRANCH  15  18
BRANCH  17  20
ATOM     20  O   UNL     1     119.413 126.686 140.636  1.00  0.00    -0.507 OA
ATOM     21  H   UNL     1     118.689 127.082 141.225  1.00  0.00     0.293 HD
ENDBRANCH  17  20
ENDBRANCH   1  12
BRANCH   2  22
ATOM     22  O   UNL     1     123.047 127.502 140.181  1.00  0.00    -0.502 OA
ATOM     23  H   UNL     1     122.472 127.747 140.977  1.00  0.00     0.293 HD
ENDBRANCH   2  22
BRANCH   6  24
ATOM     24  O   UNL     1     123.478 128.531 134.969  1.00  0.00    -0.507 OA
ATOM     25  H   UNL     1     124.367 128.416 134.507  1.00  0.00     0.293 HD
ENDBRANCH   6  24
BRANCH   8  26
ATOM     26  O   UNL     1     120.484 125.220 133.205  1.00  0.00    -0.508 OA
ATOM     27  H   UNL     1     120.319 124.221 133.161  1.00  0.00     0.293 HD
ENDBRANCH   8  26
TORSDOF 6
ENDMDL
