MODEL 1
REMARK VINA RESULT:    -4.184      0.000      0.000
REMARK INTER + INTRA:          -8.912
REMARK INTER:                  -6.386
REMARK INTRA:                  -2.526
REMARK UNBOUND:                -2.526
REMARK SMILES CC(=O)CCC=C(C)CCC=C(C)CCC=C(C)C
REMARK SMILES IDX 10 1 11 2 12 3 13 4 14 5 15 6 16 7 18 8 17 9 19 10 9 11 7 12
REMARK SMILES IDX 6 13 8 14 5 15 4 16 2 17 3 18 1 19
REMARK H PARENT
REMARK Flexibility Score: inf
ROOT
ATOM      1  C   UNL     1      21.460  74.233 107.696  1.00  0.00     0.032 C 
ENDROOT
BRANCH   1   2
ATOM      2  C   UNL     1      22.210  74.495 106.412  1.00  0.00    -0.028 C 
ATOM      3  C   UNL     1      22.458  73.562 105.464  1.00  0.00    -0.077 C 
ATOM      4  C   UNL     1      21.948  72.146 105.581  1.00  0.00     0.039 C 
BRANCH   3   5
ATOM      5  C   UNL     1      23.249  73.958 104.237  1.00  0.00     0.034 C 
BRANCH   5   6
ATOM      6  C   UNL     1      23.855  75.355 104.410  1.00  0.00     0.032 C 
BRANCH   6   7
ATOM      7  C   UNL     1      25.310  75.265 104.793  1.00  0.00    -0.028 C 
ATOM      8  C   UNL     1      25.136  77.067 106.524  1.00  0.00     0.039 C 
ATOM      9  C   UNL     1      25.906  76.042 105.725  1.00  0.00    -0.080 C 
ATOM     10  C   UNL     1      27.380  75.860 105.978  1.00  0.00     0.039 C 
ENDBRANCH   6   7
ENDBRANCH   5   6
ENDBRANCH   3   5
ENDBRANCH   1   2
BRANCH   1  11
ATOM     11  C   UNL     1      22.353  73.587 108.766  1.00  0.00     0.034 C 
BRANCH  11  12
ATOM     12  C   UNL     1      23.505  74.491 109.172  1.00  0.00    -0.077 C 
ATOM     13  C   UNL     1      24.787  74.243 108.824  1.00  0.00    -0.028 C 
ATOM     14  C   UNL     1      23.212  75.707 110.012  1.00  0.00     0.039 C 
BRANCH  13  15
ATOM     15  C   UNL     1      25.217  73.076 107.963  1.00  0.00     0.035 C 
BRANCH  15  16
ATOM     16  C   UNL     1      25.950  72.002 108.778  1.00  0.00     0.079 C 
BRANCH  16  17
ATOM     17  C   UNL     1      24.987  71.080 109.482  1.00  0.00     0.130 C 
ATOM     18  O   UNL     1      24.364  70.254 108.833  1.00  0.00    -0.300 OA
ATOM     19  C   UNL     1      24.759  71.170 110.960  1.00  0.00     0.087 C 
ENDBRANCH  16  17
ENDBRANCH  15  16
ENDBRANCH  13  15
ENDBRANCH  11  12
ENDBRANCH   1  11
TORSDOF 9
ENDMDL
MODEL 2
REMARK VINA RESULT:    -4.156      8.514     10.795
REMARK INTER + INTRA:          -8.869
REMARK INTER:                  -6.665
REMARK INTRA:                  -2.204
REMARK UNBOUND:                -2.526
REMARK SMILES CC(=O)CCC=C(C)CCC=C(C)CCC=C(C)C
REMARK SMILES IDX 10 1 11 2 12 3 13 4 14 5 15 6 16 7 18 8 17 9 19 10 9 11 7 12
REMARK SMILES IDX 6 13 8 14 5 15 4 16 2 17 3 18 1 19
REMARK H PARENT
REMARK Flexibility Score: inf
ROOT
ATOM      1  C   UNL     1      31.794  68.003 107.429  1.00  0.00     0.032 C 
ENDROOT
BRANCH   1   2
ATOM      2  C   UNL     1      32.222  69.411 107.093  1.00  0.00    -0.028 C 
ATOM      3  C   UNL     1      31.373  70.446 106.895  1.00  0.00    -0.077 C 
ATOM      4  C   UNL     1      29.879  70.296 107.048  1.00  0.00     0.039 C 
BRANCH   3   5
ATOM      5  C   UNL     1      31.942  71.800 106.534  1.00  0.00     0.034 C 
BRANCH   5   6
ATOM      6  C   UNL     1      33.450  71.706 106.282  1.00  0.00     0.032 C 
BRANCH   6   7
ATOM      7  C   UNL     1      34.219  72.458 107.338  1.00  0.00    -0.028 C 
ATOM      8  C   UNL     1      35.597  70.469 107.986  1.00  0.00     0.039 C 
ATOM      9  C   UNL     1      35.171  71.911 108.128  1.00  0.00    -0.080 C 
ATOM     10  C   UNL     1      35.832  72.781 109.164  1.00  0.00     0.039 C 
ENDBRANCH   6   7
ENDBRANCH   5   6
ENDBRANCH   3   5
ENDBRANCH   1   2
BRANCH   1  11
ATOM     11  C   UNL     1      31.946  67.051 106.233  1.00  0.00     0.034 C 
BRANCH  11  12
ATOM     12  C   UNL     1      30.714  67.051 105.344  1.00  0.00    -0.077 C 
ATOM     13  C   UNL     1      30.655  67.728 104.175  1.00  0.00    -0.028 C 
ATOM     14  C   UNL     1      29.499  66.279 105.786  1.00  0.00     0.039 C 
BRANCH  13  15
ATOM     15  C   UNL     1      31.809  68.520 103.601  1.00  0.00     0.035 C 
BRANCH  15  16
ATOM     16  C   UNL     1      32.855  67.612 102.939  1.00  0.00     0.079 C 
BRANCH  16  17
ATOM     17  C   UNL     1      34.245  68.183 103.059  1.00  0.00     0.130 C 
ATOM     18  O   UNL     1      35.014  68.095 102.114  1.00  0.00    -0.300 OA
ATOM     19  C   UNL     1      34.714  68.837 104.323  1.00  0.00     0.087 C 
ENDBRANCH  16  17
ENDBRANCH  15  16
ENDBRANCH  13  15
ENDBRANCH  11  12
ENDBRANCH   1  11
TORSDOF 9
ENDMDL
MODEL 3
REMARK VINA RESULT:    -4.141      9.058     10.998
REMARK INTER + INTRA:          -8.847
REMARK INTER:                  -6.545
REMARK INTRA:                  -2.302
REMARK UNBOUND:                -2.526
REMARK SMILES CC(=O)CCC=C(C)CCC=C(C)CCC=C(C)C
REMARK SMILES IDX 10 1 11 2 12 3 13 4 14 5 15 6 16 7 18 8 17 9 19 10 9 11 7 12
REMARK SMILES IDX 6 13 8 14 5 15 4 16 2 17 3 18 1 19
REMARK H PARENT
REMARK Flexibility Score: inf
ROOT
ATOM      1  C   UNL     1      31.635  68.966 106.560  1.00  0.00     0.032 C 
ENDROOT
BRANCH   1   2
ATOM      2  C   UNL     1      32.001  68.089 105.386  1.00  0.00    -0.028 C 
ATOM      3  C   UNL     1      31.706  68.369 104.096  1.00  0.00    -0.077 C 
ATOM      4  C   UNL     1      31.011  69.647 103.693  1.00  0.00     0.039 C 
BRANCH   3   5
ATOM      5  C   UNL     1      32.109  67.383 103.022  1.00  0.00     0.034 C 
BRANCH   5   6
ATOM      6  C   UNL     1      33.633  67.228 102.973  1.00  0.00     0.032 C 
BRANCH   6   7
ATOM      7  C   UNL     1      34.292  68.530 102.592  1.00  0.00    -0.028 C 
ATOM      8  C   UNL     1      35.654  68.643 104.691  1.00  0.00     0.039 C 
ATOM      9  C   UNL     1      35.186  69.190 103.363  1.00  0.00    -0.080 C 
ATOM     10  C   UNL     1      35.736  70.500 102.865  1.00  0.00     0.039 C 
ENDBRANCH   6   7
ENDBRANCH   5   6
ENDBRANCH   3   5
ENDBRANCH   1   2
BRANCH   1  11
ATOM     11  C   UNL     1      32.797  69.877 106.985  1.00  0.00     0.034 C 
BRANCH  11  12
ATOM     12  C   UNL     1      32.558  71.326 106.596  1.00  0.00    -0.077 C 
ATOM     13  C   UNL     1      33.560  72.167 106.254  1.00  0.00    -0.028 C 
ATOM     14  C   UNL     1      31.149  71.858 106.608  1.00  0.00     0.039 C 
BRANCH  13  15
ATOM     15  C   UNL     1      35.014  71.757 106.176  1.00  0.00     0.035 C 
BRANCH  15  16
ATOM     16  C   UNL     1      35.870  72.483 107.222  1.00  0.00     0.079 C 
BRANCH  16  17
ATOM     17  C   UNL     1      35.746  71.849 108.584  1.00  0.00     0.130 C 
ATOM     18  O   UNL     1      35.731  70.631 108.680  1.00  0.00    -0.300 OA
ATOM     19  C   UNL     1      35.615  72.681 109.823  1.00  0.00     0.087 C 
ENDBRANCH  16  17
ENDBRANCH  15  16
ENDBRANCH  13  15
ENDBRANCH  11  12
ENDBRANCH   1  11
TORSDOF 9
ENDMDL
MODEL 4
REMARK VINA RESULT:    -4.136      8.957     11.431
REMARK INTER + INTRA:          -8.838
REMARK INTER:                  -6.692
REMARK INTRA:                  -2.146
REMARK UNBOUND:                -2.526
REMARK SMILES CC(=O)CCC=C(C)CCC=C(C)CCC=C(C)C
REMARK SMILES IDX 10 1 11 2 12 3 13 4 14 5 15 6 16 7 18 8 17 9 19 10 9 11 7 12
REMARK SMILES IDX 6 13 8 14 5 15 4 16 2 17 3 18 1 19
REMARK H PARENT
REMARK Flexibility Score: inf
ROOT
ATOM      1  C   UNL     1      36.393  69.777 107.426  1.00  0.00     0.032 C 
ENDROOT
BRANCH   1   2
ATOM      2  C   UNL     1      36.079  68.949 106.203  1.00  0.00    -0.028 C 
ATOM      3  C   UNL     1      36.100  69.415 104.934  1.00  0.00    -0.077 C 
ATOM      4  C   UNL     1      36.502  70.834 104.608  1.00  0.00     0.039 C 
BRANCH   3   5
ATOM      5  C   UNL     1      35.735  68.478 103.804  1.00  0.00     0.034 C 
BRANCH   5   6
ATOM      6  C   UNL     1      34.753  69.150 102.838  1.00  0.00     0.032 C 
BRANCH   6   7
ATOM      7  C   UNL     1      33.376  69.233 103.444  1.00  0.00    -0.028 C 
ATOM      8  C   UNL     1      32.710  66.952 102.653  1.00  0.00     0.039 C 
ATOM      9  C   UNL     1      32.438  68.264 103.351  1.00  0.00    -0.080 C 
ATOM     10  C   UNL     1      31.091  68.503 103.980  1.00  0.00     0.039 C 
ENDBRANCH   6   7
ENDBRANCH   5   6
ENDBRANCH   3   5
ENDBRANCH   1   2
BRANCH   1  11
ATOM     11  C   UNL     1      35.123  70.321 108.098  1.00  0.00     0.034 C 
BRANCH  11  12
ATOM     12  C   UNL     1      34.889  71.787 107.776  1.00  0.00    -0.077 C 
ATOM     13  C   UNL     1      33.899  72.208 106.957  1.00  0.00    -0.028 C 
ATOM     14  C   UNL     1      35.806  72.819 108.379  1.00  0.00     0.039 C 
BRANCH  13  15
ATOM     15  C   UNL     1      32.893  71.284 106.307  1.00  0.00     0.035 C 
BRANCH  15  16
ATOM     16  C   UNL     1      31.453  71.784 106.490  1.00  0.00     0.079 C 
BRANCH  16  17
ATOM     17  C   UNL     1      30.557  70.712 107.057  1.00  0.00     0.130 C 
ATOM     18  O   UNL     1      29.356  70.916 107.138  1.00  0.00    -0.300 OA
ATOM     19  C   UNL     1      31.112  69.408 107.544  1.00  0.00     0.087 C 
ENDBRANCH  16  17
ENDBRANCH  15  16
ENDBRANCH  13  15
ENDBRANCH  11  12
ENDBRANCH   1  11
TORSDOF 9
ENDMDL
MODEL 5
REMARK VINA RESULT:    -4.130      8.897     11.137
REMARK INTER + INTRA:          -8.830
REMARK INTER:                  -7.078
REMARK INTRA:                  -1.752
REMARK UNBOUND:                -2.526
REMARK SMILES CC(=O)CCC=C(C)CCC=C(C)CCC=C(C)C
REMARK SMILES IDX 10 1 11 2 12 3 13 4 14 5 15 6 16 7 18 8 17 9 19 10 9 11 7 12
REMARK SMILES IDX 6 13 8 14 5 15 4 16 2 17 3 18 1 19
REMARK H PARENT
REMARK Flexibility Score: inf
ROOT
ATOM      1  C   UNL     1      31.863  71.924 106.450  1.00  0.00     0.032 C 
ENDROOT
BRANCH   1   2
ATOM      2  C   UNL     1      33.150  71.547 105.756  1.00  0.00    -0.028 C 
ATOM      3  C   UNL     1      34.386  71.750 106.266  1.00  0.00    -0.077 C 
ATOM      4  C   UNL     1      34.599  72.341 107.639  1.00  0.00     0.039 C 
BRANCH   3   5
ATOM      5  C   UNL     1      35.592  71.348 105.446  1.00  0.00     0.034 C 
BRANCH   5   6
ATOM      6  C   UNL     1      35.188  70.382 104.326  1.00  0.00     0.032 C 
BRANCH   6   7
ATOM      7  C   UNL     1      35.585  70.927 102.978  1.00  0.00    -0.028 C 
ATOM      8  C   UNL     1      35.744  68.661 101.924  1.00  0.00     0.039 C 
ATOM      9  C   UNL     1      35.860  70.167 101.895  1.00  0.00    -0.080 C 
ATOM     10  C   UNL     1      36.278  70.853 100.621  1.00  0.00     0.039 C 
ENDBRANCH   6   7
ENDBRANCH   5   6
ENDBRANCH   3   5
ENDBRANCH   1   2
BRANCH   1  11
ATOM     11  C   UNL     1      30.689  71.033 106.016  1.00  0.00     0.034 C 
BRANCH  11  12
ATOM     12  C   UNL     1      30.916  69.575 106.374  1.00  0.00    -0.077 C 
ATOM     13  C   UNL     1      31.049  68.604 105.441  1.00  0.00    -0.028 C 
ATOM     14  C   UNL     1      30.982  69.184 107.827  1.00  0.00     0.039 C 
BRANCH  13  15
ATOM     15  C   UNL     1      31.029  68.860 103.951  1.00  0.00     0.035 C 
BRANCH  15  16
ATOM     16  C   UNL     1      32.269  68.283 103.254  1.00  0.00     0.079 C 
BRANCH  16  17
ATOM     17  C   UNL     1      32.243  66.776 103.226  1.00  0.00     0.130 C 
ATOM     18  O   UNL     1      31.362  66.202 102.603  1.00  0.00    -0.300 OA
ATOM     19  C   UNL     1      33.262  65.963 103.965  1.00  0.00     0.087 C 
ENDBRANCH  16  17
ENDBRANCH  15  16
ENDBRANCH  13  15
ENDBRANCH  11  12
ENDBRANCH   1  11
TORSDOF 9
ENDMDL
MODEL 6
REMARK VINA RESULT:    -4.046      8.613     10.823
REMARK INTER + INTRA:          -8.702
REMARK INTER:                  -6.025
REMARK INTRA:                  -2.677
REMARK UNBOUND:                -2.526
REMARK SMILES CC(=O)CCC=C(C)CCC=C(C)CCC=C(C)C
REMARK SMILES IDX 10 1 11 2 12 3 13 4 14 5 15 6 16 7 18 8 17 9 19 10 9 11 7 12
REMARK SMILES IDX 6 13 8 14 5 15 4 16 2 17 3 18 1 19
REMARK H PARENT
REMARK Flexibility Score: inf
ROOT
ATOM      1  C   UNL     1      30.994  68.898 107.901  1.00  0.00     0.032 C 
ENDROOT
BRANCH   1   2
ATOM      2  C   UNL     1      32.472  68.766 107.622  1.00  0.00    -0.028 C 
ATOM      3  C   UNL     1      33.063  67.656 107.124  1.00  0.00    -0.077 C 
ATOM      4  C   UNL     1      32.271  66.429 106.740  1.00  0.00     0.039 C 
BRANCH   3   5
ATOM      5  C   UNL     1      34.562  67.654 106.920  1.00  0.00     0.034 C 
BRANCH   5   6
ATOM      6  C   UNL     1      35.105  69.086 106.876  1.00  0.00     0.032 C 
BRANCH   6   7
ATOM      7  C   UNL     1      35.467  69.480 105.466  1.00  0.00    -0.028 C 
ATOM      8  C   UNL     1      34.605  71.817 105.721  1.00  0.00     0.039 C 
ATOM      9  C   UNL     1      35.229  70.695 104.925  1.00  0.00    -0.080 C 
ATOM     10  C   UNL     1      35.616  70.932 103.489  1.00  0.00     0.039 C 
ENDBRANCH   6   7
ENDBRANCH   5   6
ENDBRANCH   3   5
ENDBRANCH   1   2
BRANCH   1  11
ATOM     11  C   UNL     1      30.207  69.340 106.658  1.00  0.00     0.034 C 
BRANCH  11  12
ATOM     12  C   UNL     1      30.861  70.518 105.957  1.00  0.00    -0.077 C 
ATOM     13  C   UNL     1      31.347  70.442 104.697  1.00  0.00    -0.028 C 
ATOM     14  C   UNL     1      30.993  71.823 106.697  1.00  0.00     0.039 C 
BRANCH  13  15
ATOM     15  C   UNL     1      31.257  69.204 103.833  1.00  0.00     0.035 C 
BRANCH  15  16
ATOM     16  C   UNL     1      32.640  68.727 103.370  1.00  0.00     0.079 C 
BRANCH  16  17
ATOM     17  C   UNL     1      32.628  67.270 102.984  1.00  0.00     0.130 C 
ATOM     18  O   UNL     1      33.645  66.758 102.540  1.00  0.00    -0.300 OA
ATOM     19  C   UNL     1      31.388  66.438 103.112  1.00  0.00     0.087 C 
ENDBRANCH  16  17
ENDBRANCH  15  16
ENDBRANCH  13  15
ENDBRANCH  11  12
ENDBRANCH   1  11
TORSDOF 9
ENDMDL
MODEL 7
REMARK VINA RESULT:    -4.040      8.493     11.392
REMARK INTER + INTRA:          -8.691
REMARK INTER:                  -6.786
REMARK INTRA:                  -1.905
REMARK UNBOUND:                -2.526
REMARK SMILES CC(=O)CCC=C(C)CCC=C(C)CCC=C(C)C
REMARK SMILES IDX 10 1 11 2 12 3 13 4 14 5 15 6 16 7 18 8 17 9 19 10 9 11 7 12
REMARK SMILES IDX 6 13 8 14 5 15 4 16 2 17 3 18 1 19
REMARK H PARENT
REMARK Flexibility Score: inf
ROOT
ATOM      1  C   UNL     1      35.698  71.350 105.122  1.00  0.00     0.032 C 
ENDROOT
BRANCH   1   2
ATOM      2  C   UNL     1      34.233  71.547 105.430  1.00  0.00    -0.028 C 
ATOM      3  C   UNL     1      33.749  71.982 106.615  1.00  0.00    -0.077 C 
ATOM      4  C   UNL     1      34.657  72.375 107.756  1.00  0.00     0.039 C 
BRANCH   3   5
ATOM      5  C   UNL     1      32.252  72.105 106.794  1.00  0.00     0.034 C 
BRANCH   5   6
ATOM      6  C   UNL     1      31.510  71.329 105.701  1.00  0.00     0.032 C 
BRANCH   6   7
ATOM      7  C   UNL     1      30.421  70.473 106.295  1.00  0.00    -0.028 C 
ATOM      8  C   UNL     1      32.023  68.775 107.202  1.00  0.00     0.039 C 
ATOM      9  C   UNL     1      30.633  69.311 106.953  1.00  0.00    -0.080 C 
ATOM     10  C   UNL     1      29.441  68.545 107.464  1.00  0.00     0.039 C 
ENDBRANCH   6   7
ENDBRANCH   5   6
ENDBRANCH   3   5
ENDBRANCH   1   2
BRANCH   1  11
ATOM     11  C   UNL     1      35.963  70.025 104.392  1.00  0.00     0.034 C 
BRANCH  11  12
ATOM     12  C   UNL     1      35.663  70.121 102.906  1.00  0.00    -0.077 C 
ATOM     13  C   UNL     1      34.776  69.311 102.284  1.00  0.00    -0.028 C 
ATOM     14  C   UNL     1      36.394  71.148 102.082  1.00  0.00     0.039 C 
BRANCH  13  15
ATOM     15  C   UNL     1      33.956  68.257 102.994  1.00  0.00     0.035 C 
BRANCH  15  16
ATOM     16  C   UNL     1      32.590  68.797 103.440  1.00  0.00     0.079 C 
BRANCH  16  17
ATOM     17  C   UNL     1      31.656  67.685 103.844  1.00  0.00     0.130 C 
ATOM     18  O   UNL     1      30.452  67.826 103.688  1.00  0.00    -0.300 OA
ATOM     19  C   UNL     1      32.169  66.417 104.456  1.00  0.00     0.087 C 
ENDBRANCH  16  17
ENDBRANCH  15  16
ENDBRANCH  13  15
ENDBRANCH  11  12
ENDBRANCH   1  11
TORSDOF 9
ENDMDL
MODEL 8
REMARK VINA RESULT:    -3.972      8.828     11.191
REMARK INTER + INTRA:          -8.589
REMARK INTER:                  -6.343
REMARK INTRA:                  -2.246
REMARK UNBOUND:                -2.526
REMARK SMILES CC(=O)CCC=C(C)CCC=C(C)CCC=C(C)C
REMARK SMILES IDX 10 1 11 2 12 3 13 4 14 5 15 6 16 7 18 8 17 9 19 10 9 11 7 12
REMARK SMILES IDX 6 13 8 14 5 15 4 16 2 17 3 18 1 19
REMARK H PARENT
REMARK Flexibility Score: inf
ROOT
ATOM      1  C   UNL     1      30.738  67.232 105.665  1.00  0.00     0.032 C 
ENDROOT
BRANCH   1   2
ATOM      2  C   UNL     1      30.746  68.718 105.401  1.00  0.00    -0.028 C 
ATOM      3  C   UNL     1      30.751  69.670 106.363  1.00  0.00    -0.077 C 
ATOM      4  C   UNL     1      30.806  69.323 107.831  1.00  0.00     0.039 C 
BRANCH   3   5
ATOM      5  C   UNL     1      30.728  71.126 105.953  1.00  0.00     0.034 C 
BRANCH   5   6
ATOM      6  C   UNL     1      31.884  71.891 106.607  1.00  0.00     0.032 C 
BRANCH   6   7
ATOM      7  C   UNL     1      33.189  71.582 105.920  1.00  0.00    -0.028 C 
ATOM      8  C   UNL     1      34.581  72.470 107.804  1.00  0.00     0.039 C 
ATOM      9  C   UNL     1      34.409  71.856 106.434  1.00  0.00    -0.080 C 
ATOM     10  C   UNL     1      35.627  71.520 105.615  1.00  0.00     0.039 C 
ENDBRANCH   6   7
ENDBRANCH   5   6
ENDBRANCH   3   5
ENDBRANCH   1   2
BRANCH   1  11
ATOM     11  C   UNL     1      32.005  66.544 105.134  1.00  0.00     0.034 C 
BRANCH  11  12
ATOM     12  C   UNL     1      33.272  67.210 105.640  1.00  0.00    -0.077 C 
ATOM     13  C   UNL     1      34.107  67.904 104.834  1.00  0.00    -0.028 C 
ATOM     14  C   UNL     1      33.627  67.083 107.099  1.00  0.00     0.039 C 
BRANCH  13  15
ATOM     15  C   UNL     1      33.859  68.131 103.359  1.00  0.00     0.035 C 
BRANCH  15  16
ATOM     16  C   UNL     1      34.166  69.576 102.942  1.00  0.00     0.079 C 
BRANCH  16  17
ATOM     17  C   UNL     1      35.468  69.674 102.188  1.00  0.00     0.130 C 
ATOM     18  O   UNL     1      36.016  68.654 101.801  1.00  0.00    -0.300 OA
ATOM     19  C   UNL     1      36.118  70.998 101.921  1.00  0.00     0.087 C 
ENDBRANCH  16  17
ENDBRANCH  15  16
ENDBRANCH  13  15
ENDBRANCH  11  12
ENDBRANCH   1  11
TORSDOF 9
ENDMDL
MODEL 9
REMARK VINA RESULT:    -3.956      1.373      3.527
REMARK INTER + INTRA:          -8.564
REMARK INTER:                  -5.849
REMARK INTRA:                  -2.715
REMARK UNBOUND:                -2.526
REMARK SMILES CC(=O)CCC=C(C)CCC=C(C)CCC=C(C)C
REMARK SMILES IDX 10 1 11 2 12 3 13 4 14 5 15 6 16 7 18 8 17 9 19 10 9 11 7 12
REMARK SMILES IDX 6 13 8 14 5 15 4 16 2 17 3 18 1 19
REMARK H PARENT
REMARK Flexibility Score: inf
ROOT
ATOM      1  C   UNL     1      23.043  73.744 103.823  1.00  0.00     0.032 C 
ENDROOT
BRANCH   1   2
ATOM      2  C   UNL     1      24.229  74.161 104.659  1.00  0.00    -0.028 C 
ATOM      3  C   UNL     1      24.860  75.354 104.557  1.00  0.00    -0.077 C 
ATOM      4  C   UNL     1      24.390  76.430 103.608  1.00  0.00     0.039 C 
BRANCH   3   5
ATOM      5  C   UNL     1      26.056  75.627 105.442  1.00  0.00     0.034 C 
BRANCH   5   6
ATOM      6  C   UNL     1      25.749  76.750 106.438  1.00  0.00     0.032 C 
BRANCH   6   7
ATOM      7  C   UNL     1      25.111  76.198 107.688  1.00  0.00    -0.028 C 
ATOM      8  C   UNL     1      22.849  77.125 107.141  1.00  0.00     0.039 C 
ATOM      9  C   UNL     1      23.815  76.376 108.030  1.00  0.00    -0.080 C 
ATOM     10  C   UNL     1      23.327  75.792 109.329  1.00  0.00     0.039 C 
ENDBRANCH   6   7
ENDBRANCH   5   6
ENDBRANCH   3   5
ENDBRANCH   1   2
BRANCH   1  11
ATOM     11  C   UNL     1      22.055  72.874 104.614  1.00  0.00     0.034 C 
BRANCH  11  12
ATOM     12  C   UNL     1      21.407  73.638 105.756  1.00  0.00    -0.077 C 
ATOM     13  C   UNL     1      21.571  73.293 107.053  1.00  0.00    -0.028 C 
ATOM     14  C   UNL     1      20.532  74.821 105.434  1.00  0.00     0.039 C 
BRANCH  13  15
ATOM     15  C   UNL     1      22.441  72.147 107.517  1.00  0.00     0.035 C 
BRANCH  15  16
ATOM     16  C   UNL     1      23.859  72.612 107.876  1.00  0.00     0.079 C 
BRANCH  16  17
ATOM     17  C   UNL     1      24.321  72.030 109.188  1.00  0.00     0.130 C 
ATOM     18  O   UNL     1      23.717  71.085 109.672  1.00  0.00    -0.300 OA
ATOM     19  C   UNL     1      25.495  72.601 109.925  1.00  0.00     0.087 C 
ENDBRANCH  16  17
ENDBRANCH  15  16
ENDBRANCH  13  15
ENDBRANCH  11  12
ENDBRANCH   1  11
TORSDOF 9
ENDMDL
