MODEL 1
REMARK VINA RESULT:    -6.499      0.000      0.000
REMARK INTER + INTRA:          -6.689
REMARK INTER:                  -6.689
REMARK INTRA:                   0.000
REMARK UNBOUND:                 0.000
REMARK SMILES Oc1ccc2[nH]ccc2c1
REMARK SMILES IDX 3 1 4 2 5 3 9 4 8 5 7 6 6 7 10 8 2 9 1 11
REMARK H PARENT 6 10 1 12
REMARK Flexibility Score: inf
ROOT
ATOM      1  C   UNL     1     150.930 157.524 157.987  1.00  0.00     0.048 A 
ATOM      2  C   UNL     1     152.117 156.789 157.818  1.00  0.00     0.030 A 
ATOM      3  C   UNL     1     152.555 156.006 158.885  1.00  0.00     0.046 A 
ATOM      4  C   UNL     1     151.863 155.945 160.065  1.00  0.00     0.003 A 
ATOM      5  C   UNL     1     152.551 155.095 160.904  1.00  0.00     0.028 A 
ATOM      6  C   UNL     1     153.654 154.673 160.167  1.00  0.00     0.083 A 
ATOM      7  N   UNL     1     153.652 155.233 158.935  1.00  0.00    -0.361 N 
ATOM      8  C   UNL     1     150.685 156.661 160.266  1.00  0.00     0.056 A 
ATOM      9  C   UNL     1     150.213 157.464 159.205  1.00  0.00     0.116 A 
ATOM     10  H   UNL     1     154.360 155.089 158.181  1.00  0.00     0.166 HD
ENDROOT
BRANCH   9  11
ATOM     11  O   UNL     1     149.041 158.203 159.347  1.00  0.00    -0.508 OA
ATOM     12  H   UNL     1     148.710 158.814 158.610  1.00  0.00     0.293 HD
ENDBRANCH   9  11
TORSDOF 1
ENDMDL
MODEL 2
REMARK VINA RESULT:    -6.246      2.589      4.220
REMARK INTER + INTRA:          -6.428
REMARK INTER:                  -6.428
REMARK INTRA:                   0.000
REMARK UNBOUND:                 0.000
REMARK SMILES Oc1ccc2[nH]ccc2c1
REMARK SMILES IDX 3 1 4 2 5 3 9 4 8 5 7 6 6 7 10 8 2 9 1 11
REMARK H PARENT 6 10 1 12
REMARK Flexibility Score: inf
ROOT
ATOM      1  C   UNL     1     151.834 155.738 160.078  1.00  0.00     0.048 A 
ATOM      2  C   UNL     1     150.679 156.412 160.513  1.00  0.00     0.030 A 
ATOM      3  C   UNL     1     150.109 157.349 159.651  1.00  0.00     0.046 A 
ATOM      4  C   UNL     1     150.645 157.613 158.419  1.00  0.00     0.003 A 
ATOM      5  C   UNL     1     149.857 158.573 157.823  1.00  0.00     0.028 A 
ATOM      6  C   UNL     1     148.856 158.848 158.751  1.00  0.00     0.083 A 
ATOM      7  N   UNL     1     149.015 158.098 159.865  1.00  0.00    -0.361 N 
ATOM      8  C   UNL     1     151.788 156.963 157.958  1.00  0.00     0.056 A 
ATOM      9  C   UNL     1     152.391 156.009 158.806  1.00  0.00     0.116 A 
ATOM     10  H   UNL     1     148.409 158.103 160.716  1.00  0.00     0.166 HD
ENDROOT
BRANCH   9  11
ATOM     11  O   UNL     1     153.535 155.327 158.400  1.00  0.00    -0.508 OA
ATOM     12  H   UNL     1     153.647 154.334 158.571  1.00  0.00     0.293 HD
ENDBRANCH   9  11
TORSDOF 1
ENDMDL
MODEL 3
REMARK VINA RESULT:    -5.991      1.397      2.432
REMARK INTER + INTRA:          -6.166
REMARK INTER:                  -6.166
REMARK INTRA:                   0.000
REMARK UNBOUND:                 0.000
REMARK SMILES Oc1ccc2[nH]ccc2c1
REMARK SMILES IDX 3 1 4 2 5 3 9 4 8 5 7 6 6 7 10 8 2 9 1 11
REMARK H PARENT 6 10 1 12
REMARK Flexibility Score: inf
ROOT
ATOM      1  C   UNL     1     149.323 157.693 160.275  1.00  0.00     0.048 A 
ATOM      2  C   UNL     1     150.340 156.749 160.503  1.00  0.00     0.030 A 
ATOM      3  C   UNL     1     151.271 156.538 159.487  1.00  0.00     0.046 A 
ATOM      4  C   UNL     1     151.210 157.220 158.301  1.00  0.00     0.003 A 
ATOM      5  C   UNL     1     152.260 156.786 157.521  1.00  0.00     0.028 A 
ATOM      6  C   UNL     1     152.921 155.838 158.297  1.00  0.00     0.083 A 
ATOM      7  N   UNL     1     152.313 155.690 159.496  1.00  0.00    -0.361 N 
ATOM      8  C   UNL     1     150.216 158.161 158.043  1.00  0.00     0.056 A 
ATOM      9  C   UNL     1     149.257 158.400 159.051  1.00  0.00     0.116 A 
ATOM     10  H   UNL     1     152.598 155.047 160.268  1.00  0.00     0.166 HD
ENDROOT
BRANCH   9  11
ATOM     11  O   UNL     1     148.239 159.330 158.851  1.00  0.00    -0.508 OA
ATOM     12  H   UNL     1     148.259 160.238 159.299  1.00  0.00     0.293 HD
ENDBRANCH   9  11
TORSDOF 1
ENDMDL
MODEL 4
REMARK VINA RESULT:    -5.787      2.471      3.616
REMARK INTER + INTRA:          -5.956
REMARK INTER:                  -5.956
REMARK INTRA:                   0.000
REMARK UNBOUND:                 0.000
REMARK SMILES Oc1ccc2[nH]ccc2c1
REMARK SMILES IDX 3 1 4 2 5 3 9 4 8 5 7 6 6 7 10 8 2 9 1 11
REMARK H PARENT 6 10 1 12
REMARK Flexibility Score: inf
ROOT
ATOM      1  C   UNL     1     152.981 155.830 158.523  1.00  0.00     0.048 A 
ATOM      2  C   UNL     1     152.209 156.789 157.843  1.00  0.00     0.030 A 
ATOM      3  C   UNL     1     151.070 157.279 158.482  1.00  0.00     0.046 A 
ATOM      4  C   UNL     1     150.704 156.850 159.730  1.00  0.00     0.003 A 
ATOM      5  C   UNL     1     149.549 157.519 160.073  1.00  0.00     0.028 A 
ATOM      6  C   UNL     1     149.269 158.341 158.985  1.00  0.00     0.083 A 
ATOM      7  N   UNL     1     150.201 158.191 158.016  1.00  0.00    -0.361 N 
ATOM      8  C   UNL     1     151.446 155.901 160.430  1.00  0.00     0.056 A 
ATOM      9  C   UNL     1     152.604 155.384 159.812  1.00  0.00     0.116 A 
ATOM     10  H   UNL     1     150.234 158.684 157.097  1.00  0.00     0.166 HD
ENDROOT
BRANCH   9  11
ATOM     11  O   UNL     1     153.386 154.433 160.463  1.00  0.00    -0.508 OA
ATOM     12  H   UNL     1     153.370 154.336 161.471  1.00  0.00     0.293 HD
ENDBRANCH   9  11
TORSDOF 1
ENDMDL
MODEL 5
REMARK VINA RESULT:    -5.778     15.544     16.397
REMARK INTER + INTRA:          -5.947
REMARK INTER:                  -5.947
REMARK INTRA:                   0.000
REMARK UNBOUND:                 0.000
REMARK SMILES Oc1ccc2[nH]ccc2c1
REMARK SMILES IDX 3 1 4 2 5 3 9 4 8 5 7 6 6 7 10 8 2 9 1 11
REMARK H PARENT 6 10 1 12
REMARK Flexibility Score: inf
ROOT
ATOM      1  C   UNL     1     150.496 168.433 149.320  1.00  0.00     0.048 A 
ATOM      2  C   UNL     1     151.027 168.729 150.589  1.00  0.00     0.030 A 
ATOM      3  C   UNL     1     150.377 169.694 151.357  1.00  0.00     0.046 A 
ATOM      4  C   UNL     1     149.257 170.340 150.905  1.00  0.00     0.003 A 
ATOM      5  C   UNL     1     148.864 171.221 151.889  1.00  0.00     0.028 A 
ATOM      6  C   UNL     1     149.791 171.057 152.915  1.00  0.00     0.083 A 
ATOM      7  N   UNL     1     150.712 170.124 152.585  1.00  0.00    -0.361 N 
ATOM      8  C   UNL     1     148.706 170.071 149.654  1.00  0.00     0.056 A 
ATOM      9  C   UNL     1     149.340 169.099 148.850  1.00  0.00     0.116 A 
ATOM     10  H   UNL     1     151.518 169.805 153.168  1.00  0.00     0.166 HD
ENDROOT
BRANCH   9  11
ATOM     11  O   UNL     1     148.835 168.788 147.590  1.00  0.00    -0.508 OA
ATOM     12  H   UNL     1     147.959 169.176 147.261  1.00  0.00     0.293 HD
ENDBRANCH   9  11
TORSDOF 1
ENDMDL
MODEL 6
REMARK VINA RESULT:    -5.751      1.921      2.708
REMARK INTER + INTRA:          -5.919
REMARK INTER:                  -5.919
REMARK INTRA:                   0.000
REMARK UNBOUND:                 0.000
REMARK SMILES Oc1ccc2[nH]ccc2c1
REMARK SMILES IDX 3 1 4 2 5 3 9 4 8 5 7 6 6 7 10 8 2 9 1 11
REMARK H PARENT 6 10 1 12
REMARK Flexibility Score: inf
ROOT
ATOM      1  C   UNL     1     151.389 156.752 159.486  1.00  0.00     0.048 A 
ATOM      2  C   UNL     1     151.589 156.379 160.828  1.00  0.00     0.030 A 
ATOM      3  C   UNL     1     152.525 155.381 161.093  1.00  0.00     0.046 A 
ATOM      4  C   UNL     1     153.235 154.774 160.091  1.00  0.00     0.003 A 
ATOM      5  C   UNL     1     154.065 153.845 160.678  1.00  0.00     0.028 A 
ATOM      6  C   UNL     1     153.808 153.940 162.043  1.00  0.00     0.083 A 
ATOM      7  N   UNL     1     152.867 154.879 162.291  1.00  0.00    -0.361 N 
ATOM      8  C   UNL     1     153.061 155.119 158.753  1.00  0.00     0.056 A 
ATOM      9  C   UNL     1     152.120 156.127 158.448  1.00  0.00     0.116 A 
ATOM     10  H   UNL     1     152.487 155.154 163.224  1.00  0.00     0.166 HD
ENDROOT
BRANCH   9  11
ATOM     11  O   UNL     1     151.904 156.515 157.129  1.00  0.00    -0.508 OA
ATOM     12  H   UNL     1     152.644 156.922 156.569  1.00  0.00     0.293 HD
ENDBRANCH   9  11
TORSDOF 1
ENDMDL
MODEL 7
REMARK VINA RESULT:    -5.673     15.223     16.049
REMARK INTER + INTRA:          -5.839
REMARK INTER:                  -5.839
REMARK INTRA:                   0.000
REMARK UNBOUND:                 0.000
REMARK SMILES Oc1ccc2[nH]ccc2c1
REMARK SMILES IDX 3 1 4 2 5 3 9 4 8 5 7 6 6 7 10 8 2 9 1 11
REMARK H PARENT 6 10 1 12
REMARK Flexibility Score: inf
ROOT
ATOM      1  C   UNL     1     148.526 170.050 149.775  1.00  0.00     0.048 A 
ATOM      2  C   UNL     1     148.888 170.512 151.053  1.00  0.00     0.030 A 
ATOM      3  C   UNL     1     150.101 170.073 151.584  1.00  0.00     0.046 A 
ATOM      4  C   UNL     1     150.922 169.221 150.894  1.00  0.00     0.003 A 
ATOM      5  C   UNL     1     152.026 168.983 151.684  1.00  0.00     0.028 A 
ATOM      6  C   UNL     1     151.810 169.724 152.842  1.00  0.00     0.083 A 
ATOM      7  N   UNL     1     150.633 170.388 152.776  1.00  0.00    -0.361 N 
ATOM      8  C   UNL     1     150.592 168.745 149.627  1.00  0.00     0.056 A 
ATOM      9  C   UNL     1     149.371 169.170 149.060  1.00  0.00     0.116 A 
ATOM     10  H   UNL     1     150.226 171.015 153.505  1.00  0.00     0.166 HD
ENDROOT
BRANCH   9  11
ATOM     11  O   UNL     1     148.988 168.728 147.797  1.00  0.00    -0.508 OA
ATOM     12  H   UNL     1     148.887 167.741 147.591  1.00  0.00     0.293 HD
ENDBRANCH   9  11
TORSDOF 1
ENDMDL
MODEL 8
REMARK VINA RESULT:    -5.671     15.485     16.139
REMARK INTER + INTRA:          -5.837
REMARK INTER:                  -5.837
REMARK INTRA:                   0.000
REMARK UNBOUND:                 0.000
REMARK SMILES Oc1ccc2[nH]ccc2c1
REMARK SMILES IDX 3 1 4 2 5 3 9 4 8 5 7 6 6 7 10 8 2 9 1 11
REMARK H PARENT 6 10 1 12
REMARK Flexibility Score: inf
ROOT
ATOM      1  C   UNL     1     148.389 170.826 151.220  1.00  0.00     0.048 A 
ATOM      2  C   UNL     1     148.441 170.135 149.996  1.00  0.00     0.030 A 
ATOM      3  C   UNL     1     149.556 169.336 149.747  1.00  0.00     0.046 A 
ATOM      4  C   UNL     1     150.574 169.217 150.655  1.00  0.00     0.003 A 
ATOM      5  C   UNL     1     151.513 168.366 150.114  1.00  0.00     0.028 A 
ATOM      6  C   UNL     1     150.999 168.002 148.872  1.00  0.00     0.083 A 
ATOM      7  N   UNL     1     149.805 168.597 148.653  1.00  0.00    -0.361 N 
ATOM      8  C   UNL     1     150.554 169.888 151.876  1.00  0.00     0.056 A 
ATOM      9  C   UNL     1     149.440 170.707 152.160  1.00  0.00     0.116 A 
ATOM     10  H   UNL     1     149.202 168.500 147.805  1.00  0.00     0.166 HD
ENDROOT
BRANCH   9  11
ATOM     11  O   UNL     1     149.364 171.402 153.364  1.00  0.00    -0.508 OA
ATOM     12  H   UNL     1     149.963 171.169 154.147  1.00  0.00     0.293 HD
ENDBRANCH   9  11
TORSDOF 1
ENDMDL
MODEL 9
REMARK VINA RESULT:    -5.586     15.561     16.323
REMARK INTER + INTRA:          -5.750
REMARK INTER:                  -5.750
REMARK INTRA:                   0.000
REMARK UNBOUND:                 0.000
REMARK SMILES Oc1ccc2[nH]ccc2c1
REMARK SMILES IDX 3 1 4 2 5 3 9 4 8 5 7 6 6 7 10 8 2 9 1 11
REMARK H PARENT 6 10 1 12
REMARK Flexibility Score: inf
ROOT
ATOM      1  C   UNL     1     149.502 168.798 148.860  1.00  0.00     0.048 A 
ATOM      2  C   UNL     1     148.765 169.818 149.488  1.00  0.00     0.030 A 
ATOM      3  C   UNL     1     149.223 170.288 150.718  1.00  0.00     0.046 A 
ATOM      4  C   UNL     1     150.352 169.784 151.307  1.00  0.00     0.003 A 
ATOM      5  C   UNL     1     150.530 170.454 152.498  1.00  0.00     0.028 A 
ATOM      6  C   UNL     1     149.470 171.353 152.571  1.00  0.00     0.083 A 
ATOM      7  N   UNL     1     148.675 171.248 151.482  1.00  0.00    -0.361 N 
ATOM      8  C   UNL     1     151.105 168.774 150.712  1.00  0.00     0.056 A 
ATOM      9  C   UNL     1     150.669 168.275 149.466  1.00  0.00     0.116 A 
ATOM     10  H   UNL     1     147.813 171.801 151.280  1.00  0.00     0.166 HD
ENDROOT
BRANCH   9  11
ATOM     11  O   UNL     1     151.381 167.266 148.822  1.00  0.00    -0.508 OA
ATOM     12  H   UNL     1     152.047 166.689 149.322  1.00  0.00     0.293 HD
ENDBRANCH   9  11
TORSDOF 1
ENDMDL
