MODEL 1
REMARK VINA RESULT:    -3.408      0.000      0.000
REMARK INTER + INTRA:          -3.814
REMARK INTER:                  -3.806
REMARK INTRA:                  -0.008
REMARK UNBOUND:                -0.008
REMARK SMILES CCCC(=O)[O-]
REMARK SMILES IDX 3 1 4 2 5 3 6 4 2 5 1 6
REMARK H PARENT
REMARK Flexibility Score: inf
ROOT
ATOM      1  C   UNL     1      25.595   6.719   5.659  1.00  0.00     0.052 C 
ENDROOT
BRANCH   1   2
ATOM      2  C   UNL     1      24.236   7.212   6.052  1.00  0.00     0.041 C 
ATOM      3  O   UNL     1      23.402   6.424   6.571  1.00  0.00    -0.550 OA
ATOM      4  O   UNL     1      23.880   8.533   5.814  1.00  0.00    -0.550 OA
ENDBRANCH   1   2
BRANCH   1   5
ATOM      5  C   UNL     1      26.191   5.788   6.722  1.00  0.00     0.003 C 
ATOM      6  C   UNL     1      27.618   5.356   6.383  1.00  0.00     0.004 C 
ENDBRANCH   1   5
TORSDOF 2
ENDMDL
MODEL 2
REMARK VINA RESULT:    -3.325     13.797     15.097
REMARK INTER + INTRA:          -3.721
REMARK INTER:                  -3.702
REMARK INTRA:                  -0.019
REMARK UNBOUND:                -0.008
REMARK SMILES CCCC(=O)[O-]
REMARK SMILES IDX 3 1 4 2 5 3 6 4 2 5 1 6
REMARK H PARENT
REMARK Flexibility Score: inf
ROOT
ATOM      1  C   UNL     1      11.732  12.063   1.877  1.00  0.00     0.052 C 
ENDROOT
BRANCH   1   2
ATOM      2  C   UNL     1      10.784  12.759   2.804  1.00  0.00     0.041 C 
ATOM      3  O   UNL     1      11.221  13.533   3.696  1.00  0.00    -0.550 OA
ATOM      4  O   UNL     1       9.418  12.526   2.704  1.00  0.00    -0.550 OA
ENDBRANCH   1   2
BRANCH   1   5
ATOM      5  C   UNL     1      13.192  12.415   2.189  1.00  0.00     0.003 C 
ATOM      6  C   UNL     1      14.118  11.204   2.084  1.00  0.00     0.004 C 
ENDBRANCH   1   5
TORSDOF 2
ENDMDL
MODEL 3
REMARK VINA RESULT:    -3.296      1.035      1.727
REMARK INTER + INTRA:          -3.690
REMARK INTER:                  -3.672
REMARK INTRA:                  -0.017
REMARK UNBOUND:                -0.008
REMARK SMILES CCCC(=O)[O-]
REMARK SMILES IDX 3 1 4 2 5 3 6 4 2 5 1 6
REMARK H PARENT
REMARK Flexibility Score: inf
ROOT
ATOM      1  C   UNL     1      26.218   6.441   7.010  1.00  0.00     0.052 C 
ENDROOT
BRANCH   1   2
ATOM      2  C   UNL     1      25.044   6.943   6.228  1.00  0.00     0.041 C 
ATOM      3  O   UNL     1      25.203   7.820   5.339  1.00  0.00    -0.550 OA
ATOM      4  O   UNL     1      23.769   6.468   6.506  1.00  0.00    -0.550 OA
ENDBRANCH   1   2
BRANCH   1   5
ATOM      5  C   UNL     1      27.043   5.426   6.208  1.00  0.00     0.003 C 
ATOM      6  C   UNL     1      27.066   4.046   6.864  1.00  0.00     0.004 C 
ENDBRANCH   1   5
TORSDOF 2
ENDMDL
MODEL 4
REMARK VINA RESULT:    -3.204      2.238      3.273
REMARK INTER + INTRA:          -3.587
REMARK INTER:                  -3.561
REMARK INTRA:                  -0.025
REMARK UNBOUND:                -0.008
REMARK SMILES CCCC(=O)[O-]
REMARK SMILES IDX 3 1 4 2 5 3 6 4 2 5 1 6
REMARK H PARENT
REMARK Flexibility Score: inf
ROOT
ATOM      1  C   UNL     1      25.498   6.579   5.766  1.00  0.00     0.052 C 
ENDROOT
BRANCH   1   2
ATOM      2  C   UNL     1      26.218   6.016   6.952  1.00  0.00     0.041 C 
ATOM      3  O   UNL     1      26.435   4.778   7.034  1.00  0.00    -0.550 OA
ATOM      4  O   UNL     1      26.620   6.855   7.984  1.00  0.00    -0.550 OA
ENDBRANCH   1   2
BRANCH   1   5
ATOM      5  C   UNL     1      24.133   7.162   6.154  1.00  0.00     0.003 C 
ATOM      6  C   UNL     1      23.953   8.599   5.665  1.00  0.00     0.004 C 
ENDBRANCH   1   5
TORSDOF 2
ENDMDL
MODEL 5
REMARK VINA RESULT:    -3.080     10.911     12.343
REMARK INTER + INTRA:          -3.448
REMARK INTER:                  -3.439
REMARK INTRA:                  -0.008
REMARK UNBOUND:                -0.008
REMARK SMILES CCCC(=O)[O-]
REMARK SMILES IDX 3 1 4 2 5 3 6 4 2 5 1 6
REMARK H PARENT
REMARK Flexibility Score: inf
ROOT
ATOM      1  C   UNL     1      18.266  16.408   7.805  1.00  0.00     0.052 C 
ENDROOT
BRANCH   1   2
ATOM      2  C   UNL     1      19.057  15.973   6.610  1.00  0.00     0.041 C 
ATOM      3  O   UNL     1      19.319  16.791   5.690  1.00  0.00    -0.550 OA
ATOM      4  O   UNL     1      19.477  14.653   6.497  1.00  0.00    -0.550 OA
ENDBRANCH   1   2
BRANCH   1   5
ATOM      5  C   UNL     1      18.665  17.815   8.269  1.00  0.00     0.003 C 
ATOM      6  C   UNL     1      17.849  18.284   9.473  1.00  0.00     0.004 C 
ENDBRANCH   1   5
TORSDOF 2
ENDMDL
MODEL 6
REMARK VINA RESULT:    -3.060      1.454      1.855
REMARK INTER + INTRA:          -3.426
REMARK INTER:                  -3.382
REMARK INTRA:                  -0.044
REMARK UNBOUND:                -0.008
REMARK SMILES CCCC(=O)[O-]
REMARK SMILES IDX 3 1 4 2 5 3 6 4 2 5 1 6
REMARK H PARENT
REMARK Flexibility Score: inf
ROOT
ATOM      1  C   UNL     1      25.567   7.073   6.173  1.00  0.00     0.052 C 
ENDROOT
BRANCH   1   2
ATOM      2  C   UNL     1      24.085   7.284   6.122  1.00  0.00     0.041 C 
ATOM      3  O   UNL     1      23.303   6.392   6.543  1.00  0.00    -0.550 OA
ATOM      4  O   UNL     1      23.568   8.452   5.578  1.00  0.00    -0.550 OA
ENDBRANCH   1   2
BRANCH   1   5
ATOM      5  C   UNL     1      26.120   7.271   7.590  1.00  0.00     0.003 C 
ATOM      6  C   UNL     1      25.882   8.686   8.116  1.00  0.00     0.004 C 
ENDBRANCH   1   5
TORSDOF 2
ENDMDL
MODEL 7
REMARK VINA RESULT:    -3.054     11.411     12.626
REMARK INTER + INTRA:          -3.419
REMARK INTER:                  -3.393
REMARK INTRA:                  -0.026
REMARK UNBOUND:                -0.008
REMARK SMILES CCCC(=O)[O-]
REMARK SMILES IDX 3 1 4 2 5 3 6 4 2 5 1 6
REMARK H PARENT
REMARK Flexibility Score: inf
ROOT
ATOM      1  C   UNL     1      18.165  16.620   7.942  1.00  0.00     0.052 C 
ENDROOT
BRANCH   1   2
ATOM      2  C   UNL     1      18.503  17.879   8.679  1.00  0.00     0.041 C 
ATOM      3  O   UNL     1      19.482  18.583   8.316  1.00  0.00    -0.550 OA
ATOM      4  O   UNL     1      17.758  18.256   9.789  1.00  0.00    -0.550 OA
ENDBRANCH   1   2
BRANCH   1   5
ATOM      5  C   UNL     1      18.895  16.536   6.596  1.00  0.00     0.003 C 
ATOM      6  C   UNL     1      19.521  15.162   6.358  1.00  0.00     0.004 C 
ENDBRANCH   1   5
TORSDOF 2
ENDMDL
MODEL 8
REMARK VINA RESULT:    -2.997     12.744     13.497
REMARK INTER + INTRA:          -3.355
REMARK INTER:                  -3.341
REMARK INTRA:                  -0.014
REMARK UNBOUND:                -0.008
REMARK SMILES CCCC(=O)[O-]
REMARK SMILES IDX 3 1 4 2 5 3 6 4 2 5 1 6
REMARK H PARENT
REMARK Flexibility Score: inf
ROOT
ATOM      1  C   UNL     1      15.876   2.102  -1.634  1.00  0.00     0.052 C 
ENDROOT
BRANCH   1   2
ATOM      2  C   UNL     1      15.361   3.481  -1.355  1.00  0.00     0.041 C 
ATOM      3  O   UNL     1      14.626   4.066  -2.193  1.00  0.00    -0.550 OA
ATOM      4  O   UNL     1      15.723   4.134  -0.183  1.00  0.00    -0.550 OA
ENDBRANCH   1   2
BRANCH   1   5
ATOM      5  C   UNL     1      14.737   1.077  -1.715  1.00  0.00     0.003 C 
ATOM      6  C   UNL     1      15.021  -0.029  -2.730  1.00  0.00     0.004 C 
ENDBRANCH   1   5
TORSDOF 2
ENDMDL
MODEL 9
REMARK VINA RESULT:    -2.809     11.727     12.420
REMARK INTER + INTRA:          -3.145
REMARK INTER:                  -3.076
REMARK INTRA:                  -0.069
REMARK UNBOUND:                -0.008
REMARK SMILES CCCC(=O)[O-]
REMARK SMILES IDX 3 1 4 2 5 3 6 4 2 5 1 6
REMARK H PARENT
REMARK Flexibility Score: inf
ROOT
ATOM      1  C   UNL     1      24.789  16.274  15.125  1.00  0.00     0.052 C 
ENDROOT
BRANCH   1   2
ATOM      2  C   UNL     1      25.663  16.282  13.908  1.00  0.00     0.041 C 
ATOM      3  O   UNL     1      26.892  16.027  14.008  1.00  0.00    -0.550 OA
ATOM      4  O   UNL     1      25.126  16.606  12.669  1.00  0.00    -0.550 OA
ENDBRANCH   1   2
BRANCH   1   5
ATOM      5  C   UNL     1      23.560  15.377  14.934  1.00  0.00     0.003 C 
ATOM      6  C   UNL     1      23.928  13.896  14.850  1.00  0.00     0.004 C 
ENDBRANCH   1   5
TORSDOF 2
ENDMDL
