MODEL 1
REMARK VINA RESULT:    -4.828      0.000      0.000
REMARK INTER + INTRA:         -11.086
REMARK INTER:                  -8.780
REMARK INTRA:                  -2.306
REMARK UNBOUND:                -2.306
REMARK SMILES CCCCCCCCCCCCCC[C@H](C)C(=O)[O-]
REMARK SMILES IDX 9 1 10 2 11 3 12 4 13 5 14 6 15 7 16 8 17 9 18 10 19 11 8 12
REMARK SMILES IDX 7 13 6 14 5 15 4 16 3 17 2 18 1 19
REMARK H PARENT
REMARK Flexibility Score: inf
ROOT
ATOM      1  C   UNL     1     -46.988  25.244 -13.709  1.00  0.00     0.000 C 
ENDROOT
BRANCH   1   2
ATOM      2  C   UNL     1     -45.750  26.155 -13.615  1.00  0.00     0.000 C 
BRANCH   2   3
ATOM      3  C   UNL     1     -46.100  27.643 -13.781  1.00  0.00     0.000 C 
BRANCH   3   4
ATOM      4  C   UNL     1     -45.166  28.360 -14.774  1.00  0.00     0.000 C 
BRANCH   4   5
ATOM      5  C   UNL     1     -45.589  28.156 -16.238  1.00  0.00     0.001 C 
BRANCH   5   6
ATOM      6  C   UNL     1     -44.700  27.139 -16.976  1.00  0.00     0.009 C 
BRANCH   6   7
ATOM      7  C   UNL     1     -45.064  27.007 -18.471  1.00  0.00     0.032 C 
ATOM      8  C   UNL     1     -45.356  25.555 -18.877  1.00  0.00     0.014 C 
BRANCH   7   9
ATOM      9  C   UNL     1     -43.948  27.553 -19.321  1.00  0.00     0.044 C 
ATOM     10  O   UNL     1     -43.329  28.594 -18.972  1.00  0.00    -0.550 OA
ATOM     11  O   UNL     1     -43.594  26.909 -20.499  1.00  0.00    -0.550 OA
ENDBRANCH   7   9
ENDBRANCH   6   7
ENDBRANCH   5   6
ENDBRANCH   4   5
ENDBRANCH   3   4
ENDBRANCH   2   3
ENDBRANCH   1   2
BRANCH   1  12
ATOM     12  C   UNL     1     -48.086  25.831 -14.610  1.00  0.00     0.000 C 
BRANCH  12  13
ATOM     13  C   UNL     1     -48.087  25.226 -16.021  1.00  0.00    -0.000 C 
BRANCH  13  14
ATOM     14  C   UNL     1     -48.584  26.245 -17.054  1.00  0.00    -0.000 C 
BRANCH  14  15
ATOM     15  C   UNL     1     -49.455  27.321 -16.393  1.00  0.00    -0.000 C 
BRANCH  15  16
ATOM     16  C   UNL     1     -50.779  27.501 -17.151  1.00  0.00    -0.000 C 
BRANCH  16  17
ATOM     17  C   UNL     1     -51.995  27.035 -16.324  1.00  0.00    -0.000 C 
BRANCH  17  18
ATOM     18  C   UNL     1     -51.617  26.428 -14.963  1.00  0.00    -0.003 C 
ATOM     19  C   UNL     1     -51.876  24.925 -14.886  1.00  0.00     0.004 C 
ENDBRANCH  17  18
ENDBRANCH  16  17
ENDBRANCH  15  16
ENDBRANCH  14  15
ENDBRANCH  13  14
ENDBRANCH  12  13
ENDBRANCH   1  12
TORSDOF 14
ENDMDL
MODEL 2
REMARK VINA RESULT:    -4.755      4.349      7.199
REMARK INTER + INTRA:         -10.952
REMARK INTER:                  -8.696
REMARK INTRA:                  -2.257
REMARK UNBOUND:                -2.306
REMARK SMILES CCCCCCCCCCCCCC[C@H](C)C(=O)[O-]
REMARK SMILES IDX 9 1 10 2 11 3 12 4 13 5 14 6 15 7 16 8 17 9 18 10 19 11 8 12
REMARK SMILES IDX 7 13 6 14 5 15 4 16 3 17 2 18 1 19
REMARK H PARENT
REMARK Flexibility Score: inf
ROOT
ATOM      1  C   UNL     1     -48.176  25.260 -14.663  1.00  0.00     0.000 C 
ENDROOT
BRANCH   1   2
ATOM      2  C   UNL     1     -49.001  26.549 -14.832  1.00  0.00     0.000 C 
BRANCH   2   3
ATOM      3  C   UNL     1     -49.716  26.617 -16.191  1.00  0.00     0.000 C 
BRANCH   3   4
ATOM      4  C   UNL     1     -51.130  27.218 -16.084  1.00  0.00     0.000 C 
BRANCH   4   5
ATOM      5  C   UNL     1     -51.912  26.681 -14.873  1.00  0.00     0.001 C 
BRANCH   5   6
ATOM      6  C   UNL     1     -52.498  25.279 -15.119  1.00  0.00     0.009 C 
BRANCH   6   7
ATOM      7  C   UNL     1     -51.890  24.209 -14.187  1.00  0.00     0.032 C 
ATOM      8  C   UNL     1     -51.259  23.045 -14.965  1.00  0.00     0.014 C 
BRANCH   7   9
ATOM      9  C   UNL     1     -52.947  23.679 -13.255  1.00  0.00     0.044 C 
ATOM     10  O   UNL     1     -52.683  22.743 -12.454  1.00  0.00    -0.550 OA
ATOM     11  O   UNL     1     -54.224  24.224 -13.273  1.00  0.00    -0.550 OA
ENDBRANCH   7   9
ENDBRANCH   6   7
ENDBRANCH   5   6
ENDBRANCH   4   5
ENDBRANCH   3   4
ENDBRANCH   2   3
ENDBRANCH   1   2
BRANCH   1  12
ATOM     12  C   UNL     1     -46.943  25.461 -13.768  1.00  0.00     0.000 C 
BRANCH  12  13
ATOM     13  C   UNL     1     -46.802  26.904 -13.263  1.00  0.00    -0.000 C 
BRANCH  13  14
ATOM     14  C   UNL     1     -45.764  27.674 -14.088  1.00  0.00    -0.000 C 
BRANCH  14  15
ATOM     15  C   UNL     1     -44.861  26.715 -14.874  1.00  0.00    -0.000 C 
BRANCH  15  16
ATOM     16  C   UNL     1     -44.823  27.089 -16.363  1.00  0.00    -0.000 C 
BRANCH  16  17
ATOM     17  C   UNL     1     -46.096  27.839 -16.810  1.00  0.00    -0.000 C 
BRANCH  17  18
ATOM     18  C   UNL     1     -46.714  27.284 -18.104  1.00  0.00    -0.003 C 
ATOM     19  C   UNL     1     -46.737  25.758 -18.150  1.00  0.00     0.004 C 
ENDBRANCH  17  18
ENDBRANCH  16  17
ENDBRANCH  15  16
ENDBRANCH  14  15
ENDBRANCH  13  14
ENDBRANCH  12  13
ENDBRANCH   1  12
TORSDOF 14
ENDMDL
MODEL 3
REMARK VINA RESULT:    -4.711      1.193      2.519
REMARK INTER + INTRA:         -10.873
REMARK INTER:                  -8.227
REMARK INTRA:                  -2.646
REMARK UNBOUND:                -2.306
REMARK SMILES CCCCCCCCCCCCCC[C@H](C)C(=O)[O-]
REMARK SMILES IDX 9 1 10 2 11 3 12 4 13 5 14 6 15 7 16 8 17 9 18 10 19 11 8 12
REMARK SMILES IDX 7 13 6 14 5 15 4 16 3 17 2 18 1 19
REMARK H PARENT
REMARK Flexibility Score: inf
ROOT
ATOM      1  C   UNL     1     -47.674  25.571 -14.713  1.00  0.00     0.000 C 
ENDROOT
BRANCH   1   2
ATOM      2  C   UNL     1     -48.658  24.996 -15.749  1.00  0.00     0.000 C 
BRANCH   2   3
ATOM      3  C   UNL     1     -48.058  24.939 -17.163  1.00  0.00     0.000 C 
BRANCH   3   4
ATOM      4  C   UNL     1     -48.272  26.247 -17.948  1.00  0.00     0.000 C 
BRANCH   4   5
ATOM      5  C   UNL     1     -46.957  26.992 -18.229  1.00  0.00     0.001 C 
BRANCH   5   6
ATOM      6  C   UNL     1     -45.775  26.035 -18.474  1.00  0.00     0.009 C 
BRANCH   6   7
ATOM      7  C   UNL     1     -44.424  26.633 -18.024  1.00  0.00     0.032 C 
ATOM      8  C   UNL     1     -44.599  27.790 -17.029  1.00  0.00     0.014 C 
BRANCH   7   9
ATOM      9  C   UNL     1     -43.649  27.111 -19.222  1.00  0.00     0.044 C 
ATOM     10  O   UNL     1     -44.019  26.806 -20.387  1.00  0.00    -0.550 OA
ATOM     11  O   UNL     1     -42.516  27.895 -19.048  1.00  0.00    -0.550 OA
ENDBRANCH   7   9
ENDBRANCH   6   7
ENDBRANCH   5   6
ENDBRANCH   4   5
ENDBRANCH   3   4
ENDBRANCH   2   3
ENDBRANCH   1   2
BRANCH   1  12
ATOM     12  C   UNL     1     -48.165  26.892 -14.101  1.00  0.00     0.000 C 
BRANCH  12  13
ATOM     13  C   UNL     1     -47.633  28.127 -14.843  1.00  0.00    -0.000 C 
BRANCH  13  14
ATOM     14  C   UNL     1     -48.786  28.975 -15.394  1.00  0.00    -0.000 C 
BRANCH  14  15
ATOM     15  C   UNL     1     -50.143  28.329 -15.084  1.00  0.00    -0.000 C 
BRANCH  15  16
ATOM     16  C   UNL     1     -50.943  28.082 -16.371  1.00  0.00    -0.000 C 
BRANCH  16  17
ATOM     17  C   UNL     1     -51.894  26.873 -16.245  1.00  0.00    -0.000 C 
BRANCH  17  18
ATOM     18  C   UNL     1     -51.948  26.277 -14.829  1.00  0.00    -0.003 C 
ATOM     19  C   UNL     1     -52.080  24.755 -14.826  1.00  0.00     0.004 C 
ENDBRANCH  17  18
ENDBRANCH  16  17
ENDBRANCH  15  16
ENDBRANCH  14  15
ENDBRANCH  13  14
ENDBRANCH  12  13
ENDBRANCH   1  12
TORSDOF 14
ENDMDL
MODEL 4
REMARK VINA RESULT:    -4.679      3.524      6.646
REMARK INTER + INTRA:         -10.815
REMARK INTER:                  -8.317
REMARK INTRA:                  -2.498
REMARK UNBOUND:                -2.306
REMARK SMILES CCCCCCCCCCCCCC[C@H](C)C(=O)[O-]
REMARK SMILES IDX 9 1 10 2 11 3 12 4 13 5 14 6 15 7 16 8 17 9 18 10 19 11 8 12
REMARK SMILES IDX 7 13 6 14 5 15 4 16 3 17 2 18 1 19
REMARK H PARENT
REMARK Flexibility Score: inf
ROOT
ATOM      1  C   UNL     1     -48.021  26.288 -14.923  1.00  0.00     0.000 C 
ENDROOT
BRANCH   1   2
ATOM      2  C   UNL     1     -48.179  25.652 -16.316  1.00  0.00     0.000 C 
BRANCH   2   3
ATOM      3  C   UNL     1     -48.575  26.678 -17.390  1.00  0.00     0.000 C 
BRANCH   3   4
ATOM      4  C   UNL     1     -49.114  27.987 -16.784  1.00  0.00     0.000 C 
BRANCH   4   5
ATOM      5  C   UNL     1     -50.565  28.279 -17.200  1.00  0.00     0.001 C 
BRANCH   5   6
ATOM      6  C   UNL     1     -51.546  27.186 -16.738  1.00  0.00     0.009 C 
BRANCH   6   7
ATOM      7  C   UNL     1     -51.597  27.045 -15.200  1.00  0.00     0.032 C 
ATOM      8  C   UNL     1     -52.125  25.674 -14.755  1.00  0.00     0.014 C 
BRANCH   7   9
ATOM      9  C   UNL     1     -52.457  28.133 -14.614  1.00  0.00     0.044 C 
ATOM     10  O   UNL     1     -53.662  28.254 -14.962  1.00  0.00    -0.550 OA
ATOM     11  O   UNL     1     -51.923  29.012 -13.681  1.00  0.00    -0.550 OA
ENDBRANCH   7   9
ENDBRANCH   6   7
ENDBRANCH   5   6
ENDBRANCH   4   5
ENDBRANCH   3   4
ENDBRANCH   2   3
ENDBRANCH   1   2
BRANCH   1  12
ATOM     12  C   UNL     1     -47.122  25.457 -13.993  1.00  0.00     0.000 C 
BRANCH  12  13
ATOM     13  C   UNL     1     -45.731  26.077 -13.798  1.00  0.00    -0.000 C 
BRANCH  13  14
ATOM     14  C   UNL     1     -45.749  27.576 -14.118  1.00  0.00    -0.000 C 
BRANCH  14  15
ATOM     15  C   UNL     1     -44.715  27.923 -15.197  1.00  0.00    -0.000 C 
BRANCH  15  16
ATOM     16  C   UNL     1     -45.398  28.457 -16.465  1.00  0.00    -0.000 C 
BRANCH  16  17
ATOM     17  C   UNL     1     -44.789  27.862 -17.752  1.00  0.00    -0.000 C 
BRANCH  17  18
ATOM     18  C   UNL     1     -44.656  26.331 -17.719  1.00  0.00    -0.003 C 
ATOM     19  C   UNL     1     -45.362  25.645 -18.887  1.00  0.00     0.004 C 
ENDBRANCH  17  18
ENDBRANCH  16  17
ENDBRANCH  15  16
ENDBRANCH  14  15
ENDBRANCH  13  14
ENDBRANCH  12  13
ENDBRANCH   1  12
TORSDOF 14
ENDMDL
MODEL 5
REMARK VINA RESULT:    -4.563      3.885      7.049
REMARK INTER + INTRA:         -10.603
REMARK INTER:                  -8.415
REMARK INTRA:                  -2.188
REMARK UNBOUND:                -2.306
REMARK SMILES CCCCCCCCCCCCCC[C@H](C)C(=O)[O-]
REMARK SMILES IDX 9 1 10 2 11 3 12 4 13 5 14 6 15 7 16 8 17 9 18 10 19 11 8 12
REMARK SMILES IDX 7 13 6 14 5 15 4 16 3 17 2 18 1 19
REMARK H PARENT
REMARK Flexibility Score: inf
ROOT
ATOM      1  C   UNL     1     -48.150  28.243 -15.321  1.00  0.00     0.000 C 
ENDROOT
BRANCH   1   2
ATOM      2  C   UNL     1     -48.043  28.003 -16.838  1.00  0.00     0.000 C 
BRANCH   2   3
ATOM      3  C   UNL     1     -48.684  26.674 -17.271  1.00  0.00     0.000 C 
BRANCH   3   4
ATOM      4  C   UNL     1     -47.987  25.452 -16.645  1.00  0.00     0.000 C 
BRANCH   4   5
ATOM      5  C   UNL     1     -48.979  24.471 -15.999  1.00  0.00     0.001 C 
BRANCH   5   6
ATOM      6  C   UNL     1     -49.812  25.121 -14.879  1.00  0.00     0.009 C 
BRANCH   6   7
ATOM      7  C   UNL     1     -51.324  25.140 -15.198  1.00  0.00     0.032 C 
ATOM      8  C   UNL     1     -51.917  26.555 -15.134  1.00  0.00     0.014 C 
BRANCH   7   9
ATOM      9  C   UNL     1     -52.061  24.240 -14.243  1.00  0.00     0.044 C 
ATOM     10  O   UNL     1     -53.274  24.449 -13.973  1.00  0.00    -0.550 OA
ATOM     11  O   UNL     1     -51.404  23.168 -13.653  1.00  0.00    -0.550 OA
ENDBRANCH   7   9
ENDBRANCH   6   7
ENDBRANCH   5   6
ENDBRANCH   4   5
ENDBRANCH   3   4
ENDBRANCH   2   3
ENDBRANCH   1   2
BRANCH   1  12
ATOM     12  C   UNL     1     -46.783  28.496 -14.666  1.00  0.00     0.000 C 
BRANCH  12  13
ATOM     13  C   UNL     1     -46.054  27.200 -14.285  1.00  0.00    -0.000 C 
BRANCH  13  14
ATOM     14  C   UNL     1     -44.822  26.982 -15.173  1.00  0.00    -0.000 C 
BRANCH  14  15
ATOM     15  C   UNL     1     -44.436  28.273 -15.908  1.00  0.00    -0.000 C 
BRANCH  15  16
ATOM     16  C   UNL     1     -44.363  28.043 -17.424  1.00  0.00    -0.000 C 
BRANCH  16  17
ATOM     17  C   UNL     1     -44.708  26.590 -17.813  1.00  0.00    -0.000 C 
BRANCH  17  18
ATOM     18  C   UNL     1     -44.390  26.252 -19.278  1.00  0.00    -0.003 C 
ATOM     19  C   UNL     1     -43.294  27.135 -19.871  1.00  0.00     0.004 C 
ENDBRANCH  17  18
ENDBRANCH  16  17
ENDBRANCH  15  16
ENDBRANCH  14  15
ENDBRANCH  13  14
ENDBRANCH  12  13
ENDBRANCH   1  12
TORSDOF 14
ENDMDL
MODEL 6
REMARK VINA RESULT:    -4.556      3.353      6.389
REMARK INTER + INTRA:         -10.591
REMARK INTER:                  -8.414
REMARK INTRA:                  -2.176
REMARK UNBOUND:                -2.306
REMARK SMILES CCCCCCCCCCCCCC[C@H](C)C(=O)[O-]
REMARK SMILES IDX 9 1 10 2 11 3 12 4 13 5 14 6 15 7 16 8 17 9 18 10 19 11 8 12
REMARK SMILES IDX 7 13 6 14 5 15 4 16 3 17 2 18 1 19
REMARK H PARENT
REMARK Flexibility Score: inf
ROOT
ATOM      1  C   UNL     1     -46.070  25.356 -18.500  1.00  0.00     0.000 C 
ENDROOT
BRANCH   1   2
ATOM      2  C   UNL     1     -47.289  25.906 -17.738  1.00  0.00     0.000 C 
BRANCH   2   3
ATOM      3  C   UNL     1     -47.738  27.282 -18.259  1.00  0.00     0.000 C 
BRANCH   3   4
ATOM      4  C   UNL     1     -48.873  27.890 -17.415  1.00  0.00     0.000 C 
BRANCH   4   5
ATOM      5  C   UNL     1     -48.492  28.047 -15.933  1.00  0.00     0.001 C 
BRANCH   5   6
ATOM      6  C   UNL     1     -49.105  26.950 -15.044  1.00  0.00     0.009 C 
BRANCH   6   7
ATOM      7  C   UNL     1     -50.552  26.595 -15.451  1.00  0.00     0.032 C 
ATOM      8  C   UNL     1     -51.586  27.534 -14.812  1.00  0.00     0.014 C 
BRANCH   7   9
ATOM      9  C   UNL     1     -50.859  25.172 -15.070  1.00  0.00     0.044 C 
ATOM     10  O   UNL     1     -49.929  24.373 -14.779  1.00  0.00    -0.550 OA
ATOM     11  O   UNL     1     -52.175  24.731 -15.035  1.00  0.00    -0.550 OA
ENDBRANCH   7   9
ENDBRANCH   6   7
ENDBRANCH   5   6
ENDBRANCH   4   5
ENDBRANCH   3   4
ENDBRANCH   2   3
ENDBRANCH   1   2
BRANCH   1  12
ATOM     12  C   UNL     1     -45.309  26.450 -19.265  1.00  0.00     0.000 C 
BRANCH  12  13
ATOM     13  C   UNL     1     -43.945  26.776 -18.639  1.00  0.00    -0.000 C 
BRANCH  13  14
ATOM     14  C   UNL     1     -43.692  28.288 -18.634  1.00  0.00    -0.000 C 
BRANCH  14  15
ATOM     15  C   UNL     1     -43.545  28.819 -17.202  1.00  0.00    -0.000 C 
BRANCH  15  16
ATOM     16  C   UNL     1     -44.873  28.716 -16.436  1.00  0.00    -0.000 C 
BRANCH  16  17
ATOM     17  C   UNL     1     -44.699  28.064 -15.049  1.00  0.00    -0.000 C 
BRANCH  17  18
ATOM     18  C   UNL     1     -45.192  26.609 -14.987  1.00  0.00    -0.003 C 
ATOM     19  C   UNL     1     -45.763  26.229 -13.622  1.00  0.00     0.004 C 
ENDBRANCH  17  18
ENDBRANCH  16  17
ENDBRANCH  15  16
ENDBRANCH  14  15
ENDBRANCH  13  14
ENDBRANCH  12  13
ENDBRANCH   1  12
TORSDOF 14
ENDMDL
MODEL 7
REMARK VINA RESULT:    -4.555      3.271      7.000
REMARK INTER + INTRA:         -10.590
REMARK INTER:                  -8.918
REMARK INTRA:                  -1.672
REMARK UNBOUND:                -2.306
REMARK SMILES CCCCCCCCCCCCCC[C@H](C)C(=O)[O-]
REMARK SMILES IDX 9 1 10 2 11 3 12 4 13 5 14 6 15 7 16 8 17 9 18 10 19 11 8 12
REMARK SMILES IDX 7 13 6 14 5 15 4 16 3 17 2 18 1 19
REMARK H PARENT
REMARK Flexibility Score: inf
ROOT
ATOM      1  C   UNL     1     -48.077  26.031 -17.199  1.00  0.00     0.000 C 
ENDROOT
BRANCH   1   2
ATOM      2  C   UNL     1     -49.145  26.880 -17.913  1.00  0.00     0.000 C 
BRANCH   2   3
ATOM      3  C   UNL     1     -49.883  27.827 -16.953  1.00  0.00     0.000 C 
BRANCH   3   4
ATOM      4  C   UNL     1     -51.412  27.653 -17.012  1.00  0.00     0.000 C 
BRANCH   4   5
ATOM      5  C   UNL     1     -52.026  27.351 -15.635  1.00  0.00     0.001 C 
BRANCH   5   6
ATOM      6  C   UNL     1     -51.293  26.218 -14.894  1.00  0.00     0.009 C 
BRANCH   6   7
ATOM      7  C   UNL     1     -51.981  24.847 -15.074  1.00  0.00     0.032 C 
ATOM      8  C   UNL     1     -53.015  24.562 -13.975  1.00  0.00     0.014 C 
BRANCH   7   9
ATOM      9  C   UNL     1     -50.949  23.752 -15.091  1.00  0.00     0.044 C 
ATOM     10  O   UNL     1     -49.723  24.026 -14.986  1.00  0.00    -0.550 OA
ATOM     11  O   UNL     1     -51.344  22.427 -15.223  1.00  0.00    -0.550 OA
ENDBRANCH   7   9
ENDBRANCH   6   7
ENDBRANCH   5   6
ENDBRANCH   4   5
ENDBRANCH   3   4
ENDBRANCH   2   3
ENDBRANCH   1   2
BRANCH   1  12
ATOM     12  C   UNL     1     -47.627  26.648 -15.866  1.00  0.00     0.000 C 
BRANCH  12  13
ATOM     13  C   UNL     1     -46.109  26.870 -15.793  1.00  0.00    -0.000 C 
BRANCH  13  14
ATOM     14  C   UNL     1     -45.720  28.211 -16.428  1.00  0.00    -0.000 C 
BRANCH  14  15
ATOM     15  C   UNL     1     -44.211  28.279 -16.692  1.00  0.00    -0.000 C 
BRANCH  15  16
ATOM     16  C   UNL     1     -43.919  28.445 -18.191  1.00  0.00    -0.000 C 
BRANCH  16  17
ATOM     17  C   UNL     1     -43.489  27.119 -18.852  1.00  0.00    -0.000 C 
BRANCH  17  18
ATOM     18  C   UNL     1     -44.601  26.455 -19.681  1.00  0.00    -0.003 C 
ATOM     19  C   UNL     1     -45.161  25.193 -19.028  1.00  0.00     0.004 C 
ENDBRANCH  17  18
ENDBRANCH  16  17
ENDBRANCH  15  16
ENDBRANCH  14  15
ENDBRANCH  13  14
ENDBRANCH  12  13
ENDBRANCH   1  12
TORSDOF 14
ENDMDL
MODEL 8
REMARK VINA RESULT:    -4.537      1.619      2.457
REMARK INTER + INTRA:         -10.556
REMARK INTER:                  -8.830
REMARK INTRA:                  -1.726
REMARK UNBOUND:                -2.306
REMARK SMILES CCCCCCCCCCCCCC[C@H](C)C(=O)[O-]
REMARK SMILES IDX 9 1 10 2 11 3 12 4 13 5 14 6 15 7 16 8 17 9 18 10 19 11 8 12
REMARK SMILES IDX 7 13 6 14 5 15 4 16 3 17 2 18 1 19
REMARK H PARENT
REMARK Flexibility Score: inf
ROOT
ATOM      1  C   UNL     1     -48.054  26.180 -15.119  1.00  0.00     0.000 C 
ENDROOT
BRANCH   1   2
ATOM      2  C   UNL     1     -47.208  25.569 -13.987  1.00  0.00     0.000 C 
BRANCH   2   3
ATOM      3  C   UNL     1     -45.939  26.386 -13.695  1.00  0.00     0.000 C 
BRANCH   3   4
ATOM      4  C   UNL     1     -44.980  26.437 -14.899  1.00  0.00     0.000 C 
BRANCH   4   5
ATOM      5  C   UNL     1     -44.754  27.868 -15.416  1.00  0.00     0.001 C 
BRANCH   5   6
ATOM      6  C   UNL     1     -45.062  28.012 -16.918  1.00  0.00     0.009 C 
BRANCH   6   7
ATOM      7  C   UNL     1     -44.593  26.790 -17.739  1.00  0.00     0.032 C 
ATOM      8  C   UNL     1     -43.570  27.169 -18.820  1.00  0.00     0.014 C 
BRANCH   7   9
ATOM      9  C   UNL     1     -45.778  26.117 -18.379  1.00  0.00     0.044 C 
ATOM     10  O   UNL     1     -45.659  24.980 -18.909  1.00  0.00    -0.550 OA
ATOM     11  O   UNL     1     -47.014  26.749 -18.387  1.00  0.00    -0.550 OA
ENDBRANCH   7   9
ENDBRANCH   6   7
ENDBRANCH   5   6
ENDBRANCH   4   5
ENDBRANCH   3   4
ENDBRANCH   2   3
ENDBRANCH   1   2
BRANCH   1  12
ATOM     12  C   UNL     1     -48.499  27.619 -14.814  1.00  0.00     0.000 C 
BRANCH  12  13
ATOM     13  C   UNL     1     -49.606  28.114 -15.757  1.00  0.00    -0.000 C 
BRANCH  13  14
ATOM     14  C   UNL     1     -50.827  28.594 -14.964  1.00  0.00    -0.000 C 
BRANCH  14  15
ATOM     15  C   UNL     1     -52.128  28.056 -15.574  1.00  0.00    -0.000 C 
BRANCH  15  16
ATOM     16  C   UNL     1     -51.966  26.597 -16.022  1.00  0.00    -0.000 C 
BRANCH  16  17
ATOM     17  C   UNL     1     -52.169  25.602 -14.860  1.00  0.00    -0.000 C 
BRANCH  17  18
ATOM     18  C   UNL     1     -51.169  24.434 -14.867  1.00  0.00    -0.003 C 
ATOM     19  C   UNL     1     -51.780  23.122 -14.380  1.00  0.00     0.004 C 
ENDBRANCH  17  18
ENDBRANCH  16  17
ENDBRANCH  15  16
ENDBRANCH  14  15
ENDBRANCH  13  14
ENDBRANCH  12  13
ENDBRANCH   1  12
TORSDOF 14
ENDMDL
MODEL 9
REMARK VINA RESULT:    -4.472      3.502      6.771
REMARK INTER + INTRA:         -10.439
REMARK INTER:                  -8.588
REMARK INTRA:                  -1.851
REMARK UNBOUND:                -2.306
REMARK SMILES CCCCCCCCCCCCCC[C@H](C)C(=O)[O-]
REMARK SMILES IDX 9 1 10 2 11 3 12 4 13 5 14 6 15 7 16 8 17 9 18 10 19 11 8 12
REMARK SMILES IDX 7 13 6 14 5 15 4 16 3 17 2 18 1 19
REMARK H PARENT
REMARK Flexibility Score: inf
ROOT
ATOM      1  C   UNL     1     -46.871  25.722 -13.623  1.00  0.00     0.000 C 
ENDROOT
BRANCH   1   2
ATOM      2  C   UNL     1     -47.877  25.950 -14.765  1.00  0.00     0.000 C 
BRANCH   2   3
ATOM      3  C   UNL     1     -48.515  27.348 -14.719  1.00  0.00     0.000 C 
BRANCH   3   4
ATOM      4  C   UNL     1     -48.707  27.955 -16.121  1.00  0.00     0.000 C 
BRANCH   4   5
ATOM      5  C   UNL     1     -50.179  28.275 -16.431  1.00  0.00     0.001 C 
BRANCH   5   6
ATOM      6  C   UNL     1     -51.015  27.011 -16.704  1.00  0.00     0.009 C 
BRANCH   6   7
ATOM      7  C   UNL     1     -52.179  26.842 -15.703  1.00  0.00     0.032 C 
ATOM      8  C   UNL     1     -52.271  28.010 -14.710  1.00  0.00     0.014 C 
BRANCH   7   9
ATOM      9  C   UNL     1     -52.023  25.549 -14.948  1.00  0.00     0.044 C 
ATOM     10  O   UNL     1     -52.890  25.189 -14.108  1.00  0.00    -0.550 OA
ATOM     11  O   UNL     1     -50.915  24.742 -15.177  1.00  0.00    -0.550 OA
ENDBRANCH   7   9
ENDBRANCH   6   7
ENDBRANCH   5   6
ENDBRANCH   4   5
ENDBRANCH   3   4
ENDBRANCH   2   3
ENDBRANCH   1   2
BRANCH   1  12
ATOM     12  C   UNL     1     -45.662  26.668 -13.704  1.00  0.00     0.000 C 
BRANCH  12  13
ATOM     13  C   UNL     1     -44.959  26.622 -15.068  1.00  0.00    -0.000 C 
BRANCH  13  14
ATOM     14  C   UNL     1     -44.745  28.036 -15.622  1.00  0.00    -0.000 C 
BRANCH  14  15
ATOM     15  C   UNL     1     -45.070  28.098 -17.120  1.00  0.00    -0.000 C 
BRANCH  15  16
ATOM     16  C   UNL     1     -45.467  26.715 -17.656  1.00  0.00    -0.000 C 
BRANCH  16  17
ATOM     17  C   UNL     1     -44.515  26.222 -18.765  1.00  0.00    -0.000 C 
BRANCH  17  18
ATOM     18  C   UNL     1     -43.451  27.257 -19.168  1.00  0.00    -0.003 C 
ATOM     19  C   UNL     1     -43.204  27.305 -20.674  1.00  0.00     0.004 C 
ENDBRANCH  17  18
ENDBRANCH  16  17
ENDBRANCH  15  16
ENDBRANCH  14  15
ENDBRANCH  13  14
ENDBRANCH  12  13
ENDBRANCH   1  12
TORSDOF 14
ENDMDL
