MODEL 1
REMARK VINA RESULT:    19.028      0.000      0.000
REMARK INTER + INTRA:          21.253
REMARK INTER:                  21.253
REMARK INTRA:                   0.000
REMARK UNBOUND:                 0.000
REMARK SMILES Oc1cc(O)c2c(c1)CCc1cc(O)c(O)cc1-2
REMARK SMILES IDX 10 1 9 2 7 3 6 4 18 5 17 6 15 7 13 8 12 9 11 10 4 11 3 12
REMARK SMILES IDX 2 13 8 14 14 15 5 17 1 19 16 21
REMARK H PARENT 14 16 5 18 1 20 16 22
REMARK Flexibility Score: inf
ROOT
ATOM      1  C   UNL     1      16.960  18.445 -13.627  1.00  0.00     0.041 C 
ATOM      2  C   UNL     1      16.816  17.005 -13.149  1.00  0.00     0.041 C 
ATOM      3  C   UNL     1      18.147  16.322 -12.987  1.00  0.00    -0.032 A 
ATOM      4  C   UNL     1      19.239  17.022 -12.419  1.00  0.00     0.027 A 
ATOM      5  C   UNL     1      19.211  18.528 -12.447  1.00  0.00    -0.007 A 
ATOM      6  C   UNL     1      20.353  19.316 -12.173  1.00  0.00     0.059 A 
ATOM      7  C   UNL     1      20.281  20.714 -12.155  1.00  0.00     0.158 A 
ATOM      8  C   UNL     1      19.086  21.355 -12.482  1.00  0.00     0.157 A 
ATOM      9  C   UNL     1      17.982  20.598 -12.881  1.00  0.00     0.054 A 
ATOM     10  C   UNL     1      18.044  19.195 -12.898  1.00  0.00    -0.036 A 
ATOM     11  C   UNL     1      20.301  16.251 -11.866  1.00  0.00     0.127 A 
ATOM     12  C   UNL     1      20.406  14.890 -12.173  1.00  0.00     0.093 A 
ATOM     13  C   UNL     1      19.386  14.236 -12.861  1.00  0.00     0.119 A 
ATOM     14  C   UNL     1      18.237  14.941 -13.222  1.00  0.00     0.050 A 
ENDROOT
BRANCH   8  15
ATOM     15  O   UNL     1      19.014  22.747 -12.447  1.00  0.00    -0.504 OA
ATOM     16  H   UNL     1      19.301  23.313 -13.238  1.00  0.00     0.293 HD
ENDBRANCH   8  15
BRANCH  11  17
ATOM     17  O   UNL     1      21.206  16.761 -10.937  1.00  0.00    -0.507 OA
ATOM     18  H   UNL     1      20.951  16.928  -9.972  1.00  0.00     0.293 HD
ENDBRANCH  11  17
BRANCH  13  19
ATOM     19  O   UNL     1      19.502  12.875 -13.136  1.00  0.00    -0.508 OA
ATOM     20  H   UNL     1      19.314  12.174 -12.428  1.00  0.00     0.293 HD
ENDBRANCH  13  19
BRANCH   7  21
ATOM     21  O   UNL     1      21.403  21.474 -11.829  1.00  0.00    -0.504 OA
ATOM     22  H   UNL     1      21.748  22.204 -12.442  1.00  0.00     0.293 HD
ENDBRANCH   7  21
TORSDOF 4
ENDMDL
MODEL 2
REMARK VINA RESULT:    20.692      1.496      6.080
REMARK INTER + INTRA:          23.111
REMARK INTER:                  23.111
REMARK INTRA:                   0.000
REMARK UNBOUND:                 0.000
REMARK SMILES Oc1cc(O)c2c(c1)CCc1cc(O)c(O)cc1-2
REMARK SMILES IDX 10 1 9 2 7 3 6 4 18 5 17 6 15 7 13 8 12 9 11 10 4 11 3 12
REMARK SMILES IDX 2 13 8 14 14 15 5 17 1 19 16 21
REMARK H PARENT 14 16 5 18 1 20 16 22
REMARK Flexibility Score: inf
ROOT
ATOM      1  C   UNL     1      21.648  16.679 -12.123  1.00  0.00     0.041 C 
ATOM      2  C   UNL     1      21.710  18.059 -11.478  1.00  0.00     0.041 C 
ATOM      3  C   UNL     1      20.672  18.996 -12.036  1.00  0.00    -0.032 A 
ATOM      4  C   UNL     1      19.360  18.529 -12.295  1.00  0.00     0.027 A 
ATOM      5  C   UNL     1      19.157  17.047 -12.485  1.00  0.00    -0.007 A 
ATOM      6  C   UNL     1      17.967  16.505 -13.020  1.00  0.00     0.059 A 
ATOM      7  C   UNL     1      17.788  15.121 -13.134  1.00  0.00     0.158 A 
ATOM      8  C   UNL     1      18.823  14.253 -12.785  1.00  0.00     0.157 A 
ATOM      9  C   UNL     1      20.053  14.774 -12.375  1.00  0.00     0.054 A 
ATOM     10  C   UNL     1      20.239  16.161 -12.253  1.00  0.00    -0.036 A 
ATOM     11  C   UNL     1      18.319  19.496 -12.370  1.00  0.00     0.127 A 
ATOM     12  C   UNL     1      18.636  20.851 -12.513  1.00  0.00     0.093 A 
ATOM     13  C   UNL     1      19.954  21.288 -12.398  1.00  0.00     0.119 A 
ATOM     14  C   UNL     1      20.962  20.367 -12.109  1.00  0.00     0.050 A 
ENDROOT
BRANCH   8  15
ATOM     15  O   UNL     1      18.636  12.876 -12.884  1.00  0.00    -0.504 OA
ATOM     16  H   UNL     1      19.420  12.235 -12.921  1.00  0.00     0.293 HD
ENDBRANCH   8  15
BRANCH  11  17
ATOM     17  O   UNL     1      16.972  19.175 -12.208  1.00  0.00    -0.507 OA
ATOM     18  H   UNL     1      16.597  18.275 -12.477  1.00  0.00     0.293 HD
ENDBRANCH  11  17
BRANCH  13  19
ATOM     19  O   UNL     1      20.243  22.645 -12.520  1.00  0.00    -0.508 OA
ATOM     20  H   UNL     1      21.018  23.069 -12.023  1.00  0.00     0.293 HD
ENDBRANCH  13  19
BRANCH   7  21
ATOM     21  O   UNL     1      16.587  14.601 -13.614  1.00  0.00    -0.504 OA
ATOM     22  H   UNL     1      16.104  13.849 -13.135  1.00  0.00     0.293 HD
ENDBRANCH   7  21
TORSDOF 4
ENDMDL
MODEL 3
REMARK VINA RESULT:    21.835      0.901      5.463
REMARK INTER + INTRA:          24.388
REMARK INTER:                  24.388
REMARK INTRA:                   0.000
REMARK UNBOUND:                 0.000
REMARK SMILES Oc1cc(O)c2c(c1)CCc1cc(O)c(O)cc1-2
REMARK SMILES IDX 10 1 9 2 7 3 6 4 18 5 17 6 15 7 13 8 12 9 11 10 4 11 3 12
REMARK SMILES IDX 2 13 8 14 14 15 5 17 1 19 16 21
REMARK H PARENT 14 16 5 18 1 20 16 22
REMARK Flexibility Score: inf
ROOT
ATOM      1  C   UNL     1      16.795  17.363 -13.312  1.00  0.00     0.041 C 
ATOM      2  C   UNL     1      17.123  18.807 -13.672  1.00  0.00     0.041 C 
ATOM      3  C   UNL     1      18.255  19.357 -12.846  1.00  0.00    -0.032 A 
ATOM      4  C   UNL     1      19.385  18.552 -12.565  1.00  0.00     0.027 A 
ATOM      5  C   UNL     1      19.233  17.055 -12.656  1.00  0.00    -0.007 A 
ATOM      6  C   UNL     1      20.193  16.159 -12.132  1.00  0.00     0.059 A 
ATOM      7  C   UNL     1      20.048  14.774 -12.280  1.00  0.00     0.158 A 
ATOM      8  C   UNL     1      18.906  14.254 -12.889  1.00  0.00     0.157 A 
ATOM      9  C   UNL     1      17.887  15.117 -13.299  1.00  0.00     0.054 A 
ATOM     10  C   UNL     1      18.026  16.507 -13.158  1.00  0.00    -0.036 A 
ATOM     11  C   UNL     1      20.593  19.213 -12.203  1.00  0.00     0.127 A 
ATOM     12  C   UNL     1      20.562  20.559 -11.823  1.00  0.00     0.093 A 
ATOM     13  C   UNL     1      19.400  21.313 -11.970  1.00  0.00     0.119 A 
ATOM     14  C   UNL     1      18.264  20.724 -12.528  1.00  0.00     0.050 A 
ENDROOT
BRANCH   8  15
ATOM     15  O   UNL     1      18.773  12.875 -13.049  1.00  0.00    -0.504 OA
ATOM     16  H   UNL     1      18.119  12.337 -12.493  1.00  0.00     0.293 HD
ENDBRANCH   8  15
BRANCH  11  17
ATOM     17  O   UNL     1      21.847  18.612 -12.301  1.00  0.00    -0.507 OA
ATOM     18  H   UNL     1      22.685  19.145 -12.494  1.00  0.00     0.293 HD
ENDBRANCH  11  17
BRANCH  13  19
ATOM     19  O   UNL     1      19.399  22.658 -11.607  1.00  0.00    -0.508 OA
ATOM     20  H   UNL     1      19.608  23.388 -12.278  1.00  0.00     0.293 HD
ENDBRANCH  13  19
BRANCH   7  21
ATOM     21  O   UNL     1      21.030  13.907 -11.805  1.00  0.00    -0.504 OA
ATOM     22  H   UNL     1      20.807  13.142 -11.179  1.00  0.00     0.293 HD
ENDBRANCH   7  21
TORSDOF 4
ENDMDL
