MODEL 1
REMARK VINA RESULT:    -3.285      0.000      0.000
REMARK INTER + INTRA:          -4.160
REMARK INTER:                  -4.053
REMARK INTRA:                  -0.107
REMARK UNBOUND:                -0.107
REMARK SMILES CCCCCC(C)=O
REMARK SMILES IDX 4 1 3 2 2 3 1 4 5 5 6 6 8 7 7 8
REMARK H PARENT
REMARK Flexibility Score: inf
ROOT
ATOM      1  C   UNL     1     163.911 164.266 166.043  1.00  0.00     0.008 C 
ENDROOT
BRANCH   1   2
ATOM      2  C   UNL     1     165.186 164.981 165.581  1.00  0.00     0.000 C 
BRANCH   2   3
ATOM      3  C   UNL     1     165.861 165.710 166.749  1.00  0.00    -0.003 C 
ATOM      4  C   UNL     1     166.888 166.721 166.248  1.00  0.00     0.004 C 
ENDBRANCH   2   3
ENDBRANCH   1   2
BRANCH   1   5
ATOM      5  C   UNL     1     162.834 164.304 164.953  1.00  0.00     0.075 C 
BRANCH   5   6
ATOM      6  C   UNL     1     161.470 164.493 165.557  1.00  0.00     0.129 C 
ATOM      7  O   UNL     1     160.561 164.944 164.875  1.00  0.00    -0.300 OA
ATOM      8  C   UNL     1     161.223 164.156 166.996  1.00  0.00     0.087 C 
ENDBRANCH   5   6
ENDBRANCH   1   5
TORSDOF 4
ENDMDL
MODEL 2
REMARK VINA RESULT:    -3.195      2.940      5.187
REMARK INTER + INTRA:          -4.049
REMARK INTER:                  -3.892
REMARK INTRA:                  -0.158
REMARK UNBOUND:                -0.107
REMARK SMILES CCCCCC(C)=O
REMARK SMILES IDX 4 1 3 2 2 3 1 4 5 5 6 6 8 7 7 8
REMARK H PARENT
REMARK Flexibility Score: inf
ROOT
ATOM      1  C   UNL     1     165.981 165.978 166.835  1.00  0.00     0.008 C 
ENDROOT
BRANCH   1   2
ATOM      2  C   UNL     1     164.847 164.954 166.965  1.00  0.00     0.000 C 
BRANCH   2   3
ATOM      3  C   UNL     1     164.675 164.157 165.667  1.00  0.00    -0.003 C 
ATOM      4  C   UNL     1     163.202 164.034 165.288  1.00  0.00     0.004 C 
ENDBRANCH   2   3
ENDBRANCH   1   2
BRANCH   1   5
ATOM      5  C   UNL     1     166.092 166.495 165.396  1.00  0.00     0.075 C 
BRANCH   5   6
ATOM      6  C   UNL     1     167.251 167.443 165.257  1.00  0.00     0.129 C 
ATOM      7  O   UNL     1     167.051 168.601 164.921  1.00  0.00    -0.300 OA
ATOM      8  C   UNL     1     168.652 166.971 165.503  1.00  0.00     0.087 C 
ENDBRANCH   5   6
ENDBRANCH   1   5
TORSDOF 4
ENDMDL
MODEL 3
REMARK VINA RESULT:    -3.187      2.386      5.039
REMARK INTER + INTRA:          -4.039
REMARK INTER:                  -3.972
REMARK INTRA:                  -0.067
REMARK UNBOUND:                -0.107
REMARK SMILES CCCCCC(C)=O
REMARK SMILES IDX 4 1 3 2 2 3 1 4 5 5 6 6 8 7 7 8
REMARK H PARENT
REMARK Flexibility Score: inf
ROOT
ATOM      1  C   UNL     1     165.280 165.138 165.678  1.00  0.00     0.008 C 
ENDROOT
BRANCH   1   2
ATOM      2  C   UNL     1     164.074 164.454 166.332  1.00  0.00     0.000 C 
BRANCH   2   3
ATOM      3  C   UNL     1     163.005 164.110 165.287  1.00  0.00    -0.003 C 
ATOM      4  C   UNL     1     161.601 164.289 165.857  1.00  0.00     0.004 C 
ENDBRANCH   2   3
ENDBRANCH   1   2
BRANCH   1   5
ATOM      5  C   UNL     1     166.011 166.040 166.680  1.00  0.00     0.075 C 
BRANCH   5   6
ATOM      6  C   UNL     1     166.718 167.162 165.972  1.00  0.00     0.129 C 
ATOM      7  O   UNL     1     166.127 168.210 165.753  1.00  0.00    -0.300 OA
ATOM      8  C   UNL     1     168.134 166.996 165.510  1.00  0.00     0.087 C 
ENDBRANCH   5   6
ENDBRANCH   1   5
TORSDOF 4
ENDMDL
MODEL 4
REMARK VINA RESULT:    -3.163      1.758      2.432
REMARK INTER + INTRA:          -4.009
REMARK INTER:                  -3.868
REMARK INTRA:                  -0.141
REMARK UNBOUND:                -0.107
REMARK SMILES CCCCCC(C)=O
REMARK SMILES IDX 4 1 3 2 2 3 1 4 5 5 6 6 8 7 7 8
REMARK H PARENT
REMARK Flexibility Score: inf
ROOT
ATOM      1  C   UNL     1     165.380 165.181 166.611  1.00  0.00     0.008 C 
ENDROOT
BRANCH   1   2
ATOM      2  C   UNL     1     166.017 166.574 166.681  1.00  0.00     0.000 C 
BRANCH   2   3
ATOM      3  C   UNL     1     167.080 166.747 165.589  1.00  0.00    -0.003 C 
ATOM      4  C   UNL     1     166.938 168.097 164.892  1.00  0.00     0.004 C 
ENDBRANCH   2   3
ENDBRANCH   1   2
BRANCH   1   5
ATOM      5  C   UNL     1     164.932 164.852 165.183  1.00  0.00     0.075 C 
BRANCH   5   6
ATOM      6  C   UNL     1     163.831 163.829 165.191  1.00  0.00     0.129 C 
ATOM      7  O   UNL     1     164.073 162.673 164.875  1.00  0.00    -0.300 OA
ATOM      8  C   UNL     1     162.432 164.222 165.559  1.00  0.00     0.087 C 
ENDBRANCH   5   6
ENDBRANCH   1   5
TORSDOF 4
ENDMDL
MODEL 5
REMARK VINA RESULT:    -3.161      2.144      4.511
REMARK INTER + INTRA:          -4.006
REMARK INTER:                  -3.908
REMARK INTRA:                  -0.098
REMARK UNBOUND:                -0.107
REMARK SMILES CCCCCC(C)=O
REMARK SMILES IDX 4 1 3 2 2 3 1 4 5 5 6 6 8 7 7 8
REMARK H PARENT
REMARK Flexibility Score: inf
ROOT
ATOM      1  C   UNL     1     163.756 164.491 166.391  1.00  0.00     0.008 C 
ENDROOT
BRANCH   1   2
ATOM      2  C   UNL     1     162.913 164.040 165.193  1.00  0.00     0.000 C 
BRANCH   2   3
ATOM      3  C   UNL     1     161.469 164.542 165.317  1.00  0.00    -0.003 C 
ATOM      4  C   UNL     1     160.871 164.169 166.670  1.00  0.00     0.004 C 
ENDBRANCH   2   3
ENDBRANCH   1   2
BRANCH   1   5
ATOM      5  C   UNL     1     165.242 164.568 166.020  1.00  0.00     0.075 C 
BRANCH   5   6
ATOM      6  C   UNL     1     165.801 165.928 166.335  1.00  0.00     0.129 C 
ATOM      7  O   UNL     1     166.072 166.699 165.425  1.00  0.00    -0.300 OA
ATOM      8  C   UNL     1     166.052 166.335 167.755  1.00  0.00     0.087 C 
ENDBRANCH   5   6
ENDBRANCH   1   5
TORSDOF 4
ENDMDL
MODEL 6
REMARK VINA RESULT:    -3.092      2.438      3.363
REMARK INTER + INTRA:          -3.922
REMARK INTER:                  -3.749
REMARK INTRA:                  -0.173
REMARK UNBOUND:                -0.107
REMARK SMILES CCCCCC(C)=O
REMARK SMILES IDX 4 1 3 2 2 3 1 4 5 5 6 6 8 7 7 8
REMARK H PARENT
REMARK Flexibility Score: inf
ROOT
ATOM      1  C   UNL     1     166.168 166.641 166.703  1.00  0.00     0.008 C 
ENDROOT
BRANCH   1   2
ATOM      2  C   UNL     1     167.697 166.742 166.765  1.00  0.00     0.000 C 
BRANCH   2   3
ATOM      3  C   UNL     1     168.283 167.065 165.385  1.00  0.00    -0.003 C 
ATOM      4  C   UNL     1     169.762 166.698 165.315  1.00  0.00     0.004 C 
ENDBRANCH   2   3
ENDBRANCH   1   2
BRANCH   1   5
ATOM      5  C   UNL     1     165.722 165.750 165.538  1.00  0.00     0.075 C 
BRANCH   5   6
ATOM      6  C   UNL     1     164.855 164.624 166.029  1.00  0.00     0.129 C 
ATOM      7  O   UNL     1     164.367 163.840 165.228  1.00  0.00    -0.300 OA
ATOM      8  C   UNL     1     164.564 164.472 167.492  1.00  0.00     0.087 C 
ENDBRANCH   5   6
ENDBRANCH   1   5
TORSDOF 4
ENDMDL
MODEL 7
REMARK VINA RESULT:    -2.884      2.044      2.801
REMARK INTER + INTRA:          -3.666
REMARK INTER:                  -3.528
REMARK INTRA:                  -0.138
REMARK UNBOUND:                -0.107
REMARK SMILES CCCCCC(C)=O
REMARK SMILES IDX 4 1 3 2 2 3 1 4 5 5 6 6 8 7 7 8
REMARK H PARENT
REMARK Flexibility Score: inf
ROOT
ATOM      1  C   UNL     1     165.712 165.738 165.396  1.00  0.00     0.008 C 
ENDROOT
BRANCH   1   2
ATOM      2  C   UNL     1     166.530 166.741 166.219  1.00  0.00     0.000 C 
BRANCH   2   3
ATOM      3  C   UNL     1     166.532 166.359 167.704  1.00  0.00    -0.003 C 
ATOM      4  C   UNL     1     165.999 167.500 168.567  1.00  0.00     0.004 C 
ENDBRANCH   2   3
ENDBRANCH   1   2
BRANCH   1   5
ATOM      5  C   UNL     1     165.228 164.575 166.269  1.00  0.00     0.075 C 
BRANCH   5   6
ATOM      6  C   UNL     1     164.256 163.710 165.515  1.00  0.00     0.129 C 
ATOM      7  O   UNL     1     163.081 164.040 165.440  1.00  0.00    -0.300 OA
ATOM      8  C   UNL     1     164.713 162.434 164.875  1.00  0.00     0.087 C 
ENDBRANCH   5   6
ENDBRANCH   1   5
TORSDOF 4
ENDMDL
