MODEL 1
REMARK VINA RESULT:    -3.573      0.000      0.000
REMARK INTER + INTRA:          -8.583
REMARK INTER:                  -6.497
REMARK INTRA:                  -2.086
REMARK UNBOUND:                -2.086
REMARK SMILES CCCCCCCCCCCCCC[C@@H](C)C(=O)[O-]
REMARK SMILES IDX 9 1 10 2 11 3 12 4 13 5 14 6 15 7 16 8 17 9 18 10 19 11 8 12
REMARK SMILES IDX 7 13 6 14 5 15 4 16 3 17 2 18 1 19
REMARK H PARENT
REMARK Flexibility Score: inf
ROOT
ATOM      1  C   UNL     1      62.590  32.595  59.489  1.00  0.00     0.000 C 
ENDROOT
BRANCH   1   2
ATOM      2  C   UNL     1      61.453  32.838  60.502  1.00  0.00     0.000 C 
BRANCH   2   3
ATOM      3  C   UNL     1      61.063  31.618  61.357  1.00  0.00     0.000 C 
BRANCH   3   4
ATOM      4  C   UNL     1      61.605  30.292  60.798  1.00  0.00     0.000 C 
BRANCH   4   5
ATOM      5  C   UNL     1      62.467  29.567  61.844  1.00  0.00     0.001 C 
BRANCH   5   6
ATOM      6  C   UNL     1      63.964  29.916  61.721  1.00  0.00     0.009 C 
BRANCH   6   7
ATOM      7  C   UNL     1      64.674  29.217  60.537  1.00  0.00     0.032 C 
ATOM      8  C   UNL     1      65.791  30.087  59.942  1.00  0.00     0.014 C 
BRANCH   7   9
ATOM      9  C   UNL     1      65.256  27.908  60.997  1.00  0.00     0.044 C 
ATOM     10  O   UNL     1      66.502  27.783  61.139  1.00  0.00    -0.550 OA
ATOM     11  O   UNL     1      64.425  26.826  61.266  1.00  0.00    -0.550 OA
ENDBRANCH   7   9
ENDBRANCH   6   7
ENDBRANCH   5   6
ENDBRANCH   4   5
ENDBRANCH   3   4
ENDBRANCH   2   3
ENDBRANCH   1   2
BRANCH   1  12
ATOM     12  C   UNL     1      63.935  33.249  59.853  1.00  0.00     0.000 C 
BRANCH  12  13
ATOM     13  C   UNL     1      63.950  33.826  61.278  1.00  0.00    -0.000 C 
BRANCH  13  14
ATOM     14  C   UNL     1      64.728  35.149  61.375  1.00  0.00    -0.000 C 
BRANCH  14  15
ATOM     15  C   UNL     1      63.857  36.408  61.571  1.00  0.00    -0.000 C 
BRANCH  15  16
ATOM     16  C   UNL     1      62.355  36.217  61.288  1.00  0.00    -0.000 C 
BRANCH  16  17
ATOM     17  C   UNL     1      61.886  36.974  60.032  1.00  0.00    -0.000 C 
BRANCH  17  18
ATOM     18  C   UNL     1      60.416  36.688  59.685  1.00  0.00    -0.003 C 
ATOM     19  C   UNL     1      60.260  35.682  58.544  1.00  0.00     0.004 C 
ENDBRANCH  17  18
ENDBRANCH  16  17
ENDBRANCH  15  16
ENDBRANCH  14  15
ENDBRANCH  13  14
ENDBRANCH  12  13
ENDBRANCH   1  12
TORSDOF 14
ENDMDL
MODEL 2
REMARK VINA RESULT:    -3.463      3.657      5.747
REMARK INTER + INTRA:          -8.383
REMARK INTER:                  -7.602
REMARK INTRA:                  -0.781
REMARK UNBOUND:                -2.086
REMARK SMILES CCCCCCCCCCCCCC[C@@H](C)C(=O)[O-]
REMARK SMILES IDX 9 1 10 2 11 3 12 4 13 5 14 6 15 7 16 8 17 9 18 10 19 11 8 12
REMARK SMILES IDX 7 13 6 14 5 15 4 16 3 17 2 18 1 19
REMARK H PARENT
REMARK Flexibility Score: inf
ROOT
ATOM      1  C   UNL     1      64.561  29.238  61.122  1.00  0.00     0.000 C 
ENDROOT
BRANCH   1   2
ATOM      2  C   UNL     1      66.056  29.457  60.812  1.00  0.00     0.000 C 
BRANCH   2   3
ATOM      3  C   UNL     1      66.989  28.306  61.235  1.00  0.00     0.000 C 
BRANCH   3   4
ATOM      4  C   UNL     1      68.218  28.786  62.024  1.00  0.00     0.000 C 
BRANCH   4   5
ATOM      5  C   UNL     1      69.362  29.174  61.074  1.00  0.00     0.001 C 
BRANCH   5   6
ATOM      6  C   UNL     1      70.310  30.225  61.689  1.00  0.00     0.009 C 
BRANCH   6   7
ATOM      7  C   UNL     1      71.474  30.638  60.758  1.00  0.00     0.032 C 
ATOM      8  C   UNL     1      71.708  29.611  59.639  1.00  0.00     0.014 C 
BRANCH   7   9
ATOM      9  C   UNL     1      71.182  31.981  60.146  1.00  0.00     0.044 C 
ATOM     10  O   UNL     1      70.388  32.074  59.172  1.00  0.00    -0.550 OA
ATOM     11  O   UNL     1      71.786  33.128  60.648  1.00  0.00    -0.550 OA
ENDBRANCH   7   9
ENDBRANCH   6   7
ENDBRANCH   5   6
ENDBRANCH   4   5
ENDBRANCH   3   4
ENDBRANCH   2   3
ENDBRANCH   1   2
BRANCH   1  12
ATOM     12  C   UNL     1      63.817  30.479  61.644  1.00  0.00     0.000 C 
BRANCH  12  13
ATOM     13  C   UNL     1      62.300  30.256  61.766  1.00  0.00    -0.000 C 
BRANCH  13  14
ATOM     14  C   UNL     1      61.482  31.461  61.272  1.00  0.00    -0.000 C 
BRANCH  14  15
ATOM     15  C   UNL     1      62.218  32.392  60.285  1.00  0.00    -0.000 C 
BRANCH  15  16
ATOM     16  C   UNL     1      62.458  33.827  60.792  1.00  0.00    -0.000 C 
BRANCH  16  17
ATOM     17  C   UNL     1      63.927  34.085  61.172  1.00  0.00    -0.000 C 
BRANCH  17  18
ATOM     18  C   UNL     1      64.291  35.578  61.142  1.00  0.00    -0.003 C 
ATOM     19  C   UNL     1      63.115  36.484  61.507  1.00  0.00     0.004 C 
ENDBRANCH  17  18
ENDBRANCH  16  17
ENDBRANCH  15  16
ENDBRANCH  14  15
ENDBRANCH  13  14
ENDBRANCH  12  13
ENDBRANCH   1  12
TORSDOF 14
ENDMDL
MODEL 3
REMARK VINA RESULT:    -3.413      3.676      6.646
REMARK INTER + INTRA:          -8.293
REMARK INTER:                  -5.886
REMARK INTRA:                  -2.407
REMARK UNBOUND:                -2.086
REMARK SMILES CCCCCCCCCCCCCC[C@@H](C)C(=O)[O-]
REMARK SMILES IDX 9 1 10 2 11 3 12 4 13 5 14 6 15 7 16 8 17 9 18 10 19 11 8 12
REMARK SMILES IDX 7 13 6 14 5 15 4 16 3 17 2 18 1 19
REMARK H PARENT
REMARK Flexibility Score: inf
ROOT
ATOM      1  C   UNL     1      64.269  33.614  59.807  1.00  0.00     0.000 C 
ENDROOT
BRANCH   1   2
ATOM      2  C   UNL     1      63.388  34.080  60.983  1.00  0.00     0.000 C 
BRANCH   2   3
ATOM      3  C   UNL     1      63.590  35.545  61.415  1.00  0.00     0.000 C 
BRANCH   3   4
ATOM      4  C   UNL     1      62.352  36.422  61.169  1.00  0.00     0.000 C 
BRANCH   4   5
ATOM      5  C   UNL     1      61.188  35.585  60.614  1.00  0.00     0.001 C 
BRANCH   5   6
ATOM      6  C   UNL     1      60.201  36.426  59.779  1.00  0.00     0.009 C 
BRANCH   6   7
ATOM      7  C   UNL     1      60.206  36.082  58.270  1.00  0.00     0.032 C 
ATOM      8  C   UNL     1      61.432  35.245  57.876  1.00  0.00     0.014 C 
BRANCH   7   9
ATOM      9  C   UNL     1      58.953  35.326  57.919  1.00  0.00     0.044 C 
ATOM     10  O   UNL     1      59.030  34.186  57.388  1.00  0.00    -0.550 OA
ATOM     11  O   UNL     1      57.704  35.879  58.174  1.00  0.00    -0.550 OA
ENDBRANCH   7   9
ENDBRANCH   6   7
ENDBRANCH   5   6
ENDBRANCH   4   5
ENDBRANCH   3   4
ENDBRANCH   2   3
ENDBRANCH   1   2
BRANCH   1  12
ATOM     12  C   UNL     1      64.577  32.106  59.782  1.00  0.00     0.000 C 
BRANCH  12  13
ATOM     13  C   UNL     1      64.460  31.452  61.169  1.00  0.00    -0.000 C 
BRANCH  13  14
ATOM     14  C   UNL     1      64.096  29.960  61.092  1.00  0.00    -0.000 C 
BRANCH  14  15
ATOM     15  C   UNL     1      62.751  29.580  61.746  1.00  0.00    -0.000 C 
BRANCH  15  16
ATOM     16  C   UNL     1      61.699  30.704  61.783  1.00  0.00    -0.000 C 
BRANCH  16  17
ATOM     17  C   UNL     1      60.715  30.636  60.602  1.00  0.00    -0.000 C 
BRANCH  17  18
ATOM     18  C   UNL     1      60.742  31.906  59.737  1.00  0.00    -0.003 C 
ATOM     19  C   UNL     1      61.253  31.648  58.319  1.00  0.00     0.004 C 
ENDBRANCH  17  18
ENDBRANCH  16  17
ENDBRANCH  15  16
ENDBRANCH  14  15
ENDBRANCH  13  14
ENDBRANCH  12  13
ENDBRANCH   1  12
TORSDOF 14
ENDMDL
MODEL 4
REMARK VINA RESULT:    -3.297      1.369      2.056
REMARK INTER + INTRA:          -8.081
REMARK INTER:                  -6.141
REMARK INTRA:                  -1.940
REMARK UNBOUND:                -2.086
REMARK SMILES CCCCCCCCCCCCCC[C@@H](C)C(=O)[O-]
REMARK SMILES IDX 9 1 10 2 11 3 12 4 13 5 14 6 15 7 16 8 17 9 18 10 19 11 8 12
REMARK SMILES IDX 7 13 6 14 5 15 4 16 3 17 2 18 1 19
REMARK H PARENT
REMARK Flexibility Score: inf
ROOT
ATOM      1  C   UNL     1      61.518  32.002  61.220  1.00  0.00     0.000 C 
ENDROOT
BRANCH   1   2
ATOM      2  C   UNL     1      61.151  30.622  61.803  1.00  0.00     0.000 C 
BRANCH   2   3
ATOM      3  C   UNL     1      62.329  29.643  61.966  1.00  0.00     0.000 C 
BRANCH   3   4
ATOM      4  C   UNL     1      61.956  28.189  61.636  1.00  0.00     0.000 C 
BRANCH   4   5
ATOM      5  C   UNL     1      63.084  27.497  60.855  1.00  0.00     0.001 C 
BRANCH   5   6
ATOM      6  C   UNL     1      64.456  28.164  61.082  1.00  0.00     0.009 C 
BRANCH   6   7
ATOM      7  C   UNL     1      65.212  28.503  59.775  1.00  0.00     0.032 C 
ATOM      8  C   UNL     1      64.293  29.156  58.733  1.00  0.00     0.014 C 
BRANCH   7   9
ATOM      9  C   UNL     1      66.358  29.429  60.079  1.00  0.00     0.044 C 
ATOM     10  O   UNL     1      66.680  30.327  59.256  1.00  0.00    -0.550 OA
ATOM     11  O   UNL     1      67.072  29.299  61.264  1.00  0.00    -0.550 OA
ENDBRANCH   7   9
ENDBRANCH   6   7
ENDBRANCH   5   6
ENDBRANCH   4   5
ENDBRANCH   3   4
ENDBRANCH   2   3
ENDBRANCH   1   2
BRANCH   1  12
ATOM     12  C   UNL     1      62.671  31.991  60.200  1.00  0.00     0.000 C 
BRANCH  12  13
ATOM     13  C   UNL     1      64.003  32.468  60.802  1.00  0.00    -0.000 C 
BRANCH  13  14
ATOM     14  C   UNL     1      64.318  33.934  60.458  1.00  0.00    -0.000 C 
BRANCH  14  15
ATOM     15  C   UNL     1      63.896  34.963  61.528  1.00  0.00    -0.000 C 
BRANCH  15  16
ATOM     16  C   UNL     1      63.004  36.111  61.018  1.00  0.00    -0.000 C 
BRANCH  16  17
ATOM     17  C   UNL     1      61.544  35.676  60.798  1.00  0.00    -0.000 C 
BRANCH  17  18
ATOM     18  C   UNL     1      61.062  35.930  59.361  1.00  0.00    -0.003 C 
ATOM     19  C   UNL     1      60.576  34.659  58.664  1.00  0.00     0.004 C 
ENDBRANCH  17  18
ENDBRANCH  16  17
ENDBRANCH  15  16
ENDBRANCH  14  15
ENDBRANCH  13  14
ENDBRANCH  12  13
ENDBRANCH   1  12
TORSDOF 14
ENDMDL
MODEL 5
REMARK VINA RESULT:    -3.276      1.776      2.957
REMARK INTER + INTRA:          -8.044
REMARK INTER:                  -5.465
REMARK INTRA:                  -2.578
REMARK UNBOUND:                -2.086
REMARK SMILES CCCCCCCCCCCCCC[C@@H](C)C(=O)[O-]
REMARK SMILES IDX 9 1 10 2 11 3 12 4 13 5 14 6 15 7 16 8 17 9 18 10 19 11 8 12
REMARK SMILES IDX 7 13 6 14 5 15 4 16 3 17 2 18 1 19
REMARK H PARENT
REMARK Flexibility Score: inf
ROOT
ATOM      1  C   UNL     1      64.999  34.367  58.709  1.00  0.00     0.000 C 
ENDROOT
BRANCH   1   2
ATOM      2  C   UNL     1      63.684  33.842  58.099  1.00  0.00     0.000 C 
BRANCH   2   3
ATOM      3  C   UNL     1      62.984  32.732  58.906  1.00  0.00     0.000 C 
BRANCH   3   4
ATOM      4  C   UNL     1      61.491  32.590  58.566  1.00  0.00     0.000 C 
BRANCH   4   5
ATOM      5  C   UNL     1      60.701  32.065  59.775  1.00  0.00     0.001 C 
BRANCH   5   6
ATOM      6  C   UNL     1      61.574  31.931  61.039  1.00  0.00     0.009 C 
BRANCH   6   7
ATOM      7  C   UNL     1      61.524  30.527  61.688  1.00  0.00     0.032 C 
ATOM      8  C   UNL     1      60.607  29.569  60.913  1.00  0.00     0.014 C 
BRANCH   7   9
ATOM      9  C   UNL     1      62.911  29.948  61.749  1.00  0.00     0.044 C 
ATOM     10  O   UNL     1      63.916  30.708  61.718  1.00  0.00    -0.550 OA
ATOM     11  O   UNL     1      63.095  28.573  61.837  1.00  0.00    -0.550 OA
ENDBRANCH   7   9
ENDBRANCH   6   7
ENDBRANCH   5   6
ENDBRANCH   4   5
ENDBRANCH   3   4
ENDBRANCH   2   3
ENDBRANCH   1   2
BRANCH   1  12
ATOM     12  C   UNL     1      64.964  35.837  59.164  1.00  0.00     0.000 C 
BRANCH  12  13
ATOM     13  C   UNL     1      65.119  35.993  60.686  1.00  0.00    -0.000 C 
BRANCH  13  14
ATOM     14  C   UNL     1      63.869  35.541  61.459  1.00  0.00    -0.000 C 
BRANCH  14  15
ATOM     15  C   UNL     1      62.596  36.371  61.187  1.00  0.00    -0.000 C 
BRANCH  15  16
ATOM     16  C   UNL     1      61.352  35.553  60.792  1.00  0.00    -0.000 C 
BRANCH  16  17
ATOM     17  C   UNL     1      60.613  36.144  59.579  1.00  0.00    -0.000 C 
BRANCH  17  18
ATOM     18  C   UNL     1      61.566  36.802  58.569  1.00  0.00    -0.003 C 
ATOM     19  C   UNL     1      61.141  36.580  57.118  1.00  0.00     0.004 C 
ENDBRANCH  17  18
ENDBRANCH  16  17
ENDBRANCH  15  16
ENDBRANCH  14  15
ENDBRANCH  13  14
ENDBRANCH  12  13
ENDBRANCH   1  12
TORSDOF 14
ENDMDL
MODEL 6
REMARK VINA RESULT:    -3.269     11.245     12.875
REMARK INTER + INTRA:          -8.031
REMARK INTER:                  -5.675
REMARK INTRA:                  -2.356
REMARK UNBOUND:                -2.086
REMARK SMILES CCCCCCCCCCCCCC[C@@H](C)C(=O)[O-]
REMARK SMILES IDX 9 1 10 2 11 3 12 4 13 5 14 6 15 7 16 8 17 9 18 10 19 11 8 12
REMARK SMILES IDX 7 13 6 14 5 15 4 16 3 17 2 18 1 19
REMARK H PARENT
REMARK Flexibility Score: inf
ROOT
ATOM      1  C   UNL     1      57.455  27.961  52.509  1.00  0.00     0.000 C 
ENDROOT
BRANCH   1   2
ATOM      2  C   UNL     1      57.973  29.129  51.645  1.00  0.00     0.000 C 
BRANCH   2   3
ATOM      3  C   UNL     1      57.687  29.006  50.136  1.00  0.00     0.000 C 
BRANCH   3   4
ATOM      4  C   UNL     1      58.961  29.037  49.277  1.00  0.00     0.000 C 
BRANCH   4   5
ATOM      5  C   UNL     1      59.530  27.622  49.087  1.00  0.00     0.001 C 
BRANCH   5   6
ATOM      6  C   UNL     1      60.994  27.505  49.558  1.00  0.00     0.009 C 
BRANCH   6   7
ATOM      7  C   UNL     1      61.148  27.358  51.091  1.00  0.00     0.032 C 
ATOM      8  C   UNL     1      61.771  26.009  51.479  1.00  0.00     0.014 C 
BRANCH   7   9
ATOM      9  C   UNL     1      62.006  28.474  51.622  1.00  0.00     0.044 C 
ATOM     10  O   UNL     1      63.179  28.236  52.018  1.00  0.00    -0.550 OA
ATOM     11  O   UNL     1      61.512  29.771  51.685  1.00  0.00    -0.550 OA
ENDBRANCH   7   9
ENDBRANCH   6   7
ENDBRANCH   5   6
ENDBRANCH   4   5
ENDBRANCH   3   4
ENDBRANCH   2   3
ENDBRANCH   1   2
BRANCH   1  12
ATOM     12  C   UNL     1      56.974  26.731  51.718  1.00  0.00     0.000 C 
BRANCH  12  13
ATOM     13  C   UNL     1      55.519  26.350  52.038  1.00  0.00    -0.000 C 
BRANCH  13  14
ATOM     14  C   UNL     1      54.758  25.826  50.808  1.00  0.00    -0.000 C 
BRANCH  14  15
ATOM     15  C   UNL     1      54.577  26.848  49.666  1.00  0.00    -0.000 C 
BRANCH  15  16
ATOM     16  C   UNL     1      53.154  27.420  49.516  1.00  0.00    -0.000 C 
BRANCH  16  17
ATOM     17  C   UNL     1      52.884  28.597  50.470  1.00  0.00    -0.000 C 
BRANCH  17  18
ATOM     18  C   UNL     1      54.077  29.561  50.573  1.00  0.00    -0.003 C 
ATOM     19  C   UNL     1      54.326  30.046  52.001  1.00  0.00     0.004 C 
ENDBRANCH  17  18
ENDBRANCH  16  17
ENDBRANCH  15  16
ENDBRANCH  14  15
ENDBRANCH  13  14
ENDBRANCH  12  13
ENDBRANCH   1  12
TORSDOF 14
ENDMDL
MODEL 7
REMARK VINA RESULT:    -3.250     11.432     12.917
REMARK INTER + INTRA:          -7.995
REMARK INTER:                  -5.776
REMARK INTRA:                  -2.220
REMARK UNBOUND:                -2.086
REMARK SMILES CCCCCCCCCCCCCC[C@@H](C)C(=O)[O-]
REMARK SMILES IDX 9 1 10 2 11 3 12 4 13 5 14 6 15 7 16 8 17 9 18 10 19 11 8 12
REMARK SMILES IDX 7 13 6 14 5 15 4 16 3 17 2 18 1 19
REMARK H PARENT
REMARK Flexibility Score: inf
ROOT
ATOM      1  C   UNL     1      57.725  27.101  53.862  1.00  0.00     0.000 C 
ENDROOT
BRANCH   1   2
ATOM      2  C   UNL     1      59.022  26.830  53.072  1.00  0.00     0.000 C 
BRANCH   2   3
ATOM      3  C   UNL     1      59.037  25.517  52.267  1.00  0.00     0.000 C 
BRANCH   3   4
ATOM      4  C   UNL     1      58.023  25.505  51.112  1.00  0.00     0.000 C 
BRANCH   4   5
ATOM      5  C   UNL     1      58.535  26.335  49.924  1.00  0.00     0.001 C 
BRANCH   5   6
ATOM      6  C   UNL     1      60.035  26.108  49.647  1.00  0.00     0.009 C 
BRANCH   6   7
ATOM      7  C   UNL     1      60.793  27.386  49.218  1.00  0.00     0.032 C 
ATOM      8  C   UNL     1      60.444  28.587  50.109  1.00  0.00     0.014 C 
BRANCH   7   9
ATOM      9  C   UNL     1      62.276  27.139  49.275  1.00  0.00     0.044 C 
ATOM     10  O   UNL     1      62.723  26.100  49.832  1.00  0.00    -0.550 OA
ATOM     11  O   UNL     1      63.163  28.053  48.719  1.00  0.00    -0.550 OA
ENDBRANCH   7   9
ENDBRANCH   6   7
ENDBRANCH   5   6
ENDBRANCH   4   5
ENDBRANCH   3   4
ENDBRANCH   2   3
ENDBRANCH   1   2
BRANCH   1  12
ATOM     12  C   UNL     1      57.129  28.507  53.672  1.00  0.00     0.000 C 
BRANCH  12  13
ATOM     13  C   UNL     1      57.798  29.287  52.528  1.00  0.00    -0.000 C 
BRANCH  13  14
ATOM     14  C   UNL     1      56.984  29.243  51.224  1.00  0.00    -0.000 C 
BRANCH  14  15
ATOM     15  C   UNL     1      55.469  29.009  51.405  1.00  0.00    -0.000 C 
BRANCH  15  16
ATOM     16  C   UNL     1      54.783  28.239  50.261  1.00  0.00    -0.000 C 
BRANCH  16  17
ATOM     17  C   UNL     1      54.646  26.735  50.554  1.00  0.00    -0.000 C 
BRANCH  17  18
ATOM     18  C   UNL     1      54.622  25.883  49.275  1.00  0.00    -0.003 C 
ATOM     19  C   UNL     1      53.203  25.573  48.795  1.00  0.00     0.004 C 
ENDBRANCH  17  18
ENDBRANCH  16  17
ENDBRANCH  15  16
ENDBRANCH  14  15
ENDBRANCH  13  14
ENDBRANCH  12  13
ENDBRANCH   1  12
TORSDOF 14
ENDMDL
MODEL 8
REMARK VINA RESULT:    -3.226     11.511     13.140
REMARK INTER + INTRA:          -7.953
REMARK INTER:                  -5.765
REMARK INTRA:                  -2.188
REMARK UNBOUND:                -2.086
REMARK SMILES CCCCCCCCCCCCCC[C@@H](C)C(=O)[O-]
REMARK SMILES IDX 9 1 10 2 11 3 12 4 13 5 14 6 15 7 16 8 17 9 18 10 19 11 8 12
REMARK SMILES IDX 7 13 6 14 5 15 4 16 3 17 2 18 1 19
REMARK H PARENT
REMARK Flexibility Score: inf
ROOT
ATOM      1  C   UNL     1      57.769  26.650  52.672  1.00  0.00     0.000 C 
ENDROOT
BRANCH   1   2
ATOM      2  C   UNL     1      58.587  25.584  51.915  1.00  0.00     0.000 C 
BRANCH   2   3
ATOM      3  C   UNL     1      58.241  25.429  50.422  1.00  0.00     0.000 C 
BRANCH   3   4
ATOM      4  C   UNL     1      58.097  26.776  49.694  1.00  0.00     0.000 C 
BRANCH   4   5
ATOM      5  C   UNL     1      59.462  27.466  49.543  1.00  0.00     0.001 C 
BRANCH   5   6
ATOM      6  C   UNL     1      59.497  28.860  50.203  1.00  0.00     0.009 C 
BRANCH   6   7
ATOM      7  C   UNL     1      60.787  29.138  51.010  1.00  0.00     0.032 C 
ATOM      8  C   UNL     1      61.376  27.854  51.613  1.00  0.00     0.014 C 
BRANCH   7   9
ATOM      9  C   UNL     1      61.812  29.785  50.119  1.00  0.00     0.044 C 
ATOM     10  O   UNL     1      62.710  29.087  49.577  1.00  0.00    -0.550 OA
ATOM     11  O   UNL     1      61.778  31.156  49.889  1.00  0.00    -0.550 OA
ENDBRANCH   7   9
ENDBRANCH   6   7
ENDBRANCH   5   6
ENDBRANCH   4   5
ENDBRANCH   3   4
ENDBRANCH   2   3
ENDBRANCH   1   2
BRANCH   1  12
ATOM     12  C   UNL     1      56.248  26.416  52.683  1.00  0.00     0.000 C 
BRANCH  12  13
ATOM     13  C   UNL     1      55.451  27.700  52.965  1.00  0.00    -0.000 C 
BRANCH  13  14
ATOM     14  C   UNL     1      55.925  28.892  52.116  1.00  0.00    -0.000 C 
BRANCH  14  15
ATOM     15  C   UNL     1      55.503  28.848  50.632  1.00  0.00    -0.000 C 
BRANCH  15  16
ATOM     16  C   UNL     1      53.992  29.006  50.375  1.00  0.00    -0.000 C 
BRANCH  16  17
ATOM     17  C   UNL     1      53.371  27.768  49.704  1.00  0.00    -0.000 C 
BRANCH  17  18
ATOM     18  C   UNL     1      54.384  26.627  49.516  1.00  0.00    -0.003 C 
ATOM     19  C   UNL     1      53.723  25.304  49.130  1.00  0.00     0.004 C 
ENDBRANCH  17  18
ENDBRANCH  16  17
ENDBRANCH  15  16
ENDBRANCH  14  15
ENDBRANCH  13  14
ENDBRANCH  12  13
ENDBRANCH   1  12
TORSDOF 14
ENDMDL
MODEL 9
REMARK VINA RESULT:    -3.220      1.828      2.722
REMARK INTER + INTRA:          -7.942
REMARK INTER:                  -5.428
REMARK INTRA:                  -2.514
REMARK UNBOUND:                -2.086
REMARK SMILES CCCCCCCCCCCCCC[C@@H](C)C(=O)[O-]
REMARK SMILES IDX 9 1 10 2 11 3 12 4 13 5 14 6 15 7 16 8 17 9 18 10 19 11 8 12
REMARK SMILES IDX 7 13 6 14 5 15 4 16 3 17 2 18 1 19
REMARK H PARENT
REMARK Flexibility Score: inf
ROOT
ATOM      1  C   UNL     1      61.960  33.690  60.545  1.00  0.00     0.000 C 
ENDROOT
BRANCH   1   2
ATOM      2  C   UNL     1      61.290  32.866  59.427  1.00  0.00     0.000 C 
BRANCH   2   3
ATOM      3  C   UNL     1      62.259  32.206  58.428  1.00  0.00     0.000 C 
BRANCH   3   4
ATOM      4  C   UNL     1      63.735  32.360  58.830  1.00  0.00     0.000 C 
BRANCH   4   5
ATOM      5  C   UNL     1      64.294  31.039  59.384  1.00  0.00     0.001 C 
BRANCH   5   6
ATOM      6  C   UNL     1      64.567  31.103  60.900  1.00  0.00     0.009 C 
BRANCH   6   7
ATOM      7  C   UNL     1      63.887  29.971  61.707  1.00  0.00     0.032 C 
ATOM      8  C   UNL     1      62.362  30.143  61.764  1.00  0.00     0.014 C 
BRANCH   7   9
ATOM      9  C   UNL     1      64.215  28.640  61.087  1.00  0.00     0.044 C 
ATOM     10  O   UNL     1      65.400  28.213  61.095  1.00  0.00    -0.550 OA
ATOM     11  O   UNL     1      63.216  27.874  60.498  1.00  0.00    -0.550 OA
ENDBRANCH   7   9
ENDBRANCH   6   7
ENDBRANCH   5   6
ENDBRANCH   4   5
ENDBRANCH   3   4
ENDBRANCH   2   3
ENDBRANCH   1   2
BRANCH   1  12
ATOM     12  C   UNL     1      61.592  35.184  60.562  1.00  0.00     0.000 C 
BRANCH  12  13
ATOM     13  C   UNL     1      62.607  36.038  61.340  1.00  0.00    -0.000 C 
BRANCH  13  14
ATOM     14  C   UNL     1      63.987  35.368  61.448  1.00  0.00    -0.000 C 
BRANCH  14  15
ATOM     15  C   UNL     1      65.108  36.042  60.628  1.00  0.00    -0.000 C 
BRANCH  15  16
ATOM     16  C   UNL     1      65.202  35.597  59.156  1.00  0.00    -0.000 C 
BRANCH  16  17
ATOM     17  C   UNL     1      64.443  36.537  58.202  1.00  0.00    -0.000 C 
BRANCH  17  18
ATOM     18  C   UNL     1      63.334  35.816  57.420  1.00  0.00    -0.003 C 
ATOM     19  C   UNL     1      63.866  35.037  56.217  1.00  0.00     0.004 C 
ENDBRANCH  17  18
ENDBRANCH  16  17
ENDBRANCH  15  16
ENDBRANCH  14  15
ENDBRANCH  13  14
ENDBRANCH  12  13
ENDBRANCH   1  12
TORSDOF 14
ENDMDL
