MODEL 1
REMARK VINA RESULT:    -1.095      0.000      0.000
REMARK INTER + INTRA:          -2.570
REMARK INTER:                  -1.991
REMARK INTRA:                  -0.578
REMARK UNBOUND:                -0.578
REMARK SMILES CCCCCCCCCCCCCCCC(=O)[O-]
REMARK SMILES IDX 9 1 10 2 11 3 12 4 13 5 14 6 15 7 16 8 17 9 18 10 8 11 7 12
REMARK SMILES IDX 6 13 5 14 4 15 3 16 2 17 1 18
REMARK H PARENT
REMARK Flexibility Score: inf
ROOT
ATOM      1  C   UNL     1      24.218  36.568  19.276  1.00  0.00     0.000 C 
ENDROOT
BRANCH   1   2
ATOM      2  C   UNL     1      23.190  35.661  19.984  1.00  0.00     0.000 C 
BRANCH   2   3
ATOM      3  C   UNL     1      22.408  36.328  21.129  1.00  0.00     0.000 C 
BRANCH   3   4
ATOM      4  C   UNL     1      22.571  37.854  21.153  1.00  0.00     0.000 C 
BRANCH   4   5
ATOM      5  C   UNL     1      22.515  38.390  22.589  1.00  0.00     0.000 C 
BRANCH   5   6
ATOM      6  C   UNL     1      23.812  39.129  22.952  1.00  0.00     0.006 C 
BRANCH   6   7
ATOM      7  C   UNL     1      23.726  39.814  24.323  1.00  0.00     0.053 C 
BRANCH   7   8
ATOM      8  C   UNL     1      23.774  38.821  25.443  1.00  0.00     0.041 C 
ATOM      9  O   UNL     1      24.187  37.650  25.236  1.00  0.00    -0.550 OA
ATOM     10  O   UNL     1      23.330  39.179  26.710  1.00  0.00    -0.550 OA
ENDBRANCH   7   8
ENDBRANCH   6   7
ENDBRANCH   5   6
ENDBRANCH   4   5
ENDBRANCH   3   4
ENDBRANCH   2   3
ENDBRANCH   1   2
BRANCH   1  11
ATOM     11  C   UNL     1      24.895  35.952  18.038  1.00  0.00     0.000 C 
BRANCH  11  12
ATOM     12  C   UNL     1      26.359  36.398  17.875  1.00  0.00    -0.000 C 
BRANCH  12  13
ATOM     13  C   UNL     1      27.354  35.255  18.131  1.00  0.00    -0.000 C 
BRANCH  13  14
ATOM     14  C   UNL     1      28.812  35.739  18.194  1.00  0.00    -0.000 C 
BRANCH  14  15
ATOM     15  C   UNL     1      28.929  37.250  18.464  1.00  0.00    -0.000 C 
BRANCH  15  16
ATOM     16  C   UNL     1      30.266  37.884  18.035  1.00  0.00    -0.000 C 
BRANCH  16  17
ATOM     17  C   UNL     1      31.454  36.921  18.169  1.00  0.00    -0.003 C 
ATOM     18  C   UNL     1      31.983  36.896  19.600  1.00  0.00     0.004 C 
ENDBRANCH  16  17
ENDBRANCH  15  16
ENDBRANCH  14  15
ENDBRANCH  13  14
ENDBRANCH  12  13
ENDBRANCH  11  12
ENDBRANCH   1  11
TORSDOF 14
ENDMDL
MODEL 2
REMARK VINA RESULT:    -0.970      3.088      7.466
REMARK INTER + INTRA:          -2.343
REMARK INTER:                  -1.470
REMARK INTRA:                  -0.873
REMARK UNBOUND:                -0.578
REMARK SMILES CCCCCCCCCCCCCCCC(=O)[O-]
REMARK SMILES IDX 9 1 10 2 11 3 12 4 13 5 14 6 15 7 16 8 17 9 18 10 8 11 7 12
REMARK SMILES IDX 6 13 5 14 4 15 3 16 2 17 1 18
REMARK H PARENT
REMARK Flexibility Score: inf
ROOT
ATOM      1  C   UNL     1      23.186  35.247  19.987  1.00  0.00     0.000 C 
ENDROOT
BRANCH   1   2
ATOM      2  C   UNL     1      23.844  35.239  18.592  1.00  0.00     0.000 C 
BRANCH   2   3
ATOM      3  C   UNL     1      24.624  36.515  18.229  1.00  0.00     0.000 C 
BRANCH   3   4
ATOM      4  C   UNL     1      26.092  36.235  17.876  1.00  0.00     0.000 C 
BRANCH   4   5
ATOM      5  C   UNL     1      26.967  37.463  18.156  1.00  0.00     0.000 C 
BRANCH   5   6
ATOM      6  C   UNL     1      28.459  37.110  18.061  1.00  0.00     0.006 C 
BRANCH   6   7
ATOM      7  C   UNL     1      28.747  35.675  18.522  1.00  0.00     0.053 C 
BRANCH   7   8
ATOM      8  C   UNL     1      29.932  35.612  19.435  1.00  0.00     0.041 C 
ATOM      9  O   UNL     1      31.098  35.607  18.960  1.00  0.00    -0.550 OA
ATOM     10  O   UNL     1      29.749  35.525  20.809  1.00  0.00    -0.550 OA
ENDBRANCH   7   8
ENDBRANCH   6   7
ENDBRANCH   5   6
ENDBRANCH   4   5
ENDBRANCH   3   4
ENDBRANCH   2   3
ENDBRANCH   1   2
BRANCH   1  11
ATOM     11  C   UNL     1      23.112  36.625  20.671  1.00  0.00     0.000 C 
BRANCH  11  12
ATOM     12  C   UNL     1      21.891  36.767  21.595  1.00  0.00    -0.000 C 
BRANCH  12  13
ATOM     13  C   UNL     1      22.227  36.465  23.064  1.00  0.00    -0.000 C 
BRANCH  13  14
ATOM     14  C   UNL     1      22.046  37.688  23.980  1.00  0.00    -0.000 C 
BRANCH  14  15
ATOM     15  C   UNL     1      23.118  37.773  25.081  1.00  0.00    -0.000 C 
BRANCH  15  16
ATOM     16  C   UNL     1      24.151  38.900  24.894  1.00  0.00    -0.000 C 
BRANCH  16  17
ATOM     17  C   UNL     1      24.107  39.525  23.492  1.00  0.00    -0.003 C 
ATOM     18  C   UNL     1      24.086  41.049  23.570  1.00  0.00     0.004 C 
ENDBRANCH  16  17
ENDBRANCH  15  16
ENDBRANCH  14  15
ENDBRANCH  13  14
ENDBRANCH  12  13
ENDBRANCH  11  12
ENDBRANCH   1  11
TORSDOF 14
ENDMDL
MODEL 3
REMARK VINA RESULT:    -0.920      3.313      7.513
REMARK INTER + INTRA:          -2.252
REMARK INTER:                  -1.328
REMARK INTRA:                  -0.924
REMARK UNBOUND:                -0.578
REMARK SMILES CCCCCCCCCCCCCCCC(=O)[O-]
REMARK SMILES IDX 9 1 10 2 11 3 12 4 13 5 14 6 15 7 16 8 17 9 18 10 8 11 7 12
REMARK SMILES IDX 6 13 5 14 4 15 3 16 2 17 1 18
REMARK H PARENT
REMARK Flexibility Score: inf
ROOT
ATOM      1  C   UNL     1      24.414  35.208  18.628  1.00  0.00     0.000 C 
ENDROOT
BRANCH   1   2
ATOM      2  C   UNL     1      24.832  36.513  17.919  1.00  0.00     0.000 C 
BRANCH   2   3
ATOM      3  C   UNL     1      26.348  36.777  17.875  1.00  0.00     0.000 C 
BRANCH   3   4
ATOM      4  C   UNL     1      27.180  35.532  18.212  1.00  0.00     0.000 C 
BRANCH   4   5
ATOM      5  C   UNL     1      28.662  35.758  17.889  1.00  0.00     0.000 C 
BRANCH   5   6
ATOM      6  C   UNL     1      29.110  37.165  18.314  1.00  0.00     0.006 C 
BRANCH   6   7
ATOM      7  C   UNL     1      29.495  37.228  19.799  1.00  0.00     0.053 C 
BRANCH   7   8
ATOM      8  C   UNL     1      30.868  36.681  20.040  1.00  0.00     0.041 C 
ATOM      9  O   UNL     1      31.881  37.316  19.646  1.00  0.00    -0.550 OA
ATOM     10  O   UNL     1      31.028  35.453  20.669  1.00  0.00    -0.550 OA
ENDBRANCH   7   8
ENDBRANCH   6   7
ENDBRANCH   5   6
ENDBRANCH   4   5
ENDBRANCH   3   4
ENDBRANCH   2   3
ENDBRANCH   1   2
BRANCH   1  11
ATOM     11  C   UNL     1      22.988  35.203  19.208  1.00  0.00     0.000 C 
BRANCH  11  12
ATOM     12  C   UNL     1      22.964  35.370  20.736  1.00  0.00    -0.000 C 
BRANCH  12  13
ATOM     13  C   UNL     1      22.907  36.845  21.165  1.00  0.00    -0.000 C 
BRANCH  13  14
ATOM     14  C   UNL     1      21.689  37.161  22.050  1.00  0.00    -0.000 C 
BRANCH  14  15
ATOM     15  C   UNL     1      21.988  38.226  23.120  1.00  0.00    -0.000 C 
BRANCH  15  16
ATOM     16  C   UNL     1      22.794  37.719  24.331  1.00  0.00    -0.000 C 
BRANCH  16  17
ATOM     17  C   UNL     1      23.905  38.689  24.759  1.00  0.00    -0.003 C 
ATOM     18  C   UNL     1      24.231  39.678  23.644  1.00  0.00     0.004 C 
ENDBRANCH  16  17
ENDBRANCH  15  16
ENDBRANCH  14  15
ENDBRANCH  13  14
ENDBRANCH  12  13
ENDBRANCH  11  12
ENDBRANCH   1  11
TORSDOF 14
ENDMDL
MODEL 4
REMARK VINA RESULT:    -0.884      1.407      1.724
REMARK INTER + INTRA:          -2.186
REMARK INTER:                  -1.881
REMARK INTRA:                  -0.305
REMARK UNBOUND:                -0.578
REMARK SMILES CCCCCCCCCCCCCCCC(=O)[O-]
REMARK SMILES IDX 9 1 10 2 11 3 12 4 13 5 14 6 15 7 16 8 17 9 18 10 8 11 7 12
REMARK SMILES IDX 6 13 5 14 4 15 3 16 2 17 1 18
REMARK H PARENT
REMARK Flexibility Score: inf
ROOT
ATOM      1  C   UNL     1      23.598  35.046  19.714  1.00  0.00     0.000 C 
ENDROOT
BRANCH   1   2
ATOM      2  C   UNL     1      22.370  35.852  20.186  1.00  0.00     0.000 C 
BRANCH   2   3
ATOM      3  C   UNL     1      22.680  37.015  21.144  1.00  0.00     0.000 C 
BRANCH   3   4
ATOM      4  C   UNL     1      22.433  36.658  22.617  1.00  0.00     0.000 C 
BRANCH   4   5
ATOM      5  C   UNL     1      22.271  37.922  23.469  1.00  0.00     0.000 C 
BRANCH   5   6
ATOM      6  C   UNL     1      22.931  37.748  24.845  1.00  0.00     0.006 C 
BRANCH   6   7
ATOM      7  C   UNL     1      23.844  38.927  25.205  1.00  0.00     0.053 C 
BRANCH   7   8
ATOM      8  C   UNL     1      24.040  39.852  24.044  1.00  0.00     0.041 C 
ATOM      9  O   UNL     1      24.591  39.439  22.990  1.00  0.00    -0.550 OA
ATOM     10  O   UNL     1      23.644  41.181  24.137  1.00  0.00    -0.550 OA
ENDBRANCH   7   8
ENDBRANCH   6   7
ENDBRANCH   5   6
ENDBRANCH   4   5
ENDBRANCH   3   4
ENDBRANCH   2   3
ENDBRANCH   1   2
BRANCH   1  11
ATOM     11  C   UNL     1      23.883  35.108  18.202  1.00  0.00     0.000 C 
BRANCH  11  12
ATOM     12  C   UNL     1      25.224  35.788  17.875  1.00  0.00    -0.000 C 
BRANCH  12  13
ATOM     13  C   UNL     1      26.432  34.916  18.252  1.00  0.00    -0.000 C 
BRANCH  13  14
ATOM     14  C   UNL     1      27.774  35.643  18.057  1.00  0.00    -0.000 C 
BRANCH  14  15
ATOM     15  C   UNL     1      27.638  37.175  18.122  1.00  0.00    -0.000 C 
BRANCH  15  16
ATOM     16  C   UNL     1      28.705  37.884  18.976  1.00  0.00    -0.000 C 
BRANCH  16  17
ATOM     17  C   UNL     1      30.126  37.369  18.708  1.00  0.00    -0.003 C 
ATOM     18  C   UNL     1      30.734  36.753  19.964  1.00  0.00     0.004 C 
ENDBRANCH  16  17
ENDBRANCH  15  16
ENDBRANCH  14  15
ENDBRANCH  13  14
ENDBRANCH  12  13
ENDBRANCH  11  12
ENDBRANCH   1  11
TORSDOF 14
ENDMDL
MODEL 5
REMARK VINA RESULT:    -0.829      3.114      7.565
REMARK INTER + INTRA:          -2.086
REMARK INTER:                  -1.808
REMARK INTRA:                  -0.278
REMARK UNBOUND:                -0.578
REMARK SMILES CCCCCCCCCCCCCCCC(=O)[O-]
REMARK SMILES IDX 9 1 10 2 11 3 12 4 13 5 14 6 15 7 16 8 17 9 18 10 8 11 7 12
REMARK SMILES IDX 6 13 5 14 4 15 3 16 2 17 1 18
REMARK H PARENT
REMARK Flexibility Score: inf
ROOT
ATOM      1  C   UNL     1      23.147  35.574  20.110  1.00  0.00     0.000 C 
ENDROOT
BRANCH   1   2
ATOM      2  C   UNL     1      23.591  35.196  18.682  1.00  0.00     0.000 C 
BRANCH   2   3
ATOM      3  C   UNL     1      24.395  36.278  17.939  1.00  0.00     0.000 C 
BRANCH   3   4
ATOM      4  C   UNL     1      25.898  35.970  17.883  1.00  0.00     0.000 C 
BRANCH   4   5
ATOM      5  C   UNL     1      26.723  37.263  17.875  1.00  0.00     0.000 C 
BRANCH   5   6
ATOM      6  C   UNL     1      28.225  36.959  17.990  1.00  0.00     0.006 C 
BRANCH   6   7
ATOM      7  C   UNL     1      28.895  37.761  19.114  1.00  0.00     0.053 C 
BRANCH   7   8
ATOM      8  C   UNL     1      30.019  36.998  19.746  1.00  0.00     0.041 C 
ATOM      9  O   UNL     1      31.200  37.427  19.664  1.00  0.00    -0.550 OA
ATOM     10  O   UNL     1      29.767  35.797  20.397  1.00  0.00    -0.550 OA
ENDBRANCH   7   8
ENDBRANCH   6   7
ENDBRANCH   5   6
ENDBRANCH   4   5
ENDBRANCH   3   4
ENDBRANCH   2   3
ENDBRANCH   1   2
BRANCH   1  11
ATOM     11  C   UNL     1      23.298  37.063  20.473  1.00  0.00     0.000 C 
BRANCH  11  12
ATOM     12  C   UNL     1      22.068  37.627  21.204  1.00  0.00    -0.000 C 
BRANCH  12  13
ATOM     13  C   UNL     1      22.318  37.828  22.708  1.00  0.00    -0.000 C 
BRANCH  13  14
ATOM     14  C   UNL     1      22.859  39.229  23.039  1.00  0.00    -0.000 C 
BRANCH  14  15
ATOM     15  C   UNL     1      24.226  39.190  23.746  1.00  0.00    -0.000 C 
BRANCH  15  16
ATOM     16  C   UNL     1      24.168  38.859  25.249  1.00  0.00    -0.000 C 
BRANCH  16  17
ATOM     17  C   UNL     1      22.870  38.145  25.654  1.00  0.00    -0.003 C 
ATOM     18  C   UNL     1      22.396  38.604  27.030  1.00  0.00     0.004 C 
ENDBRANCH  16  17
ENDBRANCH  15  16
ENDBRANCH  14  15
ENDBRANCH  13  14
ENDBRANCH  12  13
ENDBRANCH  11  12
ENDBRANCH   1  11
TORSDOF 14
ENDMDL
MODEL 6
REMARK VINA RESULT:    -0.732      1.340      2.253
REMARK INTER + INTRA:          -1.910
REMARK INTER:                  -1.593
REMARK INTRA:                  -0.317
REMARK UNBOUND:                -0.578
REMARK SMILES CCCCCCCCCCCCCCCC(=O)[O-]
REMARK SMILES IDX 9 1 10 2 11 3 12 4 13 5 14 6 15 7 16 8 17 9 18 10 8 11 7 12
REMARK SMILES IDX 6 13 5 14 4 15 3 16 2 17 1 18
REMARK H PARENT
REMARK Flexibility Score: inf
ROOT
ATOM      1  C   UNL     1      25.521  35.947  18.621  1.00  0.00     0.000 C 
ENDROOT
BRANCH   1   2
ATOM      2  C   UNL     1      24.148  35.763  17.941  1.00  0.00     0.000 C 
BRANCH   2   3
ATOM      3  C   UNL     1      23.150  34.879  18.709  1.00  0.00     0.000 C 
BRANCH   3   4
ATOM      4  C   UNL     1      23.081  35.219  20.205  1.00  0.00     0.000 C 
BRANCH   4   5
ATOM      5  C   UNL     1      23.022  36.736  20.420  1.00  0.00     0.000 C 
BRANCH   5   6
ATOM      6  C   UNL     1      22.229  37.082  21.690  1.00  0.00     0.006 C 
BRANCH   6   7
ATOM      7  C   UNL     1      22.422  38.545  22.115  1.00  0.00     0.053 C 
BRANCH   7   8
ATOM      8  C   UNL     1      23.007  38.652  23.489  1.00  0.00     0.041 C 
ATOM      9  O   UNL     1      22.699  37.813  24.376  1.00  0.00    -0.550 OA
ATOM     10  O   UNL     1      23.866  39.697  23.801  1.00  0.00    -0.550 OA
ENDBRANCH   7   8
ENDBRANCH   6   7
ENDBRANCH   5   6
ENDBRANCH   4   5
ENDBRANCH   3   4
ENDBRANCH   2   3
ENDBRANCH   1   2
BRANCH   1  11
ATOM     11  C   UNL     1      26.325  37.176  18.158  1.00  0.00     0.000 C 
BRANCH  11  12
ATOM     12  C   UNL     1      27.802  36.851  17.875  1.00  0.00    -0.000 C 
BRANCH  12  13
ATOM     13  C   UNL     1      28.171  35.410  18.261  1.00  0.00    -0.000 C 
BRANCH  13  14
ATOM     14  C   UNL     1      29.626  35.054  17.911  1.00  0.00    -0.000 C 
BRANCH  14  15
ATOM     15  C   UNL     1      30.550  36.285  17.879  1.00  0.00    -0.000 C 
BRANCH  15  16
ATOM     16  C   UNL     1      31.776  36.199  18.808  1.00  0.00    -0.000 C 
BRANCH  16  17
ATOM     17  C   UNL     1      31.511  36.782  20.203  1.00  0.00    -0.003 C 
ATOM     18  C   UNL     1      30.362  36.056  20.894  1.00  0.00     0.004 C 
ENDBRANCH  16  17
ENDBRANCH  15  16
ENDBRANCH  14  15
ENDBRANCH  13  14
ENDBRANCH  12  13
ENDBRANCH  11  12
ENDBRANCH   1  11
TORSDOF 14
ENDMDL
MODEL 7
REMARK VINA RESULT:    -0.607      0.948      1.422
REMARK INTER + INTRA:          -1.683
REMARK INTER:                  -1.387
REMARK INTRA:                  -0.296
REMARK UNBOUND:                -0.578
REMARK SMILES CCCCCCCCCCCCCCCC(=O)[O-]
REMARK SMILES IDX 9 1 10 2 11 3 12 4 13 5 14 6 15 7 16 8 17 9 18 10 8 11 7 12
REMARK SMILES IDX 6 13 5 14 4 15 3 16 2 17 1 18
REMARK H PARENT
REMARK Flexibility Score: inf
ROOT
ATOM      1  C   UNL     1      23.768  35.910  19.565  1.00  0.00     0.000 C 
ENDROOT
BRANCH   1   2
ATOM      2  C   UNL     1      23.328  37.268  20.149  1.00  0.00     0.000 C 
BRANCH   2   3
ATOM      3  C   UNL     1      22.388  37.185  21.364  1.00  0.00     0.000 C 
BRANCH   3   4
ATOM      4  C   UNL     1      22.380  38.472  22.201  1.00  0.00     0.000 C 
BRANCH   4   5
ATOM      5  C   UNL     1      23.808  38.969  22.457  1.00  0.00     0.000 C 
BRANCH   5   6
ATOM      6  C   UNL     1      23.873  39.829  23.729  1.00  0.00     0.006 C 
BRANCH   6   7
ATOM      7  C   UNL     1      24.247  39.005  24.969  1.00  0.00     0.053 C 
BRANCH   7   8
ATOM      8  C   UNL     1      23.140  38.082  25.377  1.00  0.00     0.041 C 
ATOM      9  O   UNL     1      22.262  38.468  26.192  1.00  0.00    -0.550 OA
ATOM     10  O   UNL     1      23.097  36.784  24.883  1.00  0.00    -0.550 OA
ENDBRANCH   7   8
ENDBRANCH   6   7
ENDBRANCH   5   6
ENDBRANCH   4   5
ENDBRANCH   3   4
ENDBRANCH   2   3
ENDBRANCH   1   2
BRANCH   1  11
ATOM     11  C   UNL     1      24.211  35.941  18.090  1.00  0.00     0.000 C 
BRANCH  11  12
ATOM     12  C   UNL     1      25.611  35.340  17.875  1.00  0.00    -0.000 C 
BRANCH  12  13
ATOM     13  C   UNL     1      26.733  36.358  18.132  1.00  0.00    -0.000 C 
BRANCH  13  14
ATOM     14  C   UNL     1      28.136  35.761  17.928  1.00  0.00    -0.000 C 
BRANCH  14  15
ATOM     15  C   UNL     1      29.243  36.831  17.902  1.00  0.00    -0.000 C 
BRANCH  15  16
ATOM     16  C   UNL     1      29.846  37.172  19.278  1.00  0.00    -0.000 C 
BRANCH  16  17
ATOM     17  C   UNL     1      31.316  36.747  19.408  1.00  0.00    -0.003 C 
ATOM     18  C   UNL     1      31.565  36.028  20.730  1.00  0.00     0.004 C 
ENDBRANCH  16  17
ENDBRANCH  15  16
ENDBRANCH  14  15
ENDBRANCH  13  14
ENDBRANCH  12  13
ENDBRANCH  11  12
ENDBRANCH   1  11
TORSDOF 14
ENDMDL
MODEL 8
REMARK VINA RESULT:     0.569      3.146      7.469
REMARK INTER + INTRA:           0.455
REMARK INTER:                   1.151
REMARK INTRA:                  -0.695
REMARK UNBOUND:                -0.578
REMARK SMILES CCCCCCCCCCCCCCCC(=O)[O-]
REMARK SMILES IDX 9 1 10 2 11 3 12 4 13 5 14 6 15 7 16 8 17 9 18 10 8 11 7 12
REMARK SMILES IDX 6 13 5 14 4 15 3 16 2 17 1 18
REMARK H PARENT
REMARK Flexibility Score: inf
ROOT
ATOM      1  C   UNL     1      23.067  38.015  21.217  1.00  0.00     0.000 C 
ENDROOT
BRANCH   1   2
ATOM      2  C   UNL     1      23.842  37.496  19.988  1.00  0.00     0.000 C 
BRANCH   2   3
ATOM      3  C   UNL     1      23.704  35.988  19.716  1.00  0.00     0.000 C 
BRANCH   3   4
ATOM      4  C   UNL     1      23.904  35.629  18.236  1.00  0.00     0.000 C 
BRANCH   4   5
ATOM      5  C   UNL     1      25.284  35.000  18.007  1.00  0.00     0.000 C 
BRANCH   5   6
ATOM      6  C   UNL     1      26.367  36.081  17.876  1.00  0.00     0.006 C 
BRANCH   6   7
ATOM      7  C   UNL     1      27.778  35.519  18.096  1.00  0.00     0.053 C 
BRANCH   7   8
ATOM      8  C   UNL     1      28.781  36.608  18.324  1.00  0.00     0.041 C 
ATOM      9  O   UNL     1      29.979  36.451  17.970  1.00  0.00    -0.550 OA
ATOM     10  O   UNL     1      28.400  37.784  18.958  1.00  0.00    -0.550 OA
ENDBRANCH   7   8
ENDBRANCH   6   7
ENDBRANCH   5   6
ENDBRANCH   4   5
ENDBRANCH   3   4
ENDBRANCH   2   3
ENDBRANCH   1   2
BRANCH   1  11
ATOM     11  C   UNL     1      21.940  37.093  21.721  1.00  0.00     0.000 C 
BRANCH  11  12
ATOM     12  C   UNL     1      22.255  36.457  23.085  1.00  0.00    -0.000 C 
BRANCH  12  13
ATOM     13  C   UNL     1      22.026  37.430  24.254  1.00  0.00    -0.000 C 
BRANCH  13  14
ATOM     14  C   UNL     1      23.106  37.314  25.343  1.00  0.00    -0.000 C 
BRANCH  14  15
ATOM     15  C   UNL     1      24.295  38.262  25.108  1.00  0.00    -0.000 C 
BRANCH  15  16
ATOM     16  C   UNL     1      23.917  39.744  24.925  1.00  0.00    -0.000 C 
BRANCH  16  17
ATOM     17  C   UNL     1      23.811  40.156  23.450  1.00  0.00    -0.003 C 
ATOM     18  C   UNL     1      24.784  41.285  23.123  1.00  0.00     0.004 C 
ENDBRANCH  16  17
ENDBRANCH  15  16
ENDBRANCH  14  15
ENDBRANCH  13  14
ENDBRANCH  12  13
ENDBRANCH  11  12
ENDBRANCH   1  11
TORSDOF 14
ENDMDL
