MODEL 1
REMARK VINA RESULT:    -5.591      0.000      0.000
REMARK INTER + INTRA:          -9.719
REMARK INTER:                  -8.533
REMARK INTRA:                  -1.186
REMARK UNBOUND:                -1.186
REMARK SMILES OC[C@@H]1O[C@H](O[C@@]2(CO)O[C@H](CO)[C@H](O)[C@H]2O)[C@H](O)[C@@H](O)[C@H]1O
REMARK SMILES IDX 6 1 5 2 3 3 22 4 4 5 20 6 18 7 2 8 1 9 23 11 21 13 19 15
REMARK SMILES IDX 7 17 16 18 10 19 14 20 11 21 8 22 9 23 17 25 15 27 12 29
REMARK SMILES IDX 13 30
REMARK H PARENT 1 10 23 12 21 14 19 16 9 24 17 26 15 28 13 31
REMARK Flexibility Score: inf
ROOT
ATOM      1  O   UNL     1      -3.507  -1.269  -8.340  1.00  0.00    -0.313 OA
ENDROOT
BRANCH   1   2
ATOM      2  C   UNL     1      -4.368  -0.546  -7.469  1.00  0.00     0.285 C 
ATOM      3  C   UNL     1      -4.794   1.557  -6.533  1.00  0.00     0.178 C 
ATOM      4  C   UNL     1      -6.266   1.099  -6.272  1.00  0.00     0.177 C 
ATOM      5  O   UNL     1      -4.182   0.852  -7.608  1.00  0.00    -0.341 OA
ATOM      6  C   UNL     1      -6.782   0.284  -7.477  1.00  0.00     0.179 C 
ATOM      7  C   UNL     1      -5.838  -0.901  -7.808  1.00  0.00     0.202 C 
BRANCH   3   8
ATOM      8  C   UNL     1      -4.723   3.054  -6.855  1.00  0.00     0.191 C 
BRANCH   8   9
ATOM      9  O   UNL     1      -5.910   3.688  -6.463  1.00  0.00    -0.394 OA
ATOM     10  H   UNL     1      -6.354   3.071  -5.826  1.00  0.00     0.210 HD
ENDBRANCH   8   9
ENDBRANCH   3   8
BRANCH   4  11
ATOM     11  O   UNL     1      -6.300   0.312  -5.106  1.00  0.00    -0.387 OA
ATOM     12  H   UNL     1      -6.458  -0.628  -5.387  1.00  0.00     0.211 HD
ENDBRANCH   4  11
BRANCH   6  13
ATOM     13  O   UNL     1      -8.107  -0.146  -7.281  1.00  0.00    -0.387 OA
ATOM     14  H   UNL     1      -8.082  -0.994  -6.767  1.00  0.00     0.211 HD
ENDBRANCH   6  13
BRANCH   7  15
ATOM     15  O   UNL     1      -5.959  -1.219  -9.173  1.00  0.00    -0.385 OA
ATOM     16  H   UNL     1      -6.519  -0.510  -9.583  1.00  0.00     0.211 HD
ENDBRANCH   7  15
ENDBRANCH   1   2
BRANCH   1  17
ATOM     17  C   UNL     1      -2.404  -1.942  -7.726  1.00  0.00     0.224 C 
ATOM     18  C   UNL     1      -1.221  -0.973  -7.468  1.00  0.00     0.208 C 
ATOM     19  O   UNL     1      -1.956  -2.905  -8.664  1.00  0.00    -0.337 OA
ATOM     20  C   UNL     1      -0.013  -1.815  -7.789  1.00  0.00     0.180 C 
ATOM     21  C   UNL     1      -0.569  -2.733  -8.871  1.00  0.00     0.179 C 
BRANCH  17  22
ATOM     22  C   UNL     1      -2.806  -2.756  -6.457  1.00  0.00     0.225 C 
BRANCH  22  23
ATOM     23  O   UNL     1      -2.305  -4.068  -6.474  1.00  0.00    -0.391 OA
ATOM     24  H   UNL     1      -2.972  -4.634  -6.945  1.00  0.00     0.210 HD
ENDBRANCH  22  23
ENDBRANCH  17  22
BRANCH  18  25
ATOM     25  O   UNL     1      -1.280   0.113  -8.360  1.00  0.00    -0.385 OA
ATOM     26  H   UNL     1      -0.606  -0.062  -9.070  1.00  0.00     0.211 HD
ENDBRANCH  18  25
BRANCH  20  27
ATOM     27  O   UNL     1       0.392  -2.539  -6.654  1.00  0.00    -0.387 OA
ATOM     28  H   UNL     1      -0.182  -2.232  -5.904  1.00  0.00     0.211 HD
ENDBRANCH  20  27
BRANCH  21  29
ATOM     29  C   UNL     1       0.134  -4.096  -8.968  1.00  0.00     0.191 C 
BRANCH  29  30
ATOM     30  O   UNL     1      -0.798  -5.139  -8.892  1.00  0.00    -0.394 OA
ATOM     31  H   UNL     1      -0.305  -5.922  -8.533  1.00  0.00     0.210 HD
ENDBRANCH  29  30
ENDBRANCH  21  29
ENDBRANCH   1  17
TORSDOF 13
ENDMDL
MODEL 2
REMARK VINA RESULT:    -5.560      1.844      6.367
REMARK INTER + INTRA:          -9.672
REMARK INTER:                  -8.315
REMARK INTRA:                  -1.357
REMARK UNBOUND:                -1.186
REMARK SMILES OC[C@@H]1O[C@H](O[C@@]2(CO)O[C@H](CO)[C@H](O)[C@H]2O)[C@H](O)[C@@H](O)[C@H]1O
REMARK SMILES IDX 6 1 5 2 3 3 22 4 4 5 20 6 18 7 2 8 1 9 23 11 21 13 19 15
REMARK SMILES IDX 7 17 16 18 10 19 14 20 11 21 8 22 9 23 17 25 15 27 12 29
REMARK SMILES IDX 13 30
REMARK H PARENT 1 10 23 12 21 14 19 16 9 24 17 26 15 28 13 31
REMARK Flexibility Score: inf
ROOT
ATOM      1  O   UNL     1      -1.865   0.113  -7.597  1.00  0.00    -0.313 OA
ENDROOT
BRANCH   1   2
ATOM      2  C   UNL     1      -1.610  -1.100  -8.295  1.00  0.00     0.285 C 
ATOM      3  C   UNL     1      -1.391  -2.059 -10.419  1.00  0.00     0.178 C 
ATOM      4  C   UNL     1      -0.580  -3.225  -9.766  1.00  0.00     0.177 C 
ATOM      5  O   UNL     1      -1.328  -0.854  -9.662  1.00  0.00    -0.341 OA
ATOM      6  C   UNL     1       0.371  -2.661  -8.689  1.00  0.00     0.179 C 
ATOM      7  C   UNL     1      -0.396  -1.809  -7.644  1.00  0.00     0.202 C 
BRANCH   3   8
ATOM      8  C   UNL     1      -0.885  -1.750 -11.833  1.00  0.00     0.191 C 
BRANCH   8   9
ATOM      9  O   UNL     1      -1.492  -2.606 -12.761  1.00  0.00    -0.394 OA
ATOM     10  H   UNL     1      -0.900  -2.612 -13.558  1.00  0.00     0.210 HD
ENDBRANCH   8   9
ENDBRANCH   3   8
BRANCH   4  11
ATOM     11  O   UNL     1      -1.479  -4.139  -9.187  1.00  0.00    -0.387 OA
ATOM     12  H   UNL     1      -2.132  -3.614  -8.653  1.00  0.00     0.211 HD
ENDBRANCH   4  11
BRANCH   6  13
ATOM     13  O   UNL     1       1.122  -3.681  -8.077  1.00  0.00    -0.387 OA
ATOM     14  H   UNL     1       1.931  -3.839  -8.629  1.00  0.00     0.211 HD
ENDBRANCH   6  13
BRANCH   7  15
ATOM     15  O   UNL     1       0.481  -0.859  -7.090  1.00  0.00    -0.385 OA
ATOM     16  H   UNL     1       0.504  -0.090  -7.718  1.00  0.00     0.211 HD
ENDBRANCH   7  15
ENDBRANCH   1   2
BRANCH   1  17
ATOM     17  C   UNL     1      -3.173   0.669  -7.750  1.00  0.00     0.224 C 
ATOM     18  C   UNL     1      -3.687   1.284  -6.422  1.00  0.00     0.208 C 
ATOM     19  O   UNL     1      -4.030  -0.416  -8.064  1.00  0.00    -0.337 OA
ATOM     20  C   UNL     1      -5.148   0.911  -6.414  1.00  0.00     0.180 C 
ATOM     21  C   UNL     1      -5.119  -0.416  -7.165  1.00  0.00     0.179 C 
BRANCH  17  22
ATOM     22  C   UNL     1      -3.290   1.652  -8.956  1.00  0.00     0.225 C 
BRANCH  22  23
ATOM     23  O   UNL     1      -3.749   1.024 -10.124  1.00  0.00    -0.391 OA
ATOM     24  H   UNL     1      -3.682   0.044  -9.980  1.00  0.00     0.210 HD
ENDBRANCH  22  23
ENDBRANCH  17  22
BRANCH  18  25
ATOM     25  O   UNL     1      -3.047   0.677  -5.326  1.00  0.00    -0.385 OA
ATOM     26  H   UNL     1      -2.331   1.300  -5.031  1.00  0.00     0.211 HD
ENDBRANCH  18  25
BRANCH  20  27
ATOM     27  O   UNL     1      -5.901   1.878  -7.101  1.00  0.00    -0.387 OA
ATOM     28  H   UNL     1      -6.807   1.492  -7.229  1.00  0.00     0.211 HD
ENDBRANCH  20  27
BRANCH  21  29
ATOM     29  C   UNL     1      -6.425  -0.756  -7.899  1.00  0.00     0.191 C 
BRANCH  29  30
ATOM     30  O   UNL     1      -6.349  -0.374  -9.245  1.00  0.00    -0.394 OA
ATOM     31  H   UNL     1      -6.518  -1.196  -9.774  1.00  0.00     0.210 HD
ENDBRANCH  29  30
ENDBRANCH  21  29
ENDBRANCH   1  17
TORSDOF 13
ENDMDL
MODEL 3
REMARK VINA RESULT:    -5.541      1.266      1.522
REMARK INTER + INTRA:          -9.642
REMARK INTER:                  -8.497
REMARK INTRA:                  -1.145
REMARK UNBOUND:                -1.186
REMARK SMILES OC[C@@H]1O[C@H](O[C@@]2(CO)O[C@H](CO)[C@H](O)[C@H]2O)[C@H](O)[C@@H](O)[C@H]1O
REMARK SMILES IDX 6 1 5 2 3 3 22 4 4 5 20 6 18 7 2 8 1 9 23 11 21 13 19 15
REMARK SMILES IDX 7 17 16 18 10 19 14 20 11 21 8 22 9 23 17 25 15 27 12 29
REMARK SMILES IDX 13 30
REMARK H PARENT 1 10 23 12 21 14 19 16 9 24 17 26 15 28 13 31
REMARK Flexibility Score: inf
ROOT
ATOM      1  O   UNL     1      -3.432  -1.092  -9.066  1.00  0.00    -0.313 OA
ENDROOT
BRANCH   1   2
ATOM      2  C   UNL     1      -4.097  -0.500  -7.956  1.00  0.00     0.285 C 
ATOM      3  C   UNL     1      -4.427   1.499  -6.784  1.00  0.00     0.178 C 
ATOM      4  C   UNL     1      -5.749   0.896  -6.206  1.00  0.00     0.177 C 
ATOM      5  O   UNL     1      -4.054   0.915  -8.028  1.00  0.00    -0.341 OA
ATOM      6  C   UNL     1      -6.490   0.109  -7.307  1.00  0.00     0.179 C 
ATOM      7  C   UNL     1      -5.576  -0.966  -7.951  1.00  0.00     0.202 C 
BRANCH   3   8
ATOM      8  C   UNL     1      -4.548   3.012  -6.996  1.00  0.00     0.191 C 
BRANCH   8   9
ATOM      9  O   UNL     1      -5.830   3.449  -6.634  1.00  0.00    -0.394 OA
ATOM     10  H   UNL     1      -5.698   4.279  -6.106  1.00  0.00     0.210 HD
ENDBRANCH   8   9
ENDBRANCH   3   8
BRANCH   4  11
ATOM     11  O   UNL     1      -5.431   0.044  -5.133  1.00  0.00    -0.387 OA
ATOM     12  H   UNL     1      -6.286  -0.319  -4.780  1.00  0.00     0.211 HD
ENDBRANCH   4  11
BRANCH   6  13
ATOM     13  O   UNL     1      -7.689  -0.449  -6.827  1.00  0.00    -0.387 OA
ATOM     14  H   UNL     1      -7.458  -1.228  -6.258  1.00  0.00     0.211 HD
ENDBRANCH   6  13
BRANCH   7  15
ATOM     15  O   UNL     1      -6.011  -1.215  -9.265  1.00  0.00    -0.385 OA
ATOM     16  H   UNL     1      -5.529  -2.025  -9.577  1.00  0.00     0.211 HD
ENDBRANCH   7  15
ENDBRANCH   1   2
BRANCH   1  17
ATOM     17  C   UNL     1      -2.063  -1.452  -8.864  1.00  0.00     0.224 C 
ATOM     18  C   UNL     1      -1.188  -1.061 -10.083  1.00  0.00     0.208 C 
ATOM     19  O   UNL     1      -2.036  -2.867  -8.770  1.00  0.00    -0.337 OA
ATOM     20  C   UNL     1      -0.232  -2.220 -10.205  1.00  0.00     0.180 C 
ATOM     21  C   UNL     1      -1.093  -3.370  -9.693  1.00  0.00     0.179 C 
BRANCH  17  22
ATOM     22  C   UNL     1      -1.480  -0.936  -7.512  1.00  0.00     0.225 C 
BRANCH  22  23
ATOM     23  O   UNL     1      -0.939  -1.967  -6.727  1.00  0.00    -0.391 OA
ATOM     24  H   UNL     1      -0.770  -1.593  -5.823  1.00  0.00     0.210 HD
ENDBRANCH  22  23
ENDBRANCH  17  22
BRANCH  18  25
ATOM     25  O   UNL     1      -1.978  -0.987 -11.245  1.00  0.00    -0.385 OA
ATOM     26  H   UNL     1      -2.662  -0.284 -11.084  1.00  0.00     0.211 HD
ENDBRANCH  18  25
BRANCH  20  27
ATOM     27  O   UNL     1       0.893  -2.012  -9.389  1.00  0.00    -0.387 OA
ATOM     28  H   UNL     1       1.414  -1.278  -9.808  1.00  0.00     0.211 HD
ENDBRANCH  20  27
BRANCH  21  29
ATOM     29  C   UNL     1      -0.297  -4.529  -9.074  1.00  0.00     0.191 C 
BRANCH  29  30
ATOM     30  O   UNL     1       0.235  -4.154  -7.833  1.00  0.00    -0.394 OA
ATOM     31  H   UNL     1      -0.109  -4.814  -7.176  1.00  0.00     0.210 HD
ENDBRANCH  29  30
ENDBRANCH  21  29
ENDBRANCH   1  17
TORSDOF 13
ENDMDL
MODEL 4
REMARK VINA RESULT:    -5.422      1.644      6.195
REMARK INTER + INTRA:          -9.461
REMARK INTER:                  -8.190
REMARK INTRA:                  -1.271
REMARK UNBOUND:                -1.186
REMARK SMILES OC[C@@H]1O[C@H](O[C@@]2(CO)O[C@H](CO)[C@H](O)[C@H]2O)[C@H](O)[C@@H](O)[C@H]1O
REMARK SMILES IDX 6 1 5 2 3 3 22 4 4 5 20 6 18 7 2 8 1 9 23 11 21 13 19 15
REMARK SMILES IDX 7 17 16 18 10 19 14 20 11 21 8 22 9 23 17 25 15 27 12 29
REMARK SMILES IDX 13 30
REMARK H PARENT 1 10 23 12 21 14 19 16 9 24 17 26 15 28 13 31
REMARK Flexibility Score: inf
ROOT
ATOM      1  O   UNL     1      -3.127  -0.926  -7.521  1.00  0.00    -0.313 OA
ENDROOT
BRANCH   1   2
ATOM      2  C   UNL     1      -2.423  -1.225  -8.720  1.00  0.00     0.285 C 
ATOM      3  C   UNL     1      -0.541  -0.687 -10.003  1.00  0.00     0.178 C 
ATOM      4  C   UNL     1      -0.663  -2.082 -10.697  1.00  0.00     0.177 C 
ATOM      5  O   UNL     1      -1.120  -0.667  -8.703  1.00  0.00    -0.341 OA
ATOM      6  C   UNL     1      -1.036  -3.155  -9.652  1.00  0.00     0.179 C 
ATOM      7  C   UNL     1      -2.315  -2.764  -8.868  1.00  0.00     0.202 C 
BRANCH   3   8
ATOM      8  C   UNL     1       0.924  -0.256  -9.868  1.00  0.00     0.191 C 
BRANCH   8   9
ATOM      9  O   UNL     1       1.124   0.404  -8.648  1.00  0.00    -0.394 OA
ATOM     10  H   UNL     1       0.968   1.367  -8.828  1.00  0.00     0.210 HD
ENDBRANCH   8   9
ENDBRANCH   3   8
BRANCH   4  11
ATOM     11  O   UNL     1      -1.654  -2.013 -11.693  1.00  0.00    -0.387 OA
ATOM     12  H   UNL     1      -2.304  -2.743 -11.516  1.00  0.00     0.211 HD
ENDBRANCH   4  11
BRANCH   6  13
ATOM     13  O   UNL     1      -1.154  -4.429 -10.237  1.00  0.00    -0.387 OA
ATOM     14  H   UNL     1      -1.277  -5.091  -9.509  1.00  0.00     0.211 HD
ENDBRANCH   6  13
BRANCH   7  15
ATOM     15  O   UNL     1      -2.284  -3.373  -7.600  1.00  0.00    -0.385 OA
ATOM     16  H   UNL     1      -2.083  -2.656  -6.944  1.00  0.00     0.211 HD
ENDBRANCH   7  15
ENDBRANCH   1   2
BRANCH   1  17
ATOM     17  C   UNL     1      -4.219  -0.010  -7.640  1.00  0.00     0.224 C 
ATOM     18  C   UNL     1      -3.931   1.317  -6.889  1.00  0.00     0.208 C 
ATOM     19  O   UNL     1      -5.322  -0.622  -6.993  1.00  0.00    -0.337 OA
ATOM     20  C   UNL     1      -5.266   1.662  -6.280  1.00  0.00     0.180 C 
ATOM     21  C   UNL     1      -5.851   0.275  -6.040  1.00  0.00     0.179 C 
BRANCH  17  22
ATOM     22  C   UNL     1      -4.678   0.218  -9.113  1.00  0.00     0.225 C 
BRANCH  22  23
ATOM     23  O   UNL     1      -5.865  -0.465  -9.423  1.00  0.00    -0.391 OA
ATOM     24  H   UNL     1      -6.622   0.122  -9.161  1.00  0.00     0.210 HD
ENDBRANCH  22  23
ENDBRANCH  17  22
BRANCH  18  25
ATOM     25  O   UNL     1      -2.995   1.100  -5.861  1.00  0.00    -0.385 OA
ATOM     26  H   UNL     1      -2.116   1.411  -6.204  1.00  0.00     0.211 HD
ENDBRANCH  18  25
BRANCH  20  27
ATOM     27  O   UNL     1      -6.041   2.400  -7.192  1.00  0.00    -0.387 OA
ATOM     28  H   UNL     1      -5.965   1.936  -8.067  1.00  0.00     0.211 HD
ENDBRANCH  20  27
BRANCH  21  29
ATOM     29  C   UNL     1      -7.386   0.226  -6.047  1.00  0.00     0.191 C 
BRANCH  29  30
ATOM     30  O   UNL     1      -7.862  -0.190  -7.298  1.00  0.00    -0.394 OA
ATOM     31  H   UNL     1      -7.861   0.618  -7.874  1.00  0.00     0.210 HD
ENDBRANCH  29  30
ENDBRANCH  21  29
ENDBRANCH   1  17
TORSDOF 13
ENDMDL
MODEL 5
REMARK VINA RESULT:    -5.299      1.724      6.521
REMARK INTER + INTRA:          -9.274
REMARK INTER:                  -8.297
REMARK INTRA:                  -0.977
REMARK UNBOUND:                -1.186
REMARK SMILES OC[C@@H]1O[C@H](O[C@@]2(CO)O[C@H](CO)[C@H](O)[C@H]2O)[C@H](O)[C@@H](O)[C@H]1O
REMARK SMILES IDX 6 1 5 2 3 3 22 4 4 5 20 6 18 7 2 8 1 9 23 11 21 13 19 15
REMARK SMILES IDX 7 17 16 18 10 19 14 20 11 21 8 22 9 23 17 25 15 27 12 29
REMARK SMILES IDX 13 30
REMARK H PARENT 1 10 23 12 21 14 19 16 9 24 17 26 15 28 13 31
REMARK Flexibility Score: inf
ROOT
ATOM      1  O   UNL     1      -2.867  -0.911  -7.530  1.00  0.00    -0.313 OA
ENDROOT
BRANCH   1   2
ATOM      2  C   UNL     1      -2.216  -1.943  -8.260  1.00  0.00     0.285 C 
ATOM      3  C   UNL     1      -1.557  -2.634 -10.397  1.00  0.00     0.178 C 
ATOM      4  C   UNL     1      -0.498  -3.568  -9.725  1.00  0.00     0.177 C 
ATOM      5  O   UNL     1      -1.908  -1.524  -9.578  1.00  0.00    -0.341 OA
ATOM      6  C   UNL     1       0.158  -2.842  -8.532  1.00  0.00     0.179 C 
ATOM      7  C   UNL     1      -0.905  -2.325  -7.527  1.00  0.00     0.202 C 
BRANCH   3   8
ATOM      8  C   UNL     1      -1.050  -2.087 -11.736  1.00  0.00     0.191 C 
BRANCH   8   9
ATOM      9  O   UNL     1      -1.606  -2.814 -12.797  1.00  0.00    -0.394 OA
ATOM     10  H   UNL     1      -0.899  -3.439 -13.102  1.00  0.00     0.210 HD
ENDBRANCH   8   9
ENDBRANCH   3   8
BRANCH   4  11
ATOM     11  O   UNL     1      -1.137  -4.742  -9.285  1.00  0.00    -0.387 OA
ATOM     12  H   UNL     1      -1.236  -4.673  -8.299  1.00  0.00     0.211 HD
ENDBRANCH   4  11
BRANCH   6  13
ATOM     13  O   UNL     1       1.121  -3.650  -7.900  1.00  0.00    -0.387 OA
ATOM     14  H   UNL     1       0.694  -4.516  -7.673  1.00  0.00     0.211 HD
ENDBRANCH   6  13
BRANCH   7  15
ATOM     15  O   UNL     1      -0.389  -1.211  -6.842  1.00  0.00    -0.385 OA
ATOM     16  H   UNL     1       0.253  -1.561  -6.169  1.00  0.00     0.211 HD
ENDBRANCH   7  15
ENDBRANCH   1   2
BRANCH   1  17
ATOM     17  C   UNL     1      -4.251  -1.119  -7.235  1.00  0.00     0.224 C 
ATOM     18  C   UNL     1      -5.148  -0.795  -8.457  1.00  0.00     0.208 C 
ATOM     19  O   UNL     1      -4.583  -0.190  -6.217  1.00  0.00    -0.337 OA
ATOM     20  C   UNL     1      -6.346  -0.125  -7.835  1.00  0.00     0.180 C 
ATOM     21  C   UNL     1      -5.712   0.554  -6.626  1.00  0.00     0.179 C 
BRANCH  17  22
ATOM     22  C   UNL     1      -4.547  -2.524  -6.624  1.00  0.00     0.225 C 
BRANCH  22  23
ATOM     23  O   UNL     1      -4.216  -2.604  -5.262  1.00  0.00    -0.391 OA
ATOM     24  H   UNL     1      -5.034  -2.883  -4.774  1.00  0.00     0.210 HD
ENDBRANCH  22  23
ENDBRANCH  17  22
BRANCH  18  25
ATOM     25  O   UNL     1      -4.497   0.117  -9.309  1.00  0.00    -0.385 OA
ATOM     26  H   UNL     1      -5.202   0.697  -9.702  1.00  0.00     0.211 HD
ENDBRANCH  18  25
BRANCH  20  27
ATOM     27  O   UNL     1      -7.297  -1.086  -7.451  1.00  0.00    -0.387 OA
ATOM     28  H   UNL     1      -7.905  -0.639  -6.806  1.00  0.00     0.211 HD
ENDBRANCH  20  27
BRANCH  21  29
ATOM     29  C   UNL     1      -6.672   0.768  -5.446  1.00  0.00     0.191 C 
BRANCH  29  30
ATOM     30  O   UNL     1      -7.961   1.069  -5.906  1.00  0.00    -0.394 OA
ATOM     31  H   UNL     1      -7.899   1.961  -6.335  1.00  0.00     0.210 HD
ENDBRANCH  29  30
ENDBRANCH  21  29
ENDBRANCH   1  17
TORSDOF 13
ENDMDL
MODEL 6
REMARK VINA RESULT:    -5.251      1.691      6.561
REMARK INTER + INTRA:          -9.199
REMARK INTER:                  -7.957
REMARK INTRA:                  -1.242
REMARK UNBOUND:                -1.186
REMARK SMILES OC[C@@H]1O[C@H](O[C@@]2(CO)O[C@H](CO)[C@H](O)[C@H]2O)[C@H](O)[C@@H](O)[C@H]1O
REMARK SMILES IDX 6 1 5 2 3 3 22 4 4 5 20 6 18 7 2 8 1 9 23 11 21 13 19 15
REMARK SMILES IDX 7 17 16 18 10 19 14 20 11 21 8 22 9 23 17 25 15 27 12 29
REMARK SMILES IDX 13 30
REMARK H PARENT 1 10 23 12 21 14 19 16 9 24 17 26 15 28 13 31
REMARK Flexibility Score: inf
ROOT
ATOM      1  O   UNL     1      -3.340  -1.449  -9.031  1.00  0.00    -0.313 OA
ENDROOT
BRANCH   1   2
ATOM      2  C   UNL     1      -1.925  -1.522  -8.906  1.00  0.00     0.285 C 
ATOM      3  C   UNL     1      -0.131  -2.947  -8.426  1.00  0.00     0.178 C 
ATOM      4  C   UNL     1       0.809  -1.953  -9.182  1.00  0.00     0.177 C 
ATOM      5  O   UNL     1      -1.483  -2.868  -8.866  1.00  0.00    -0.341 OA
ATOM      6  C   UNL     1       0.104  -1.429 -10.451  1.00  0.00     0.179 C 
ATOM      7  C   UNL     1      -1.277  -0.807 -10.119  1.00  0.00     0.202 C 
BRANCH   3   8
ATOM      8  C   UNL     1       0.333  -4.397  -8.599  1.00  0.00     0.191 C 
BRANCH   8   9
ATOM      9  O   UNL     1      -0.745  -5.208  -8.977  1.00  0.00    -0.394 OA
ATOM     10  H   UNL     1      -0.743  -5.978  -8.352  1.00  0.00     0.210 HD
ENDBRANCH   8   9
ENDBRANCH   3   8
BRANCH   4  11
ATOM     11  O   UNL     1       1.125  -0.882  -8.327  1.00  0.00    -0.387 OA
ATOM     12  H   UNL     1       1.574  -0.186  -8.877  1.00  0.00     0.211 HD
ENDBRANCH   4  11
BRANCH   6  13
ATOM     13  O   UNL     1       0.920  -0.532 -11.163  1.00  0.00    -0.387 OA
ATOM     14  H   UNL     1       1.499  -1.060 -11.773  1.00  0.00     0.211 HD
ENDBRANCH   6  13
BRANCH   7  15
ATOM     15  O   UNL     1      -2.112  -0.909 -11.246  1.00  0.00    -0.385 OA
ATOM     16  H   UNL     1      -2.863  -0.275 -11.102  1.00  0.00     0.211 HD
ENDBRANCH   7  15
ENDBRANCH   1   2
BRANCH   1  17
ATOM     17  C   UNL     1      -4.032  -0.747  -7.994  1.00  0.00     0.224 C 
ATOM     18  C   UNL     1      -4.267  -1.651  -6.756  1.00  0.00     0.208 C 
ATOM     19  O   UNL     1      -5.308  -0.422  -8.519  1.00  0.00    -0.337 OA
ATOM     20  C   UNL     1      -5.650  -1.259  -6.303  1.00  0.00     0.180 C 
ATOM     21  C   UNL     1      -6.302  -0.885  -7.629  1.00  0.00     0.179 C 
BRANCH  17  22
ATOM     22  C   UNL     1      -3.375   0.620  -7.628  1.00  0.00     0.225 C 
BRANCH  22  23
ATOM     23  O   UNL     1      -4.017   1.710  -8.237  1.00  0.00    -0.391 OA
ATOM     24  H   UNL     1      -4.800   1.354  -8.733  1.00  0.00     0.210 HD
ENDBRANCH  22  23
ENDBRANCH  17  22
BRANCH  18  25
ATOM     25  O   UNL     1      -4.270  -3.006  -7.137  1.00  0.00    -0.385 OA
ATOM     26  H   UNL     1      -5.200  -3.336  -7.015  1.00  0.00     0.211 HD
ENDBRANCH  18  25
BRANCH  20  27
ATOM     27  O   UNL     1      -5.583  -0.159  -5.430  1.00  0.00    -0.387 OA
ATOM     28  H   UNL     1      -6.180   0.538  -5.808  1.00  0.00     0.211 HD
ENDBRANCH  20  27
BRANCH  21  29
ATOM     29  C   UNL     1      -7.437   0.143  -7.508  1.00  0.00     0.191 C 
BRANCH  29  30
ATOM     30  O   UNL     1      -6.921   1.444  -7.433  1.00  0.00    -0.394 OA
ATOM     31  H   UNL     1      -6.430   1.593  -8.282  1.00  0.00     0.210 HD
ENDBRANCH  29  30
ENDBRANCH  21  29
ENDBRANCH   1  17
TORSDOF 13
ENDMDL
MODEL 7
REMARK VINA RESULT:    -5.217      1.453      6.394
REMARK INTER + INTRA:          -9.148
REMARK INTER:                  -8.193
REMARK INTRA:                  -0.955
REMARK UNBOUND:                -1.186
REMARK SMILES OC[C@@H]1O[C@H](O[C@@]2(CO)O[C@H](CO)[C@H](O)[C@H]2O)[C@H](O)[C@@H](O)[C@H]1O
REMARK SMILES IDX 6 1 5 2 3 3 22 4 4 5 20 6 18 7 2 8 1 9 23 11 21 13 19 15
REMARK SMILES IDX 7 17 16 18 10 19 14 20 11 21 8 22 9 23 17 25 15 27 12 29
REMARK SMILES IDX 13 30
REMARK H PARENT 1 10 23 12 21 14 19 16 9 24 17 26 15 28 13 31
REMARK Flexibility Score: inf
ROOT
ATOM      1  O   UNL     1      -3.488  -1.620  -8.815  1.00  0.00    -0.313 OA
ENDROOT
BRANCH   1   2
ATOM      2  C   UNL     1      -2.080  -1.602  -8.614  1.00  0.00     0.285 C 
ATOM      3  C   UNL     1      -0.200  -2.941  -8.227  1.00  0.00     0.178 C 
ATOM      4  C   UNL     1       0.692  -1.781  -8.779  1.00  0.00     0.177 C 
ATOM      5  O   UNL     1      -1.529  -2.903  -8.735  1.00  0.00    -0.341 OA
ATOM      6  C   UNL     1       0.010  -1.135 -10.004  1.00  0.00     0.179 C 
ATOM      7  C   UNL     1      -1.433  -0.674  -9.674  1.00  0.00     0.202 C 
BRANCH   3   8
ATOM      8  C   UNL     1       0.393  -4.313  -8.571  1.00  0.00     0.191 C 
BRANCH   8   9
ATOM      9  O   UNL     1      -0.614  -5.172  -9.031  1.00  0.00    -0.394 OA
ATOM     10  H   UNL     1      -0.967  -5.636  -8.227  1.00  0.00     0.210 HD
ENDBRANCH   8   9
ENDBRANCH   3   8
BRANCH   4  11
ATOM     11  O   UNL     1       0.873  -0.822  -7.765  1.00  0.00    -0.387 OA
ATOM     12  H   UNL     1       1.839  -0.816  -7.533  1.00  0.00     0.211 HD
ENDBRANCH   4  11
BRANCH   6  13
ATOM     13  O   UNL     1       0.783  -0.086 -10.533  1.00  0.00    -0.387 OA
ATOM     14  H   UNL     1       1.031   0.519  -9.786  1.00  0.00     0.211 HD
ENDBRANCH   6  13
BRANCH   7  15
ATOM     15  O   UNL     1      -2.200  -0.676 -10.854  1.00  0.00    -0.385 OA
ATOM     16  H   UNL     1      -1.923   0.122 -11.375  1.00  0.00     0.211 HD
ENDBRANCH   7  15
ENDBRANCH   1   2
BRANCH   1  17
ATOM     17  C   UNL     1      -4.292  -1.222  -7.701  1.00  0.00     0.224 C 
ATOM     18  C   UNL     1      -5.753  -0.930  -8.130  1.00  0.00     0.208 C 
ATOM     19  O   UNL     1      -3.744  -0.001  -7.233  1.00  0.00    -0.337 OA
ATOM     20  C   UNL     1      -6.121   0.270  -7.296  1.00  0.00     0.180 C 
ATOM     21  C   UNL     1      -4.771   0.966  -7.164  1.00  0.00     0.179 C 
BRANCH  17  22
ATOM     22  C   UNL     1      -4.202  -2.205  -6.493  1.00  0.00     0.225 C 
BRANCH  22  23
ATOM     23  O   UNL     1      -4.502  -3.530  -6.848  1.00  0.00    -0.391 OA
ATOM     24  H   UNL     1      -5.486  -3.590  -6.969  1.00  0.00     0.210 HD
ENDBRANCH  22  23
ENDBRANCH  17  22
BRANCH  18  25
ATOM     25  O   UNL     1      -5.798  -0.581  -9.492  1.00  0.00    -0.385 OA
ATOM     26  H   UNL     1      -6.402  -1.233  -9.936  1.00  0.00     0.211 HD
ENDBRANCH  18  25
BRANCH  20  27
ATOM     27  O   UNL     1      -6.619  -0.138  -6.047  1.00  0.00    -0.387 OA
ATOM     28  H   UNL     1      -6.805   0.691  -5.533  1.00  0.00     0.211 HD
ENDBRANCH  20  27
BRANCH  21  29
ATOM     29  C   UNL     1      -4.622   1.821  -5.896  1.00  0.00     0.191 C 
BRANCH  29  30
ATOM     30  O   UNL     1      -5.744   2.641  -5.719  1.00  0.00    -0.394 OA
ATOM     31  H   UNL     1      -5.489   3.535  -6.064  1.00  0.00     0.210 HD
ENDBRANCH  29  30
ENDBRANCH  21  29
ENDBRANCH   1  17
TORSDOF 13
ENDMDL
MODEL 8
REMARK VINA RESULT:    -4.928      2.109      3.790
REMARK INTER + INTRA:          -8.707
REMARK INTER:                  -7.721
REMARK INTRA:                  -0.987
REMARK UNBOUND:                -1.186
REMARK SMILES OC[C@@H]1O[C@H](O[C@@]2(CO)O[C@H](CO)[C@H](O)[C@H]2O)[C@H](O)[C@@H](O)[C@H]1O
REMARK SMILES IDX 6 1 5 2 3 3 22 4 4 5 20 6 18 7 2 8 1 9 23 11 21 13 19 15
REMARK SMILES IDX 7 17 16 18 10 19 14 20 11 21 8 22 9 23 17 25 15 27 12 29
REMARK SMILES IDX 13 30
REMARK H PARENT 1 10 23 12 21 14 19 16 9 24 17 26 15 28 13 31
REMARK Flexibility Score: inf
ROOT
ATOM      1  O   UNL     1      -1.829  -0.905  -7.149  1.00  0.00    -0.313 OA
ENDROOT
BRANCH   1   2
ATOM      2  C   UNL     1      -2.271   0.440  -7.291  1.00  0.00     0.285 C 
ATOM      3  C   UNL     1      -4.123   1.860  -7.116  1.00  0.00     0.178 C 
ATOM      4  C   UNL     1      -3.137   3.064  -6.971  1.00  0.00     0.177 C 
ATOM      5  O   UNL     1      -3.547   0.625  -6.703  1.00  0.00    -0.341 OA
ATOM      6  C   UNL     1      -1.947   2.661  -6.075  1.00  0.00     0.179 C 
ATOM      7  C   UNL     1      -1.250   1.379  -6.599  1.00  0.00     0.202 C 
BRANCH   3   8
ATOM      8  C   UNL     1      -5.398   2.080  -6.293  1.00  0.00     0.191 C 
BRANCH   8   9
ATOM      9  O   UNL     1      -6.466   2.413  -7.137  1.00  0.00    -0.394 OA
ATOM     10  H   UNL     1      -7.141   2.860  -6.563  1.00  0.00     0.210 HD
ENDBRANCH   8   9
ENDBRANCH   3   8
BRANCH   4  11
ATOM     11  O   UNL     1      -2.677   3.434  -8.249  1.00  0.00    -0.387 OA
ATOM     12  H   UNL     1      -3.042   2.776  -8.897  1.00  0.00     0.211 HD
ENDBRANCH   4  11
BRANCH   6  13
ATOM     13  O   UNL     1      -1.035   3.721  -5.918  1.00  0.00    -0.387 OA
ATOM     14  H   UNL     1      -1.090   4.036  -4.979  1.00  0.00     0.211 HD
ENDBRANCH   6  13
BRANCH   7  15
ATOM     15  O   UNL     1      -0.633   0.717  -5.522  1.00  0.00    -0.385 OA
ATOM     16  H   UNL     1      -0.381  -0.187  -5.849  1.00  0.00     0.211 HD
ENDBRANCH   7  15
ENDBRANCH   1   2
BRANCH   1  17
ATOM     17  C   UNL     1      -1.903  -1.723  -8.320  1.00  0.00     0.224 C 
ATOM     18  C   UNL     1      -1.101  -3.038  -8.145  1.00  0.00     0.208 C 
ATOM     19  O   UNL     1      -1.276  -0.987  -9.356  1.00  0.00    -0.337 OA
ATOM     20  C   UNL     1      -0.470  -3.237  -9.500  1.00  0.00     0.180 C 
ATOM     21  C   UNL     1      -0.283  -1.794  -9.955  1.00  0.00     0.179 C 
BRANCH  17  22
ATOM     22  C   UNL     1      -3.364  -1.967  -8.811  1.00  0.00     0.225 C 
BRANCH  22  23
ATOM     23  O   UNL     1      -4.139  -2.673  -7.877  1.00  0.00    -0.391 OA
ATOM     24  H   UNL     1      -4.497  -3.477  -8.336  1.00  0.00     0.210 HD
ENDBRANCH  22  23
ENDBRANCH  17  22
BRANCH  18  25
ATOM     25  O   UNL     1      -0.089  -2.865  -7.183  1.00  0.00    -0.385 OA
ATOM     26  H   UNL     1      -0.395  -2.146  -6.569  1.00  0.00     0.211 HD
ENDBRANCH  18  25
BRANCH  20  27
ATOM     27  O   UNL     1      -1.346  -3.938 -10.346  1.00  0.00    -0.387 OA
ATOM     28  H   UNL     1      -1.294  -4.893 -10.079  1.00  0.00     0.211 HD
ENDBRANCH  20  27
BRANCH  21  29
ATOM     29  C   UNL     1      -0.283  -1.607 -11.480  1.00  0.00     0.191 C 
BRANCH  29  30
ATOM     30  O   UNL     1      -1.591  -1.633 -11.981  1.00  0.00    -0.394 OA
ATOM     31  H   UNL     1      -1.997  -2.474 -11.646  1.00  0.00     0.210 HD
ENDBRANCH  29  30
ENDBRANCH  21  29
ENDBRANCH   1  17
TORSDOF 13
ENDMDL
MODEL 9
REMARK VINA RESULT:    -4.817      1.734      2.979
REMARK INTER + INTRA:          -8.538
REMARK INTER:                  -7.040
REMARK INTRA:                  -1.498
REMARK UNBOUND:                -1.186
REMARK SMILES OC[C@@H]1O[C@H](O[C@@]2(CO)O[C@H](CO)[C@H](O)[C@H]2O)[C@H](O)[C@@H](O)[C@H]1O
REMARK SMILES IDX 6 1 5 2 3 3 22 4 4 5 20 6 18 7 2 8 1 9 23 11 21 13 19 15
REMARK SMILES IDX 7 17 16 18 10 19 14 20 11 21 8 22 9 23 17 25 15 27 12 29
REMARK SMILES IDX 13 30
REMARK H PARENT 1 10 23 12 21 14 19 16 9 24 17 26 15 28 13 31
REMARK Flexibility Score: inf
ROOT
ATOM      1  O   UNL     1      -2.820  -1.375  -5.293  1.00  0.00    -0.313 OA
ENDROOT
BRANCH   1   2
ATOM      2  C   UNL     1      -3.530  -0.910  -6.434  1.00  0.00     0.285 C 
ATOM      3  C   UNL     1      -5.652  -0.714  -7.402  1.00  0.00     0.178 C 
ATOM      4  C   UNL     1      -5.094   0.439  -8.299  1.00  0.00     0.177 C 
ATOM      5  O   UNL     1      -4.925  -0.867  -6.188  1.00  0.00    -0.341 OA
ATOM      6  C   UNL     1      -4.155   1.339  -7.468  1.00  0.00     0.179 C 
ATOM      7  C   UNL     1      -3.032   0.515  -6.788  1.00  0.00     0.202 C 
BRANCH   3   8
ATOM      8  C   UNL     1      -7.123  -0.479  -7.041  1.00  0.00     0.191 C 
BRANCH   8   9
ATOM      9  O   UNL     1      -7.653   0.555  -7.824  1.00  0.00    -0.394 OA
ATOM     10  H   UNL     1      -7.041   0.654  -8.599  1.00  0.00     0.210 HD
ENDBRANCH   8   9
ENDBRANCH   3   8
BRANCH   4  11
ATOM     11  O   UNL     1      -4.392  -0.123  -9.381  1.00  0.00    -0.387 OA
ATOM     12  H   UNL     1      -4.940  -0.873  -9.732  1.00  0.00     0.211 HD
ENDBRANCH   4  11
BRANCH   6  13
ATOM     13  O   UNL     1      -3.632   2.393  -8.240  1.00  0.00    -0.387 OA
ATOM     14  H   UNL     1      -4.392   2.939  -8.568  1.00  0.00     0.211 HD
ENDBRANCH   6  13
BRANCH   7  15
ATOM     15  O   UNL     1      -2.608   1.184  -5.625  1.00  0.00    -0.385 OA
ATOM     16  H   UNL     1      -2.621   2.154  -5.833  1.00  0.00     0.211 HD
ENDBRANCH   7  15
ENDBRANCH   1   2
BRANCH   1  17
ATOM     17  C   UNL     1      -1.859  -2.409  -5.523  1.00  0.00     0.224 C 
ATOM     18  C   UNL     1      -0.450  -1.994  -5.026  1.00  0.00     0.208 C 
ATOM     19  O   UNL     1      -1.774  -2.564  -6.930  1.00  0.00    -0.337 OA
ATOM     20  C   UNL     1       0.466  -2.552  -6.086  1.00  0.00     0.180 C 
ATOM     21  C   UNL     1      -0.421  -2.462  -7.323  1.00  0.00     0.179 C 
BRANCH  17  22
ATOM     22  C   UNL     1      -2.305  -3.801  -4.980  1.00  0.00     0.225 C 
BRANCH  22  23
ATOM     23  O   UNL     1      -2.700  -4.680  -6.001  1.00  0.00    -0.391 OA
ATOM     24  H   UNL     1      -1.914  -4.822  -6.591  1.00  0.00     0.210 HD
ENDBRANCH  22  23
ENDBRANCH  17  22
BRANCH  18  25
ATOM     25  O   UNL     1      -0.335  -0.591  -5.007  1.00  0.00    -0.385 OA
ATOM     26  H   UNL     1       0.635  -0.384  -4.942  1.00  0.00     0.211 HD
ENDBRANCH  18  25
BRANCH  20  27
ATOM     27  O   UNL     1       0.802  -3.884  -5.786  1.00  0.00    -0.387 OA
ATOM     28  H   UNL     1       0.864  -3.943  -4.797  1.00  0.00     0.211 HD
ENDBRANCH  20  27
BRANCH  21  29
ATOM     29  C   UNL     1      -0.096  -3.496  -8.411  1.00  0.00     0.191 C 
BRANCH  29  30
ATOM     30  O   UNL     1      -0.927  -4.618  -8.290  1.00  0.00    -0.394 OA
ATOM     31  H   UNL     1      -0.367  -5.334  -7.892  1.00  0.00     0.210 HD
ENDBRANCH  29  30
ENDBRANCH  21  29
ENDBRANCH   1  17
TORSDOF 13
ENDMDL
