MODEL 1
REMARK VINA RESULT:    -7.758      0.000      0.000
REMARK INTER + INTRA:         -11.390
REMARK INTER:                 -10.480
REMARK INTRA:                  -0.910
REMARK UNBOUND:                -0.910
REMARK SMILES CC[C@@H](CC[C@H](C)[C@@H]1CC[C@H]2[C@H]3CC(=O)C4=CC(=O)CC[C@]4(C)[C@H]3CC[C@]21C)C(C)C
REMARK SMILES IDX 4 1 3 2 2 3 1 4 29 5 30 6 31 7 5 8 6 9 7 10 8 11 9 12 27 13
REMARK SMILES IDX 10 14 11 15 26 16 28 17 12 18 25 19 24 20 13 21 22 22 14 23
REMARK SMILES IDX 16 24 21 25 23 26 15 27 17 28 20 29 18 30 19 31
REMARK H PARENT
REMARK Flexibility Score: inf
ROOT
ATOM      1  C   UNL     1      -7.306  17.817  17.253  1.00  0.00     0.004 C 
ENDROOT
BRANCH   1   2
ATOM      2  C   UNL     1      -7.456  19.280  17.756  1.00  0.00    -0.009 C 
BRANCH   2   3
ATOM      3  C   UNL     1      -6.190  20.109  17.383  1.00  0.00     0.000 C 
ATOM      4  C   UNL     1      -6.481  21.435  16.686  1.00  0.00     0.004 C 
ENDBRANCH   2   3
BRANCH   2   5
ATOM      5  C   UNL     1      -7.833  19.285  19.283  1.00  0.00    -0.014 C 
ATOM      6  C   UNL     1      -9.331  19.512  19.552  1.00  0.00     0.007 C 
ATOM      7  C   UNL     1      -6.980  20.246  20.119  1.00  0.00     0.007 C 
ENDBRANCH   2   5
ENDBRANCH   1   2
BRANCH   1   8
ATOM      8  C   UNL     1      -8.436  17.390  16.285  1.00  0.00     0.004 C 
BRANCH   8   9
ATOM      9  C   UNL     1      -7.982  16.987  14.845  1.00  0.00    -0.011 C 
ATOM     10  C   UNL     1      -6.647  17.639  14.443  1.00  0.00     0.008 C 
BRANCH   9  11
ATOM     11  C   UNL     1      -9.045  17.129  13.700  1.00  0.00    -0.002 C 
ATOM     12  C   UNL     1     -10.499  17.360  14.111  1.00  0.00     0.005 C 
ATOM     13  C   UNL     1      -9.089  15.995  12.641  1.00  0.00    -0.026 C 
ATOM     14  C   UNL     1     -11.326  17.084  12.854  1.00  0.00     0.005 C 
ATOM     15  C   UNL     1     -10.432  16.266  11.894  1.00  0.00    -0.001 C 
ATOM     16  C   UNL     1      -7.843  16.060  11.710  1.00  0.00     0.007 C 
ATOM     17  C   UNL     1      -9.150  14.587  13.300  1.00  0.00     0.012 C 
ATOM     18  C   UNL     1     -10.283  16.860  10.466  1.00  0.00     0.004 C 
ATOM     19  C   UNL     1      -8.070  15.486  10.302  1.00  0.00     0.005 C 
ATOM     20  C   UNL     1      -9.409  15.921   9.593  1.00  0.00     0.003 C 
ATOM     21  C   UNL     1      -9.809  18.330  10.378  1.00  0.00     0.085 C 
ATOM     22  C   UNL     1      -9.342  16.366   8.055  1.00  0.00    -0.000 C 
ATOM     23  C   UNL     1      -9.744  18.783   8.957  1.00  0.00     0.159 C 
ATOM     24  C   UNL     1      -9.822  17.809   7.845  1.00  0.00     0.005 C 
ATOM     25  C   UNL     1     -10.278  15.428   7.230  1.00  0.00     0.020 C 
ATOM     26  C   UNL     1      -7.911  16.277   7.461  1.00  0.00     0.017 C 
ATOM     27  O   UNL     1      -9.674  20.016   8.717  1.00  0.00    -0.295 OA
ATOM     28  C   UNL     1     -10.270  18.223   6.641  1.00  0.00     0.055 C 
ATOM     29  C   UNL     1     -10.378  15.795   5.739  1.00  0.00     0.081 C 
ATOM     30  C   UNL     1     -10.489  17.279   5.534  1.00  0.00     0.156 C 
ATOM     31  O   UNL     1     -10.781  17.726   4.391  1.00  0.00    -0.295 OA
ENDBRANCH   9  11
ENDBRANCH   8   9
ENDBRANCH   1   8
TORSDOF 6
ENDMDL
MODEL 2
REMARK VINA RESULT:    -7.595      1.561      2.199
REMARK INTER + INTRA:         -11.170
REMARK INTER:                 -10.112
REMARK INTRA:                  -1.058
REMARK UNBOUND:                -0.910
REMARK SMILES CC[C@@H](CC[C@H](C)[C@@H]1CC[C@H]2[C@H]3CC(=O)C4=CC(=O)CC[C@]4(C)[C@H]3CC[C@]21C)C(C)C
REMARK SMILES IDX 4 1 3 2 2 3 1 4 29 5 30 6 31 7 5 8 6 9 7 10 8 11 9 12 27 13
REMARK SMILES IDX 10 14 11 15 26 16 28 17 12 18 25 19 24 20 13 21 22 22 14 23
REMARK SMILES IDX 16 24 21 25 23 26 15 27 17 28 20 29 18 30 19 31
REMARK H PARENT
REMARK Flexibility Score: inf
ROOT
ATOM      1  C   UNL     1      -6.136  17.961  15.130  1.00  0.00     0.004 C 
ENDROOT
BRANCH   1   2
ATOM      2  C   UNL     1      -7.035  19.144  15.591  1.00  0.00    -0.009 C 
BRANCH   2   3
ATOM      3  C   UNL     1      -7.116  20.224  14.471  1.00  0.00     0.000 C 
ATOM      4  C   UNL     1      -8.150  19.939  13.386  1.00  0.00     0.004 C 
ENDBRANCH   2   3
BRANCH   2   5
ATOM      5  C   UNL     1      -6.551  19.667  16.993  1.00  0.00    -0.014 C 
ATOM      6  C   UNL     1      -6.556  21.201  17.117  1.00  0.00     0.007 C 
ATOM      7  C   UNL     1      -5.198  19.092  17.425  1.00  0.00     0.007 C 
ENDBRANCH   2   5
ENDBRANCH   1   2
BRANCH   1   8
ATOM      8  C   UNL     1      -6.948  16.700  14.742  1.00  0.00     0.004 C 
BRANCH   8   9
ATOM      9  C   UNL     1      -6.916  16.310  13.229  1.00  0.00    -0.011 C 
ATOM     10  C   UNL     1      -5.631  16.782  12.525  1.00  0.00     0.008 C 
BRANCH   9  11
ATOM     11  C   UNL     1      -8.186  16.663  12.379  1.00  0.00    -0.002 C 
ATOM     12  C   UNL     1      -9.548  16.544  13.063  1.00  0.00     0.005 C 
ATOM     13  C   UNL     1      -8.341  15.934  11.017  1.00  0.00    -0.026 C 
ATOM     14  C   UNL     1     -10.576  16.574  11.929  1.00  0.00     0.005 C 
ATOM     15  C   UNL     1      -9.820  16.240  10.622  1.00  0.00    -0.001 C 
ATOM     16  C   UNL     1      -7.306  16.467   9.984  1.00  0.00     0.007 C 
ATOM     17  C   UNL     1      -8.162  14.395  11.158  1.00  0.00     0.012 C 
ATOM     18  C   UNL     1      -9.995  17.276   9.478  1.00  0.00     0.004 C 
ATOM     19  C   UNL     1      -7.751  16.350   8.518  1.00  0.00     0.005 C 
ATOM     20  C   UNL     1      -9.232  16.798   8.214  1.00  0.00     0.003 C 
ATOM     21  C   UNL     1      -9.666  18.747   9.824  1.00  0.00     0.085 C 
ATOM     22  C   UNL     1      -9.496  17.718   6.929  1.00  0.00    -0.000 C 
ATOM     23  C   UNL     1      -9.910  19.637   8.651  1.00  0.00     0.159 C 
ATOM     24  C   UNL     1     -10.121  19.071   7.299  1.00  0.00     0.005 C 
ATOM     25  C   UNL     1     -10.495  16.974   5.987  1.00  0.00     0.020 C 
ATOM     26  C   UNL     1      -8.203  18.025   6.127  1.00  0.00     0.017 C 
ATOM     27  O   UNL     1      -9.986  20.879   8.837  1.00  0.00    -0.295 OA
ATOM     28  C   UNL     1     -10.823  19.782   6.393  1.00  0.00     0.055 C 
ATOM     29  C   UNL     1     -10.907  17.782   4.745  1.00  0.00     0.081 C 
ATOM     30  C   UNL     1     -11.174  19.223   5.077  1.00  0.00     0.156 C 
ATOM     31  O   UNL     1     -11.714  19.968   4.214  1.00  0.00    -0.295 OA
ENDBRANCH   9  11
ENDBRANCH   8   9
ENDBRANCH   1   8
TORSDOF 6
ENDMDL
MODEL 3
REMARK VINA RESULT:    -7.500      3.308      8.445
REMARK INTER + INTRA:         -11.041
REMARK INTER:                  -9.519
REMARK INTRA:                  -1.522
REMARK UNBOUND:                -0.910
REMARK SMILES CC[C@@H](CC[C@H](C)[C@@H]1CC[C@H]2[C@H]3CC(=O)C4=CC(=O)CC[C@]4(C)[C@H]3CC[C@]21C)C(C)C
REMARK SMILES IDX 4 1 3 2 2 3 1 4 29 5 30 6 31 7 5 8 6 9 7 10 8 11 9 12 27 13
REMARK SMILES IDX 10 14 11 15 26 16 28 17 12 18 25 19 24 20 13 21 22 22 14 23
REMARK SMILES IDX 16 24 21 25 23 26 15 27 17 28 20 29 18 30 19 31
REMARK H PARENT
REMARK Flexibility Score: inf
ROOT
ATOM      1  C   UNL     1      -9.689  19.329   4.595  1.00  0.00     0.004 C 
ENDROOT
BRANCH   1   2
ATOM      2  C   UNL     1      -9.587  20.631   5.439  1.00  0.00    -0.009 C 
BRANCH   2   3
ATOM      3  C   UNL     1      -8.119  20.847   5.918  1.00  0.00     0.000 C 
ATOM      4  C   UNL     1      -7.309  21.820   5.066  1.00  0.00     0.004 C 
ENDBRANCH   2   3
BRANCH   2   5
ATOM      5  C   UNL     1     -10.668  20.614   6.581  1.00  0.00    -0.014 C 
ATOM      6  C   UNL     1     -10.148  20.060   7.919  1.00  0.00     0.007 C 
ATOM      7  C   UNL     1     -11.972  19.919   6.176  1.00  0.00     0.007 C 
ENDBRANCH   2   5
ENDBRANCH   1   2
BRANCH   1   8
ATOM      8  C   UNL     1      -8.535  18.335   4.876  1.00  0.00     0.004 C 
BRANCH   8   9
ATOM      9  C   UNL     1      -8.871  17.162   5.853  1.00  0.00    -0.011 C 
ATOM     10  C   UNL     1     -10.360  16.775   5.822  1.00  0.00     0.008 C 
BRANCH   9  11
ATOM     11  C   UNL     1      -8.355  17.299   7.329  1.00  0.00    -0.002 C 
ATOM     12  C   UNL     1      -6.970  17.910   7.538  1.00  0.00     0.005 C 
ATOM     13  C   UNL     1      -8.377  16.014   8.200  1.00  0.00    -0.026 C 
ATOM     14  C   UNL     1      -6.592  17.574   8.983  1.00  0.00     0.005 C 
ATOM     15  C   UNL     1      -7.507  16.411   9.432  1.00  0.00    -0.001 C 
ATOM     16  C   UNL     1      -9.837  15.627   8.576  1.00  0.00     0.007 C 
ATOM     17  C   UNL     1      -7.710  14.809   7.475  1.00  0.00     0.012 C 
ATOM     18  C   UNL     1      -8.300  16.668  10.744  1.00  0.00     0.004 C 
ATOM     19  C   UNL     1      -9.969  14.849   9.895  1.00  0.00     0.005 C 
ATOM     20  C   UNL     1      -9.133  15.410  11.108  1.00  0.00     0.003 C 
ATOM     21  C   UNL     1      -9.155  17.956  10.791  1.00  0.00     0.085 C 
ATOM     22  C   UNL     1      -9.851  15.519  12.537  1.00  0.00    -0.000 C 
ATOM     23  C   UNL     1      -9.832  18.095  12.114  1.00  0.00     0.159 C 
ATOM     24  C   UNL     1      -9.886  16.961  13.063  1.00  0.00     0.005 C 
ATOM     25  C   UNL     1      -9.045  14.658  13.560  1.00  0.00     0.020 C 
ATOM     26  C   UNL     1     -11.318  15.012  12.518  1.00  0.00     0.017 C 
ATOM     27  O   UNL     1     -10.314  19.213  12.434  1.00  0.00    -0.295 OA
ATOM     28  C   UNL     1     -10.016  17.214  14.382  1.00  0.00     0.055 C 
ATOM     29  C   UNL     1      -9.575  14.737  15.002  1.00  0.00     0.081 C 
ATOM     30  C   UNL     1      -9.950  16.140  15.385  1.00  0.00     0.156 C 
ATOM     31  O   UNL     1     -10.208  16.404  16.591  1.00  0.00    -0.295 OA
ENDBRANCH   9  11
ENDBRANCH   8   9
ENDBRANCH   1   8
TORSDOF 6
ENDMDL
MODEL 4
REMARK VINA RESULT:    -7.174      3.067      9.068
REMARK INTER + INTRA:         -10.600
REMARK INTER:                  -8.895
REMARK INTRA:                  -1.706
REMARK UNBOUND:                -0.910
REMARK SMILES CC[C@@H](CC[C@H](C)[C@@H]1CC[C@H]2[C@H]3CC(=O)C4=CC(=O)CC[C@]4(C)[C@H]3CC[C@]21C)C(C)C
REMARK SMILES IDX 4 1 3 2 2 3 1 4 29 5 30 6 31 7 5 8 6 9 7 10 8 11 9 12 27 13
REMARK SMILES IDX 10 14 11 15 26 16 28 17 12 18 25 19 24 20 13 21 22 22 14 23
REMARK SMILES IDX 16 24 21 25 23 26 15 27 17 28 20 29 18 30 19 31
REMARK H PARENT
REMARK Flexibility Score: inf
ROOT
ATOM      1  C   UNL     1      -9.240  16.018   7.679  1.00  0.00     0.004 C 
ENDROOT
BRANCH   1   2
ATOM      2  C   UNL     1      -9.910  17.297   7.100  1.00  0.00    -0.009 C 
BRANCH   2   3
ATOM      3  C   UNL     1     -10.029  17.185   5.550  1.00  0.00     0.000 C 
ATOM      4  C   UNL     1     -11.125  18.048   4.933  1.00  0.00     0.004 C 
ENDBRANCH   2   3
BRANCH   2   5
ATOM      5  C   UNL     1      -9.161  18.576   7.624  1.00  0.00    -0.014 C 
ATOM      6  C   UNL     1     -10.094  19.766   7.910  1.00  0.00     0.007 C 
ATOM      7  C   UNL     1      -7.991  19.006   6.733  1.00  0.00     0.007 C 
ENDBRANCH   2   5
ENDBRANCH   1   2
BRANCH   1   8
ATOM      8  C   UNL     1      -9.997  15.439   8.900  1.00  0.00     0.004 C 
BRANCH   8   9
ATOM      9  C   UNL     1      -9.159  15.290  10.211  1.00  0.00    -0.011 C 
ATOM     10  C   UNL     1      -9.285  13.889  10.836  1.00  0.00     0.008 C 
BRANCH   9  11
ATOM     11  C   UNL     1      -9.335  16.409  11.296  1.00  0.00    -0.002 C 
ATOM     12  C   UNL     1     -10.345  17.519  11.007  1.00  0.00     0.005 C 
ATOM     13  C   UNL     1      -8.046  17.133  11.771  1.00  0.00    -0.026 C 
ATOM     14  C   UNL     1     -10.034  18.624  12.019  1.00  0.00     0.005 C 
ATOM     15  C   UNL     1      -8.604  18.366  12.548  1.00  0.00    -0.001 C 
ATOM     16  C   UNL     1      -7.176  16.191  12.653  1.00  0.00     0.007 C 
ATOM     17  C   UNL     1      -7.188  17.634  10.573  1.00  0.00     0.012 C 
ATOM     18  C   UNL     1      -8.480  18.280  14.095  1.00  0.00     0.004 C 
ATOM     19  C   UNL     1      -6.293  16.917  13.680  1.00  0.00     0.005 C 
ATOM     20  C   UNL     1      -6.995  18.071  14.492  1.00  0.00     0.003 C 
ATOM     21  C   UNL     1      -9.412  17.270  14.805  1.00  0.00     0.085 C 
ATOM     22  C   UNL     1      -6.747  18.143  16.074  1.00  0.00    -0.000 C 
ATOM     23  C   UNL     1      -9.215  17.316  16.284  1.00  0.00     0.159 C 
ATOM     24  C   UNL     1      -8.051  18.015  16.874  1.00  0.00     0.005 C 
ATOM     25  C   UNL     1      -6.115  19.529  16.412  1.00  0.00     0.020 C 
ATOM     26  C   UNL     1      -5.794  17.031  16.589  1.00  0.00     0.017 C 
ATOM     27  O   UNL     1     -10.085  16.794  17.028  1.00  0.00    -0.295 OA
ATOM     28  C   UNL     1      -8.140  18.488  18.135  1.00  0.00     0.055 C 
ATOM     29  C   UNL     1      -5.899  19.772  17.916  1.00  0.00     0.081 C 
ATOM     30  C   UNL     1      -7.068  19.299  18.733  1.00  0.00     0.156 C 
ATOM     31  O   UNL     1      -7.135  19.607  19.954  1.00  0.00    -0.295 OA
ENDBRANCH   9  11
ENDBRANCH   8   9
ENDBRANCH   1   8
TORSDOF 6
ENDMDL
MODEL 5
REMARK VINA RESULT:    -7.002      3.228      9.330
REMARK INTER + INTRA:         -10.368
REMARK INTER:                  -9.148
REMARK INTRA:                  -1.220
REMARK UNBOUND:                -0.910
REMARK SMILES CC[C@@H](CC[C@H](C)[C@@H]1CC[C@H]2[C@H]3CC(=O)C4=CC(=O)CC[C@]4(C)[C@H]3CC[C@]21C)C(C)C
REMARK SMILES IDX 4 1 3 2 2 3 1 4 29 5 30 6 31 7 5 8 6 9 7 10 8 11 9 12 27 13
REMARK SMILES IDX 10 14 11 15 26 16 28 17 12 18 25 19 24 20 13 21 22 22 14 23
REMARK SMILES IDX 16 24 21 25 23 26 15 27 17 28 20 29 18 30 19 31
REMARK H PARENT
REMARK Flexibility Score: inf
ROOT
ATOM      1  C   UNL     1      -9.304  17.469   6.879  1.00  0.00     0.004 C 
ENDROOT
BRANCH   1   2
ATOM      2  C   UNL     1     -10.270  18.620   6.478  1.00  0.00    -0.009 C 
BRANCH   2   3
ATOM      3  C   UNL     1     -11.136  18.192   5.255  1.00  0.00     0.000 C 
ATOM      4  C   UNL     1     -10.818  18.931   3.959  1.00  0.00     0.004 C 
ENDBRANCH   2   3
BRANCH   2   5
ATOM      5  C   UNL     1      -9.460  19.955   6.289  1.00  0.00    -0.014 C 
ATOM      6  C   UNL     1      -7.947  19.800   6.520  1.00  0.00     0.007 C 
ATOM      7  C   UNL     1     -10.017  21.126   7.106  1.00  0.00     0.007 C 
ENDBRANCH   2   5
ENDBRANCH   1   2
BRANCH   1   8
ATOM      8  C   UNL     1      -9.644  16.847   8.256  1.00  0.00     0.004 C 
BRANCH   8   9
ATOM      9  C   UNL     1      -8.735  17.293   9.447  1.00  0.00    -0.011 C 
ATOM     10  C   UNL     1      -7.236  17.187   9.116  1.00  0.00     0.008 C 
BRANCH   9  11
ATOM     11  C   UNL     1      -9.048  16.667  10.851  1.00  0.00    -0.002 C 
ATOM     12  C   UNL     1     -10.153  15.614  10.924  1.00  0.00     0.005 C 
ATOM     13  C   UNL     1      -9.342  17.658  12.009  1.00  0.00    -0.026 C 
ATOM     14  C   UNL     1     -10.483  15.474  12.412  1.00  0.00     0.005 C 
ATOM     15  C   UNL     1      -9.933  16.734  13.119  1.00  0.00    -0.001 C 
ATOM     16  C   UNL     1      -8.043  18.395  12.449  1.00  0.00     0.007 C 
ATOM     17  C   UNL     1     -10.409  18.718  11.610  1.00  0.00     0.012 C 
ATOM     18  C   UNL     1      -8.984  16.454  14.317  1.00  0.00     0.004 C 
ATOM     19  C   UNL     1      -8.037  18.853  13.916  1.00  0.00     0.005 C 
ATOM     20  C   UNL     1      -8.547  17.794  14.966  1.00  0.00     0.003 C 
ATOM     21  C   UNL     1      -7.774  15.531  14.037  1.00  0.00     0.085 C 
ATOM     22  C   UNL     1      -7.704  17.598  16.316  1.00  0.00    -0.000 C 
ATOM     23  C   UNL     1      -6.970  15.318  15.276  1.00  0.00     0.159 C 
ATOM     24  C   UNL     1      -7.181  16.164  16.473  1.00  0.00     0.005 C 
ATOM     25  C   UNL     1      -8.639  17.900  17.529  1.00  0.00     0.020 C 
ATOM     26  C   UNL     1      -6.471  18.538  16.401  1.00  0.00     0.017 C 
ATOM     27  O   UNL     1      -6.142  14.371  15.306  1.00  0.00    -0.295 OA
ATOM     28  C   UNL     1      -6.860  15.672  17.688  1.00  0.00     0.055 C 
ATOM     29  C   UNL     1      -7.982  17.669  18.900  1.00  0.00     0.081 C 
ATOM     30  C   UNL     1      -7.161  16.411  18.924  1.00  0.00     0.156 C 
ATOM     31  O   UNL     1      -6.726  15.976  20.025  1.00  0.00    -0.295 OA
ENDBRANCH   9  11
ENDBRANCH   8   9
ENDBRANCH   1   8
TORSDOF 6
ENDMDL
MODEL 6
REMARK VINA RESULT:    -6.912      3.168      9.630
REMARK INTER + INTRA:         -10.247
REMARK INTER:                  -9.455
REMARK INTRA:                  -0.793
REMARK UNBOUND:                -0.910
REMARK SMILES CC[C@@H](CC[C@H](C)[C@@H]1CC[C@H]2[C@H]3CC(=O)C4=CC(=O)CC[C@]4(C)[C@H]3CC[C@]21C)C(C)C
REMARK SMILES IDX 4 1 3 2 2 3 1 4 29 5 30 6 31 7 5 8 6 9 7 10 8 11 9 12 27 13
REMARK SMILES IDX 10 14 11 15 26 16 28 17 12 18 25 19 24 20 13 21 22 22 14 23
REMARK SMILES IDX 16 24 21 25 23 26 15 27 17 28 20 29 18 30 19 31
REMARK H PARENT
REMARK Flexibility Score: inf
ROOT
ATOM      1  C   UNL     1      -9.994  18.750   9.418  1.00  0.00     0.004 C 
ENDROOT
BRANCH   1   2
ATOM      2  C   UNL     1      -9.919  18.652   7.868  1.00  0.00    -0.009 C 
BRANCH   2   3
ATOM      3  C   UNL     1      -8.464  18.319   7.421  1.00  0.00     0.000 C 
ATOM      4  C   UNL     1      -8.338  17.087   6.531  1.00  0.00     0.004 C 
ENDBRANCH   2   3
BRANCH   2   5
ATOM      5  C   UNL     1     -10.539  19.944   7.220  1.00  0.00    -0.014 C 
ATOM      6  C   UNL     1     -11.492  19.654   6.047  1.00  0.00     0.007 C 
ATOM      7  C   UNL     1      -9.491  20.990   6.822  1.00  0.00     0.007 C 
ENDBRANCH   2   5
ENDBRANCH   1   2
BRANCH   1   8
ATOM      8  C   UNL     1      -9.636  17.421  10.126  1.00  0.00     0.004 C 
BRANCH   8   9
ATOM      9  C   UNL     1      -9.852  17.395  11.673  1.00  0.00    -0.011 C 
ATOM     10  C   UNL     1     -10.977  18.341  12.128  1.00  0.00     0.008 C 
BRANCH   9  11
ATOM     11  C   UNL     1      -8.576  17.564  12.571  1.00  0.00    -0.002 C 
ATOM     12  C   UNL     1      -7.214  17.380  11.903  1.00  0.00     0.005 C 
ATOM     13  C   UNL     1      -8.517  16.719  13.871  1.00  0.00    -0.026 C 
ATOM     14  C   UNL     1      -6.215  17.229  13.052  1.00  0.00     0.005 C 
ATOM     15  C   UNL     1      -7.028  16.860  14.314  1.00  0.00    -0.001 C 
ATOM     16  C   UNL     1      -9.527  17.257  14.926  1.00  0.00     0.007 C 
ATOM     17  C   UNL     1      -8.826  15.217  13.602  1.00  0.00     0.012 C 
ATOM     18  C   UNL     1      -6.790  17.782  15.542  1.00  0.00     0.004 C 
ATOM     19  C   UNL     1      -9.129  16.985  16.386  1.00  0.00     0.005 C 
ATOM     20  C   UNL     1      -7.622  17.275  16.750  1.00  0.00     0.003 C 
ATOM     21  C   UNL     1      -6.982  19.300  15.311  1.00  0.00     0.085 C 
ATOM     22  C   UNL     1      -7.309  18.063  18.110  1.00  0.00    -0.000 C 
ATOM     23  C   UNL     1      -6.690  20.068  16.557  1.00  0.00     0.159 C 
ATOM     24  C   UNL     1      -6.561  19.379  17.861  1.00  0.00     0.005 C 
ATOM     25  C   UNL     1      -6.402  17.160  19.004  1.00  0.00     0.020 C 
ATOM     26  C   UNL     1      -8.590  18.418  18.912  1.00  0.00     0.017 C 
ATOM     27  O   UNL     1      -6.501  21.309  16.474  1.00  0.00    -0.295 OA
ATOM     28  C   UNL     1      -5.822  19.951  18.834  1.00  0.00     0.055 C 
ATOM     29  C   UNL     1      -5.950  17.827  20.315  1.00  0.00     0.081 C 
ATOM     30  C   UNL     1      -5.551  19.261  20.106  1.00  0.00     0.156 C 
ATOM     31  O   UNL     1      -4.970  19.884  21.035  1.00  0.00    -0.295 OA
ENDBRANCH   9  11
ENDBRANCH   8   9
ENDBRANCH   1   8
TORSDOF 6
ENDMDL
MODEL 7
REMARK VINA RESULT:    -6.857      1.930      2.850
REMARK INTER + INTRA:         -10.173
REMARK INTER:                  -8.421
REMARK INTRA:                  -1.752
REMARK UNBOUND:                -0.910
REMARK SMILES CC[C@@H](CC[C@H](C)[C@@H]1CC[C@H]2[C@H]3CC(=O)C4=CC(=O)CC[C@]4(C)[C@H]3CC[C@]21C)C(C)C
REMARK SMILES IDX 4 1 3 2 2 3 1 4 29 5 30 6 31 7 5 8 6 9 7 10 8 11 9 12 27 13
REMARK SMILES IDX 10 14 11 15 26 16 28 17 12 18 25 19 24 20 13 21 22 22 14 23
REMARK SMILES IDX 16 24 21 25 23 26 15 27 17 28 20 29 18 30 19 31
REMARK H PARENT
REMARK Flexibility Score: inf
ROOT
ATOM      1  C   UNL     1      -8.615  15.107  17.108  1.00  0.00     0.004 C 
ENDROOT
BRANCH   1   2
ATOM      2  C   UNL     1      -8.178  16.430  17.799  1.00  0.00    -0.009 C 
BRANCH   2   3
ATOM      3  C   UNL     1      -9.336  17.471  17.743  1.00  0.00     0.000 C 
ATOM      4  C   UNL     1      -9.303  18.518  18.853  1.00  0.00     0.004 C 
ENDBRANCH   2   3
BRANCH   2   5
ATOM      5  C   UNL     1      -6.808  16.919  17.199  1.00  0.00    -0.014 C 
ATOM      6  C   UNL     1      -6.961  17.934  16.054  1.00  0.00     0.007 C 
ATOM      7  C   UNL     1      -5.879  15.771  16.788  1.00  0.00     0.007 C 
ENDBRANCH   2   5
ENDBRANCH   1   2
BRANCH   1   8
ATOM      8  C   UNL     1      -9.778  15.304  16.105  1.00  0.00     0.004 C 
BRANCH   8   9
ATOM      9  C   UNL     1      -9.482  14.884  14.629  1.00  0.00    -0.011 C 
ATOM     10  C   UNL     1      -8.247  13.974  14.510  1.00  0.00     0.008 C 
BRANCH   9  11
ATOM     11  C   UNL     1      -9.441  16.032  13.560  1.00  0.00    -0.002 C 
ATOM     12  C   UNL     1      -9.828  17.438  14.019  1.00  0.00     0.005 C 
ATOM     13  C   UNL     1     -10.229  15.793  12.245  1.00  0.00    -0.026 C 
ATOM     14  C   UNL     1     -10.058  18.235  12.734  1.00  0.00     0.005 C 
ATOM     15  C   UNL     1     -10.263  17.211  11.594  1.00  0.00    -0.001 C 
ATOM     16  C   UNL     1      -9.519  14.726  11.361  1.00  0.00     0.007 C 
ATOM     17  C   UNL     1     -11.688  15.326  12.519  1.00  0.00     0.012 C 
ATOM     18  C   UNL     1      -9.326  17.395  10.367  1.00  0.00     0.004 C 
ATOM     19  C   UNL     1      -9.776  14.875   9.853  1.00  0.00     0.005 C 
ATOM     20  C   UNL     1      -9.669  16.340   9.282  1.00  0.00     0.003 C 
ATOM     21  C   UNL     1      -7.809  17.443  10.661  1.00  0.00     0.085 C 
ATOM     22  C   UNL     1      -8.870  16.562   7.910  1.00  0.00    -0.000 C 
ATOM     23  C   UNL     1      -7.031  17.658   9.405  1.00  0.00     0.159 C 
ATOM     24  C   UNL     1      -7.673  17.508   8.079  1.00  0.00     0.005 C 
ATOM     25  C   UNL     1      -9.842  17.204   6.872  1.00  0.00     0.020 C 
ATOM     26  C   UNL     1      -8.316  15.241   7.312  1.00  0.00     0.017 C 
ATOM     27  O   UNL     1      -5.830  18.022   9.490  1.00  0.00    -0.295 OA
ATOM     28  C   UNL     1      -7.160  18.173   7.024  1.00  0.00     0.055 C 
ATOM     29  C   UNL     1      -9.183  17.553   5.526  1.00  0.00     0.081 C 
ATOM     30  C   UNL     1      -7.824  18.166   5.710  1.00  0.00     0.156 C 
ATOM     31  O   UNL     1      -7.242  18.690   4.721  1.00  0.00    -0.295 OA
ENDBRANCH   9  11
ENDBRANCH   8   9
ENDBRANCH   1   8
TORSDOF 6
ENDMDL
MODEL 8
REMARK VINA RESULT:    -6.738      4.184      9.976
REMARK INTER + INTRA:         -10.012
REMARK INTER:                  -8.389
REMARK INTRA:                  -1.623
REMARK UNBOUND:                -0.910
REMARK SMILES CC[C@@H](CC[C@H](C)[C@@H]1CC[C@H]2[C@H]3CC(=O)C4=CC(=O)CC[C@]4(C)[C@H]3CC[C@]21C)C(C)C
REMARK SMILES IDX 4 1 3 2 2 3 1 4 29 5 30 6 31 7 5 8 6 9 7 10 8 11 9 12 27 13
REMARK SMILES IDX 10 14 11 15 26 16 28 17 12 18 25 19 24 20 13 21 22 22 14 23
REMARK SMILES IDX 16 24 21 25 23 26 15 27 17 28 20 29 18 30 19 31
REMARK H PARENT
REMARK Flexibility Score: inf
ROOT
ATOM      1  C   UNL     1      -8.159  16.863  11.267  1.00  0.00     0.004 C 
ENDROOT
BRANCH   1   2
ATOM      2  C   UNL     1      -9.670  16.949  10.909  1.00  0.00    -0.009 C 
BRANCH   2   3
ATOM      3  C   UNL     1      -9.984  18.317  10.232  1.00  0.00     0.000 C 
ATOM      4  C   UNL     1      -9.635  18.387   8.748  1.00  0.00     0.004 C 
ENDBRANCH   2   3
BRANCH   2   5
ATOM      5  C   UNL     1     -10.539  16.615  12.177  1.00  0.00    -0.014 C 
ATOM      6  C   UNL     1     -11.358  15.320  12.042  1.00  0.00     0.007 C 
ATOM      7  C   UNL     1     -11.431  17.777  12.628  1.00  0.00     0.007 C 
ENDBRANCH   2   5
ENDBRANCH   1   2
BRANCH   1   8
ATOM      8  C   UNL     1      -7.824  15.668  12.193  1.00  0.00     0.004 C 
BRANCH   8   9
ATOM      9  C   UNL     1      -6.937  16.000  13.437  1.00  0.00    -0.011 C 
ATOM     10  C   UNL     1      -5.761  15.021  13.601  1.00  0.00     0.008 C 
BRANCH   9  11
ATOM     11  C   UNL     1      -7.681  16.219  14.800  1.00  0.00    -0.002 C 
ATOM     12  C   UNL     1      -9.107  15.682  14.921  1.00  0.00     0.005 C 
ATOM     13  C   UNL     1      -7.739  17.674  15.340  1.00  0.00    -0.026 C 
ATOM     14  C   UNL     1      -9.690  16.353  16.166  1.00  0.00     0.005 C 
ATOM     15  C   UNL     1      -8.807  17.584  16.474  1.00  0.00    -0.001 C 
ATOM     16  C   UNL     1      -6.340  18.131  15.846  1.00  0.00     0.007 C 
ATOM     17  C   UNL     1      -8.232  18.676  14.256  1.00  0.00     0.012 C 
ATOM     18  C   UNL     1      -8.239  17.642  17.920  1.00  0.00     0.004 C 
ATOM     19  C   UNL     1      -6.381  19.199  16.951  1.00  0.00     0.005 C 
ATOM     20  C   UNL     1      -7.418  18.945  18.110  1.00  0.00     0.003 C 
ATOM     21  C   UNL     1      -7.459  16.397  18.403  1.00  0.00     0.085 C 
ATOM     22  C   UNL     1      -6.937  19.174  19.622  1.00  0.00    -0.000 C 
ATOM     23  C   UNL     1      -7.002  16.571  19.814  1.00  0.00     0.159 C 
ATOM     24  C   UNL     1      -7.047  17.898  20.468  1.00  0.00     0.005 C 
ATOM     25  C   UNL     1      -7.854  20.258  20.272  1.00  0.00     0.020 C 
ATOM     26  C   UNL     1      -5.464  19.655  19.722  1.00  0.00     0.017 C 
ATOM     27  O   UNL     1      -6.625  15.559  20.458  1.00  0.00    -0.295 OA
ATOM     28  C   UNL     1      -7.134  17.964  21.813  1.00  0.00     0.055 C 
ATOM     29  C   UNL     1      -7.559  20.520  21.759  1.00  0.00     0.081 C 
ATOM     30  C   UNL     1      -7.309  19.245  22.514  1.00  0.00     0.156 C 
ATOM     31  O   UNL     1      -7.253  19.273  23.774  1.00  0.00    -0.295 OA
ENDBRANCH   9  11
ENDBRANCH   8   9
ENDBRANCH   1   8
TORSDOF 6
ENDMDL
MODEL 9
REMARK VINA RESULT:    -6.728      7.829     10.912
REMARK INTER + INTRA:          -9.998
REMARK INTER:                  -8.823
REMARK INTRA:                  -1.175
REMARK UNBOUND:                -0.910
REMARK SMILES CC[C@@H](CC[C@H](C)[C@@H]1CC[C@H]2[C@H]3CC(=O)C4=CC(=O)CC[C@]4(C)[C@H]3CC[C@]21C)C(C)C
REMARK SMILES IDX 4 1 3 2 2 3 1 4 29 5 30 6 31 7 5 8 6 9 7 10 8 11 9 12 27 13
REMARK SMILES IDX 10 14 11 15 26 16 28 17 12 18 25 19 24 20 13 21 22 22 14 23
REMARK SMILES IDX 16 24 21 25 23 26 15 27 17 28 20 29 18 30 19 31
REMARK H PARENT
REMARK Flexibility Score: inf
ROOT
ATOM      1  C   UNL     1      -3.217  19.031  18.962  1.00  0.00     0.004 C 
ENDROOT
BRANCH   1   2
ATOM      2  C   UNL     1      -3.603  18.508  20.375  1.00  0.00    -0.009 C 
BRANCH   2   3
ATOM      3  C   UNL     1      -3.689  19.695  21.381  1.00  0.00     0.000 C 
ATOM      4  C   UNL     1      -4.976  19.744  22.199  1.00  0.00     0.004 C 
ENDBRANCH   2   3
BRANCH   2   5
ATOM      5  C   UNL     1      -2.635  17.342  20.796  1.00  0.00    -0.014 C 
ATOM      6  C   UNL     1      -1.857  17.622  22.094  1.00  0.00     0.007 C 
ATOM      7  C   UNL     1      -1.684  16.905  19.677  1.00  0.00     0.007 C 
ENDBRANCH   2   5
ENDBRANCH   1   2
BRANCH   1   8
ATOM      8  C   UNL     1      -4.292  18.724  17.890  1.00  0.00     0.004 C 
BRANCH   8   9
ATOM      9  C   UNL     1      -5.171  17.458  18.150  1.00  0.00    -0.011 C 
ATOM     10  C   UNL     1      -5.268  16.543  16.917  1.00  0.00     0.008 C 
BRANCH   9  11
ATOM     11  C   UNL     1      -6.584  17.695  18.789  1.00  0.00    -0.002 C 
ATOM     12  C   UNL     1      -7.586  16.542  18.731  1.00  0.00     0.005 C 
ATOM     13  C   UNL     1      -7.367  18.948  18.313  1.00  0.00    -0.026 C 
ATOM     14  C   UNL     1      -8.942  17.165  19.069  1.00  0.00     0.005 C 
ATOM     15  C   UNL     1      -8.806  18.691  18.858  1.00  0.00    -0.001 C 
ATOM     16  C   UNL     1      -6.720  20.249  18.872  1.00  0.00     0.007 C 
ATOM     17  C   UNL     1      -7.422  19.043  16.760  1.00  0.00     0.012 C 
ATOM     18  C   UNL     1      -9.214  19.563  20.078  1.00  0.00     0.004 C 
ATOM     19  C   UNL     1      -7.698  21.422  19.048  1.00  0.00     0.005 C 
ATOM     20  C   UNL     1      -9.080  21.066  19.718  1.00  0.00     0.003 C 
ATOM     21  C   UNL     1      -8.524  19.231  21.423  1.00  0.00     0.085 C 
ATOM     22  C   UNL     1      -9.642  22.042  20.859  1.00  0.00    -0.000 C 
ATOM     23  C   UNL     1      -9.032  20.117  22.512  1.00  0.00     0.159 C 
ATOM     24  C   UNL     1      -9.832  21.322  22.200  1.00  0.00     0.005 C 
ATOM     25  C   UNL     1     -11.036  22.579  20.403  1.00  0.00     0.020 C 
ATOM     26  C   UNL     1      -8.713  23.257  21.128  1.00  0.00     0.017 C 
ATOM     27  O   UNL     1      -8.812  19.793  23.708  1.00  0.00    -0.295 OA
ATOM     28  C   UNL     1     -10.686  21.800  23.129  1.00  0.00     0.055 C 
ATOM     29  C   UNL     1     -11.736  23.468  21.446  1.00  0.00     0.081 C 
ATOM     30  C   UNL     1     -11.600  22.916  22.836  1.00  0.00     0.156 C 
ATOM     31  O   UNL     1     -12.284  23.415  23.770  1.00  0.00    -0.295 OA
ENDBRANCH   9  11
ENDBRANCH   8   9
ENDBRANCH   1   8
TORSDOF 6
ENDMDL
