MODEL 1
REMARK VINA RESULT:    18.043      0.000      0.000
REMARK INTER + INTRA:          40.813
REMARK INTER:                  34.393
REMARK INTRA:                   6.420
REMARK UNBOUND:                 6.420
REMARK SMILES C[C@H]1O[C@H](O[C@H]2[C@@H](O)[C@H](OCCc3ccc(O)c(O)c3)O[C@H](CO)[C@@H]2OC(=O)C=Cc2ccc(O)c(O)c2)[C@@H](O)[C@H](O)[C@@H]1O
REMARK SMILES IDX 6 1 7 2 9 3 21 4 22 5 25 6 5 7 4 8 1 9 2 10 43 11 3 12 41 13
REMARK SMILES IDX 39 14 44 15 42 17 40 19 8 21 26 23 27 24 28 25 29 26 30 27
REMARK SMILES IDX 31 28 38 29 32 30 36 31 33 32 34 33 37 34 35 36 10 38 11 39
REMARK SMILES IDX 12 40 13 41 20 42 14 43 18 44 15 45 16 46 19 47 17 49 23 51
REMARK SMILES IDX 24 52
REMARK H PARENT 44 16 42 18 40 20 8 22 37 35 35 37 19 48 17 50 24 53
REMARK Flexibility Score: inf
ROOT
ATOM      1  C   UNL     1      21.222  42.329  26.211  1.00  0.00     0.199 C 
ATOM      2  C   UNL     1      21.005  41.255  25.139  1.00  0.00     0.203 C 
ATOM      3  C   UNL     1      20.461  39.950  25.762  1.00  0.00     0.282 C 
ATOM      4  O   UNL     1      21.291  39.455  26.805  1.00  0.00    -0.340 OA
ATOM      5  C   UNL     1      21.560  40.386  27.846  1.00  0.00     0.190 C 
ATOM      6  C   UNL     1      22.076  41.766  27.347  1.00  0.00     0.240 C 
ENDROOT
BRANCH   1   7
ATOM      7  O   UNL     1      21.911  43.427  25.640  1.00  0.00    -0.340 OA
BRANCH   7   8
ATOM      8  C   UNL     1      21.875  43.445  24.220  1.00  0.00     0.282 C 
ATOM      9  C   UNL     1      18.853  45.505  23.835  1.00  0.00     0.041 C 
ATOM     10  C   UNL     1      20.296  45.186  24.226  1.00  0.00     0.150 C 
ATOM     11  C   UNL     1      21.272  46.220  23.618  1.00  0.00     0.174 C 
ATOM     12  O   UNL     1      20.601  43.878  23.763  1.00  0.00    -0.344 OA
ATOM     13  C   UNL     1      22.735  45.847  23.922  1.00  0.00     0.179 C 
ATOM     14  C   UNL     1      23.004  44.342  23.665  1.00  0.00     0.202 C 
BRANCH  11  15
ATOM     15  O   UNL     1      21.014  47.509  24.122  1.00  0.00    -0.388 OA
ATOM     16  H   UNL     1      21.894  47.947  24.275  1.00  0.00     0.211 HD
ENDBRANCH  11  15
BRANCH  13  17
ATOM     17  O   UNL     1      23.123  46.228  25.220  1.00  0.00    -0.387 OA
ATOM     18  H   UNL     1      22.336  46.592  25.687  1.00  0.00     0.211 HD
ENDBRANCH  13  17
BRANCH  14  19
ATOM     19  O   UNL     1      23.120  44.113  22.283  1.00  0.00    -0.385 OA
ATOM     20  H   UNL     1      23.992  44.500  22.006  1.00  0.00     0.211 HD
ENDBRANCH  14  19
ENDBRANCH   7   8
ENDBRANCH   1   7
BRANCH   2  21
ATOM     21  O   UNL     1      22.190  41.039  24.403  1.00  0.00    -0.385 OA
ATOM     22  H   UNL     1      22.883  41.674  24.720  1.00  0.00     0.211 HD
ENDBRANCH   2  21
BRANCH   6  23
ATOM     23  O   UNL     1      22.111  42.724  28.407  1.00  0.00    -0.453 OA
BRANCH  23  24
ATOM     24  C   UNL     1      22.427  44.073  28.226  1.00  0.00     0.331 C 
ATOM     25  O   UNL     1      22.603  44.542  27.068  1.00  0.00    -0.247 OA
BRANCH  24  26
ATOM     26  C   UNL     1      22.537  44.932  29.415  1.00  0.00     0.094 C 
ATOM     27  C   UNL     1      21.755  44.776  30.490  1.00  0.00     0.016 C 
BRANCH  27  28
ATOM     28  C   UNL     1      21.861  45.603  31.718  1.00  0.00    -0.021 A 
ATOM     29  C   UNL     1      20.892  45.572  32.741  1.00  0.00     0.058 A 
ATOM     30  C   UNL     1      22.984  46.431  31.873  1.00  0.00     0.012 A 
ATOM     31  C   UNL     1      21.026  46.386  33.872  1.00  0.00     0.157 A 
ATOM     32  C   UNL     1      23.124  47.238  33.003  1.00  0.00     0.051 A 
ATOM     33  C   UNL     1      22.144  47.225  34.003  1.00  0.00     0.157 A 
BRANCH  31  34
ATOM     34  O   UNL     1      20.039  46.343  34.856  1.00  0.00    -0.504 OA
ATOM     35  H   UNL     1      20.143  46.817  35.744  1.00  0.00     0.293 HD
ENDBRANCH  31  34
BRANCH  33  36
ATOM     36  O   UNL     1      22.279  48.043  35.124  1.00  0.00    -0.504 OA
ATOM     37  H   UNL     1      21.535  48.667  35.416  1.00  0.00     0.293 HD
ENDBRANCH  33  36
ENDBRANCH  27  28
ENDBRANCH  24  26
ENDBRANCH  23  24
ENDBRANCH   6  23
BRANCH   3  38
ATOM     38  O   UNL     1      19.130  40.147  26.203  1.00  0.00    -0.350 OA
BRANCH  38  39
ATOM     39  C   UNL     1      18.962  39.722  27.543  1.00  0.00     0.168 C 
BRANCH  39  40
ATOM     40  C   UNL     1      17.575  40.089  28.088  1.00  0.00     0.064 C 
BRANCH  40  41
ATOM     41  C   UNL     1      17.024  39.007  28.980  1.00  0.00    -0.042 A 
ATOM     42  C   UNL     1      15.750  39.141  29.550  1.00  0.00     0.054 A 
ATOM     43  C   UNL     1      17.765  37.839  29.212  1.00  0.00     0.008 A 
ATOM     44  C   UNL     1      15.234  38.130  30.376  1.00  0.00     0.157 A 
ATOM     45  C   UNL     1      17.249  36.828  30.028  1.00  0.00     0.050 A 
ATOM     46  C   UNL     1      15.989  36.968  30.617  1.00  0.00     0.157 A 
BRANCH  44  47
ATOM     47  O   UNL     1      13.974  38.274  30.955  1.00  0.00    -0.504 OA
ATOM     48  H   UNL     1      13.375  37.471  31.122  1.00  0.00     0.293 HD
ENDBRANCH  44  47
BRANCH  46  49
ATOM     49  O   UNL     1      15.512  35.947  31.441  1.00  0.00    -0.504 OA
ATOM     50  H   UNL     1      14.593  35.536  31.306  1.00  0.00     0.293 HD
ENDBRANCH  46  49
ENDBRANCH  40  41
ENDBRANCH  39  40
ENDBRANCH  38  39
ENDBRANCH   3  38
BRANCH   5  51
ATOM     51  C   UNL     1      20.446  40.423  28.915  1.00  0.00     0.192 C 
BRANCH  51  52
ATOM     52  O   UNL     1      20.951  40.278  30.210  1.00  0.00    -0.394 OA
ATOM     53  H   UNL     1      20.166  40.122  30.798  1.00  0.00     0.210 HD
ENDBRANCH  51  52
ENDBRANCH   5  51
TORSDOF 20
ENDMDL
