MODEL 1
REMARK VINA RESULT:    -5.154      0.000      0.000
REMARK INTER + INTRA:          -5.973
REMARK INTER:                  -5.757
REMARK INTRA:                  -0.216
REMARK UNBOUND:                -0.216
REMARK SMILES O=C([O-])c1ccccc1C(=O)[O-]
REMARK SMILES IDX 4 1 9 2 5 3 8 4 6 5 7 6 2 7 1 8 3 9 10 10 11 11 12 12
REMARK H PARENT
REMARK Flexibility Score: inf
ROOT
ATOM      1  C   UNL     1       1.856   7.434   1.116  1.00  0.00     0.006 A 
ATOM      2  C   UNL     1       1.663   6.067   1.457  1.00  0.00     0.006 A 
ATOM      3  C   UNL     1       2.991   7.800   0.367  1.00  0.00     0.010 A 
ATOM      4  C   UNL     1       2.644   5.126   1.092  1.00  0.00     0.010 A 
ATOM      5  C   UNL     1       3.941   6.847  -0.003  1.00  0.00     0.001 A 
ATOM      6  C   UNL     1       3.773   5.515   0.369  1.00  0.00     0.001 A 
ENDROOT
BRANCH   1   7
ATOM      7  C   UNL     1       0.948   8.508   1.580  1.00  0.00     0.072 C 
ATOM      8  O   UNL     1       0.024   8.924   0.831  1.00  0.00    -0.545 OA
ATOM      9  O   UNL     1       1.140   9.115   2.814  1.00  0.00    -0.545 OA
ENDBRANCH   1   7
BRANCH   2  10
ATOM     10  C   UNL     1       0.433   5.575   2.116  1.00  0.00     0.072 C 
ATOM     11  O   UNL     1       0.378   5.489   3.373  1.00  0.00    -0.545 OA
ATOM     12  O   UNL     1      -0.652   5.141   1.363  1.00  0.00    -0.545 OA
ENDBRANCH   2  10
TORSDOF 2
ENDMDL
MODEL 2
REMARK VINA RESULT:    -5.154      0.016      3.173
REMARK INTER + INTRA:          -5.972
REMARK INTER:                  -5.756
REMARK INTRA:                  -0.216
REMARK UNBOUND:                -0.216
REMARK SMILES O=C([O-])c1ccccc1C(=O)[O-]
REMARK SMILES IDX 4 1 9 2 5 3 8 4 6 5 7 6 2 7 1 8 3 9 10 10 11 11 12 12
REMARK H PARENT
REMARK Flexibility Score: inf
ROOT
ATOM      1  C   UNL     1       1.666   6.064   1.450  1.00  0.00     0.006 A 
ATOM      2  C   UNL     1       1.858   7.429   1.104  1.00  0.00     0.006 A 
ATOM      3  C   UNL     1       2.650   5.121   1.094  1.00  0.00     0.010 A 
ATOM      4  C   UNL     1       2.996   7.793   0.359  1.00  0.00     0.010 A 
ATOM      5  C   UNL     1       3.781   5.508   0.374  1.00  0.00     0.001 A 
ATOM      6  C   UNL     1       3.948   6.838  -0.002  1.00  0.00     0.001 A 
ENDROOT
BRANCH   1   7
ATOM      7  C   UNL     1       0.433   5.573   2.108  1.00  0.00     0.072 C 
ATOM      8  O   UNL     1       0.375   5.488   3.363  1.00  0.00    -0.545 OA
ATOM      9  O   UNL     1      -0.650   5.140   1.352  1.00  0.00    -0.545 OA
ENDBRANCH   1   7
BRANCH   2  10
ATOM     10  C   UNL     1       0.948   8.504   1.559  1.00  0.00     0.072 C 
ATOM     11  O   UNL     1       0.020   8.910   0.808  1.00  0.00    -0.545 OA
ATOM     12  O   UNL     1       1.139   9.123   2.788  1.00  0.00    -0.545 OA
ENDBRANCH   2  10
TORSDOF 2
ENDMDL
MODEL 3
REMARK VINA RESULT:    -4.817      2.372      3.688
REMARK INTER + INTRA:          -5.597
REMARK INTER:                  -5.374
REMARK INTRA:                  -0.223
REMARK UNBOUND:                -0.216
REMARK SMILES O=C([O-])c1ccccc1C(=O)[O-]
REMARK SMILES IDX 4 1 9 2 5 3 8 4 6 5 7 6 2 7 1 8 3 9 10 10 11 11 12 12
REMARK H PARENT
REMARK Flexibility Score: inf
ROOT
ATOM      1  C   UNL     1       1.872   5.858   0.428  1.00  0.00     0.006 A 
ATOM      2  C   UNL     1       0.862   6.670   1.011  1.00  0.00     0.006 A 
ATOM      3  C   UNL     1       1.501   4.858  -0.492  1.00  0.00     0.010 A 
ATOM      4  C   UNL     1      -0.487   6.413   0.702  1.00  0.00     0.010 A 
ATOM      5  C   UNL     1       0.159   4.634  -0.800  1.00  0.00     0.001 A 
ATOM      6  C   UNL     1      -0.833   5.401  -0.196  1.00  0.00     0.001 A 
ENDROOT
BRANCH   1   7
ATOM      7  C   UNL     1       3.300   5.968   0.804  1.00  0.00     0.072 C 
ATOM      8  O   UNL     1       4.075   6.709   0.143  1.00  0.00    -0.545 OA
ATOM      9  O   UNL     1       3.820   5.209   1.845  1.00  0.00    -0.545 OA
ENDBRANCH   1   7
BRANCH   2  10
ATOM     10  C   UNL     1       1.171   7.832   1.876  1.00  0.00     0.072 C 
ATOM     11  O   UNL     1       1.330   8.975   1.369  1.00  0.00    -0.545 OA
ATOM     12  O   UNL     1       1.352   7.670   3.244  1.00  0.00    -0.545 OA
ENDBRANCH   2  10
TORSDOF 2
ENDMDL
MODEL 4
REMARK VINA RESULT:    -4.796      2.372      3.196
REMARK INTER + INTRA:          -5.573
REMARK INTER:                  -5.348
REMARK INTRA:                  -0.226
REMARK UNBOUND:                -0.216
REMARK SMILES O=C([O-])c1ccccc1C(=O)[O-]
REMARK SMILES IDX 4 1 9 2 5 3 8 4 6 5 7 6 2 7 1 8 3 9 10 10 11 11 12 12
REMARK H PARENT
REMARK Flexibility Score: inf
ROOT
ATOM      1  C   UNL     1       0.901   6.662   1.050  1.00  0.00     0.006 A 
ATOM      2  C   UNL     1       1.906   5.866   0.437  1.00  0.00     0.006 A 
ATOM      3  C   UNL     1      -0.452   6.403   0.759  1.00  0.00     0.010 A 
ATOM      4  C   UNL     1       1.526   4.880  -0.493  1.00  0.00     0.010 A 
ATOM      5  C   UNL     1      -0.808   5.406  -0.150  1.00  0.00     0.001 A 
ATOM      6  C   UNL     1       0.179   4.655  -0.784  1.00  0.00     0.001 A 
ENDROOT
BRANCH   1   7
ATOM      7  C   UNL     1       1.219   7.810   1.931  1.00  0.00     0.072 C 
ATOM      8  O   UNL     1       1.409   8.954   1.439  1.00  0.00    -0.545 OA
ATOM      9  O   UNL     1       1.376   7.631   3.300  1.00  0.00    -0.545 OA
ENDBRANCH   1   7
BRANCH   2  10
ATOM     10  C   UNL     1       3.339   5.976   0.792  1.00  0.00     0.072 C 
ATOM     11  O   UNL     1       4.103   6.721   0.121  1.00  0.00    -0.545 OA
ATOM     12  O   UNL     1       3.876   5.215   1.824  1.00  0.00    -0.545 OA
ENDBRANCH   2  10
TORSDOF 2
ENDMDL
MODEL 5
REMARK VINA RESULT:    -4.768      1.833      3.292
REMARK INTER + INTRA:          -5.541
REMARK INTER:                  -5.322
REMARK INTRA:                  -0.220
REMARK UNBOUND:                -0.216
REMARK SMILES O=C([O-])c1ccccc1C(=O)[O-]
REMARK SMILES IDX 4 1 9 2 5 3 8 4 6 5 7 6 2 7 1 8 3 9 10 10 11 11 12 12
REMARK H PARENT
REMARK Flexibility Score: inf
ROOT
ATOM      1  C   UNL     1       0.935   6.614   1.415  1.00  0.00     0.006 A 
ATOM      2  C   UNL     1       2.273   6.544   0.941  1.00  0.00     0.006 A 
ATOM      3  C   UNL     1       0.241   7.836   1.334  1.00  0.00     0.010 A 
ATOM      4  C   UNL     1       2.890   7.715   0.459  1.00  0.00     0.010 A 
ATOM      5  C   UNL     1       0.865   8.979   0.833  1.00  0.00     0.001 A 
ATOM      6  C   UNL     1       2.189   8.922   0.408  1.00  0.00     0.001 A 
ENDROOT
BRANCH   1   7
ATOM      7  C   UNL     1       0.258   5.467   2.066  1.00  0.00     0.072 C 
ATOM      8  O   UNL     1      -0.497   4.713   1.396  1.00  0.00    -0.545 OA
ATOM      9  O   UNL     1       0.394   5.245   3.431  1.00  0.00    -0.545 OA
ENDBRANCH   1   7
BRANCH   2  10
ATOM     10  C   UNL     1       3.027   5.273   0.858  1.00  0.00     0.072 C 
ATOM     11  O   UNL     1       3.835   4.954   1.772  1.00  0.00    -0.545 OA
ATOM     12  O   UNL     1       2.903   4.445  -0.251  1.00  0.00    -0.545 OA
ENDBRANCH   2  10
TORSDOF 2
ENDMDL
MODEL 6
REMARK VINA RESULT:    -4.755      2.231      3.239
REMARK INTER + INTRA:          -5.527
REMARK INTER:                  -5.326
REMARK INTRA:                  -0.201
REMARK UNBOUND:                -0.216
REMARK SMILES O=C([O-])c1ccccc1C(=O)[O-]
REMARK SMILES IDX 4 1 9 2 5 3 8 4 6 5 7 6 2 7 1 8 3 9 10 10 11 11 12 12
REMARK H PARENT
REMARK Flexibility Score: inf
ROOT
ATOM      1  C   UNL     1       0.932   6.906   1.818  1.00  0.00     0.006 A 
ATOM      2  C   UNL     1       0.408   5.675   1.339  1.00  0.00     0.006 A 
ATOM      3  C   UNL     1       0.920   7.165   3.202  1.00  0.00     0.010 A 
ATOM      4  C   UNL     1      -0.166   4.773   2.255  1.00  0.00     0.010 A 
ATOM      5  C   UNL     1       0.365   6.248   4.094  1.00  0.00     0.001 A 
ATOM      6  C   UNL     1      -0.188   5.060   3.621  1.00  0.00     0.001 A 
ENDROOT
BRANCH   1   7
ATOM      7  C   UNL     1       1.427   7.969   0.912  1.00  0.00     0.072 C 
ATOM      8  O   UNL     1       0.657   8.894   0.540  1.00  0.00    -0.545 OA
ATOM      9  O   UNL     1       2.721   7.927   0.409  1.00  0.00    -0.545 OA
ENDBRANCH   1   7
BRANCH   2  10
ATOM     10  C   UNL     1       0.509   5.261  -0.079  1.00  0.00     0.072 C 
ATOM     11  O   UNL     1      -0.521   5.233  -0.806  1.00  0.00    -0.545 OA
ATOM     12  O   UNL     1       1.721   4.839  -0.612  1.00  0.00    -0.545 OA
ENDBRANCH   2  10
TORSDOF 2
ENDMDL
MODEL 7
REMARK VINA RESULT:    -4.749      1.841      3.358
REMARK INTER + INTRA:          -5.520
REMARK INTER:                  -5.299
REMARK INTRA:                  -0.220
REMARK UNBOUND:                -0.216
REMARK SMILES O=C([O-])c1ccccc1C(=O)[O-]
REMARK SMILES IDX 4 1 9 2 5 3 8 4 6 5 7 6 2 7 1 8 3 9 10 10 11 11 12 12
REMARK H PARENT
REMARK Flexibility Score: inf
ROOT
ATOM      1  C   UNL     1       2.259   6.530   0.889  1.00  0.00     0.006 A 
ATOM      2  C   UNL     1       0.920   6.599   1.359  1.00  0.00     0.006 A 
ATOM      3  C   UNL     1       2.889   7.705   0.435  1.00  0.00     0.010 A 
ATOM      4  C   UNL     1       0.236   7.829   1.299  1.00  0.00     0.010 A 
ATOM      5  C   UNL     1       2.199   8.918   0.405  1.00  0.00     0.001 A 
ATOM      6  C   UNL     1       0.873   8.977   0.825  1.00  0.00     0.001 A 
ENDROOT
BRANCH   1   7
ATOM      7  C   UNL     1       3.004   5.253   0.785  1.00  0.00     0.072 C 
ATOM      8  O   UNL     1       3.818   4.919   1.687  1.00  0.00    -0.545 OA
ATOM      9  O   UNL     1       2.865   4.441  -0.333  1.00  0.00    -0.545 OA
ENDBRANCH   1   7
BRANCH   2  10
ATOM     10  C   UNL     1       0.231   5.447   1.982  1.00  0.00     0.072 C 
ATOM     11  O   UNL     1      -0.556   4.735   1.302  1.00  0.00    -0.545 OA
ATOM     12  O   UNL     1       0.391   5.171   3.335  1.00  0.00    -0.545 OA
ENDBRANCH   2  10
TORSDOF 2
ENDMDL
MODEL 8
REMARK VINA RESULT:    -4.355      2.753      4.190
REMARK INTER + INTRA:          -5.080
REMARK INTER:                  -4.895
REMARK INTRA:                  -0.185
REMARK UNBOUND:                -0.216
REMARK SMILES O=C([O-])c1ccccc1C(=O)[O-]
REMARK SMILES IDX 4 1 9 2 5 3 8 4 6 5 7 6 2 7 1 8 3 9 10 10 11 11 12 12
REMARK H PARENT
REMARK Flexibility Score: inf
ROOT
ATOM      1  C   UNL     1       4.472   5.947  -0.457  1.00  0.00     0.006 A 
ATOM      2  C   UNL     1       3.468   6.847  -0.007  1.00  0.00     0.006 A 
ATOM      3  C   UNL     1       5.551   6.444  -1.212  1.00  0.00     0.010 A 
ATOM      4  C   UNL     1       3.546   8.202  -0.382  1.00  0.00     0.010 A 
ATOM      5  C   UNL     1       5.619   7.795  -1.554  1.00  0.00     0.001 A 
ATOM      6  C   UNL     1       4.613   8.669  -1.150  1.00  0.00     0.001 A 
ENDROOT
BRANCH   1   7
ATOM      7  C   UNL     1       4.394   4.485  -0.228  1.00  0.00     0.072 C 
ATOM      8  O   UNL     1       4.976   3.966   0.762  1.00  0.00    -0.545 OA
ATOM      9  O   UNL     1       3.736   3.660  -1.131  1.00  0.00    -0.545 OA
ENDBRANCH   1   7
BRANCH   2  10
ATOM     10  C   UNL     1       2.378   6.436   0.907  1.00  0.00     0.072 C 
ATOM     11  O   UNL     1       2.448   6.701   2.137  1.00  0.00    -0.545 OA
ATOM     12  O   UNL     1       1.297   5.701   0.437  1.00  0.00    -0.545 OA
ENDBRANCH   2  10
TORSDOF 2
ENDMDL
MODEL 9
REMARK VINA RESULT:    -4.348      2.749      3.728
REMARK INTER + INTRA:          -5.073
REMARK INTER:                  -4.882
REMARK INTRA:                  -0.191
REMARK UNBOUND:                -0.216
REMARK SMILES O=C([O-])c1ccccc1C(=O)[O-]
REMARK SMILES IDX 4 1 9 2 5 3 8 4 6 5 7 6 2 7 1 8 3 9 10 10 11 11 12 12
REMARK H PARENT
REMARK Flexibility Score: inf
ROOT
ATOM      1  C   UNL     1       3.471   6.806  -0.014  1.00  0.00     0.006 A 
ATOM      2  C   UNL     1       4.477   5.900  -0.449  1.00  0.00     0.006 A 
ATOM      3  C   UNL     1       3.555   8.159  -0.396  1.00  0.00     0.010 A 
ATOM      4  C   UNL     1       5.563   6.392  -1.197  1.00  0.00     0.010 A 
ATOM      5  C   UNL     1       4.630   8.620  -1.156  1.00  0.00     0.001 A 
ATOM      6  C   UNL     1       5.638   7.741  -1.546  1.00  0.00     0.001 A 
ENDROOT
BRANCH   1   7
ATOM      7  C   UNL     1       2.371   6.402   0.892  1.00  0.00     0.072 C 
ATOM      8  O   UNL     1       2.439   6.653   2.125  1.00  0.00    -0.545 OA
ATOM      9  O   UNL     1       1.281   5.687   0.409  1.00  0.00    -0.545 OA
ENDBRANCH   1   7
BRANCH   2  10
ATOM     10  C   UNL     1       4.393   4.441  -0.214  1.00  0.00     0.072 C 
ATOM     11  O   UNL     1       4.979   3.923   0.775  1.00  0.00    -0.545 OA
ATOM     12  O   UNL     1       3.724   3.615  -1.109  1.00  0.00    -0.545 OA
ENDBRANCH   2  10
TORSDOF 2
ENDMDL
