MODEL 1
REMARK VINA RESULT:    -3.040      0.000      0.000
REMARK INTER + INTRA:          -4.636
REMARK INTER:                  -4.107
REMARK INTRA:                  -0.530
REMARK UNBOUND:                -0.530
REMARK SMILES CCCCCCCC(=O)[O-]
REMARK SMILES IDX 5 1 6 2 7 3 8 4 9 5 10 6 4 7 3 8 2 9 1 10
REMARK H PARENT
REMARK Flexibility Score: inf
ROOT
ATOM      1  C   UNL     1       6.764  10.195   7.563  1.00  0.00     0.000 C 
ENDROOT
BRANCH   1   2
ATOM      2  C   UNL     1       6.019  11.319   8.298  1.00  0.00     0.006 C 
BRANCH   2   3
ATOM      3  C   UNL     1       6.334  12.682   7.675  1.00  0.00     0.053 C 
BRANCH   3   4
ATOM      4  C   UNL     1       7.683  13.159   8.110  1.00  0.00     0.041 C 
ATOM      5  O   UNL     1       8.460  13.704   7.281  1.00  0.00    -0.550 OA
ATOM      6  O   UNL     1       8.104  12.958   9.418  1.00  0.00    -0.550 OA
ENDBRANCH   3   4
ENDBRANCH   2   3
ENDBRANCH   1   2
BRANCH   1   7
ATOM      7  C   UNL     1       7.829   9.516   8.440  1.00  0.00     0.000 C 
BRANCH   7   8
ATOM      8  C   UNL     1       9.253   9.707   7.897  1.00  0.00    -0.000 C 
BRANCH   8   9
ATOM      9  C   UNL     1       9.227  10.051   6.402  1.00  0.00    -0.003 C 
ATOM     10  C   UNL     1      10.358   9.348   5.655  1.00  0.00     0.004 C 
ENDBRANCH   8   9
ENDBRANCH   7   8
ENDBRANCH   1   7
TORSDOF 6
ENDMDL
MODEL 2
REMARK VINA RESULT:    -2.934      1.395      2.044
REMARK INTER + INTRA:          -4.493
REMARK INTER:                  -4.030
REMARK INTRA:                  -0.463
REMARK UNBOUND:                -0.530
REMARK SMILES CCCCCCCC(=O)[O-]
REMARK SMILES IDX 5 1 6 2 7 3 8 4 9 5 10 6 4 7 3 8 2 9 1 10
REMARK H PARENT
REMARK Flexibility Score: inf
ROOT
ATOM      1  C   UNL     1       7.745   9.984   7.273  1.00  0.00     0.000 C 
ENDROOT
BRANCH   1   2
ATOM      2  C   UNL     1       8.674  10.734   8.238  1.00  0.00     0.006 C 
BRANCH   2   3
ATOM      3  C   UNL     1       7.996  11.995   8.782  1.00  0.00     0.053 C 
BRANCH   3   4
ATOM      4  C   UNL     1       7.893  13.037   7.714  1.00  0.00     0.041 C 
ATOM      5  O   UNL     1       6.766  13.489   7.377  1.00  0.00    -0.550 OA
ATOM      6  O   UNL     1       9.035  13.474   7.056  1.00  0.00    -0.550 OA
ENDBRANCH   3   4
ENDBRANCH   2   3
ENDBRANCH   1   2
BRANCH   1   7
ATOM      7  C   UNL     1       8.504   9.319   6.114  1.00  0.00     0.000 C 
BRANCH   7   8
ATOM      8  C   UNL     1       9.856   9.992   5.829  1.00  0.00    -0.000 C 
BRANCH   8   9
ATOM      9  C   UNL     1      10.931   8.946   5.507  1.00  0.00    -0.003 C 
ATOM     10  C   UNL     1      10.898   7.795   6.509  1.00  0.00     0.004 C 
ENDBRANCH   8   9
ENDBRANCH   7   8
ENDBRANCH   1   7
TORSDOF 6
ENDMDL
MODEL 3
REMARK VINA RESULT:    -2.929      1.377      3.764
REMARK INTER + INTRA:          -4.486
REMARK INTER:                  -3.898
REMARK INTRA:                  -0.588
REMARK UNBOUND:                -0.530
REMARK SMILES CCCCCCCC(=O)[O-]
REMARK SMILES IDX 5 1 6 2 7 3 8 4 9 5 10 6 4 7 3 8 2 9 1 10
REMARK H PARENT
REMARK Flexibility Score: inf
ROOT
ATOM      1  C   UNL     1       6.070  10.134   7.510  1.00  0.00     0.000 C 
ENDROOT
BRANCH   1   2
ATOM      2  C   UNL     1       7.478   9.646   7.882  1.00  0.00     0.006 C 
BRANCH   2   3
ATOM      3  C   UNL     1       8.539  10.313   7.001  1.00  0.00     0.053 C 
BRANCH   3   4
ATOM      4  C   UNL     1       9.095  11.526   7.677  1.00  0.00     0.041 C 
ATOM      5  O   UNL     1       9.231  11.547   8.929  1.00  0.00    -0.550 OA
ATOM      6  O   UNL     1       9.417  12.653   6.932  1.00  0.00    -0.550 OA
ENDBRANCH   3   4
ENDBRANCH   2   3
ENDBRANCH   1   2
BRANCH   1   7
ATOM      7  C   UNL     1       5.483  11.099   8.552  1.00  0.00     0.000 C 
BRANCH   7   8
ATOM      8  C   UNL     1       4.844  12.342   7.913  1.00  0.00    -0.000 C 
BRANCH   8   9
ATOM      9  C   UNL     1       5.917  13.350   7.484  1.00  0.00    -0.003 C 
ATOM     10  C   UNL     1       6.474  14.108   8.686  1.00  0.00     0.004 C 
ENDBRANCH   8   9
ENDBRANCH   7   8
ENDBRANCH   1   7
TORSDOF 6
ENDMDL
MODEL 4
REMARK VINA RESULT:    -2.907      2.504      4.492
REMARK INTER + INTRA:          -4.457
REMARK INTER:                  -3.987
REMARK INTRA:                  -0.470
REMARK UNBOUND:                -0.530
REMARK SMILES CCCCCCCC(=O)[O-]
REMARK SMILES IDX 5 1 6 2 7 3 8 4 9 5 10 6 4 7 3 8 2 9 1 10
REMARK H PARENT
REMARK Flexibility Score: inf
ROOT
ATOM      1  C   UNL     1       9.019  11.202   8.582  1.00  0.00     0.000 C 
ENDROOT
BRANCH   1   2
ATOM      2  C   UNL     1       9.197   9.814   7.950  1.00  0.00     0.006 C 
BRANCH   2   3
ATOM      3  C   UNL     1       8.446   9.718   6.619  1.00  0.00     0.053 C 
BRANCH   3   4
ATOM      4  C   UNL     1       9.399   9.456   5.497  1.00  0.00     0.041 C 
ATOM      5  O   UNL     1      10.563   9.938   5.528  1.00  0.00    -0.550 OA
ATOM      6  O   UNL     1       8.989   8.721   4.392  1.00  0.00    -0.550 OA
ENDBRANCH   3   4
ENDBRANCH   2   3
ENDBRANCH   1   2
BRANCH   1   7
ATOM      7  C   UNL     1       8.238  12.170   7.677  1.00  0.00     0.000 C 
BRANCH   7   8
ATOM      8  C   UNL     1       7.151  12.945   8.438  1.00  0.00    -0.000 C 
BRANCH   8   9
ATOM      9  C   UNL     1       5.799  12.837   7.722  1.00  0.00    -0.003 C 
ATOM     10  C   UNL     1       5.278  11.403   7.742  1.00  0.00     0.004 C 
ENDBRANCH   8   9
ENDBRANCH   7   8
ENDBRANCH   1   7
TORSDOF 6
ENDMDL
MODEL 5
REMARK VINA RESULT:    -2.857      3.127      5.010
REMARK INTER + INTRA:          -4.389
REMARK INTER:                  -4.182
REMARK INTRA:                  -0.207
REMARK UNBOUND:                -0.530
REMARK SMILES CCCCCCCC(=O)[O-]
REMARK SMILES IDX 5 1 6 2 7 3 8 4 9 5 10 6 4 7 3 8 2 9 1 10
REMARK H PARENT
REMARK Flexibility Score: inf
ROOT
ATOM      1  C   UNL     1       8.152   9.956   6.993  1.00  0.00     0.000 C 
ENDROOT
BRANCH   1   2
ATOM      2  C   UNL     1       9.432  10.304   6.221  1.00  0.00     0.006 C 
BRANCH   2   3
ATOM      3  C   UNL     1       9.765   9.217   5.194  1.00  0.00     0.053 C 
BRANCH   3   4
ATOM      4  C   UNL     1      11.150   8.696   5.412  1.00  0.00     0.041 C 
ATOM      5  O   UNL     1      12.119   9.183   4.772  1.00  0.00    -0.550 OA
ATOM      6  O   UNL     1      11.365   7.638   6.286  1.00  0.00    -0.550 OA
ENDBRANCH   3   4
ENDBRANCH   2   3
ENDBRANCH   1   2
BRANCH   1   7
ATOM      7  C   UNL     1       7.604  11.144   7.799  1.00  0.00     0.000 C 
BRANCH   7   8
ATOM      8  C   UNL     1       6.068  11.186   7.821  1.00  0.00    -0.000 C 
BRANCH   8   9
ATOM      9  C   UNL     1       5.560  12.633   7.862  1.00  0.00    -0.003 C 
ATOM     10  C   UNL     1       6.716  13.625   7.760  1.00  0.00     0.004 C 
ENDBRANCH   8   9
ENDBRANCH   7   8
ENDBRANCH   1   7
TORSDOF 6
ENDMDL
MODEL 6
REMARK VINA RESULT:    -2.828      2.676      3.005
REMARK INTER + INTRA:          -4.350
REMARK INTER:                  -4.082
REMARK INTRA:                  -0.268
REMARK UNBOUND:                -0.530
REMARK SMILES CCCCCCCC(=O)[O-]
REMARK SMILES IDX 5 1 6 2 7 3 8 4 9 5 10 6 4 7 3 8 2 9 1 10
REMARK H PARENT
REMARK Flexibility Score: inf
ROOT
ATOM      1  C   UNL     1       6.385  11.658   7.744  1.00  0.00     0.000 C 
ENDROOT
BRANCH   1   2
ATOM      2  C   UNL     1       5.125  12.536   7.765  1.00  0.00     0.006 C 
BRANCH   2   3
ATOM      3  C   UNL     1       5.469  13.994   7.443  1.00  0.00     0.053 C 
BRANCH   3   4
ATOM      4  C   UNL     1       4.226  14.778   7.167  1.00  0.00     0.041 C 
ATOM      5  O   UNL     1       4.039  15.291   6.032  1.00  0.00    -0.550 OA
ATOM      6  O   UNL     1       3.294  14.984   8.176  1.00  0.00    -0.550 OA
ENDBRANCH   3   4
ENDBRANCH   2   3
ENDBRANCH   1   2
BRANCH   1   7
ATOM      7  C   UNL     1       7.665  12.448   8.060  1.00  0.00     0.000 C 
BRANCH   7   8
ATOM      8  C   UNL     1       8.931  11.764   7.521  1.00  0.00    -0.000 C 
BRANCH   8   9
ATOM      9  C   UNL     1       8.618  10.347   7.026  1.00  0.00    -0.003 C 
ATOM     10  C   UNL     1       9.601   9.912   5.942  1.00  0.00     0.004 C 
ENDBRANCH   8   9
ENDBRANCH   7   8
ENDBRANCH   1   7
TORSDOF 6
ENDMDL
MODEL 7
REMARK VINA RESULT:    -2.762      1.725      3.876
REMARK INTER + INTRA:          -4.261
REMARK INTER:                  -3.666
REMARK INTRA:                  -0.595
REMARK UNBOUND:                -0.530
REMARK SMILES CCCCCCCC(=O)[O-]
REMARK SMILES IDX 5 1 6 2 7 3 8 4 9 5 10 6 4 7 3 8 2 9 1 10
REMARK H PARENT
REMARK Flexibility Score: inf
ROOT
ATOM      1  C   UNL     1       5.975  10.234   8.344  1.00  0.00     0.000 C 
ENDROOT
BRANCH   1   2
ATOM      2  C   UNL     1       6.929   9.441   7.440  1.00  0.00     0.006 C 
BRANCH   2   3
ATOM      3  C   UNL     1       8.237  10.207   7.219  1.00  0.00     0.053 C 
BRANCH   3   4
ATOM      4  C   UNL     1       9.013  10.297   8.495  1.00  0.00     0.041 C 
ATOM      5  O   UNL     1       9.261   9.257   9.161  1.00  0.00    -0.550 OA
ATOM      6  O   UNL     1       9.421  11.535   8.975  1.00  0.00    -0.550 OA
ENDBRANCH   3   4
ENDBRANCH   2   3
ENDBRANCH   1   2
BRANCH   1   7
ATOM      7  C   UNL     1       4.883  10.972   7.553  1.00  0.00     0.000 C 
BRANCH   7   8
ATOM      8  C   UNL     1       4.791  12.461   7.920  1.00  0.00    -0.000 C 
BRANCH   8   9
ATOM      9  C   UNL     1       6.090  12.945   8.576  1.00  0.00    -0.003 C 
ATOM     10  C   UNL     1       6.972  13.683   7.572  1.00  0.00     0.004 C 
ENDBRANCH   8   9
ENDBRANCH   7   8
ENDBRANCH   1   7
TORSDOF 6
ENDMDL
MODEL 8
REMARK VINA RESULT:    -2.752      1.857      2.544
REMARK INTER + INTRA:          -4.247
REMARK INTER:                  -3.768
REMARK INTRA:                  -0.479
REMARK UNBOUND:                -0.530
REMARK SMILES CCCCCCCC(=O)[O-]
REMARK SMILES IDX 5 1 6 2 7 3 8 4 9 5 10 6 4 7 3 8 2 9 1 10
REMARK H PARENT
REMARK Flexibility Score: inf
ROOT
ATOM      1  C   UNL     1       7.743  10.265   7.261  1.00  0.00     0.000 C 
ENDROOT
BRANCH   1   2
ATOM      2  C   UNL     1       8.739  11.299   7.805  1.00  0.00     0.006 C 
BRANCH   2   3
ATOM      3  C   UNL     1       9.173  10.944   9.230  1.00  0.00     0.053 C 
BRANCH   3   4
ATOM      4  C   UNL     1       8.320  11.657  10.231  1.00  0.00     0.041 C 
ATOM      5  O   UNL     1       8.194  12.910  10.178  1.00  0.00    -0.550 OA
ATOM      6  O   UNL     1       7.704  10.947  11.253  1.00  0.00    -0.550 OA
ENDBRANCH   3   4
ENDBRANCH   2   3
ENDBRANCH   1   2
BRANCH   1   7
ATOM      7  C   UNL     1       8.417   9.198   6.382  1.00  0.00     0.000 C 
BRANCH   7   8
ATOM      8  C   UNL     1       9.674   9.724   5.672  1.00  0.00    -0.000 C 
BRANCH   8   9
ATOM      9  C   UNL     1      10.846   8.749   5.843  1.00  0.00    -0.003 C 
ATOM     10  C   UNL     1      10.689   7.914   7.111  1.00  0.00     0.004 C 
ENDBRANCH   8   9
ENDBRANCH   7   8
ENDBRANCH   1   7
TORSDOF 6
ENDMDL
MODEL 9
REMARK VINA RESULT:    -2.686      2.428      4.946
REMARK INTER + INTRA:          -4.158
REMARK INTER:                  -3.883
REMARK INTRA:                  -0.275
REMARK UNBOUND:                -0.530
REMARK SMILES CCCCCCCC(=O)[O-]
REMARK SMILES IDX 5 1 6 2 7 3 8 4 9 5 10 6 4 7 3 8 2 9 1 10
REMARK H PARENT
REMARK Flexibility Score: inf
ROOT
ATOM      1  C   UNL     1       6.513  13.677   7.577  1.00  0.00     0.000 C 
ENDROOT
BRANCH   1   2
ATOM      2  C   UNL     1       7.894  13.015   7.689  1.00  0.00     0.006 C 
BRANCH   2   3
ATOM      3  C   UNL     1       7.765  11.492   7.786  1.00  0.00     0.053 C 
BRANCH   3   4
ATOM      4  C   UNL     1       8.918  10.916   8.544  1.00  0.00     0.041 C 
ATOM      5  O   UNL     1       9.344   9.762   8.270  1.00  0.00    -0.550 OA
ATOM      6  O   UNL     1       9.493  11.631   9.587  1.00  0.00    -0.550 OA
ENDBRANCH   3   4
ENDBRANCH   2   3
ENDBRANCH   1   2
BRANCH   1   7
ATOM      7  C   UNL     1       5.364  12.710   7.905  1.00  0.00     0.000 C 
BRANCH   7   8
ATOM      8  C   UNL     1       3.986  13.284   7.542  1.00  0.00    -0.000 C 
BRANCH   8   9
ATOM      9  C   UNL     1       4.104  14.745   7.088  1.00  0.00    -0.003 C 
ATOM     10  C   UNL     1       2.955  15.128   6.159  1.00  0.00     0.004 C 
ENDBRANCH   8   9
ENDBRANCH   7   8
ENDBRANCH   1   7
TORSDOF 6
ENDMDL
