MODEL 1
REMARK VINA RESULT:    -4.896      0.000      0.000
REMARK INTER + INTRA:          -7.134
REMARK INTER:                  -6.613
REMARK INTRA:                  -0.521
REMARK UNBOUND:                -0.521
REMARK SMILES CC(=O)CCC=C(C)CCC=C(C)C
REMARK SMILES IDX 7 1 6 2 8 3 9 4 10 5 11 6 13 7 12 8 14 9 5 10 4 11 2 12 3 13
REMARK SMILES IDX 1 14
REMARK H PARENT
REMARK Flexibility Score: inf
ROOT
ATOM      1  C   UNL     1      20.223  24.808  27.699  1.00  0.00    -0.077 C 
ATOM      2  C   UNL     1      20.972  24.055  26.863  1.00  0.00    -0.028 C 
ATOM      3  C   UNL     1      18.844  25.295  27.316  1.00  0.00     0.039 C 
ENDROOT
BRANCH   1   4
ATOM      4  C   UNL     1      20.771  25.156  29.069  1.00  0.00     0.034 C 
BRANCH   4   5
ATOM      5  C   UNL     1      21.098  26.651  29.191  1.00  0.00     0.032 C 
BRANCH   5   6
ATOM      6  C   UNL     1      22.215  27.058  28.259  1.00  0.00    -0.028 C 
ATOM      7  C   UNL     1      24.043  28.445  27.384  1.00  0.00     0.039 C 
ATOM      8  C   UNL     1      22.922  28.204  28.363  1.00  0.00    -0.080 C 
ATOM      9  C   UNL     1      22.611  29.247  29.410  1.00  0.00     0.039 C 
ENDBRANCH   5   6
ENDBRANCH   4   5
ENDBRANCH   1   4
BRANCH   2  10
ATOM     10  C   UNL     1      20.562  23.660  25.464  1.00  0.00     0.035 C 
BRANCH  10  11
ATOM     11  C   UNL     1      21.428  24.342  24.395  1.00  0.00     0.079 C 
BRANCH  11  12
ATOM     12  C   UNL     1      22.026  23.341  23.439  1.00  0.00     0.130 C 
ATOM     13  O   UNL     1      23.239  23.274  23.316  1.00  0.00    -0.300 OA
ATOM     14  C   UNL     1      21.159  22.431  22.620  1.00  0.00     0.087 C 
ENDBRANCH  11  12
ENDBRANCH  10  11
ENDBRANCH   2  10
TORSDOF 6
ENDMDL
MODEL 2
REMARK VINA RESULT:    -4.815      3.802      5.890
REMARK INTER + INTRA:          -7.024
REMARK INTER:                  -6.020
REMARK INTRA:                  -1.004
REMARK UNBOUND:                -0.521
REMARK SMILES CC(=O)CCC=C(C)CCC=C(C)C
REMARK SMILES IDX 7 1 6 2 8 3 9 4 10 5 11 6 13 7 12 8 14 9 5 10 4 11 2 12 3 13
REMARK SMILES IDX 1 14
REMARK H PARENT
REMARK Flexibility Score: inf
ROOT
ATOM      1  C   UNL     1      18.246  26.332  28.087  1.00  0.00    -0.077 C 
ATOM      2  C   UNL     1      17.328  25.346  28.203  1.00  0.00    -0.028 C 
ATOM      3  C   UNL     1      17.975  27.585  27.287  1.00  0.00     0.039 C 
ENDROOT
BRANCH   1   4
ATOM      4  C   UNL     1      19.576  26.187  28.798  1.00  0.00     0.034 C 
BRANCH   4   5
ATOM      5  C   UNL     1      20.197  24.801  28.574  1.00  0.00     0.032 C 
BRANCH   5   6
ATOM      6  C   UNL     1      20.861  24.696  27.221  1.00  0.00    -0.028 C 
ATOM      7  C   UNL     1      21.168  23.957  24.900  1.00  0.00     0.039 C 
ATOM      8  C   UNL     1      20.425  23.914  26.210  1.00  0.00    -0.080 C 
ATOM      9  C   UNL     1      19.237  22.995  26.362  1.00  0.00     0.039 C 
ENDBRANCH   5   6
ENDBRANCH   4   5
ENDBRANCH   1   4
BRANCH   2  10
ATOM     10  C   UNL     1      15.977  25.347  27.527  1.00  0.00     0.035 C 
BRANCH  10  11
ATOM     11  C   UNL     1      15.658  23.995  26.873  1.00  0.00     0.079 C 
BRANCH  11  12
ATOM     12  C   UNL     1      14.794  23.135  27.761  1.00  0.00     0.130 C 
ATOM     13  O   UNL     1      14.013  23.664  28.537  1.00  0.00    -0.300 OA
ATOM     14  C   UNL     1      14.883  21.638  27.723  1.00  0.00     0.087 C 
ENDBRANCH  11  12
ENDBRANCH  10  11
ENDBRANCH   2  10
TORSDOF 6
ENDMDL
MODEL 3
REMARK VINA RESULT:    -4.763      2.671      5.572
REMARK INTER + INTRA:          -6.954
REMARK INTER:                  -6.264
REMARK INTRA:                  -0.690
REMARK UNBOUND:                -0.521
REMARK SMILES CC(=O)CCC=C(C)CCC=C(C)C
REMARK SMILES IDX 7 1 6 2 8 3 9 4 10 5 11 6 13 7 12 8 14 9 5 10 4 11 2 12 3 13
REMARK SMILES IDX 1 14
REMARK H PARENT
REMARK Flexibility Score: inf
ROOT
ATOM      1  C   UNL     1      18.689  25.624  27.926  1.00  0.00    -0.077 C 
ATOM      2  C   UNL     1      19.202  24.650  27.140  1.00  0.00    -0.028 C 
ATOM      3  C   UNL     1      19.418  26.926  28.163  1.00  0.00     0.039 C 
ENDROOT
BRANCH   1   4
ATOM      4  C   UNL     1      17.333  25.414  28.570  1.00  0.00     0.034 C 
BRANCH   4   5
ATOM      5  C   UNL     1      16.213  25.315  27.525  1.00  0.00     0.032 C 
BRANCH   5   6
ATOM      6  C   UNL     1      15.351  24.092  27.740  1.00  0.00    -0.028 C 
ATOM      7  C   UNL     1      14.530  21.807  27.375  1.00  0.00     0.039 C 
ATOM      8  C   UNL     1      15.423  22.963  27.004  1.00  0.00    -0.080 C 
ATOM      9  C   UNL     1      16.352  22.835  25.819  1.00  0.00     0.039 C 
ENDBRANCH   5   6
ENDBRANCH   4   5
ENDBRANCH   1   4
BRANCH   2  10
ATOM     10  C   UNL     1      20.550  24.716  26.463  1.00  0.00     0.035 C 
BRANCH  10  11
ATOM     11  C   UNL     1      20.736  23.590  25.436  1.00  0.00     0.079 C 
BRANCH  11  12
ATOM     12  C   UNL     1      21.537  24.048  24.244  1.00  0.00     0.130 C 
ATOM     13  O   UNL     1      21.683  25.243  24.037  1.00  0.00    -0.300 OA
ATOM     14  C   UNL     1      22.152  23.063  23.293  1.00  0.00     0.087 C 
ENDBRANCH  11  12
ENDBRANCH  10  11
ENDBRANCH   2  10
TORSDOF 6
ENDMDL
MODEL 4
REMARK VINA RESULT:    -4.736      3.532      6.714
REMARK INTER + INTRA:          -6.918
REMARK INTER:                  -5.923
REMARK INTRA:                  -0.995
REMARK UNBOUND:                -0.521
REMARK SMILES CC(=O)CCC=C(C)CCC=C(C)C
REMARK SMILES IDX 7 1 6 2 8 3 9 4 10 5 11 6 13 7 12 8 14 9 5 10 4 11 2 12 3 13
REMARK SMILES IDX 1 14
REMARK H PARENT
REMARK Flexibility Score: inf
ROOT
ATOM      1  C   UNL     1      17.598  25.991  27.767  1.00  0.00    -0.077 C 
ATOM      2  C   UNL     1      18.293  24.871  27.463  1.00  0.00    -0.028 C 
ATOM      3  C   UNL     1      18.104  27.367  27.405  1.00  0.00     0.039 C 
ENDROOT
BRANCH   1   4
ATOM      4  C   UNL     1      16.262  25.860  28.471  1.00  0.00     0.034 C 
BRANCH   4   5
ATOM      5  C   UNL     1      15.177  25.302  27.539  1.00  0.00     0.032 C 
BRANCH   5   6
ATOM      6  C   UNL     1      14.804  23.883  27.900  1.00  0.00    -0.028 C 
ATOM      7  C   UNL     1      14.659  21.445  27.643  1.00  0.00     0.039 C 
ATOM      8  C   UNL     1      15.045  22.805  27.122  1.00  0.00    -0.080 C 
ATOM      9  C   UNL     1      15.667  22.928  25.751  1.00  0.00     0.039 C 
ENDBRANCH   5   6
ENDBRANCH   4   5
ENDBRANCH   1   4
BRANCH   2  10
ATOM     10  C   UNL     1      19.645  24.857  26.791  1.00  0.00     0.035 C 
BRANCH  10  11
ATOM     11  C   UNL     1      20.747  24.332  27.722  1.00  0.00     0.079 C 
BRANCH  11  12
ATOM     12  C   UNL     1      21.151  25.363  28.746  1.00  0.00     0.130 C 
ATOM     13  O   UNL     1      20.842  25.203  29.917  1.00  0.00    -0.300 OA
ATOM     14  C   UNL     1      21.915  26.593  28.356  1.00  0.00     0.087 C 
ENDBRANCH  11  12
ENDBRANCH  10  11
ENDBRANCH   2  10
TORSDOF 6
ENDMDL
MODEL 5
REMARK VINA RESULT:    -4.694      2.929      5.935
REMARK INTER + INTRA:          -6.862
REMARK INTER:                  -5.960
REMARK INTRA:                  -0.901
REMARK UNBOUND:                -0.521
REMARK SMILES CC(=O)CCC=C(C)CCC=C(C)C
REMARK SMILES IDX 7 1 6 2 8 3 9 4 10 5 11 6 13 7 12 8 14 9 5 10 4 11 2 12 3 13
REMARK SMILES IDX 1 14
REMARK H PARENT
REMARK Flexibility Score: inf
ROOT
ATOM      1  C   UNL     1      17.823  26.424  28.352  1.00  0.00    -0.077 C 
ATOM      2  C   UNL     1      18.840  25.603  28.696  1.00  0.00    -0.028 C 
ATOM      3  C   UNL     1      18.001  27.538  27.346  1.00  0.00     0.039 C 
ENDROOT
BRANCH   1   4
ATOM      4  C   UNL     1      16.458  26.208  28.975  1.00  0.00     0.034 C 
BRANCH   4   5
ATOM      5  C   UNL     1      15.949  24.776  28.754  1.00  0.00     0.032 C 
BRANCH   5   6
ATOM      6  C   UNL     1      15.810  24.452  27.285  1.00  0.00    -0.028 C 
ATOM      7  C   UNL     1      15.231  23.120  25.304  1.00  0.00     0.039 C 
ATOM      8  C   UNL     1      15.362  23.274  26.798  1.00  0.00    -0.080 C 
ATOM      9  C   UNL     1      15.012  22.114  27.700  1.00  0.00     0.039 C 
ENDBRANCH   5   6
ENDBRANCH   4   5
ENDBRANCH   1   4
BRANCH   2  10
ATOM     10  C   UNL     1      20.253  25.723  28.176  1.00  0.00     0.035 C 
BRANCH  10  11
ATOM     11  C   UNL     1      20.843  24.360  27.787  1.00  0.00     0.079 C 
BRANCH  11  12
ATOM     12  C   UNL     1      20.373  23.916  26.425  1.00  0.00     0.130 C 
ATOM     13  O   UNL     1      20.977  24.284  25.429  1.00  0.00    -0.300 OA
ATOM     14  C   UNL     1      19.167  23.039  26.263  1.00  0.00     0.087 C 
ENDBRANCH  11  12
ENDBRANCH  10  11
ENDBRANCH   2  10
TORSDOF 6
ENDMDL
MODEL 6
REMARK VINA RESULT:    -4.688      2.710      5.653
REMARK INTER + INTRA:          -6.853
REMARK INTER:                  -6.091
REMARK INTRA:                  -0.762
REMARK UNBOUND:                -0.521
REMARK SMILES CC(=O)CCC=C(C)CCC=C(C)C
REMARK SMILES IDX 7 1 6 2 8 3 9 4 10 5 11 6 13 7 12 8 14 9 5 10 4 11 2 12 3 13
REMARK SMILES IDX 1 14
REMARK H PARENT
REMARK Flexibility Score: inf
ROOT
ATOM      1  C   UNL     1      19.264  28.637  28.382  1.00  0.00    -0.077 C 
ATOM      2  C   UNL     1      20.542  28.212  28.505  1.00  0.00    -0.028 C 
ATOM      3  C   UNL     1      18.880  30.084  28.584  1.00  0.00     0.039 C 
ENDROOT
BRANCH   1   4
ATOM      4  C   UNL     1      18.188  27.636  28.007  1.00  0.00     0.034 C 
BRANCH   4   5
ATOM      5  C   UNL     1      18.447  26.258  28.634  1.00  0.00     0.032 C 
BRANCH   5   6
ATOM      6  C   UNL     1      18.613  25.187  27.582  1.00  0.00    -0.028 C 
ATOM      7  C   UNL     1      19.729  23.387  26.339  1.00  0.00     0.039 C 
ATOM      8  C   UNL     1      19.735  24.457  27.400  1.00  0.00    -0.080 C 
ATOM      9  C   UNL     1      20.987  24.695  28.211  1.00  0.00     0.039 C 
ENDBRANCH   5   6
ENDBRANCH   4   5
ENDBRANCH   1   4
BRANCH   2  10
ATOM     10  C   UNL     1      21.704  29.093  28.900  1.00  0.00     0.035 C 
BRANCH  10  11
ATOM     11  C   UNL     1      22.800  28.308  29.632  1.00  0.00     0.079 C 
BRANCH  11  12
ATOM     12  C   UNL     1      23.886  27.854  28.690  1.00  0.00     0.130 C 
ATOM     13  O   UNL     1      24.774  27.121  29.101  1.00  0.00    -0.300 OA
ATOM     14  C   UNL     1      23.909  28.293  27.256  1.00  0.00     0.087 C 
ENDBRANCH  11  12
ENDBRANCH  10  11
ENDBRANCH   2  10
TORSDOF 6
ENDMDL
MODEL 7
REMARK VINA RESULT:    -4.653      3.351      4.854
REMARK INTER + INTRA:          -6.807
REMARK INTER:                  -5.907
REMARK INTRA:                  -0.899
REMARK UNBOUND:                -0.521
REMARK SMILES CC(=O)CCC=C(C)CCC=C(C)C
REMARK SMILES IDX 7 1 6 2 8 3 9 4 10 5 11 6 13 7 12 8 14 9 5 10 4 11 2 12 3 13
REMARK SMILES IDX 1 14
REMARK H PARENT
REMARK Flexibility Score: inf
ROOT
ATOM      1  C   UNL     1      20.072  23.759  26.515  1.00  0.00    -0.077 C 
ATOM      2  C   UNL     1      18.852  23.229  26.759  1.00  0.00    -0.028 C 
ATOM      3  C   UNL     1      20.772  23.573  25.189  1.00  0.00     0.039 C 
ENDROOT
BRANCH   1   4
ATOM      4  C   UNL     1      20.748  24.582  27.594  1.00  0.00     0.034 C 
BRANCH   4   5
ATOM      5  C   UNL     1      19.731  25.184  28.574  1.00  0.00     0.032 C 
BRANCH   5   6
ATOM      6  C   UNL     1      19.827  26.690  28.627  1.00  0.00    -0.028 C 
ATOM      7  C   UNL     1      19.099  29.018  28.338  1.00  0.00     0.039 C 
ATOM      8  C   UNL     1      18.880  27.537  28.168  1.00  0.00    -0.080 C 
ATOM      9  C   UNL     1      17.630  27.044  27.479  1.00  0.00     0.039 C 
ENDBRANCH   5   6
ENDBRANCH   4   5
ENDBRANCH   1   4
BRANCH   2  10
ATOM     10  C   UNL     1      18.081  22.368  25.788  1.00  0.00     0.035 C 
BRANCH  10  11
ATOM     11  C   UNL     1      16.637  22.856  25.603  1.00  0.00     0.079 C 
BRANCH  11  12
ATOM     12  C   UNL     1      15.868  22.832  26.900  1.00  0.00     0.130 C 
ATOM     13  O   UNL     1      15.657  21.765  27.456  1.00  0.00    -0.300 OA
ATOM     14  C   UNL     1      15.343  24.093  27.519  1.00  0.00     0.087 C 
ENDBRANCH  11  12
ENDBRANCH  10  11
ENDBRANCH   2  10
TORSDOF 6
ENDMDL
MODEL 8
REMARK VINA RESULT:    -4.600      4.269      5.269
REMARK INTER + INTRA:          -6.735
REMARK INTER:                  -6.094
REMARK INTRA:                  -0.642
REMARK UNBOUND:                -0.521
REMARK SMILES CC(=O)CCC=C(C)CCC=C(C)C
REMARK SMILES IDX 7 1 6 2 8 3 9 4 10 5 11 6 13 7 12 8 14 9 5 10 4 11 2 12 3 13
REMARK SMILES IDX 1 14
REMARK H PARENT
REMARK Flexibility Score: inf
ROOT
ATOM      1  C   UNL     1      18.429  27.921  28.528  1.00  0.00    -0.077 C 
ATOM      2  C   UNL     1      19.391  26.980  28.397  1.00  0.00    -0.028 C 
ATOM      3  C   UNL     1      17.007  27.563  28.893  1.00  0.00     0.039 C 
ENDROOT
BRANCH   1   4
ATOM      4  C   UNL     1      18.791  29.379  28.327  1.00  0.00     0.034 C 
BRANCH   4   5
ATOM      5  C   UNL     1      18.531  30.212  29.590  1.00  0.00     0.032 C 
BRANCH   5   6
ATOM      6  C   UNL     1      17.971  31.575  29.256  1.00  0.00    -0.028 C 
ATOM      7  C   UNL     1      16.269  33.330  29.028  1.00  0.00     0.039 C 
ATOM      8  C   UNL     1      16.666  31.912  29.348  1.00  0.00    -0.080 C 
ATOM      9  C   UNL     1      15.604  30.912  29.739  1.00  0.00     0.039 C 
ENDBRANCH   5   6
ENDBRANCH   4   5
ENDBRANCH   1   4
BRANCH   2  10
ATOM     10  C   UNL     1      19.163  25.494  28.541  1.00  0.00     0.035 C 
BRANCH  10  11
ATOM     11  C   UNL     1      19.189  24.772  27.187  1.00  0.00     0.079 C 
BRANCH  11  12
ATOM     12  C   UNL     1      20.554  24.210  26.878  1.00  0.00     0.130 C 
ATOM     13  O   UNL     1      21.371  24.082  27.778  1.00  0.00    -0.300 OA
ATOM     14  C   UNL     1      20.938  23.816  25.483  1.00  0.00     0.087 C 
ENDBRANCH  11  12
ENDBRANCH  10  11
ENDBRANCH   2  10
TORSDOF 6
ENDMDL
MODEL 9
REMARK VINA RESULT:    -4.565      4.952      7.855
REMARK INTER + INTRA:          -6.688
REMARK INTER:                  -6.070
REMARK INTRA:                  -0.618
REMARK UNBOUND:                -0.521
REMARK SMILES CC(=O)CCC=C(C)CCC=C(C)C
REMARK SMILES IDX 7 1 6 2 8 3 9 4 10 5 11 6 13 7 12 8 14 9 5 10 4 11 2 12 3 13
REMARK SMILES IDX 1 14
REMARK H PARENT
REMARK Flexibility Score: inf
ROOT
ATOM      1  C   UNL     1      19.095  28.703  28.395  1.00  0.00    -0.077 C 
ATOM      2  C   UNL     1      18.528  29.884  28.733  1.00  0.00    -0.028 C 
ATOM      3  C   UNL     1      20.549  28.406  28.677  1.00  0.00     0.039 C 
ENDROOT
BRANCH   1   4
ATOM      4  C   UNL     1      18.241  27.638  27.736  1.00  0.00     0.034 C 
BRANCH   4   5
ATOM      5  C   UNL     1      18.564  26.235  28.270  1.00  0.00     0.032 C 
BRANCH   5   6
ATOM      6  C   UNL     1      18.982  25.297  27.162  1.00  0.00    -0.028 C 
ATOM      7  C   UNL     1      20.400  23.678  25.980  1.00  0.00     0.039 C 
ATOM      8  C   UNL     1      20.149  24.618  27.130  1.00  0.00    -0.080 C 
ATOM      9  C   UNL     1      21.206  24.790  28.195  1.00  0.00     0.039 C 
ENDBRANCH   5   6
ENDBRANCH   4   5
ENDBRANCH   1   4
BRANCH   2  10
ATOM     10  C   UNL     1      19.266  31.039  29.367  1.00  0.00     0.035 C 
BRANCH  10  11
ATOM     11  C   UNL     1      18.340  31.919  30.218  1.00  0.00     0.079 C 
BRANCH  11  12
ATOM     12  C   UNL     1      17.757  33.055  29.417  1.00  0.00     0.130 C 
ATOM     13  O   UNL     1      18.472  33.988  29.084  1.00  0.00    -0.300 OA
ATOM     14  C   UNL     1      16.308  33.073  29.028  1.00  0.00     0.087 C 
ENDBRANCH  11  12
ENDBRANCH  10  11
ENDBRANCH   2  10
TORSDOF 6
ENDMDL
