MODEL 1
REMARK VINA RESULT:    -5.560      0.000      0.000
REMARK INTER + INTRA:         -12.507
REMARK INTER:                 -10.110
REMARK INTRA:                  -2.398
REMARK UNBOUND:                -2.398
REMARK SMILES CCCCCCCCCCCCCC[C@H](C)C(=O)[O-]
REMARK SMILES IDX 9 1 10 2 11 3 12 4 13 5 14 6 15 7 16 8 17 9 18 10 19 11 8 12
REMARK SMILES IDX 7 13 6 14 5 15 4 16 3 17 2 18 1 19
REMARK H PARENT
REMARK Flexibility Score: inf
ROOT
ATOM      1  C   UNL     1      19.752  -6.905  35.156  1.00  0.00     0.000 C 
ENDROOT
BRANCH   1   2
ATOM      2  C   UNL     1      18.616  -7.151  36.173  1.00  0.00     0.000 C 
BRANCH   2   3
ATOM      3  C   UNL     1      18.271  -5.916  37.028  1.00  0.00     0.000 C 
BRANCH   3   4
ATOM      4  C   UNL     1      17.544  -4.789  36.271  1.00  0.00     0.000 C 
BRANCH   4   5
ATOM      5  C   UNL     1      16.158  -5.169  35.711  1.00  0.00     0.001 C 
BRANCH   5   6
ATOM      6  C   UNL     1      16.019  -5.081  34.178  1.00  0.00     0.009 C 
BRANCH   6   7
ATOM      7  C   UNL     1      15.477  -6.357  33.494  1.00  0.00     0.032 C 
ATOM      8  C   UNL     1      15.773  -7.625  34.307  1.00  0.00     0.014 C 
BRANCH   7   9
ATOM      9  C   UNL     1      16.078  -6.484  32.122  1.00  0.00     0.044 C 
ATOM     10  O   UNL     1      16.220  -7.620  31.595  1.00  0.00    -0.550 OA
ATOM     11  O   UNL     1      16.468  -5.351  31.417  1.00  0.00    -0.550 OA
ENDBRANCH   7   9
ENDBRANCH   6   7
ENDBRANCH   5   6
ENDBRANCH   4   5
ENDBRANCH   3   4
ENDBRANCH   2   3
ENDBRANCH   1   2
BRANCH   1  12
ATOM     12  C   UNL     1      19.284  -7.076  33.701  1.00  0.00     0.000 C 
BRANCH  12  13
ATOM     13  C   UNL     1      19.898  -6.030  32.757  1.00  0.00    -0.000 C 
BRANCH  13  14
ATOM     14  C   UNL     1      19.450  -4.597  33.093  1.00  0.00    -0.000 C 
BRANCH  14  15
ATOM     15  C   UNL     1      20.604  -3.710  33.595  1.00  0.00    -0.000 C 
BRANCH  15  16
ATOM     16  C   UNL     1      20.307  -2.927  34.887  1.00  0.00    -0.000 C 
BRANCH  16  17
ATOM     17  C   UNL     1      19.007  -2.108  34.805  1.00  0.00    -0.000 C 
BRANCH  17  18
ATOM     18  C   UNL     1      18.840  -1.149  35.994  1.00  0.00    -0.003 C 
ATOM     19  C   UNL     1      20.025  -0.197  36.158  1.00  0.00     0.004 C 
ENDBRANCH  17  18
ENDBRANCH  16  17
ENDBRANCH  15  16
ENDBRANCH  14  15
ENDBRANCH  13  14
ENDBRANCH  12  13
ENDBRANCH   1  12
TORSDOF 14
ENDMDL
MODEL 2
REMARK VINA RESULT:    -5.455      2.707      5.697
REMARK INTER + INTRA:         -12.317
REMARK INTER:                  -9.584
REMARK INTRA:                  -2.732
REMARK UNBOUND:                -2.398
REMARK SMILES CCCCCCCCCCCCCC[C@H](C)C(=O)[O-]
REMARK SMILES IDX 9 1 10 2 11 3 12 4 13 5 14 6 15 7 16 8 17 9 18 10 19 11 8 12
REMARK SMILES IDX 7 13 6 14 5 15 4 16 3 17 2 18 1 19
REMARK H PARENT
REMARK Flexibility Score: inf
ROOT
ATOM      1  C   UNL     1      18.989  -7.523  34.603  1.00  0.00     0.000 C 
ENDROOT
BRANCH   1   2
ATOM      2  C   UNL     1      19.559  -6.986  33.272  1.00  0.00     0.000 C 
BRANCH   2   3
ATOM      3  C   UNL     1      19.393  -5.465  33.096  1.00  0.00     0.000 C 
BRANCH   3   4
ATOM      4  C   UNL     1      20.701  -4.699  32.824  1.00  0.00     0.000 C 
BRANCH   4   5
ATOM      5  C   UNL     1      20.828  -3.346  33.554  1.00  0.00     0.001 C 
BRANCH   5   6
ATOM      6  C   UNL     1      20.158  -3.280  34.941  1.00  0.00     0.009 C 
BRANCH   6   7
ATOM      7  C   UNL     1      18.945  -2.327  35.037  1.00  0.00     0.032 C 
ATOM      8  C   UNL     1      18.193  -2.202  33.705  1.00  0.00     0.014 C 
BRANCH   7   9
ATOM      9  C   UNL     1      19.409  -0.968  35.485  1.00  0.00     0.044 C 
ATOM     10  O   UNL     1      20.538  -0.831  36.027  1.00  0.00    -0.550 OA
ATOM     11  O   UNL     1      18.605   0.149  35.289  1.00  0.00    -0.550 OA
ENDBRANCH   7   9
ENDBRANCH   6   7
ENDBRANCH   5   6
ENDBRANCH   4   5
ENDBRANCH   3   4
ENDBRANCH   2   3
ENDBRANCH   1   2
BRANCH   1  12
ATOM     12  C   UNL     1      19.626  -6.850  35.830  1.00  0.00     0.000 C 
BRANCH  12  13
ATOM     13  C   UNL     1      18.606  -6.062  36.667  1.00  0.00    -0.000 C 
BRANCH  13  14
ATOM     14  C   UNL     1      17.165  -6.230  36.153  1.00  0.00    -0.000 C 
BRANCH  14  15
ATOM     15  C   UNL     1      16.553  -4.913  35.643  1.00  0.00    -0.000 C 
BRANCH  15  16
ATOM     16  C   UNL     1      15.897  -4.997  34.253  1.00  0.00    -0.000 C 
BRANCH  16  17
ATOM     17  C   UNL     1      15.555  -6.438  33.838  1.00  0.00    -0.000 C 
BRANCH  17  18
ATOM     18  C   UNL     1      15.949  -6.741  32.384  1.00  0.00    -0.003 C 
ATOM     19  C   UNL     1      16.316  -8.209  32.162  1.00  0.00     0.004 C 
ENDBRANCH  17  18
ENDBRANCH  16  17
ENDBRANCH  15  16
ENDBRANCH  14  15
ENDBRANCH  13  14
ENDBRANCH  12  13
ENDBRANCH   1  12
TORSDOF 14
ENDMDL
MODEL 3
REMARK VINA RESULT:    -5.198     18.634     20.762
REMARK INTER + INTRA:         -11.849
REMARK INTER:                  -9.559
REMARK INTRA:                  -2.291
REMARK UNBOUND:                -2.398
REMARK SMILES CCCCCCCCCCCCCC[C@H](C)C(=O)[O-]
REMARK SMILES IDX 9 1 10 2 11 3 12 4 13 5 14 6 15 7 16 8 17 9 18 10 19 11 8 12
REMARK SMILES IDX 7 13 6 14 5 15 4 16 3 17 2 18 1 19
REMARK H PARENT
REMARK Flexibility Score: inf
ROOT
ATOM      1  C   UNL     1       8.013   4.833  19.735  1.00  0.00     0.000 C 
ENDROOT
BRANCH   1   2
ATOM      2  C   UNL     1       8.070   5.446  18.318  1.00  0.00     0.000 C 
BRANCH   2   3
ATOM      3  C   UNL     1       8.844   6.776  18.250  1.00  0.00     0.000 C 
BRANCH   3   4
ATOM      4  C   UNL     1      10.216   6.690  17.556  1.00  0.00     0.000 C 
BRANCH   4   5
ATOM      5  C   UNL     1      11.302   7.614  18.143  1.00  0.00     0.001 C 
BRANCH   5   6
ATOM      6  C   UNL     1      12.246   6.954  19.168  1.00  0.00     0.009 C 
BRANCH   6   7
ATOM      7  C   UNL     1      12.169   7.535  20.598  1.00  0.00     0.032 C 
ATOM      8  C   UNL     1      10.871   8.319  20.841  1.00  0.00     0.014 C 
BRANCH   7   9
ATOM      9  C   UNL     1      13.353   8.430  20.841  1.00  0.00     0.044 C 
ATOM     10  O   UNL     1      14.022   8.873  19.870  1.00  0.00    -0.550 OA
ATOM     11  O   UNL     1      13.709   8.789  22.136  1.00  0.00    -0.550 OA
ENDBRANCH   7   9
ENDBRANCH   6   7
ENDBRANCH   5   6
ENDBRANCH   4   5
ENDBRANCH   3   4
ENDBRANCH   2   3
ENDBRANCH   1   2
BRANCH   1  12
ATOM     12  C   UNL     1       9.092   5.407  20.668  1.00  0.00     0.000 C 
BRANCH  12  13
ATOM     13  C   UNL     1      10.220   4.403  20.953  1.00  0.00    -0.000 C 
BRANCH  13  14
ATOM     14  C   UNL     1      10.211   3.212  19.978  1.00  0.00    -0.000 C 
BRANCH  14  15
ATOM     15  C   UNL     1      11.149   3.415  18.774  1.00  0.00    -0.000 C 
BRANCH  15  16
ATOM     16  C   UNL     1      10.684   2.746  17.468  1.00  0.00    -0.000 C 
BRANCH  16  17
ATOM     17  C   UNL     1       9.238   2.228  17.541  1.00  0.00    -0.000 C 
BRANCH  17  18
ATOM     18  C   UNL     1       9.151   0.702  17.392  1.00  0.00    -0.003 C 
ATOM     19  C   UNL     1       8.494   0.025  18.596  1.00  0.00     0.004 C 
ENDBRANCH  17  18
ENDBRANCH  16  17
ENDBRANCH  15  16
ENDBRANCH  14  15
ENDBRANCH  13  14
ENDBRANCH  12  13
ENDBRANCH   1  12
TORSDOF 14
ENDMDL
MODEL 4
REMARK VINA RESULT:    -5.113      1.403      2.721
REMARK INTER + INTRA:         -11.695
REMARK INTER:                  -9.540
REMARK INTRA:                  -2.155
REMARK UNBOUND:                -2.398
REMARK SMILES CCCCCCCCCCCCCC[C@H](C)C(=O)[O-]
REMARK SMILES IDX 9 1 10 2 11 3 12 4 13 5 14 6 15 7 16 8 17 9 18 10 19 11 8 12
REMARK SMILES IDX 7 13 6 14 5 15 4 16 3 17 2 18 1 19
REMARK H PARENT
REMARK Flexibility Score: inf
ROOT
ATOM      1  C   UNL     1      16.264  -5.591  35.573  1.00  0.00     0.000 C 
ENDROOT
BRANCH   1   2
ATOM      2  C   UNL     1      17.425  -5.116  36.476  1.00  0.00     0.000 C 
BRANCH   2   3
ATOM      3  C   UNL     1      18.663  -6.031  36.425  1.00  0.00     0.000 C 
BRANCH   3   4
ATOM      4  C   UNL     1      18.481  -7.320  35.602  1.00  0.00     0.000 C 
BRANCH   4   5
ATOM      5  C   UNL     1      19.364  -7.418  34.341  1.00  0.00     0.001 C 
BRANCH   5   6
ATOM      6  C   UNL     1      18.611  -7.315  32.999  1.00  0.00     0.009 C 
BRANCH   6   7
ATOM      7  C   UNL     1      17.645  -8.484  32.699  1.00  0.00     0.032 C 
ATOM      8  C   UNL     1      18.082  -9.303  31.476  1.00  0.00     0.014 C 
BRANCH   7   9
ATOM      9  C   UNL     1      16.259  -7.945  32.477  1.00  0.00     0.044 C 
ATOM     10  O   UNL     1      16.039  -7.126  31.546  1.00  0.00    -0.550 OA
ATOM     11  O   UNL     1      15.207  -8.357  33.287  1.00  0.00    -0.550 OA
ENDBRANCH   7   9
ENDBRANCH   6   7
ENDBRANCH   5   6
ENDBRANCH   4   5
ENDBRANCH   3   4
ENDBRANCH   2   3
ENDBRANCH   1   2
BRANCH   1  12
ATOM     12  C   UNL     1      15.868  -4.539  34.523  1.00  0.00     0.000 C 
BRANCH  12  13
ATOM     13  C   UNL     1      16.843  -4.496  33.336  1.00  0.00    -0.000 C 
BRANCH  13  14
ATOM     14  C   UNL     1      17.714  -3.227  33.333  1.00  0.00    -0.000 C 
BRANCH  14  15
ATOM     15  C   UNL     1      19.183  -3.508  33.697  1.00  0.00    -0.000 C 
BRANCH  15  16
ATOM     16  C   UNL     1      19.736  -2.670  34.865  1.00  0.00    -0.000 C 
BRANCH  16  17
ATOM     17  C   UNL     1      18.629  -2.000  35.697  1.00  0.00    -0.000 C 
BRANCH  17  18
ATOM     18  C   UNL     1      18.825  -0.481  35.821  1.00  0.00    -0.003 C 
ATOM     19  C   UNL     1      20.214  -0.103  36.337  1.00  0.00     0.004 C 
ENDBRANCH  17  18
ENDBRANCH  16  17
ENDBRANCH  15  16
ENDBRANCH  14  15
ENDBRANCH  13  14
ENDBRANCH  12  13
ENDBRANCH   1  12
TORSDOF 14
ENDMDL
MODEL 5
REMARK VINA RESULT:    -5.087      1.281      1.981
REMARK INTER + INTRA:         -11.648
REMARK INTER:                  -9.315
REMARK INTRA:                  -2.334
REMARK UNBOUND:                -2.398
REMARK SMILES CCCCCCCCCCCCCC[C@H](C)C(=O)[O-]
REMARK SMILES IDX 9 1 10 2 11 3 12 4 13 5 14 6 15 7 16 8 17 9 18 10 19 11 8 12
REMARK SMILES IDX 7 13 6 14 5 15 4 16 3 17 2 18 1 19
REMARK H PARENT
REMARK Flexibility Score: inf
ROOT
ATOM      1  C   UNL     1      19.436  -6.042  35.969  1.00  0.00     0.000 C 
ENDROOT
BRANCH   1   2
ATOM      2  C   UNL     1      18.068  -6.172  36.675  1.00  0.00     0.000 C 
BRANCH   2   3
ATOM      3  C   UNL     1      17.018  -5.160  36.180  1.00  0.00     0.000 C 
BRANCH   3   4
ATOM      4  C   UNL     1      16.143  -5.655  35.013  1.00  0.00     0.000 C 
BRANCH   4   5
ATOM      5  C   UNL     1      16.062  -7.188  34.864  1.00  0.00     0.001 C 
BRANCH   5   6
ATOM      6  C   UNL     1      15.528  -7.692  33.508  1.00  0.00     0.009 C 
BRANCH   6   7
ATOM      7  C   UNL     1      16.451  -7.418  32.299  1.00  0.00     0.032 C 
ATOM      8  C   UNL     1      15.975  -6.225  31.459  1.00  0.00     0.014 C 
BRANCH   7   9
ATOM      9  C   UNL     1      16.524  -8.647  31.435  1.00  0.00     0.044 C 
ATOM     10  O   UNL     1      17.519  -9.417  31.511  1.00  0.00    -0.550 OA
ATOM     11  O   UNL     1      15.489  -8.953  30.559  1.00  0.00    -0.550 OA
ENDBRANCH   7   9
ENDBRANCH   6   7
ENDBRANCH   5   6
ENDBRANCH   4   5
ENDBRANCH   3   4
ENDBRANCH   2   3
ENDBRANCH   1   2
BRANCH   1  12
ATOM     12  C   UNL     1      19.569  -6.991  34.766  1.00  0.00     0.000 C 
BRANCH  12  13
ATOM     13  C   UNL     1      19.645  -6.240  33.428  1.00  0.00    -0.000 C 
BRANCH  13  14
ATOM     14  C   UNL     1      19.735  -4.714  33.611  1.00  0.00    -0.000 C 
BRANCH  14  15
ATOM     15  C   UNL     1      18.531  -3.966  33.010  1.00  0.00    -0.000 C 
BRANCH  15  16
ATOM     16  C   UNL     1      18.107  -2.698  33.773  1.00  0.00    -0.000 C 
BRANCH  16  17
ATOM     17  C   UNL     1      19.033  -2.373  34.958  1.00  0.00    -0.000 C 
BRANCH  17  18
ATOM     18  C   UNL     1      18.923  -0.908  35.406  1.00  0.00    -0.003 C 
ATOM     19  C   UNL     1      20.170  -0.418  36.143  1.00  0.00     0.004 C 
ENDBRANCH  17  18
ENDBRANCH  16  17
ENDBRANCH  15  16
ENDBRANCH  14  15
ENDBRANCH  13  14
ENDBRANCH  12  13
ENDBRANCH   1  12
TORSDOF 14
ENDMDL
MODEL 6
REMARK VINA RESULT:    -4.829     18.625     20.179
REMARK INTER + INTRA:         -11.179
REMARK INTER:                  -9.298
REMARK INTRA:                  -1.881
REMARK UNBOUND:                -2.398
REMARK SMILES CCCCCCCCCCCCCC[C@H](C)C(=O)[O-]
REMARK SMILES IDX 9 1 10 2 11 3 12 4 13 5 14 6 15 7 16 8 17 9 18 10 19 11 8 12
REMARK SMILES IDX 7 13 6 14 5 15 4 16 3 17 2 18 1 19
REMARK H PARENT
REMARK Flexibility Score: inf
ROOT
ATOM      1  C   UNL     1       8.374   6.404  18.024  1.00  0.00     0.000 C 
ENDROOT
BRANCH   1   2
ATOM      2  C   UNL     1       8.209   5.198  18.975  1.00  0.00     0.000 C 
BRANCH   2   3
ATOM      3  C   UNL     1       8.654   5.484  20.422  1.00  0.00     0.000 C 
BRANCH   3   4
ATOM      4  C   UNL     1       9.920   4.730  20.870  1.00  0.00     0.000 C 
BRANCH   4   5
ATOM      5  C   UNL     1      10.545   3.812  19.799  1.00  0.00     0.001 C 
BRANCH   5   6
ATOM      6  C   UNL     1       9.967   2.384  19.736  1.00  0.00     0.009 C 
BRANCH   6   7
ATOM      7  C   UNL     1       9.935   1.753  18.326  1.00  0.00     0.032 C 
ATOM      8  C   UNL     1      10.358   2.744  17.232  1.00  0.00     0.014 C 
BRANCH   7   9
ATOM      9  C   UNL     1       8.551   1.241  18.036  1.00  0.00     0.044 C 
ATOM     10  O   UNL     1       8.380   0.310  17.204  1.00  0.00    -0.550 OA
ATOM     11  O   UNL     1       7.451   1.779  18.695  1.00  0.00    -0.550 OA
ENDBRANCH   7   9
ENDBRANCH   6   7
ENDBRANCH   5   6
ENDBRANCH   4   5
ENDBRANCH   3   4
ENDBRANCH   2   3
ENDBRANCH   1   2
BRANCH   1  12
ATOM     12  C   UNL     1       9.380   6.128  16.894  1.00  0.00     0.000 C 
BRANCH  12  13
ATOM     13  C   UNL     1      10.826   6.454  17.298  1.00  0.00    -0.000 C 
BRANCH  13  14
ATOM     14  C   UNL     1      10.905   7.566  18.359  1.00  0.00    -0.000 C 
BRANCH  14  15
ATOM     15  C   UNL     1      12.080   7.379  19.337  1.00  0.00    -0.000 C 
BRANCH  15  16
ATOM     16  C   UNL     1      13.277   8.318  19.102  1.00  0.00    -0.000 C 
BRANCH  16  17
ATOM     17  C   UNL     1      13.997   8.708  20.404  1.00  0.00    -0.000 C 
BRANCH  17  18
ATOM     18  C   UNL     1      13.076   8.631  21.631  1.00  0.00    -0.003 C 
ATOM     19  C   UNL     1      12.634  10.007  22.128  1.00  0.00     0.004 C 
ENDBRANCH  17  18
ENDBRANCH  16  17
ENDBRANCH  15  16
ENDBRANCH  14  15
ENDBRANCH  13  14
ENDBRANCH  12  13
ENDBRANCH   1  12
TORSDOF 14
ENDMDL
MODEL 7
REMARK VINA RESULT:    -4.802      2.816      5.232
REMARK INTER + INTRA:         -11.129
REMARK INTER:                  -8.933
REMARK INTRA:                  -2.197
REMARK UNBOUND:                -2.398
REMARK SMILES CCCCCCCCCCCCCC[C@H](C)C(=O)[O-]
REMARK SMILES IDX 9 1 10 2 11 3 12 4 13 5 14 6 15 7 16 8 17 9 18 10 19 11 8 12
REMARK SMILES IDX 7 13 6 14 5 15 4 16 3 17 2 18 1 19
REMARK H PARENT
REMARK Flexibility Score: inf
ROOT
ATOM      1  C   UNL     1      19.535  -6.407  34.157  1.00  0.00     0.000 C 
ENDROOT
BRANCH   1   2
ATOM      2  C   UNL     1      19.245  -7.290  35.391  1.00  0.00     0.000 C 
BRANCH   2   3
ATOM      3  C   UNL     1      18.036  -6.819  36.220  1.00  0.00     0.000 C 
BRANCH   3   4
ATOM      4  C   UNL     1      18.193  -5.425  36.857  1.00  0.00     0.000 C 
BRANCH   4   5
ATOM      5  C   UNL     1      17.544  -4.271  36.067  1.00  0.00     0.001 C 
BRANCH   5   6
ATOM      6  C   UNL     1      18.123  -2.870  36.351  1.00  0.00     0.009 C 
BRANCH   6   7
ATOM      7  C   UNL     1      18.857  -2.211  35.160  1.00  0.00     0.032 C 
ATOM      8  C   UNL     1      20.064  -3.034  34.691  1.00  0.00     0.014 C 
BRANCH   7   9
ATOM      9  C   UNL     1      19.306  -0.830  35.550  1.00  0.00     0.044 C 
ATOM     10  O   UNL     1      20.408  -0.665  36.139  1.00  0.00    -0.550 OA
ATOM     11  O   UNL     1      18.519   0.276  35.251  1.00  0.00    -0.550 OA
ENDBRANCH   7   9
ENDBRANCH   6   7
ENDBRANCH   5   6
ENDBRANCH   4   5
ENDBRANCH   3   4
ENDBRANCH   2   3
ENDBRANCH   1   2
BRANCH   1  12
ATOM     12  C   UNL     1      19.378  -7.176  32.835  1.00  0.00     0.000 C 
BRANCH  12  13
ATOM     13  C   UNL     1      18.572  -8.474  32.999  1.00  0.00    -0.000 C 
BRANCH  13  14
ATOM     14  C   UNL     1      17.692  -8.782  31.774  1.00  0.00    -0.000 C 
BRANCH  14  15
ATOM     15  C   UNL     1      16.208  -8.441  32.002  1.00  0.00    -0.000 C 
BRANCH  15  16
ATOM     16  C   UNL     1      15.873  -7.906  33.406  1.00  0.00    -0.000 C 
BRANCH  16  17
ATOM     17  C   UNL     1      15.625  -6.388  33.425  1.00  0.00    -0.000 C 
BRANCH  17  18
ATOM     18  C   UNL     1      16.189  -5.684  32.182  1.00  0.00    -0.003 C 
ATOM     19  C   UNL     1      16.977  -4.418  32.522  1.00  0.00     0.004 C 
ENDBRANCH  17  18
ENDBRANCH  16  17
ENDBRANCH  15  16
ENDBRANCH  14  15
ENDBRANCH  13  14
ENDBRANCH  12  13
ENDBRANCH   1  12
TORSDOF 14
ENDMDL
MODEL 8
REMARK VINA RESULT:    -4.725     18.306     20.523
REMARK INTER + INTRA:         -10.990
REMARK INTER:                  -8.851
REMARK INTRA:                  -2.139
REMARK UNBOUND:                -2.398
REMARK SMILES CCCCCCCCCCCCCC[C@H](C)C(=O)[O-]
REMARK SMILES IDX 9 1 10 2 11 3 12 4 13 5 14 6 15 7 16 8 17 9 18 10 19 11 8 12
REMARK SMILES IDX 7 13 6 14 5 15 4 16 3 17 2 18 1 19
REMARK H PARENT
REMARK Flexibility Score: inf
ROOT
ATOM      1  C   UNL     1       7.777   5.266  20.600  1.00  0.00     0.000 C 
ENDROOT
BRANCH   1   2
ATOM      2  C   UNL     1       9.126   5.437  21.333  1.00  0.00     0.000 C 
BRANCH   2   3
ATOM      3  C   UNL     1      10.161   4.351  20.985  1.00  0.00     0.000 C 
BRANCH   3   4
ATOM      4  C   UNL     1      11.630   4.810  21.060  1.00  0.00     0.000 C 
BRANCH   4   5
ATOM      5  C   UNL     1      12.170   5.475  19.777  1.00  0.00     0.001 C 
BRANCH   5   6
ATOM      6  C   UNL     1      12.116   7.016  19.759  1.00  0.00     0.009 C 
BRANCH   6   7
ATOM      7  C   UNL     1      12.115   7.688  21.151  1.00  0.00     0.032 C 
ATOM      8  C   UNL     1      10.826   8.476  21.418  1.00  0.00     0.014 C 
BRANCH   7   9
ATOM      9  C   UNL     1      13.302   8.604  21.265  1.00  0.00     0.044 C 
ATOM     10  O   UNL     1      13.927   8.963  20.233  1.00  0.00    -0.550 OA
ATOM     11  O   UNL     1      13.708   9.077  22.509  1.00  0.00    -0.550 OA
ENDBRANCH   7   9
ENDBRANCH   6   7
ENDBRANCH   5   6
ENDBRANCH   4   5
ENDBRANCH   3   4
ENDBRANCH   2   3
ENDBRANCH   1   2
BRANCH   1  12
ATOM     12  C   UNL     1       7.956   4.904  19.116  1.00  0.00     0.000 C 
BRANCH  12  13
ATOM     13  C   UNL     1       8.423   6.098  18.269  1.00  0.00    -0.000 C 
BRANCH  13  14
ATOM     14  C   UNL     1       9.630   5.753  17.378  1.00  0.00    -0.000 C 
BRANCH  14  15
ATOM     15  C   UNL     1       9.632   4.285  16.914  1.00  0.00    -0.000 C 
BRANCH  15  16
ATOM     16  C   UNL     1      10.725   3.405  17.549  1.00  0.00    -0.000 C 
BRANCH  16  17
ATOM     17  C   UNL     1      10.374   1.907  17.529  1.00  0.00    -0.000 C 
BRANCH  17  18
ATOM     18  C   UNL     1       8.957   1.628  18.052  1.00  0.00    -0.003 C 
ATOM     19  C   UNL     1       8.337   0.371  17.442  1.00  0.00     0.004 C 
ENDBRANCH  17  18
ENDBRANCH  16  17
ENDBRANCH  15  16
ENDBRANCH  14  15
ENDBRANCH  13  14
ENDBRANCH  12  13
ENDBRANCH   1  12
TORSDOF 14
ENDMDL
MODEL 9
REMARK VINA RESULT:    -4.641     18.559     20.228
REMARK INTER + INTRA:         -10.836
REMARK INTER:                  -8.713
REMARK INTRA:                  -2.123
REMARK UNBOUND:                -2.398
REMARK SMILES CCCCCCCCCCCCCC[C@H](C)C(=O)[O-]
REMARK SMILES IDX 9 1 10 2 11 3 12 4 13 5 14 6 15 7 16 8 17 9 18 10 19 11 8 12
REMARK SMILES IDX 7 13 6 14 5 15 4 16 3 17 2 18 1 19
REMARK H PARENT
REMARK Flexibility Score: inf
ROOT
ATOM      1  C   UNL     1      11.801   6.722  18.003  1.00  0.00     0.000 C 
ENDROOT
BRANCH   1   2
ATOM      2  C   UNL     1      10.439   6.834  17.284  1.00  0.00     0.000 C 
BRANCH   2   3
ATOM      3  C   UNL     1       9.272   7.199  18.222  1.00  0.00     0.000 C 
BRANCH   3   4
ATOM      4  C   UNL     1       8.329   6.030  18.565  1.00  0.00     0.000 C 
BRANCH   4   5
ATOM      5  C   UNL     1       8.707   4.679  17.925  1.00  0.00     0.001 C 
BRANCH   5   6
ATOM      6  C   UNL     1       8.382   3.433  18.774  1.00  0.00     0.009 C 
BRANCH   6   7
ATOM      7  C   UNL     1       9.399   2.276  18.655  1.00  0.00     0.032 C 
ATOM      8  C   UNL     1      10.481   2.555  17.602  1.00  0.00     0.014 C 
BRANCH   7   9
ATOM      9  C   UNL     1       8.674   1.005  18.309  1.00  0.00     0.044 C 
ATOM     10  O   UNL     1       8.770  -0.004  19.058  1.00  0.00    -0.550 OA
ATOM     11  O   UNL     1       7.878   0.937  17.171  1.00  0.00    -0.550 OA
ENDBRANCH   7   9
ENDBRANCH   6   7
ENDBRANCH   5   6
ENDBRANCH   4   5
ENDBRANCH   3   4
ENDBRANCH   2   3
ENDBRANCH   1   2
BRANCH   1  12
ATOM     12  C   UNL     1      12.381   8.096  18.382  1.00  0.00     0.000 C 
BRANCH  12  13
ATOM     13  C   UNL     1      13.631   7.985  19.268  1.00  0.00    -0.000 C 
BRANCH  13  14
ATOM     14  C   UNL     1      13.582   8.932  20.480  1.00  0.00    -0.000 C 
BRANCH  14  15
ATOM     15  C   UNL     1      12.744   8.371  21.644  1.00  0.00    -0.000 C 
BRANCH  15  16
ATOM     16  C   UNL     1      11.222   8.380  21.413  1.00  0.00    -0.000 C 
BRANCH  16  17
ATOM     17  C   UNL     1      10.589   6.984  21.538  1.00  0.00    -0.000 C 
BRANCH  17  18
ATOM     18  C   UNL     1      11.634   5.858  21.494  1.00  0.00    -0.003 C 
ATOM     19  C   UNL     1      11.052   4.527  21.017  1.00  0.00     0.004 C 
ENDBRANCH  17  18
ENDBRANCH  16  17
ENDBRANCH  15  16
ENDBRANCH  14  15
ENDBRANCH  13  14
ENDBRANCH  12  13
ENDBRANCH   1  12
TORSDOF 14
ENDMDL
