MODEL 1
REMARK VINA RESULT:    -2.648      0.000      0.000
REMARK INTER + INTRA:          -5.283
REMARK INTER:                  -4.660
REMARK INTRA:                  -0.623
REMARK UNBOUND:                -0.623
REMARK SMILES CCCCCCCCCCCCCCC(=O)[O-]
REMARK SMILES IDX 9 1 10 2 11 3 12 4 13 5 14 6 15 7 16 8 17 9 8 10 7 11 6 12
REMARK SMILES IDX 5 13 4 14 3 15 2 16 1 17
REMARK H PARENT
REMARK Flexibility Score: inf
ROOT
ATOM      1  C   UNL     1      33.681  -0.660  -2.013  1.00  0.00     0.000 C 
ENDROOT
BRANCH   1   2
ATOM      2  C   UNL     1      32.168  -0.481  -1.794  1.00  0.00     0.000 C 
BRANCH   2   3
ATOM      3  C   UNL     1      31.382  -0.436  -3.115  1.00  0.00     0.000 C 
BRANCH   3   4
ATOM      4  C   UNL     1      30.366   0.716  -3.163  1.00  0.00     0.000 C 
BRANCH   4   5
ATOM      5  C   UNL     1      30.833   1.819  -4.123  1.00  0.00     0.006 C 
BRANCH   5   6
ATOM      6  C   UNL     1      32.350   2.039  -4.064  1.00  0.00     0.053 C 
BRANCH   6   7
ATOM      7  C   UNL     1      32.694   3.469  -3.777  1.00  0.00     0.041 C 
ATOM      8  O   UNL     1      33.818   3.929  -4.111  1.00  0.00    -0.550 OA
ATOM      9  O   UNL     1      31.787   4.283  -3.111  1.00  0.00    -0.550 OA
ENDBRANCH   6   7
ENDBRANCH   5   6
ENDBRANCH   4   5
ENDBRANCH   3   4
ENDBRANCH   2   3
ENDBRANCH   1   2
BRANCH   1  10
ATOM     10  C   UNL     1      34.008  -1.308  -3.368  1.00  0.00     0.000 C 
BRANCH  10  11
ATOM     11  C   UNL     1      35.515  -1.562  -3.553  1.00  0.00    -0.000 C 
BRANCH  11  12
ATOM     12  C   UNL     1      35.812  -2.957  -4.125  1.00  0.00    -0.000 C 
BRANCH  12  13
ATOM     13  C   UNL     1      37.063  -3.599  -3.508  1.00  0.00    -0.000 C 
BRANCH  13  14
ATOM     14  C   UNL     1      36.679  -4.673  -2.479  1.00  0.00    -0.000 C 
BRANCH  14  15
ATOM     15  C   UNL     1      36.268  -6.001  -3.134  1.00  0.00    -0.000 C 
BRANCH  15  16
ATOM     16  C   UNL     1      36.549  -7.216  -2.237  1.00  0.00    -0.003 C 
ATOM     17  C   UNL     1      35.503  -8.307  -2.446  1.00  0.00     0.004 C 
ENDBRANCH  15  16
ENDBRANCH  14  15
ENDBRANCH  13  14
ENDBRANCH  12  13
ENDBRANCH  11  12
ENDBRANCH  10  11
ENDBRANCH   1  10
TORSDOF 13
ENDMDL
MODEL 2
REMARK VINA RESULT:    -2.645      4.260      8.162
REMARK INTER + INTRA:          -5.279
REMARK INTER:                  -4.495
REMARK INTRA:                  -0.784
REMARK UNBOUND:                -0.623
REMARK SMILES CCCCCCCCCCCCCCC(=O)[O-]
REMARK SMILES IDX 9 1 10 2 11 3 12 4 13 5 14 6 15 7 16 8 17 9 8 10 7 11 6 12
REMARK SMILES IDX 5 13 4 14 3 15 2 16 1 17
REMARK H PARENT
REMARK Flexibility Score: inf
ROOT
ATOM      1  C   UNL     1      31.718  -0.162  -1.148  1.00  0.00     0.000 C 
ENDROOT
BRANCH   1   2
ATOM      2  C   UNL     1      31.448  -1.183  -2.268  1.00  0.00     0.000 C 
BRANCH   2   3
ATOM      3  C   UNL     1      32.009  -0.731  -3.627  1.00  0.00     0.000 C 
BRANCH   3   4
ATOM      4  C   UNL     1      31.434   0.617  -4.088  1.00  0.00     0.000 C 
BRANCH   4   5
ATOM      5  C   UNL     1      32.527   1.695  -4.124  1.00  0.00     0.006 C 
BRANCH   5   6
ATOM      6  C   UNL     1      32.035   3.042  -3.579  1.00  0.00     0.053 C 
BRANCH   6   7
ATOM      7  C   UNL     1      33.094   4.098  -3.664  1.00  0.00     0.041 C 
ATOM      8  O   UNL     1      32.829   5.288  -3.351  1.00  0.00    -0.550 OA
ATOM      9  O   UNL     1      34.366   3.773  -4.120  1.00  0.00    -0.550 OA
ENDBRANCH   6   7
ENDBRANCH   5   6
ENDBRANCH   4   5
ENDBRANCH   3   4
ENDBRANCH   2   3
ENDBRANCH   1   2
BRANCH   1  10
ATOM     10  C   UNL     1      30.438   0.548  -0.676  1.00  0.00     0.000 C 
BRANCH  10  11
ATOM     11  C   UNL     1      30.684   1.459   0.540  1.00  0.00    -0.000 C 
BRANCH  11  12
ATOM     12  C   UNL     1      29.523   1.426   1.546  1.00  0.00    -0.000 C 
BRANCH  12  13
ATOM     13  C   UNL     1      29.869   2.108   2.878  1.00  0.00    -0.000 C 
BRANCH  13  14
ATOM     14  C   UNL     1      31.052   3.073   2.710  1.00  0.00    -0.000 C 
BRANCH  14  15
ATOM     15  C   UNL     1      31.074   4.177   3.778  1.00  0.00    -0.000 C 
BRANCH  15  16
ATOM     16  C   UNL     1      30.362   5.459   3.321  1.00  0.00    -0.003 C 
ATOM     17  C   UNL     1      30.569   6.590   4.324  1.00  0.00     0.004 C 
ENDBRANCH  15  16
ENDBRANCH  14  15
ENDBRANCH  13  14
ENDBRANCH  12  13
ENDBRANCH  11  12
ENDBRANCH  10  11
ENDBRANCH   1  10
TORSDOF 13
ENDMDL
MODEL 3
REMARK VINA RESULT:    -2.546      4.498      8.391
REMARK INTER + INTRA:          -5.103
REMARK INTER:                  -4.302
REMARK INTRA:                  -0.802
REMARK UNBOUND:                -0.623
REMARK SMILES CCCCCCCCCCCCCCC(=O)[O-]
REMARK SMILES IDX 9 1 10 2 11 3 12 4 13 5 14 6 15 7 16 8 17 9 8 10 7 11 6 12
REMARK SMILES IDX 5 13 4 14 3 15 2 16 1 17
REMARK H PARENT
REMARK Flexibility Score: inf
ROOT
ATOM      1  C   UNL     1      31.607  -0.168  -0.608  1.00  0.00     0.000 C 
ENDROOT
BRANCH   1   2
ATOM      2  C   UNL     1      31.351  -0.704  -2.029  1.00  0.00     0.000 C 
BRANCH   2   3
ATOM      3  C   UNL     1      31.109   0.420  -3.049  1.00  0.00     0.000 C 
BRANCH   3   4
ATOM      4  C   UNL     1      32.252   0.555  -4.067  1.00  0.00     0.000 C 
BRANCH   4   5
ATOM      5  C   UNL     1      32.767   2.001  -4.125  1.00  0.00     0.006 C 
BRANCH   5   6
ATOM      6  C   UNL     1      31.691   3.019  -3.724  1.00  0.00     0.053 C 
BRANCH   6   7
ATOM      7  C   UNL     1      32.287   4.344  -3.361  1.00  0.00     0.041 C 
ATOM      8  O   UNL     1      33.411   4.680  -3.819  1.00  0.00    -0.550 OA
ATOM      9  O   UNL     1      31.616   5.195  -2.492  1.00  0.00    -0.550 OA
ENDBRANCH   6   7
ENDBRANCH   5   6
ENDBRANCH   4   5
ENDBRANCH   3   4
ENDBRANCH   2   3
ENDBRANCH   1   2
BRANCH   1  10
ATOM     10  C   UNL     1      30.708   1.030  -0.260  1.00  0.00     0.000 C 
BRANCH  10  11
ATOM     11  C   UNL     1      29.781   0.744   0.935  1.00  0.00    -0.000 C 
BRANCH  11  12
ATOM     12  C   UNL     1      29.603   1.966   1.850  1.00  0.00    -0.000 C 
BRANCH  12  13
ATOM     13  C   UNL     1      30.940   2.580   2.291  1.00  0.00    -0.000 C 
BRANCH  13  14
ATOM     14  C   UNL     1      30.735   3.569   3.449  1.00  0.00    -0.000 C 
BRANCH  14  15
ATOM     15  C   UNL     1      30.686   5.031   2.978  1.00  0.00    -0.000 C 
BRANCH  15  16
ATOM     16  C   UNL     1      31.132   6.019   4.067  1.00  0.00    -0.003 C 
ATOM     17  C   UNL     1      29.991   6.953   4.460  1.00  0.00     0.004 C 
ENDBRANCH  15  16
ENDBRANCH  14  15
ENDBRANCH  13  14
ENDBRANCH  12  13
ENDBRANCH  11  12
ENDBRANCH  10  11
ENDBRANCH   1  10
TORSDOF 13
ENDMDL
MODEL 4
REMARK VINA RESULT:    -2.254      5.078      7.749
REMARK INTER + INTRA:          -4.590
REMARK INTER:                  -3.940
REMARK INTRA:                  -0.651
REMARK UNBOUND:                -0.623
REMARK SMILES CCCCCCCCCCCCCCC(=O)[O-]
REMARK SMILES IDX 9 1 10 2 11 3 12 4 13 5 14 6 15 7 16 8 17 9 8 10 7 11 6 12
REMARK SMILES IDX 5 13 4 14 3 15 2 16 1 17
REMARK H PARENT
REMARK Flexibility Score: inf
ROOT
ATOM      1  C   UNL     1      30.898   1.221   0.094  1.00  0.00     0.000 C 
ENDROOT
BRANCH   1   2
ATOM      2  C   UNL     1      29.788   1.107   1.154  1.00  0.00     0.000 C 
BRANCH   2   3
ATOM      3  C   UNL     1      29.694   2.355   2.047  1.00  0.00     0.000 C 
BRANCH   3   4
ATOM      4  C   UNL     1      30.884   2.488   3.009  1.00  0.00     0.000 C 
BRANCH   4   5
ATOM      5  C   UNL     1      30.756   3.755   3.869  1.00  0.00     0.006 C 
BRANCH   5   6
ATOM      6  C   UNL     1      30.709   5.032   3.020  1.00  0.00     0.053 C 
BRANCH   6   7
ATOM      7  C   UNL     1      31.003   6.253   3.837  1.00  0.00     0.041 C 
ATOM      8  O   UNL     1      31.876   7.076   3.454  1.00  0.00    -0.550 OA
ATOM      9  O   UNL     1      30.338   6.465   5.038  1.00  0.00    -0.550 OA
ENDBRANCH   6   7
ENDBRANCH   5   6
ENDBRANCH   4   5
ENDBRANCH   3   4
ENDBRANCH   2   3
ENDBRANCH   1   2
BRANCH   1  10
ATOM     10  C   UNL     1      30.530   0.518  -1.223  1.00  0.00     0.000 C 
BRANCH  10  11
ATOM     11  C   UNL     1      31.453  -0.672  -1.536  1.00  0.00    -0.000 C 
BRANCH  11  12
ATOM     12  C   UNL     1      31.586  -0.937  -3.044  1.00  0.00    -0.000 C 
BRANCH  12  13
ATOM     13  C   UNL     1      31.284   0.304  -3.895  1.00  0.00    -0.000 C 
BRANCH  13  14
ATOM     14  C   UNL     1      32.554   1.137  -4.123  1.00  0.00    -0.000 C 
BRANCH  14  15
ATOM     15  C   UNL     1      32.322   2.642  -3.915  1.00  0.00    -0.000 C 
BRANCH  15  16
ATOM     16  C   UNL     1      33.597   3.473  -4.125  1.00  0.00    -0.003 C 
ATOM     17  C   UNL     1      33.322   4.960  -3.924  1.00  0.00     0.004 C 
ENDBRANCH  15  16
ENDBRANCH  14  15
ENDBRANCH  13  14
ENDBRANCH  12  13
ENDBRANCH  11  12
ENDBRANCH  10  11
ENDBRANCH   1  10
TORSDOF 13
ENDMDL
MODEL 5
REMARK VINA RESULT:    -2.021      5.152      8.993
REMARK INTER + INTRA:          -4.180
REMARK INTER:                  -3.491
REMARK INTRA:                  -0.689
REMARK UNBOUND:                -0.623
REMARK SMILES CCCCCCCCCCCCCCC(=O)[O-]
REMARK SMILES IDX 9 1 10 2 11 3 12 4 13 5 14 6 15 7 16 8 17 9 8 10 7 11 6 12
REMARK SMILES IDX 5 13 4 14 3 15 2 16 1 17
REMARK H PARENT
REMARK Flexibility Score: inf
ROOT
ATOM      1  C   UNL     1      30.611   0.982  -0.227  1.00  0.00     0.000 C 
ENDROOT
BRANCH   1   2
ATOM      2  C   UNL     1      31.435  -0.250  -0.644  1.00  0.00     0.000 C 
BRANCH   2   3
ATOM      3  C   UNL     1      31.978  -0.139  -2.078  1.00  0.00     0.000 C 
BRANCH   3   4
ATOM      4  C   UNL     1      30.869   0.092  -3.116  1.00  0.00     0.000 C 
BRANCH   4   5
ATOM      5  C   UNL     1      31.088   1.414  -3.868  1.00  0.00     0.006 C 
BRANCH   5   6
ATOM      6  C   UNL     1      32.574   1.698  -4.125  1.00  0.00     0.053 C 
BRANCH   6   7
ATOM      7  C   UNL     1      32.918   3.133  -3.870  1.00  0.00     0.041 C 
ATOM      8  O   UNL     1      34.091   3.547  -4.060  1.00  0.00    -0.550 OA
ATOM      9  O   UNL     1      31.950   4.007  -3.389  1.00  0.00    -0.550 OA
ENDBRANCH   6   7
ENDBRANCH   5   6
ENDBRANCH   4   5
ENDBRANCH   3   4
ENDBRANCH   2   3
ENDBRANCH   1   2
BRANCH   1  10
ATOM     10  C   UNL     1      29.796   0.740   1.055  1.00  0.00     0.000 C 
BRANCH  10  11
ATOM     11  C   UNL     1      29.617   2.019   1.890  1.00  0.00    -0.000 C 
BRANCH  11  12
ATOM     12  C   UNL     1      30.956   2.683   2.248  1.00  0.00    -0.000 C 
BRANCH  12  13
ATOM     13  C   UNL     1      30.850   3.623   3.458  1.00  0.00    -0.000 C 
BRANCH  13  14
ATOM     14  C   UNL     1      30.446   5.039   3.020  1.00  0.00    -0.000 C 
BRANCH  14  15
ATOM     15  C   UNL     1      31.159   6.135   3.827  1.00  0.00    -0.000 C 
BRANCH  15  16
ATOM     16  C   UNL     1      30.186   6.997   4.645  1.00  0.00    -0.003 C 
ATOM     17  C   UNL     1      30.278   6.668   6.132  1.00  0.00     0.004 C 
ENDBRANCH  15  16
ENDBRANCH  14  15
ENDBRANCH  13  14
ENDBRANCH  12  13
ENDBRANCH  11  12
ENDBRANCH  10  11
ENDBRANCH   1  10
TORSDOF 13
ENDMDL
MODEL 6
REMARK VINA RESULT:    -1.954      5.330      9.217
REMARK INTER + INTRA:          -4.061
REMARK INTER:                  -3.644
REMARK INTRA:                  -0.417
REMARK UNBOUND:                -0.623
REMARK SMILES CCCCCCCCCCCCCCC(=O)[O-]
REMARK SMILES IDX 9 1 10 2 11 3 12 4 13 5 14 6 15 7 16 8 17 9 8 10 7 11 6 12
REMARK SMILES IDX 5 13 4 14 3 15 2 16 1 17
REMARK H PARENT
REMARK Flexibility Score: inf
ROOT
ATOM      1  C   UNL     1      30.609   0.615  -1.153  1.00  0.00     0.000 C 
ENDROOT
BRANCH   1   2
ATOM      2  C   UNL     1      31.451  -0.575  -1.649  1.00  0.00     0.000 C 
BRANCH   2   3
ATOM      3  C   UNL     1      31.512  -0.656  -3.183  1.00  0.00     0.000 C 
BRANCH   3   4
ATOM      4  C   UNL     1      32.724  -1.454  -3.688  1.00  0.00     0.000 C 
BRANCH   4   5
ATOM      5  C   UNL     1      34.012  -1.000  -2.985  1.00  0.00     0.006 C 
BRANCH   5   6
ATOM      6  C   UNL     1      35.246  -1.138  -3.886  1.00  0.00     0.053 C 
BRANCH   6   7
ATOM      7  C   UNL     1      35.868  -2.496  -3.772  1.00  0.00     0.041 C 
ATOM      8  O   UNL     1      37.060  -2.616  -3.386  1.00  0.00    -0.550 OA
ATOM      9  O   UNL     1      35.142  -3.627  -4.125  1.00  0.00    -0.550 OA
ENDBRANCH   6   7
ENDBRANCH   5   6
ENDBRANCH   4   5
ENDBRANCH   3   4
ENDBRANCH   2   3
ENDBRANCH   1   2
BRANCH   1  10
ATOM     10  C   UNL     1      30.930   0.999   0.301  1.00  0.00     0.000 C 
BRANCH  10  11
ATOM     11  C   UNL     1      29.665   1.186   1.156  1.00  0.00    -0.000 C 
BRANCH  11  12
ATOM     12  C   UNL     1      29.955   1.876   2.498  1.00  0.00    -0.000 C 
BRANCH  12  13
ATOM     13  C   UNL     1      30.968   3.023   2.371  1.00  0.00    -0.000 C 
BRANCH  13  14
ATOM     14  C   UNL     1      30.798   4.035   3.514  1.00  0.00    -0.000 C 
BRANCH  14  15
ATOM     15  C   UNL     1      30.776   5.490   3.019  1.00  0.00    -0.000 C 
BRANCH  15  16
ATOM     16  C   UNL     1      30.457   6.492   4.138  1.00  0.00    -0.003 C 
ATOM     17  C   UNL     1      30.686   5.871   5.513  1.00  0.00     0.004 C 
ENDBRANCH  15  16
ENDBRANCH  14  15
ENDBRANCH  13  14
ENDBRANCH  12  13
ENDBRANCH  11  12
ENDBRANCH  10  11
ENDBRANCH   1  10
TORSDOF 13
ENDMDL
MODEL 7
REMARK VINA RESULT:    -1.925      4.963      6.467
REMARK INTER + INTRA:          -4.011
REMARK INTER:                  -3.423
REMARK INTRA:                  -0.588
REMARK UNBOUND:                -0.623
REMARK SMILES CCCCCCCCCCCCCCC(=O)[O-]
REMARK SMILES IDX 9 1 10 2 11 3 12 4 13 5 14 6 15 7 16 8 17 9 8 10 7 11 6 12
REMARK SMILES IDX 5 13 4 14 3 15 2 16 1 17
REMARK H PARENT
REMARK Flexibility Score: inf
ROOT
ATOM      1  C   UNL     1      30.904   0.955   0.177  1.00  0.00     0.000 C 
ENDROOT
BRANCH   1   2
ATOM      2  C   UNL     1      29.575   0.968   0.953  1.00  0.00     0.000 C 
BRANCH   2   3
ATOM      3  C   UNL     1      29.634   1.852   2.210  1.00  0.00     0.000 C 
BRANCH   3   4
ATOM      4  C   UNL     1      30.657   2.992   2.086  1.00  0.00     0.000 C 
BRANCH   4   5
ATOM      5  C   UNL     1      30.782   3.763   3.409  1.00  0.00     0.006 C 
BRANCH   5   6
ATOM      6  C   UNL     1      30.915   5.275   3.190  1.00  0.00     0.053 C 
BRANCH   6   7
ATOM      7  C   UNL     1      30.619   6.046   4.441  1.00  0.00     0.041 C 
ATOM      8  O   UNL     1      29.950   7.111   4.385  1.00  0.00    -0.550 OA
ATOM      9  O   UNL     1      31.110   5.605   5.663  1.00  0.00    -0.550 OA
ENDBRANCH   6   7
ENDBRANCH   5   6
ENDBRANCH   4   5
ENDBRANCH   3   4
ENDBRANCH   2   3
ENDBRANCH   1   2
BRANCH   1  10
ATOM     10  C   UNL     1      30.708   0.677  -1.323  1.00  0.00     0.000 C 
BRANCH  10  11
ATOM     11  C   UNL     1      31.132  -0.748  -1.719  1.00  0.00    -0.000 C 
BRANCH  11  12
ATOM     12  C   UNL     1      31.674  -0.826  -3.155  1.00  0.00    -0.000 C 
BRANCH  12  13
ATOM     13  C   UNL     1      32.422   0.446  -3.579  1.00  0.00    -0.000 C 
BRANCH  13  14
ATOM     14  C   UNL     1      33.818   0.107  -4.124  1.00  0.00    -0.000 C 
BRANCH  14  15
ATOM     15  C   UNL     1      34.328  -1.259  -3.639  1.00  0.00    -0.000 C 
BRANCH  15  16
ATOM     16  C   UNL     1      35.752  -1.566  -4.125  1.00  0.00    -0.003 C 
ATOM     17  C   UNL     1      36.107  -3.032  -3.893  1.00  0.00     0.004 C 
ENDBRANCH  15  16
ENDBRANCH  14  15
ENDBRANCH  13  14
ENDBRANCH  12  13
ENDBRANCH  11  12
ENDBRANCH  10  11
ENDBRANCH   1  10
TORSDOF 13
ENDMDL
MODEL 8
REMARK VINA RESULT:    -1.436     15.258     17.758
REMARK INTER + INTRA:          -3.150
REMARK INTER:                  -3.378
REMARK INTRA:                   0.228
REMARK UNBOUND:                -0.623
REMARK SMILES CCCCCCCCCCCCCCC(=O)[O-]
REMARK SMILES IDX 9 1 10 2 11 3 12 4 13 5 14 6 15 7 16 8 17 9 8 10 7 11 6 12
REMARK SMILES IDX 5 13 4 14 3 15 2 16 1 17
REMARK H PARENT
REMARK Flexibility Score: inf
ROOT
ATOM      1  C   UNL     1      35.676  -7.667  12.288  1.00  0.00     0.000 C 
ENDROOT
BRANCH   1   2
ATOM      2  C   UNL     1      34.931  -8.681  11.401  1.00  0.00     0.000 C 
BRANCH   2   3
ATOM      3  C   UNL     1      35.616 -10.057  11.374  1.00  0.00     0.000 C 
BRANCH   3   4
ATOM      4  C   UNL     1      37.054  -9.993  10.836  1.00  0.00     0.000 C 
BRANCH   4   5
ATOM      5  C   UNL     1      37.125  -9.144   9.558  1.00  0.00     0.006 C 
BRANCH   5   6
ATOM      6  C   UNL     1      35.814  -9.179   8.762  1.00  0.00     0.053 C 
BRANCH   6   7
ATOM      7  C   UNL     1      35.989  -8.632   7.378  1.00  0.00     0.041 C 
ATOM      8  O   UNL     1      37.019  -8.915   6.711  1.00  0.00    -0.550 OA
ATOM      9  O   UNL     1      35.031  -7.782   6.839  1.00  0.00    -0.550 OA
ENDBRANCH   6   7
ENDBRANCH   5   6
ENDBRANCH   4   5
ENDBRANCH   3   4
ENDBRANCH   2   3
ENDBRANCH   1   2
BRANCH   1  10
ATOM     10  C   UNL     1      35.477  -7.938  13.788  1.00  0.00     0.000 C 
BRANCH  10  11
ATOM     11  C   UNL     1      36.682  -7.491  14.634  1.00  0.00    -0.000 C 
BRANCH  11  12
ATOM     12  C   UNL     1      36.509  -6.076  15.208  1.00  0.00    -0.000 C 
BRANCH  12  13
ATOM     13  C   UNL     1      37.086  -4.987  14.293  1.00  0.00    -0.000 C 
BRANCH  13  14
ATOM     14  C   UNL     1      37.102  -3.625  15.002  1.00  0.00    -0.000 C 
BRANCH  14  15
ATOM     15  C   UNL     1      36.914  -2.448  14.031  1.00  0.00    -0.000 C 
BRANCH  15  16
ATOM     16  C   UNL     1      36.931  -1.086  14.741  1.00  0.00    -0.003 C 
ATOM     17  C   UNL     1      35.662  -0.294  14.438  1.00  0.00     0.004 C 
ENDBRANCH  15  16
ENDBRANCH  14  15
ENDBRANCH  13  14
ENDBRANCH  12  13
ENDBRANCH  11  12
ENDBRANCH  10  11
ENDBRANCH   1  10
TORSDOF 13
ENDMDL
MODEL 9
REMARK VINA RESULT:    -1.353      4.534      7.299
REMARK INTER + INTRA:          -3.004
REMARK INTER:                  -2.594
REMARK INTRA:                  -0.410
REMARK UNBOUND:                -0.623
REMARK SMILES CCCCCCCCCCCCCCC(=O)[O-]
REMARK SMILES IDX 9 1 10 2 11 3 12 4 13 5 14 6 15 7 16 8 17 9 8 10 7 11 6 12
REMARK SMILES IDX 5 13 4 14 3 15 2 16 1 17
REMARK H PARENT
REMARK Flexibility Score: inf
ROOT
ATOM      1  C   UNL     1      31.646   4.743  -2.609  1.00  0.00     0.000 C 
ENDROOT
BRANCH   1   2
ATOM      2  C   UNL     1      31.804   6.249  -2.332  1.00  0.00     0.000 C 
BRANCH   2   3
ATOM      3  C   UNL     1      30.564   7.058  -2.746  1.00  0.00     0.000 C 
BRANCH   3   4
ATOM      4  C   UNL     1      30.913   8.472  -3.236  1.00  0.00     0.000 C 
BRANCH   4   5
ATOM      5  C   UNL     1      29.642   9.300  -3.473  1.00  0.00     0.006 C 
BRANCH   5   6
ATOM      6  C   UNL     1      29.246  10.125  -2.242  1.00  0.00     0.053 C 
BRANCH   6   7
ATOM      7  C   UNL     1      27.812   9.910  -1.867  1.00  0.00     0.041 C 
ATOM      8  O   UNL     1      26.973   9.564  -2.740  1.00  0.00    -0.550 OA
ATOM      9  O   UNL     1      27.394  10.124  -0.559  1.00  0.00    -0.550 OA
ENDBRANCH   6   7
ENDBRANCH   5   6
ENDBRANCH   4   5
ENDBRANCH   3   4
ENDBRANCH   2   3
ENDBRANCH   1   2
BRANCH   1  10
ATOM     10  C   UNL     1      32.577   4.249  -3.728  1.00  0.00     0.000 C 
BRANCH  10  11
ATOM     11  C   UNL     1      32.809   2.728  -3.676  1.00  0.00    -0.000 C 
BRANCH  11  12
ATOM     12  C   UNL     1      31.574   1.927  -4.118  1.00  0.00    -0.000 C 
BRANCH  12  13
ATOM     13  C   UNL     1      30.917   1.158  -2.962  1.00  0.00    -0.000 C 
BRANCH  13  14
ATOM     14  C   UNL     1      31.173  -0.351  -3.091  1.00  0.00    -0.000 C 
BRANCH  14  15
ATOM     15  C   UNL     1      32.640  -0.728  -2.834  1.00  0.00    -0.000 C 
BRANCH  15  16
ATOM     16  C   UNL     1      33.471  -0.791  -4.125  1.00  0.00    -0.003 C 
ATOM     17  C   UNL     1      34.961  -0.888  -3.815  1.00  0.00     0.004 C 
ENDBRANCH  15  16
ENDBRANCH  14  15
ENDBRANCH  13  14
ENDBRANCH  12  13
ENDBRANCH  11  12
ENDBRANCH  10  11
ENDBRANCH   1  10
TORSDOF 13
ENDMDL
