MODEL 1
REMARK VINA RESULT:    -4.458      0.000      0.000
REMARK INTER + INTRA:          -6.358
REMARK INTER:                  -6.022
REMARK INTRA:                  -0.336
REMARK UNBOUND:                -0.336
REMARK SMILES O=C[C@H](O)[C@@H](O)[C@@H](O)CO
REMARK SMILES IDX 7 1 9 2 10 3 5 5 3 6 2 7 1 8 4 9 6 11 8 13
REMARK H PARENT 10 4 4 10 6 12 8 14
REMARK Flexibility Score: inf
ROOT
ATOM      1  C   UNL     1     -99.348 -61.909 -64.726  1.00  0.00     0.171 C 
ENDROOT
BRANCH   1   2
ATOM      2  C   UNL     1     -98.954 -63.372 -64.451  1.00  0.00     0.190 C 
BRANCH   2   3
ATOM      3  O   UNL     1     -99.908 -63.991 -63.632  1.00  0.00    -0.394 OA
ATOM      4  H   UNL     1     -99.557 -63.946 -62.704  1.00  0.00     0.210 HD
ENDBRANCH   2   3
ENDBRANCH   1   2
BRANCH   1   5
ATOM      5  C   UNL     1    -100.141 -61.771 -66.051  1.00  0.00     0.181 C 
BRANCH   5   6
ATOM      6  C   UNL     1    -100.108 -60.316 -66.585  1.00  0.00     0.209 C 
BRANCH   6   7
ATOM      7  C   UNL     1     -98.713 -59.744 -66.575  1.00  0.00     0.258 C 
ATOM      8  O   UNL     1     -98.487 -58.678 -67.125  1.00  0.00    -0.300 OA
ENDBRANCH   6   7
BRANCH   6   9
ATOM      9  O   UNL     1    -100.986 -59.488 -65.863  1.00  0.00    -0.383 OA
ATOM     10  H   UNL     1    -101.786 -59.327 -66.429  1.00  0.00     0.211 HD
ENDBRANCH   6   9
ENDBRANCH   5   6
BRANCH   5  11
ATOM     11  O   UNL     1     -99.595 -62.647 -67.008  1.00  0.00    -0.387 OA
ATOM     12  H   UNL     1     -99.189 -63.407 -66.517  1.00  0.00     0.211 HD
ENDBRANCH   5  11
ENDBRANCH   1   5
BRANCH   1  13
ATOM     13  O   UNL     1    -100.081 -61.393 -63.642  1.00  0.00    -0.388 OA
ATOM     14  H   UNL     1    -101.006 -61.219 -63.961  1.00  0.00     0.211 HD
ENDBRANCH   1  13
TORSDOF 8
ENDMDL
MODEL 2
REMARK VINA RESULT:    -4.228      2.069      2.810
REMARK INTER + INTRA:          -6.048
REMARK INTER:                  -5.608
REMARK INTRA:                  -0.440
REMARK UNBOUND:                -0.336
REMARK SMILES O=C[C@H](O)[C@@H](O)[C@@H](O)CO
REMARK SMILES IDX 7 1 9 2 10 3 5 5 3 6 2 7 1 8 4 9 6 11 8 13
REMARK H PARENT 10 4 4 10 6 12 8 14
REMARK Flexibility Score: inf
ROOT
ATOM      1  C   UNL     1    -100.103 -61.743 -67.011  1.00  0.00     0.171 C 
ENDROOT
BRANCH   1   2
ATOM      2  C   UNL     1     -99.603 -62.753 -68.060  1.00  0.00     0.190 C 
BRANCH   2   3
ATOM      3  O   UNL     1    -100.665 -63.541 -68.528  1.00  0.00    -0.394 OA
ATOM      4  H   UNL     1    -101.500 -63.114 -68.202  1.00  0.00     0.210 HD
ENDBRANCH   2   3
ENDBRANCH   1   2
BRANCH   1   5
ATOM      5  C   UNL     1     -98.952 -60.844 -66.492  1.00  0.00     0.181 C 
BRANCH   5   6
ATOM      6  C   UNL     1     -99.167 -59.360 -66.886  1.00  0.00     0.209 C 
BRANCH   6   7
ATOM      7  C   UNL     1     -97.877 -58.579 -66.870  1.00  0.00     0.258 C 
ATOM      8  O   UNL     1     -97.383 -58.240 -65.807  1.00  0.00    -0.300 OA
ENDBRANCH   6   7
BRANCH   6   9
ATOM      9  O   UNL     1    -100.125 -58.747 -66.059  1.00  0.00    -0.383 OA
ATOM     10  H   UNL     1    -100.023 -57.763 -66.154  1.00  0.00     0.211 HD
ENDBRANCH   6   9
ENDBRANCH   5   6
BRANCH   5  11
ATOM     11  O   UNL     1     -98.872 -60.961 -65.091  1.00  0.00    -0.387 OA
ATOM     12  H   UNL     1     -99.796 -61.090 -64.751  1.00  0.00     0.211 HD
ENDBRANCH   5  11
ENDBRANCH   1   5
BRANCH   1  13
ATOM     13  O   UNL     1    -101.147 -60.967 -67.546  1.00  0.00    -0.388 OA
ATOM     14  H   UNL     1    -100.749 -60.344 -68.209  1.00  0.00     0.211 HD
ENDBRANCH   1  13
TORSDOF 8
ENDMDL
MODEL 3
REMARK VINA RESULT:    -4.210      1.224      3.473
REMARK INTER + INTRA:          -6.023
REMARK INTER:                  -5.550
REMARK INTRA:                  -0.473
REMARK UNBOUND:                -0.336
REMARK SMILES O=C[C@H](O)[C@@H](O)[C@@H](O)CO
REMARK SMILES IDX 7 1 9 2 10 3 5 5 3 6 2 7 1 8 4 9 6 11 8 13
REMARK H PARENT 10 4 4 10 6 12 8 14
REMARK Flexibility Score: inf
ROOT
ATOM      1  C   UNL     1    -100.251 -60.661 -66.267  1.00  0.00     0.171 C 
ENDROOT
BRANCH   1   2
ATOM      2  C   UNL     1     -99.421 -59.480 -66.803  1.00  0.00     0.190 C 
BRANCH   2   3
ATOM      3  O   UNL     1     -98.377 -59.171 -65.920  1.00  0.00    -0.394 OA
ATOM      4  H   UNL     1     -98.214 -59.987 -65.378  1.00  0.00     0.210 HD
ENDBRANCH   2   3
ENDBRANCH   1   2
BRANCH   1   5
ATOM      5  C   UNL     1     -99.364 -61.902 -65.993  1.00  0.00     0.181 C 
BRANCH   5   6
ATOM      6  C   UNL     1     -99.390 -62.300 -64.495  1.00  0.00     0.209 C 
BRANCH   6   7
ATOM      7  C   UNL     1     -98.069 -62.033 -63.817  1.00  0.00     0.258 C 
ATOM      8  O   UNL     1     -97.480 -60.983 -64.020  1.00  0.00    -0.300 OA
ENDBRANCH   6   7
BRANCH   6   9
ATOM      9  O   UNL     1     -99.764 -63.646 -64.331  1.00  0.00    -0.383 OA
ATOM     10  H   UNL     1     -99.725 -64.083 -65.222  1.00  0.00     0.211 HD
ENDBRANCH   6   9
ENDBRANCH   5   6
BRANCH   5  11
ATOM     11  O   UNL     1     -99.819 -62.976 -66.782  1.00  0.00    -0.387 OA
ATOM     12  H   UNL     1     -99.799 -62.678 -67.728  1.00  0.00     0.211 HD
ENDBRANCH   5  11
ENDBRANCH   1   5
BRANCH   1  13
ATOM     13  O   UNL     1    -100.950 -60.274 -65.109  1.00  0.00    -0.388 OA
ATOM     14  H   UNL     1    -101.003 -59.283 -65.108  1.00  0.00     0.211 HD
ENDBRANCH   1  13
TORSDOF 8
ENDMDL
MODEL 4
REMARK VINA RESULT:    -4.063      1.484      2.409
REMARK INTER + INTRA:          -5.825
REMARK INTER:                  -5.313
REMARK INTRA:                  -0.511
REMARK UNBOUND:                -0.336
REMARK SMILES O=C[C@H](O)[C@@H](O)[C@@H](O)CO
REMARK SMILES IDX 7 1 9 2 10 3 5 5 3 6 2 7 1 8 4 9 6 11 8 13
REMARK H PARENT 10 4 4 10 6 12 8 14
REMARK Flexibility Score: inf
ROOT
ATOM      1  C   UNL     1     -99.266 -61.800 -64.979  1.00  0.00     0.171 C 
ENDROOT
BRANCH   1   2
ATOM      2  C   UNL     1     -98.075 -61.810 -64.003  1.00  0.00     0.190 C 
BRANCH   2   3
ATOM      3  O   UNL     1     -98.381 -62.567 -62.863  1.00  0.00    -0.394 OA
ATOM      4  H   UNL     1     -98.243 -63.518 -63.109  1.00  0.00     0.210 HD
ENDBRANCH   2   3
ENDBRANCH   1   2
BRANCH   1   5
ATOM      5  C   UNL     1     -99.035 -60.813 -66.151  1.00  0.00     0.181 C 
BRANCH   5   6
ATOM      6  C   UNL     1    -100.355 -60.505 -66.904  1.00  0.00     0.209 C 
BRANCH   6   7
ATOM      7  C   UNL     1    -101.479 -60.166 -65.957  1.00  0.00     0.258 C 
ATOM      8  O   UNL     1    -101.596 -59.027 -65.533  1.00  0.00    -0.300 OA
ENDBRANCH   6   7
BRANCH   6   9
ATOM      9  O   UNL     1    -100.724 -61.572 -67.743  1.00  0.00    -0.383 OA
ATOM     10  H   UNL     1    -100.861 -62.373 -67.173  1.00  0.00     0.211 HD
ENDBRANCH   6   9
ENDBRANCH   5   6
BRANCH   5  11
ATOM     11  O   UNL     1     -98.481 -59.621 -65.647  1.00  0.00    -0.387 OA
ATOM     12  H   UNL     1     -97.803 -59.874 -64.967  1.00  0.00     0.211 HD
ENDBRANCH   5  11
ENDBRANCH   1   5
BRANCH   1  13
ATOM     13  O   UNL     1     -99.512 -63.101 -65.454  1.00  0.00    -0.388 OA
ATOM     14  H   UNL     1    -100.243 -63.042 -66.124  1.00  0.00     0.211 HD
ENDBRANCH   1  13
TORSDOF 8
ENDMDL
MODEL 5
REMARK VINA RESULT:    -4.041      1.333      4.173
REMARK INTER + INTRA:          -5.794
REMARK INTER:                  -5.279
REMARK INTRA:                  -0.515
REMARK UNBOUND:                -0.336
REMARK SMILES O=C[C@H](O)[C@@H](O)[C@@H](O)CO
REMARK SMILES IDX 7 1 9 2 10 3 5 5 3 6 2 7 1 8 4 9 6 11 8 13
REMARK H PARENT 10 4 4 10 6 12 8 14
REMARK Flexibility Score: inf
ROOT
ATOM      1  C   UNL     1     -99.674 -61.180 -66.680  1.00  0.00     0.171 C 
ENDROOT
BRANCH   1   2
ATOM      2  C   UNL     1     -99.770 -59.643 -66.631  1.00  0.00     0.190 C 
BRANCH   2   3
ATOM      3  O   UNL     1     -98.646 -59.102 -65.990  1.00  0.00    -0.394 OA
ATOM      4  H   UNL     1     -98.355 -58.325 -66.535  1.00  0.00     0.210 HD
ENDBRANCH   2   3
ENDBRANCH   1   2
BRANCH   1   5
ATOM      5  C   UNL     1     -99.894 -61.809 -65.281  1.00  0.00     0.181 C 
BRANCH   5   6
ATOM      6  C   UNL     1     -98.556 -62.273 -64.650  1.00  0.00     0.209 C 
BRANCH   6   7
ATOM      7  C   UNL     1     -98.746 -63.451 -63.726  1.00  0.00     0.258 C 
ATOM      8  O   UNL     1     -97.785 -64.125 -63.392  1.00  0.00    -0.300 OA
ENDBRANCH   6   7
BRANCH   6   9
ATOM      9  O   UNL     1     -97.917 -61.217 -63.976  1.00  0.00    -0.383 OA
ATOM     10  H   UNL     1     -96.940 -61.300 -64.139  1.00  0.00     0.211 HD
ENDBRANCH   6   9
ENDBRANCH   5   6
BRANCH   5  11
ATOM     11  O   UNL     1    -100.517 -60.865 -64.443  1.00  0.00    -0.387 OA
ATOM     12  H   UNL     1    -100.719 -61.318 -63.584  1.00  0.00     0.211 HD
ENDBRANCH   5  11
ENDBRANCH   1   5
BRANCH   1  13
ATOM     13  O   UNL     1    -100.592 -61.692 -67.614  1.00  0.00    -0.388 OA
ATOM     14  H   UNL     1    -100.405 -61.257 -68.487  1.00  0.00     0.211 HD
ENDBRANCH   1  13
TORSDOF 8
ENDMDL
MODEL 6
REMARK VINA RESULT:    -3.866      6.462      7.892
REMARK INTER + INTRA:          -5.558
REMARK INTER:                  -4.634
REMARK INTRA:                  -0.924
REMARK UNBOUND:                -0.336
REMARK SMILES O=C[C@H](O)[C@@H](O)[C@@H](O)CO
REMARK SMILES IDX 7 1 9 2 10 3 5 5 3 6 2 7 1 8 4 9 6 11 8 13
REMARK H PARENT 10 4 4 10 6 12 8 14
REMARK Flexibility Score: inf
ROOT
ATOM      1  C   UNL     1     -96.548 -62.081 -70.819  1.00  0.00     0.171 C 
ENDROOT
BRANCH   1   2
ATOM      2  C   UNL     1     -96.156 -60.651 -70.404  1.00  0.00     0.190 C 
BRANCH   2   3
ATOM      3  O   UNL     1     -95.440 -60.020 -71.431  1.00  0.00    -0.394 OA
ATOM      4  H   UNL     1     -96.047 -59.341 -71.825  1.00  0.00     0.210 HD
ENDBRANCH   2   3
ENDBRANCH   1   2
BRANCH   1   5
ATOM      5  C   UNL     1     -95.354 -63.061 -70.684  1.00  0.00     0.181 C 
BRANCH   5   6
ATOM      6  C   UNL     1     -94.908 -63.606 -72.065  1.00  0.00     0.209 C 
BRANCH   6   7
ATOM      7  C   UNL     1     -93.640 -62.947 -72.549  1.00  0.00     0.258 C 
ATOM      8  O   UNL     1     -93.657 -61.780 -72.904  1.00  0.00    -0.300 OA
ENDBRANCH   6   7
BRANCH   6   9
ATOM      9  O   UNL     1     -95.930 -63.469 -73.021  1.00  0.00    -0.383 OA
ATOM     10  H   UNL     1     -95.501 -63.359 -73.910  1.00  0.00     0.211 HD
ENDBRANCH   6   9
ENDBRANCH   5   6
BRANCH   5  11
ATOM     11  O   UNL     1     -94.281 -62.396 -70.061  1.00  0.00    -0.387 OA
ATOM     12  H   UNL     1     -93.444 -62.827 -70.373  1.00  0.00     0.211 HD
ENDBRANCH   5  11
ENDBRANCH   1   5
BRANCH   1  13
ATOM     13  O   UNL     1     -97.649 -62.520 -70.062  1.00  0.00    -0.388 OA
ATOM     14  H   UNL     1     -97.721 -61.929 -69.266  1.00  0.00     0.211 HD
ENDBRANCH   1  13
TORSDOF 8
ENDMDL
MODEL 7
REMARK VINA RESULT:    -3.843      9.877     11.292
REMARK INTER + INTRA:          -5.527
REMARK INTER:                  -5.433
REMARK INTRA:                  -0.094
REMARK UNBOUND:                -0.336
REMARK SMILES O=C[C@H](O)[C@@H](O)[C@@H](O)CO
REMARK SMILES IDX 7 1 9 2 10 3 5 5 3 6 2 7 1 8 4 9 6 11 8 13
REMARK H PARENT 10 4 4 10 6 12 8 14
REMARK Flexibility Score: inf
ROOT
ATOM      1  C   UNL     1    -102.169 -57.668 -56.767  1.00  0.00     0.171 C 
ENDROOT
BRANCH   1   2
ATOM      2  C   UNL     1    -101.507 -56.706 -57.771  1.00  0.00     0.190 C 
BRANCH   2   3
ATOM      3  O   UNL     1    -101.221 -57.370 -58.973  1.00  0.00    -0.394 OA
ATOM      4  H   UNL     1    -101.490 -56.758 -59.706  1.00  0.00     0.210 HD
ENDBRANCH   2   3
ENDBRANCH   1   2
BRANCH   1   5
ATOM      5  C   UNL     1    -101.951 -57.205 -55.305  1.00  0.00     0.181 C 
BRANCH   5   6
ATOM      6  C   UNL     1    -100.472 -56.818 -55.046  1.00  0.00     0.209 C 
BRANCH   6   7
ATOM      7  C   UNL     1     -99.838 -57.688 -53.989  1.00  0.00     0.258 C 
ATOM      8  O   UNL     1     -98.719 -58.143 -54.165  1.00  0.00    -0.300 OA
ENDBRANCH   6   7
BRANCH   6   9
ATOM      9  O   UNL     1    -100.353 -55.460 -54.701  1.00  0.00    -0.383 OA
ATOM     10  H   UNL     1     -99.454 -55.151 -54.989  1.00  0.00     0.211 HD
ENDBRANCH   6   9
ENDBRANCH   5   6
BRANCH   5  11
ATOM     11  O   UNL     1    -102.788 -56.104 -55.040  1.00  0.00    -0.387 OA
ATOM     12  H   UNL     1    -103.028 -55.698 -55.913  1.00  0.00     0.211 HD
ENDBRANCH   5  11
ENDBRANCH   1   5
BRANCH   1  13
ATOM     13  O   UNL     1    -103.539 -57.801 -57.056  1.00  0.00    -0.388 OA
ATOM     14  H   UNL     1    -104.045 -57.392 -56.306  1.00  0.00     0.211 HD
ENDBRANCH   1  13
TORSDOF 8
ENDMDL
MODEL 8
REMARK VINA RESULT:    -3.808      1.803      4.152
REMARK INTER + INTRA:          -5.480
REMARK INTER:                  -5.085
REMARK INTRA:                  -0.395
REMARK UNBOUND:                -0.336
REMARK SMILES O=C[C@H](O)[C@@H](O)[C@@H](O)CO
REMARK SMILES IDX 7 1 9 2 10 3 5 5 3 6 2 7 1 8 4 9 6 11 8 13
REMARK H PARENT 10 4 4 10 6 12 8 14
REMARK Flexibility Score: inf
ROOT
ATOM      1  C   UNL     1     -97.772 -58.983 -66.989  1.00  0.00     0.171 C 
ENDROOT
BRANCH   1   2
ATOM      2  C   UNL     1     -97.408 -58.158 -65.741  1.00  0.00     0.190 C 
BRANCH   2   3
ATOM      3  O   UNL     1     -97.097 -59.004 -64.666  1.00  0.00    -0.394 OA
ATOM      4  H   UNL     1     -97.175 -59.934 -65.005  1.00  0.00     0.210 HD
ENDBRANCH   2   3
ENDBRANCH   1   2
BRANCH   1   5
ATOM      5  C   UNL     1     -99.191 -59.597 -66.872  1.00  0.00     0.181 C 
BRANCH   5   6
ATOM      6  C   UNL     1     -99.138 -61.057 -66.356  1.00  0.00     0.209 C 
BRANCH   6   7
ATOM      7  C   UNL     1    -100.046 -61.968 -67.144  1.00  0.00     0.258 C 
ATOM      8  O   UNL     1     -99.582 -62.698 -68.004  1.00  0.00    -0.300 OA
ENDBRANCH   6   7
BRANCH   6   9
ATOM      9  O   UNL     1     -99.442 -61.125 -64.985  1.00  0.00    -0.383 OA
ATOM     10  H   UNL     1     -99.818 -60.246 -64.713  1.00  0.00     0.211 HD
ENDBRANCH   6   9
ENDBRANCH   5   6
BRANCH   5  11
ATOM     11  O   UNL     1     -99.964 -58.807 -66.000  1.00  0.00    -0.387 OA
ATOM     12  H   UNL     1    -100.007 -57.894 -66.386  1.00  0.00     0.211 HD
ENDBRANCH   5  11
ENDBRANCH   1   5
BRANCH   1  13
ATOM     13  O   UNL     1     -97.658 -58.189 -68.144  1.00  0.00    -0.388 OA
ATOM     14  H   UNL     1     -97.944 -58.743 -68.918  1.00  0.00     0.211 HD
ENDBRANCH   1  13
TORSDOF 8
ENDMDL
MODEL 9
REMARK VINA RESULT:    -3.406      1.410      2.363
REMARK INTER + INTRA:          -4.937
REMARK INTER:                  -4.217
REMARK INTRA:                  -0.720
REMARK UNBOUND:                -0.336
REMARK SMILES O=C[C@H](O)[C@@H](O)[C@@H](O)CO
REMARK SMILES IDX 7 1 9 2 10 3 5 5 3 6 2 7 1 8 4 9 6 11 8 13
REMARK H PARENT 10 4 4 10 6 12 8 14
REMARK Flexibility Score: inf
ROOT
ATOM      1  C   UNL     1     -98.109 -62.015 -64.372  1.00  0.00     0.171 C 
ENDROOT
BRANCH   1   2
ATOM      2  C   UNL     1     -98.525 -63.136 -63.401  1.00  0.00     0.190 C 
BRANCH   2   3
ATOM      3  O   UNL     1     -99.254 -64.125 -64.076  1.00  0.00    -0.394 OA
ATOM      4  H   UNL     1     -98.592 -64.690 -64.551  1.00  0.00     0.210 HD
ENDBRANCH   2   3
ENDBRANCH   1   2
BRANCH   1   5
ATOM      5  C   UNL     1     -99.318 -61.132 -64.775  1.00  0.00     0.181 C 
BRANCH   5   6
ATOM      6  C   UNL     1     -99.665 -61.295 -66.277  1.00  0.00     0.209 C 
BRANCH   6   7
ATOM      7  C   UNL     1    -100.776 -60.370 -66.703  1.00  0.00     0.258 C 
ATOM      8  O   UNL     1    -101.487 -59.843 -65.863  1.00  0.00    -0.300 OA
ENDBRANCH   6   7
BRANCH   6   9
ATOM      9  O   UNL     1     -99.990 -62.629 -66.583  1.00  0.00    -0.383 OA
ATOM     10  H   UNL     1     -99.180 -63.182 -66.429  1.00  0.00     0.211 HD
ENDBRANCH   6   9
ENDBRANCH   5   6
BRANCH   5  11
ATOM     11  O   UNL     1    -100.429 -61.484 -63.985  1.00  0.00    -0.387 OA
ATOM     12  H   UNL     1    -101.135 -61.815 -64.598  1.00  0.00     0.211 HD
ENDBRANCH   5  11
ENDBRANCH   1   5
BRANCH   1  13
ATOM     13  O   UNL     1     -97.084 -61.239 -63.803  1.00  0.00    -0.388 OA
ATOM     14  H   UNL     1     -96.240 -61.757 -63.875  1.00  0.00     0.211 HD
ENDBRANCH   1  13
TORSDOF 8
ENDMDL
