MODEL 1
REMARK VINA RESULT:    -5.348      0.000      0.000
REMARK INTER + INTRA:         -12.545
REMARK INTER:                 -10.350
REMARK INTRA:                  -2.195
REMARK UNBOUND:                -2.195
REMARK SMILES CCCCCCCCCCCCCCCCCC(=O)[O-]
REMARK SMILES IDX 10 1 11 2 12 3 13 4 14 5 15 6 16 7 17 8 18 9 19 10 20 11
REMARK SMILES IDX 9 12 8 13 7 14 6 15 5 16 4 17 3 18 2 19 1 20
REMARK H PARENT
REMARK Flexibility Score: inf
ROOT
ATOM      1  C   UNL     1     133.865 136.356 114.859  1.00  0.00     0.000 C 
ENDROOT
BRANCH   1   2
ATOM      2  C   UNL     1     135.034 136.788 113.955  1.00  0.00     0.000 C 
BRANCH   2   3
ATOM      3  C   UNL     1     136.290 137.183 114.746  1.00  0.00     0.000 C 
BRANCH   3   4
ATOM      4  C   UNL     1     137.565 136.789 113.983  1.00  0.00     0.000 C 
BRANCH   4   5
ATOM      5  C   UNL     1     138.057 137.895 113.036  1.00  0.00     0.000 C 
BRANCH   5   6
ATOM      6  C   UNL     1     139.269 138.657 113.597  1.00  0.00     0.000 C 
BRANCH   6   7
ATOM      7  C   UNL     1     138.883 139.699 114.663  1.00  0.00     0.006 C 
BRANCH   7   8
ATOM      8  C   UNL     1     140.083 140.291 115.423  1.00  0.00     0.053 C 
BRANCH   8   9
ATOM      9  C   UNL     1     139.707 141.459 116.284  1.00  0.00     0.041 C 
ATOM     10  O   UNL     1     139.706 142.625 115.810  1.00  0.00    -0.550 OA
ATOM     11  O   UNL     1     139.327 141.255 117.605  1.00  0.00    -0.550 OA
ENDBRANCH   8   9
ENDBRANCH   7   8
ENDBRANCH   6   7
ENDBRANCH   5   6
ENDBRANCH   4   5
ENDBRANCH   3   4
ENDBRANCH   2   3
ENDBRANCH   1   2
BRANCH   1  12
ATOM     12  C   UNL     1     133.059 135.149 114.346  1.00  0.00     0.000 C 
BRANCH  12  13
ATOM     13  C   UNL     1     133.902 134.177 113.509  1.00  0.00    -0.000 C 
BRANCH  13  14
ATOM     14  C   UNL     1     134.622 133.161 114.406  1.00  0.00    -0.000 C 
BRANCH  14  15
ATOM     15  C   UNL     1     136.141 133.386 114.382  1.00  0.00    -0.000 C 
BRANCH  15  16
ATOM     16  C   UNL     1     136.774 133.292 115.779  1.00  0.00    -0.000 C 
BRANCH  16  17
ATOM     17  C   UNL     1     136.080 134.205 116.805  1.00  0.00    -0.000 C 
BRANCH  17  18
ATOM     18  C   UNL     1     137.078 135.030 117.632  1.00  0.00    -0.000 C 
BRANCH  18  19
ATOM     19  C   UNL     1     136.385 136.022 118.577  1.00  0.00    -0.003 C 
ATOM     20  C   UNL     1     134.870 135.988 118.395  1.00  0.00     0.004 C 
ENDBRANCH  18  19
ENDBRANCH  17  18
ENDBRANCH  16  17
ENDBRANCH  15  16
ENDBRANCH  14  15
ENDBRANCH  13  14
ENDBRANCH  12  13
ENDBRANCH   1  12
TORSDOF 16
ENDMDL
MODEL 2
REMARK VINA RESULT:    -5.166      3.581      8.213
REMARK INTER + INTRA:         -12.194
REMARK INTER:                 -10.502
REMARK INTRA:                  -1.692
REMARK UNBOUND:                -2.195
REMARK SMILES CCCCCCCCCCCCCCCCCC(=O)[O-]
REMARK SMILES IDX 10 1 11 2 12 3 13 4 14 5 15 6 16 7 17 8 18 9 19 10 20 11
REMARK SMILES IDX 9 12 8 13 7 14 6 15 5 16 4 17 3 18 2 19 1 20
REMARK H PARENT
REMARK Flexibility Score: inf
ROOT
ATOM      1  C   UNL     1     138.679 138.198 114.282  1.00  0.00     0.000 C 
ENDROOT
BRANCH   1   2
ATOM      2  C   UNL     1     137.729 137.556 113.254  1.00  0.00     0.000 C 
BRANCH   2   3
ATOM      3  C   UNL     1     136.621 136.715 113.905  1.00  0.00     0.000 C 
BRANCH   3   4
ATOM      4  C   UNL     1     137.133 136.023 115.178  1.00  0.00     0.000 C 
BRANCH   4   5
ATOM      5  C   UNL     1     136.684 134.556 115.278  1.00  0.00     0.000 C 
BRANCH   5   6
ATOM      6  C   UNL     1     136.066 134.037 113.969  1.00  0.00     0.000 C 
BRANCH   6   7
ATOM      7  C   UNL     1     134.778 133.223 114.193  1.00  0.00     0.006 C 
BRANCH   7   8
ATOM      8  C   UNL     1     133.821 133.839 115.229  1.00  0.00     0.053 C 
BRANCH   8   9
ATOM      9  C   UNL     1     133.151 135.084 114.733  1.00  0.00     0.041 C 
ATOM     10  O   UNL     1     133.365 136.190 115.297  1.00  0.00    -0.550 OA
ATOM     11  O   UNL     1     132.311 135.030 113.628  1.00  0.00    -0.550 OA
ENDBRANCH   8   9
ENDBRANCH   7   8
ENDBRANCH   6   7
ENDBRANCH   5   6
ENDBRANCH   4   5
ENDBRANCH   3   4
ENDBRANCH   2   3
ENDBRANCH   1   2
BRANCH   1  12
ATOM     12  C   UNL     1     139.052 139.664 113.996  1.00  0.00     0.000 C 
BRANCH  12  13
ATOM     13  C   UNL     1     139.581 140.400 115.235  1.00  0.00    -0.000 C 
BRANCH  13  14
ATOM     14  C   UNL     1     140.955 139.858 115.653  1.00  0.00    -0.000 C 
BRANCH  14  15
ATOM     15  C   UNL     1     142.000 140.983 115.694  1.00  0.00    -0.000 C 
BRANCH  15  16
ATOM     16  C   UNL     1     143.233 140.675 114.830  1.00  0.00    -0.000 C 
BRANCH  16  17
ATOM     17  C   UNL     1     143.312 141.563 113.576  1.00  0.00    -0.000 C 
BRANCH  17  18
ATOM     18  C   UNL     1     142.157 142.573 113.494  1.00  0.00    -0.000 C 
BRANCH  18  19
ATOM     19  C   UNL     1     141.199 142.282 112.330  1.00  0.00    -0.003 C 
ATOM     20  C   UNL     1     141.756 141.192 111.419  1.00  0.00     0.004 C 
ENDBRANCH  18  19
ENDBRANCH  17  18
ENDBRANCH  16  17
ENDBRANCH  15  16
ENDBRANCH  14  15
ENDBRANCH  13  14
ENDBRANCH  12  13
ENDBRANCH   1  12
TORSDOF 16
ENDMDL
MODEL 3
REMARK VINA RESULT:    -5.126      3.612      8.329
REMARK INTER + INTRA:         -12.115
REMARK INTER:                 -10.559
REMARK INTRA:                  -1.556
REMARK UNBOUND:                -2.195
REMARK SMILES CCCCCCCCCCCCCCCCCC(=O)[O-]
REMARK SMILES IDX 10 1 11 2 12 3 13 4 14 5 15 6 16 7 17 8 18 9 19 10 20 11
REMARK SMILES IDX 9 12 8 13 7 14 6 15 5 16 4 17 3 18 2 19 1 20
REMARK H PARENT
REMARK Flexibility Score: inf
ROOT
ATOM      1  C   UNL     1     138.372 138.700 114.214  1.00  0.00     0.000 C 
ENDROOT
BRANCH   1   2
ATOM      2  C   UNL     1     137.881 137.258 114.433  1.00  0.00     0.000 C 
BRANCH   2   3
ATOM      3  C   UNL     1     136.351 137.152 114.526  1.00  0.00     0.000 C 
BRANCH   3   4
ATOM      4  C   UNL     1     135.924 136.550 115.874  1.00  0.00     0.000 C 
BRANCH   4   5
ATOM      5  C   UNL     1     134.403 136.360 115.985  1.00  0.00     0.000 C 
BRANCH   5   6
ATOM      6  C   UNL     1     133.726 136.205 114.613  1.00  0.00     0.000 C 
BRANCH   6   7
ATOM      7  C   UNL     1     133.002 134.856 114.447  1.00  0.00     0.006 C 
BRANCH   7   8
ATOM      8  C   UNL     1     133.904 133.630 114.673  1.00  0.00     0.053 C 
BRANCH   8   9
ATOM      9  C   UNL     1     135.115 133.629 113.791  1.00  0.00     0.041 C 
ATOM     10  O   UNL     1     135.010 133.903 112.566  1.00  0.00    -0.550 OA
ATOM     11  O   UNL     1     136.366 133.354 114.328  1.00  0.00    -0.550 OA
ENDBRANCH   8   9
ENDBRANCH   7   8
ENDBRANCH   6   7
ENDBRANCH   5   6
ENDBRANCH   4   5
ENDBRANCH   3   4
ENDBRANCH   2   3
ENDBRANCH   1   2
BRANCH   1  12
ATOM     12  C   UNL     1     139.900 138.882 114.267  1.00  0.00     0.000 C 
BRANCH  12  13
ATOM     13  C   UNL     1     140.354 139.812 115.401  1.00  0.00    -0.000 C 
BRANCH  13  14
ATOM     14  C   UNL     1     139.604 141.150 115.349  1.00  0.00    -0.000 C 
BRANCH  14  15
ATOM     15  C   UNL     1     140.586 142.329 115.300  1.00  0.00    -0.000 C 
BRANCH  15  16
ATOM     16  C   UNL     1     142.012 141.928 115.712  1.00  0.00    -0.000 C 
BRANCH  16  17
ATOM     17  C   UNL     1     143.056 142.268 114.634  1.00  0.00    -0.000 C 
BRANCH  17  18
ATOM     18  C   UNL     1     143.877 141.043 114.201  1.00  0.00    -0.000 C 
BRANCH  18  19
ATOM     19  C   UNL     1     143.209 140.256 113.065  1.00  0.00    -0.003 C 
ATOM     20  C   UNL     1     142.560 141.196 112.053  1.00  0.00     0.004 C 
ENDBRANCH  18  19
ENDBRANCH  17  18
ENDBRANCH  16  17
ENDBRANCH  15  16
ENDBRANCH  14  15
ENDBRANCH  13  14
ENDBRANCH  12  13
ENDBRANCH   1  12
TORSDOF 16
ENDMDL
MODEL 4
REMARK VINA RESULT:    -5.121      1.261      1.872
REMARK INTER + INTRA:         -12.105
REMARK INTER:                  -9.949
REMARK INTRA:                  -2.156
REMARK UNBOUND:                -2.195
REMARK SMILES CCCCCCCCCCCCCCCCCC(=O)[O-]
REMARK SMILES IDX 10 1 11 2 12 3 13 4 14 5 15 6 16 7 17 8 18 9 19 10 20 11
REMARK SMILES IDX 9 12 8 13 7 14 6 15 5 16 4 17 3 18 2 19 1 20
REMARK H PARENT
REMARK Flexibility Score: inf
ROOT
ATOM      1  C   UNL     1     134.950 137.095 111.887  1.00  0.00     0.000 C 
ENDROOT
BRANCH   1   2
ATOM      2  C   UNL     1     135.675 137.179 113.243  1.00  0.00     0.000 C 
BRANCH   2   3
ATOM      3  C   UNL     1     137.161 136.802 113.155  1.00  0.00     0.000 C 
BRANCH   3   4
ATOM      4  C   UNL     1     137.941 137.363 114.355  1.00  0.00     0.000 C 
BRANCH   4   5
ATOM      5  C   UNL     1     138.415 138.808 114.132  1.00  0.00     0.000 C 
BRANCH   5   6
ATOM      6  C   UNL     1     139.945 138.915 114.011  1.00  0.00     0.000 C 
BRANCH   6   7
ATOM      7  C   UNL     1     140.572 139.814 115.093  1.00  0.00     0.006 C 
BRANCH   7   8
ATOM      8  C   UNL     1     139.605 140.858 115.677  1.00  0.00     0.053 C 
BRANCH   8   9
ATOM      9  C   UNL     1     140.036 142.267 115.401  1.00  0.00     0.041 C 
ATOM     10  O   UNL     1     139.434 143.233 115.939  1.00  0.00    -0.550 OA
ATOM     11  O   UNL     1     141.122 142.512 114.570  1.00  0.00    -0.550 OA
ENDBRANCH   8   9
ENDBRANCH   7   8
ENDBRANCH   6   7
ENDBRANCH   5   6
ENDBRANCH   4   5
ENDBRANCH   3   4
ENDBRANCH   2   3
ENDBRANCH   1   2
BRANCH   1  12
ATOM     12  C   UNL     1     133.882 135.991 111.789  1.00  0.00     0.000 C 
BRANCH  12  13
ATOM     13  C   UNL     1     134.334 134.662 112.412  1.00  0.00    -0.000 C 
BRANCH  13  14
ATOM     14  C   UNL     1     133.420 134.261 113.577  1.00  0.00    -0.000 C 
BRANCH  14  15
ATOM     15  C   UNL     1     134.194 133.457 114.631  1.00  0.00    -0.000 C 
BRANCH  15  16
ATOM     16  C   UNL     1     135.699 133.380 114.328  1.00  0.00    -0.000 C 
BRANCH  16  17
ATOM     17  C   UNL     1     136.557 134.033 115.425  1.00  0.00    -0.000 C 
BRANCH  17  18
ATOM     18  C   UNL     1     135.744 134.378 116.683  1.00  0.00    -0.000 C 
BRANCH  18  19
ATOM     19  C   UNL     1     135.763 135.879 117.005  1.00  0.00    -0.003 C 
ATOM     20  C   UNL     1     134.453 136.546 116.593  1.00  0.00     0.004 C 
ENDBRANCH  18  19
ENDBRANCH  17  18
ENDBRANCH  16  17
ENDBRANCH  15  16
ENDBRANCH  14  15
ENDBRANCH  13  14
ENDBRANCH  12  13
ENDBRANCH   1  12
TORSDOF 16
ENDMDL
MODEL 5
REMARK VINA RESULT:    -5.103      2.918      7.548
REMARK INTER + INTRA:         -12.071
REMARK INTER:                 -10.468
REMARK INTRA:                  -1.603
REMARK UNBOUND:                -2.195
REMARK SMILES CCCCCCCCCCCCCCCCCC(=O)[O-]
REMARK SMILES IDX 10 1 11 2 12 3 13 4 14 5 15 6 16 7 17 8 18 9 19 10 20 11
REMARK SMILES IDX 9 12 8 13 7 14 6 15 5 16 4 17 3 18 2 19 1 20
REMARK H PARENT
REMARK Flexibility Score: inf
ROOT
ATOM      1  C   UNL     1     138.137 137.609 114.267  1.00  0.00     0.000 C 
ENDROOT
BRANCH   1   2
ATOM      2  C   UNL     1     137.051 136.635 113.775  1.00  0.00     0.000 C 
BRANCH   2   3
ATOM      3  C   UNL     1     135.671 137.295 113.635  1.00  0.00     0.000 C 
BRANCH   3   4
ATOM      4  C   UNL     1     134.612 136.264 113.213  1.00  0.00     0.000 C 
BRANCH   4   5
ATOM      5  C   UNL     1     133.514 136.072 114.272  1.00  0.00     0.000 C 
BRANCH   5   6
ATOM      6  C   UNL     1     133.103 134.599 114.435  1.00  0.00     0.000 C 
BRANCH   6   7
ATOM      7  C   UNL     1     134.001 133.829 115.421  1.00  0.00     0.006 C 
BRANCH   7   8
ATOM      8  C   UNL     1     134.710 134.725 116.452  1.00  0.00     0.053 C 
BRANCH   8   9
ATOM      9  C   UNL     1     136.155 134.370 116.634  1.00  0.00     0.041 C 
ATOM     10  O   UNL     1     136.752 133.676 115.770  1.00  0.00    -0.550 OA
ATOM     11  O   UNL     1     136.850 134.833 117.744  1.00  0.00    -0.550 OA
ENDBRANCH   8   9
ENDBRANCH   7   8
ENDBRANCH   6   7
ENDBRANCH   5   6
ENDBRANCH   4   5
ENDBRANCH   3   4
ENDBRANCH   2   3
ENDBRANCH   1   2
BRANCH   1  12
ATOM     12  C   UNL     1     138.682 138.571 113.196  1.00  0.00     0.000 C 
BRANCH  12  13
ATOM     13  C   UNL     1     139.280 139.855 113.791  1.00  0.00    -0.000 C 
BRANCH  13  14
ATOM     14  C   UNL     1     139.024 139.932 115.301  1.00  0.00    -0.000 C 
BRANCH  14  15
ATOM     15  C   UNL     1     140.196 140.611 116.024  1.00  0.00    -0.000 C 
BRANCH  15  16
ATOM     16  C   UNL     1     141.524 139.862 115.828  1.00  0.00    -0.000 C 
BRANCH  16  17
ATOM     17  C   UNL     1     142.612 140.745 115.190  1.00  0.00    -0.000 C 
BRANCH  17  18
ATOM     18  C   UNL     1     142.430 142.235 115.519  1.00  0.00    -0.000 C 
BRANCH  18  19
ATOM     19  C   UNL     1     142.480 143.126 114.270  1.00  0.00    -0.003 C 
ATOM     20  C   UNL     1     141.597 142.564 113.158  1.00  0.00     0.004 C 
ENDBRANCH  18  19
ENDBRANCH  17  18
ENDBRANCH  16  17
ENDBRANCH  15  16
ENDBRANCH  14  15
ENDBRANCH  13  14
ENDBRANCH  12  13
ENDBRANCH   1  12
TORSDOF 16
ENDMDL
MODEL 6
REMARK VINA RESULT:    -5.080      2.348      5.591
REMARK INTER + INTRA:         -12.027
REMARK INTER:                 -10.674
REMARK INTRA:                  -1.353
REMARK UNBOUND:                -2.195
REMARK SMILES CCCCCCCCCCCCCCCCCC(=O)[O-]
REMARK SMILES IDX 10 1 11 2 12 3 13 4 14 5 15 6 16 7 17 8 18 9 19 10 20 11
REMARK SMILES IDX 9 12 8 13 7 14 6 15 5 16 4 17 3 18 2 19 1 20
REMARK H PARENT
REMARK Flexibility Score: inf
ROOT
ATOM      1  C   UNL     1     141.428 139.145 113.560  1.00  0.00     0.000 C 
ENDROOT
BRANCH   1   2
ATOM      2  C   UNL     1     142.628 139.638 112.732  1.00  0.00     0.000 C 
BRANCH   2   3
ATOM      3  C   UNL     1     143.529 140.615 113.501  1.00  0.00     0.000 C 
BRANCH   3   4
ATOM      4  C   UNL     1     142.888 141.012 114.841  1.00  0.00     0.000 C 
BRANCH   4   5
ATOM      5  C   UNL     1     142.887 142.532 115.072  1.00  0.00     0.000 C 
BRANCH   5   6
ATOM      6  C   UNL     1     141.797 143.251 114.260  1.00  0.00     0.000 C 
BRANCH   6   7
ATOM      7  C   UNL     1     140.397 142.643 114.462  1.00  0.00     0.006 C 
BRANCH   7   8
ATOM      8  C   UNL     1     139.741 143.011 115.804  1.00  0.00     0.053 C 
BRANCH   8   9
ATOM      9  C   UNL     1     139.861 141.922 116.827  1.00  0.00     0.041 C 
ATOM     10  O   UNL     1     139.400 140.774 116.590  1.00  0.00    -0.550 OA
ATOM     11  O   UNL     1     140.507 142.167 118.032  1.00  0.00    -0.550 OA
ENDBRANCH   8   9
ENDBRANCH   7   8
ENDBRANCH   6   7
ENDBRANCH   5   6
ENDBRANCH   4   5
ENDBRANCH   3   4
ENDBRANCH   2   3
ENDBRANCH   1   2
BRANCH   1  12
ATOM     12  C   UNL     1     140.058 139.292 112.872  1.00  0.00     0.000 C 
BRANCH  12  13
ATOM     13  C   UNL     1     138.900 138.745 113.720  1.00  0.00    -0.000 C 
BRANCH  13  14
ATOM     14  C   UNL     1     137.957 137.883 112.872  1.00  0.00    -0.000 C 
BRANCH  14  15
ATOM     15  C   UNL     1     137.344 136.751 113.710  1.00  0.00    -0.000 C 
BRANCH  15  16
ATOM     16  C   UNL     1     136.019 136.236 113.127  1.00  0.00    -0.000 C 
BRANCH  16  17
ATOM     17  C   UNL     1     135.705 134.792 113.558  1.00  0.00    -0.000 C 
BRANCH  17  18
ATOM     18  C   UNL     1     134.265 134.375 113.221  1.00  0.00    -0.000 C 
BRANCH  18  19
ATOM     19  C   UNL     1     133.277 134.695 114.352  1.00  0.00    -0.003 C 
ATOM     20  C   UNL     1     132.131 135.570 113.851  1.00  0.00     0.004 C 
ENDBRANCH  18  19
ENDBRANCH  17  18
ENDBRANCH  16  17
ENDBRANCH  15  16
ENDBRANCH  14  15
ENDBRANCH  13  14
ENDBRANCH  12  13
ENDBRANCH   1  12
TORSDOF 16
ENDMDL
MODEL 7
REMARK VINA RESULT:    -5.072      3.039      7.923
REMARK INTER + INTRA:         -12.011
REMARK INTER:                  -9.854
REMARK INTRA:                  -2.157
REMARK UNBOUND:                -2.195
REMARK SMILES CCCCCCCCCCCCCCCCCC(=O)[O-]
REMARK SMILES IDX 10 1 11 2 12 3 13 4 14 5 15 6 16 7 17 8 18 9 19 10 20 11
REMARK SMILES IDX 9 12 8 13 7 14 6 15 5 16 4 17 3 18 2 19 1 20
REMARK H PARENT
REMARK Flexibility Score: inf
ROOT
ATOM      1  C   UNL     1     140.861 139.203 113.851  1.00  0.00     0.000 C 
ENDROOT
BRANCH   1   2
ATOM      2  C   UNL     1     139.391 139.550 113.556  1.00  0.00     0.000 C 
BRANCH   2   3
ATOM      3  C   UNL     1     138.413 138.925 114.562  1.00  0.00     0.000 C 
BRANCH   3   4
ATOM      4  C   UNL     1     137.882 137.578 114.046  1.00  0.00     0.000 C 
BRANCH   4   5
ATOM      5  C   UNL     1     136.366 137.420 114.247  1.00  0.00     0.000 C 
BRANCH   5   6
ATOM      6  C   UNL     1     135.901 135.960 114.110  1.00  0.00     0.000 C 
BRANCH   6   7
ATOM      7  C   UNL     1     134.935 135.529 115.228  1.00  0.00     0.006 C 
BRANCH   7   8
ATOM      8  C   UNL     1     135.422 135.878 116.646  1.00  0.00     0.053 C 
BRANCH   8   9
ATOM      9  C   UNL     1     136.470 134.931 117.149  1.00  0.00     0.041 C 
ATOM     10  O   UNL     1     137.253 135.281 118.070  1.00  0.00    -0.550 OA
ATOM     11  O   UNL     1     136.562 133.650 116.620  1.00  0.00    -0.550 OA
ENDBRANCH   8   9
ENDBRANCH   7   8
ENDBRANCH   6   7
ENDBRANCH   5   6
ENDBRANCH   4   5
ENDBRANCH   3   4
ENDBRANCH   2   3
ENDBRANCH   1   2
BRANCH   1  12
ATOM     12  C   UNL     1     141.891 139.938 112.973  1.00  0.00     0.000 C 
BRANCH  12  13
ATOM     13  C   UNL     1     142.919 140.732 113.794  1.00  0.00    -0.000 C 
BRANCH  13  14
ATOM     14  C   UNL     1     142.828 142.232 113.486  1.00  0.00    -0.000 C 
BRANCH  14  15
ATOM     15  C   UNL     1     142.137 142.987 114.631  1.00  0.00    -0.000 C 
BRANCH  15  16
ATOM     16  C   UNL     1     140.618 143.103 114.430  1.00  0.00    -0.000 C 
BRANCH  16  17
ATOM     17  C   UNL     1     139.820 142.554 115.626  1.00  0.00    -0.000 C 
BRANCH  17  18
ATOM     18  C   UNL     1     140.722 142.165 116.808  1.00  0.00    -0.000 C 
BRANCH  18  19
ATOM     19  C   UNL     1     140.592 140.683 117.188  1.00  0.00    -0.003 C 
ATOM     20  C   UNL     1     141.956 139.999 117.209  1.00  0.00     0.004 C 
ENDBRANCH  18  19
ENDBRANCH  17  18
ENDBRANCH  16  17
ENDBRANCH  15  16
ENDBRANCH  14  15
ENDBRANCH  13  14
ENDBRANCH  12  13
ENDBRANCH   1  12
TORSDOF 16
ENDMDL
MODEL 8
REMARK VINA RESULT:    -5.066      2.244      5.688
REMARK INTER + INTRA:         -11.999
REMARK INTER:                 -10.133
REMARK INTRA:                  -1.866
REMARK UNBOUND:                -2.195
REMARK SMILES CCCCCCCCCCCCCCCCCC(=O)[O-]
REMARK SMILES IDX 10 1 11 2 12 3 13 4 14 5 15 6 16 7 17 8 18 9 19 10 20 11
REMARK SMILES IDX 9 12 8 13 7 14 6 15 5 16 4 17 3 18 2 19 1 20
REMARK H PARENT
REMARK Flexibility Score: inf
ROOT
ATOM      1  C   UNL     1     141.333 139.260 113.422  1.00  0.00     0.000 C 
ENDROOT
BRANCH   1   2
ATOM      2  C   UNL     1     142.346 140.410 113.567  1.00  0.00     0.000 C 
BRANCH   2   3
ATOM      3  C   UNL     1     142.670 140.743 115.031  1.00  0.00     0.000 C 
BRANCH   3   4
ATOM      4  C   UNL     1     142.502 142.247 115.301  1.00  0.00     0.000 C 
BRANCH   4   5
ATOM      5  C   UNL     1     141.267 142.841 114.606  1.00  0.00     0.000 C 
BRANCH   5   6
ATOM      6  C   UNL     1     139.984 142.673 115.437  1.00  0.00     0.000 C 
BRANCH   6   7
ATOM      7  C   UNL     1     140.259 142.524 116.945  1.00  0.00     0.006 C 
BRANCH   7   8
ATOM      8  C   UNL     1     139.624 141.272 117.576  1.00  0.00     0.053 C 
BRANCH   8   9
ATOM      9  C   UNL     1     140.462 140.686 118.672  1.00  0.00     0.041 C 
ATOM     10  O   UNL     1     140.018 140.625 119.849  1.00  0.00    -0.550 OA
ATOM     11  O   UNL     1     141.723 140.178 118.388  1.00  0.00    -0.550 OA
ENDBRANCH   8   9
ENDBRANCH   7   8
ENDBRANCH   6   7
ENDBRANCH   5   6
ENDBRANCH   4   5
ENDBRANCH   3   4
ENDBRANCH   2   3
ENDBRANCH   1   2
BRANCH   1  12
ATOM     12  C   UNL     1     140.349 139.108 114.596  1.00  0.00     0.000 C 
BRANCH  12  13
ATOM     13  C   UNL     1     138.889 139.362 114.190  1.00  0.00    -0.000 C 
BRANCH  13  14
ATOM     14  C   UNL     1     138.385 138.270 113.237  1.00  0.00    -0.000 C 
BRANCH  14  15
ATOM     15  C   UNL     1     137.095 137.629 113.769  1.00  0.00    -0.000 C 
BRANCH  15  16
ATOM     16  C   UNL     1     137.327 136.800 115.041  1.00  0.00    -0.000 C 
BRANCH  16  17
ATOM     17  C   UNL     1     136.947 135.320 114.860  1.00  0.00    -0.000 C 
BRANCH  17  18
ATOM     18  C   UNL     1     135.520 135.140 114.319  1.00  0.00    -0.000 C 
BRANCH  18  19
ATOM     19  C   UNL     1     135.412 133.989 113.308  1.00  0.00    -0.003 C 
ATOM     20  C   UNL     1     135.189 134.518 111.894  1.00  0.00     0.004 C 
ENDBRANCH  18  19
ENDBRANCH  17  18
ENDBRANCH  16  17
ENDBRANCH  15  16
ENDBRANCH  14  15
ENDBRANCH  13  14
ENDBRANCH  12  13
ENDBRANCH   1  12
TORSDOF 16
ENDMDL
MODEL 9
REMARK VINA RESULT:    -5.033      2.443      6.885
REMARK INTER + INTRA:         -11.935
REMARK INTER:                 -10.260
REMARK INTRA:                  -1.675
REMARK UNBOUND:                -2.195
REMARK SMILES CCCCCCCCCCCCCCCCCC(=O)[O-]
REMARK SMILES IDX 10 1 11 2 12 3 13 4 14 5 15 6 16 7 17 8 18 9 19 10 20 11
REMARK SMILES IDX 9 12 8 13 7 14 6 15 5 16 4 17 3 18 2 19 1 20
REMARK H PARENT
REMARK Flexibility Score: inf
ROOT
ATOM      1  C   UNL     1     135.758 137.080 114.442  1.00  0.00     0.000 C 
ENDROOT
BRANCH   1   2
ATOM      2  C   UNL     1     134.482 136.878 113.604  1.00  0.00     0.000 C 
BRANCH   2   3
ATOM      3  C   UNL     1     133.609 135.719 114.109  1.00  0.00     0.000 C 
BRANCH   3   4
ATOM      4  C   UNL     1     134.067 134.383 113.502  1.00  0.00     0.000 C 
BRANCH   4   5
ATOM      5  C   UNL     1     134.491 133.360 114.568  1.00  0.00     0.000 C 
BRANCH   5   6
ATOM      6  C   UNL     1     136.019 133.240 114.698  1.00  0.00     0.000 C 
BRANCH   6   7
ATOM      7  C   UNL     1     136.567 133.902 115.975  1.00  0.00     0.006 C 
BRANCH   7   8
ATOM      8  C   UNL     1     135.492 134.210 117.032  1.00  0.00     0.053 C 
BRANCH   8   9
ATOM      9  C   UNL     1     135.711 135.525 117.717  1.00  0.00     0.041 C 
ATOM     10  O   UNL     1     136.835 135.806 118.211  1.00  0.00    -0.550 OA
ATOM     11  O   UNL     1     134.681 136.455 117.784  1.00  0.00    -0.550 OA
ENDBRANCH   8   9
ENDBRANCH   7   8
ENDBRANCH   6   7
ENDBRANCH   5   6
ENDBRANCH   4   5
ENDBRANCH   3   4
ENDBRANCH   2   3
ENDBRANCH   1   2
BRANCH   1  12
ATOM     12  C   UNL     1     137.076 136.974 113.654  1.00  0.00     0.000 C 
BRANCH  12  13
ATOM     13  C   UNL     1     138.130 137.994 114.110  1.00  0.00    -0.000 C 
BRANCH  13  14
ATOM     14  C   UNL     1     138.837 138.629 112.907  1.00  0.00    -0.000 C 
BRANCH  14  15
ATOM     15  C   UNL     1     139.504 139.956 113.298  1.00  0.00    -0.000 C 
BRANCH  15  16
ATOM     16  C   UNL     1     139.217 140.354 114.754  1.00  0.00    -0.000 C 
BRANCH  16  17
ATOM     17  C   UNL     1     140.071 141.547 115.220  1.00  0.00    -0.000 C 
BRANCH  17  18
ATOM     18  C   UNL     1     140.486 142.464 114.059  1.00  0.00    -0.000 C 
BRANCH  18  19
ATOM     19  C   UNL     1     141.764 143.260 114.364  1.00  0.00    -0.003 C 
ATOM     20  C   UNL     1     142.677 142.491 115.315  1.00  0.00     0.004 C 
ENDBRANCH  18  19
ENDBRANCH  17  18
ENDBRANCH  16  17
ENDBRANCH  15  16
ENDBRANCH  14  15
ENDBRANCH  13  14
ENDBRANCH  12  13
ENDBRANCH   1  12
TORSDOF 16
ENDMDL
