MODEL 1
REMARK VINA RESULT:    -4.833      0.000      0.000
REMARK INTER + INTRA:          -8.014
REMARK INTER:                  -7.376
REMARK INTRA:                  -0.638
REMARK UNBOUND:                -0.638
REMARK SMILES O=C([O-])CCCCCCCCC(=O)[O-]
REMARK SMILES IDX 7 1 6 2 5 3 4 4 2 5 1 6 3 7 8 8 9 9 10 10 11 11 12 12 13 13
REMARK SMILES IDX 14 14
REMARK H PARENT
REMARK Flexibility Score: inf
ROOT
ATOM      1  C   UNL     1      45.200  -6.918  26.828  1.00  0.00     0.000 C 
ENDROOT
BRANCH   1   2
ATOM      2  C   UNL     1      45.680  -5.464  26.959  1.00  0.00     0.000 C 
BRANCH   2   3
ATOM      3  C   UNL     1      44.832  -4.648  27.948  1.00  0.00     0.006 C 
BRANCH   3   4
ATOM      4  C   UNL     1      43.502  -5.334  28.288  1.00  0.00     0.053 C 
BRANCH   4   5
ATOM      5  C   UNL     1      42.369  -4.648  27.593  1.00  0.00     0.041 C 
ATOM      6  O   UNL     1      42.034  -4.999  26.431  1.00  0.00    -0.550 OA
ATOM      7  O   UNL     1      41.715  -3.590  28.208  1.00  0.00    -0.550 OA
ENDBRANCH   4   5
ENDBRANCH   3   4
ENDBRANCH   2   3
ENDBRANCH   1   2
BRANCH   1   8
ATOM      8  C   UNL     1      46.125  -7.776  25.949  1.00  0.00     0.000 C 
BRANCH   8   9
ATOM      9  C   UNL     1      46.138  -7.346  24.466  1.00  0.00     0.000 C 
BRANCH   9  10
ATOM     10  C   UNL     1      47.560  -7.336  23.877  1.00  0.00     0.006 C 
BRANCH  10  11
ATOM     11  C   UNL     1      48.622  -7.695  24.924  1.00  0.00     0.053 C 
BRANCH  11  12
ATOM     12  C   UNL     1      49.546  -6.546  25.191  1.00  0.00     0.041 C 
ATOM     13  O   UNL     1      50.777  -6.652  24.953  1.00  0.00    -0.550 OA
ATOM     14  O   UNL     1      49.039  -5.347  25.677  1.00  0.00    -0.550 OA
ENDBRANCH  11  12
ENDBRANCH  10  11
ENDBRANCH   9  10
ENDBRANCH   8   9
ENDBRANCH   1   8
TORSDOF 9
ENDMDL
MODEL 2
REMARK VINA RESULT:    -4.821      2.640      5.883
REMARK INTER + INTRA:          -7.996
REMARK INTER:                  -7.509
REMARK INTRA:                  -0.487
REMARK UNBOUND:                -0.638
REMARK SMILES O=C([O-])CCCCCCCCC(=O)[O-]
REMARK SMILES IDX 7 1 6 2 5 3 4 4 2 5 1 6 3 7 8 8 9 9 10 10 11 11 12 12 13 13
REMARK SMILES IDX 14 14
REMARK H PARENT
REMARK Flexibility Score: inf
ROOT
ATOM      1  C   UNL     1      46.206  -7.442  24.296  1.00  0.00     0.000 C 
ENDROOT
BRANCH   1   2
ATOM      2  C   UNL     1      47.596  -7.494  24.950  1.00  0.00     0.000 C 
BRANCH   2   3
ATOM      3  C   UNL     1      48.686  -6.857  24.074  1.00  0.00     0.006 C 
BRANCH   3   4
ATOM      4  C   UNL     1      48.197  -6.560  22.649  1.00  0.00     0.053 C 
BRANCH   4   5
ATOM      5  C   UNL     1      48.395  -7.755  21.771  1.00  0.00     0.041 C 
ATOM      6  O   UNL     1      47.425  -8.515  21.508  1.00  0.00    -0.550 OA
ATOM      7  O   UNL     1      49.658  -8.057  21.282  1.00  0.00    -0.550 OA
ENDBRANCH   4   5
ENDBRANCH   3   4
ENDBRANCH   2   3
ENDBRANCH   1   2
BRANCH   1   8
ATOM      8  C   UNL     1      45.094  -7.051  25.285  1.00  0.00     0.000 C 
BRANCH   8   9
ATOM      9  C   UNL     1      45.500  -7.221  26.765  1.00  0.00     0.000 C 
BRANCH   9  10
ATOM     10  C   UNL     1      45.504  -5.881  27.523  1.00  0.00     0.006 C 
BRANCH  10  11
ATOM     11  C   UNL     1      45.489  -4.678  26.572  1.00  0.00     0.053 C 
BRANCH  11  12
ATOM     12  C   UNL     1      46.728  -3.848  26.711  1.00  0.00     0.041 C 
ATOM     13  O   UNL     1      47.852  -4.328  26.407  1.00  0.00    -0.550 OA
ATOM     14  O   UNL     1      46.637  -2.533  27.149  1.00  0.00    -0.550 OA
ENDBRANCH  11  12
ENDBRANCH  10  11
ENDBRANCH   9  10
ENDBRANCH   8   9
ENDBRANCH   1   8
TORSDOF 9
ENDMDL
MODEL 3
REMARK VINA RESULT:    -4.768      1.244      6.088
REMARK INTER + INTRA:          -7.915
REMARK INTER:                  -7.159
REMARK INTRA:                  -0.755
REMARK UNBOUND:                -0.638
REMARK SMILES O=C([O-])CCCCCCCCC(=O)[O-]
REMARK SMILES IDX 7 1 6 2 5 3 4 4 2 5 1 6 3 7 8 8 9 9 10 10 11 11 12 12 13 13
REMARK SMILES IDX 14 14
REMARK H PARENT
REMARK Flexibility Score: inf
ROOT
ATOM      1  C   UNL     1      45.484  -7.275  24.484  1.00  0.00     0.000 C 
ENDROOT
BRANCH   1   2
ATOM      2  C   UNL     1      46.695  -7.578  23.587  1.00  0.00     0.000 C 
BRANCH   2   3
ATOM      3  C   UNL     1      48.033  -7.409  24.325  1.00  0.00     0.006 C 
BRANCH   3   4
ATOM      4  C   UNL     1      48.587  -5.982  24.219  1.00  0.00     0.053 C 
BRANCH   4   5
ATOM      5  C   UNL     1      49.095  -5.520  25.548  1.00  0.00     0.041 C 
ATOM      6  O   UNL     1      48.383  -4.777  26.274  1.00  0.00    -0.550 OA
ATOM      7  O   UNL     1      50.372  -5.871  25.965  1.00  0.00    -0.550 OA
ENDBRANCH   4   5
ENDBRANCH   3   4
ENDBRANCH   2   3
ENDBRANCH   1   2
BRANCH   1   8
ATOM      8  C   UNL     1      45.641  -7.834  25.908  1.00  0.00     0.000 C 
BRANCH   8   9
ATOM      9  C   UNL     1      45.489  -6.763  27.009  1.00  0.00     0.000 C 
BRANCH   9  10
ATOM     10  C   UNL     1      44.844  -5.470  26.476  1.00  0.00     0.006 C 
BRANCH  10  11
ATOM     11  C   UNL     1      43.322  -5.464  26.662  1.00  0.00     0.053 C 
BRANCH  11  12
ATOM     12  C   UNL     1      42.938  -5.133  28.072  1.00  0.00     0.041 C 
ATOM     13  O   UNL     1      42.001  -5.754  28.638  1.00  0.00    -0.550 OA
ATOM     14  O   UNL     1      43.636  -4.155  28.769  1.00  0.00    -0.550 OA
ENDBRANCH  11  12
ENDBRANCH  10  11
ENDBRANCH   9  10
ENDBRANCH   8   9
ENDBRANCH   1   8
TORSDOF 9
ENDMDL
MODEL 4
REMARK VINA RESULT:    -4.749      2.096      5.658
REMARK INTER + INTRA:          -7.886
REMARK INTER:                  -7.321
REMARK INTRA:                  -0.565
REMARK UNBOUND:                -0.638
REMARK SMILES O=C([O-])CCCCCCCCC(=O)[O-]
REMARK SMILES IDX 7 1 6 2 5 3 4 4 2 5 1 6 3 7 8 8 9 9 10 10 11 11 12 12 13 13
REMARK SMILES IDX 14 14
REMARK H PARENT
REMARK Flexibility Score: inf
ROOT
ATOM      1  C   UNL     1      45.963  -7.313  24.041  1.00  0.00     0.000 C 
ENDROOT
BRANCH   1   2
ATOM      2  C   UNL     1      47.196  -7.354  23.123  1.00  0.00     0.000 C 
BRANCH   2   3
ATOM      3  C   UNL     1      48.516  -7.264  23.904  1.00  0.00     0.006 C 
BRANCH   3   4
ATOM      4  C   UNL     1      48.796  -5.849  24.427  1.00  0.00     0.053 C 
BRANCH   4   5
ATOM      5  C   UNL     1      50.016  -5.845  25.293  1.00  0.00     0.041 C 
ATOM      6  O   UNL     1      50.820  -6.813  25.258  1.00  0.00    -0.550 OA
ATOM      7  O   UNL     1      50.239  -4.795  26.174  1.00  0.00    -0.550 OA
ENDBRANCH   4   5
ENDBRANCH   3   4
ENDBRANCH   2   3
ENDBRANCH   1   2
BRANCH   1   8
ATOM      8  C   UNL     1      46.278  -7.744  25.484  1.00  0.00     0.000 C 
BRANCH   8   9
ATOM      9  C   UNL     1      45.160  -7.391  26.489  1.00  0.00     0.000 C 
BRANCH   9  10
ATOM     10  C   UNL     1      45.022  -5.872  26.694  1.00  0.00     0.006 C 
BRANCH  10  11
ATOM     11  C   UNL     1      46.340  -5.227  27.143  1.00  0.00     0.053 C 
BRANCH  11  12
ATOM     12  C   UNL     1      46.342  -3.749  26.901  1.00  0.00     0.041 C 
ATOM     13  O   UNL     1      45.831  -2.966  27.744  1.00  0.00    -0.550 OA
ATOM     14  O   UNL     1      46.937  -3.233  25.757  1.00  0.00    -0.550 OA
ENDBRANCH  11  12
ENDBRANCH  10  11
ENDBRANCH   9  10
ENDBRANCH   8   9
ENDBRANCH   1   8
TORSDOF 9
ENDMDL
MODEL 5
REMARK VINA RESULT:    -4.748      2.371      6.030
REMARK INTER + INTRA:          -7.884
REMARK INTER:                  -7.477
REMARK INTRA:                  -0.407
REMARK UNBOUND:                -0.638
REMARK SMILES O=C([O-])CCCCCCCCC(=O)[O-]
REMARK SMILES IDX 7 1 6 2 5 3 4 4 2 5 1 6 3 7 8 8 9 9 10 10 11 11 12 12 13 13
REMARK SMILES IDX 14 14
REMARK H PARENT
REMARK Flexibility Score: inf
ROOT
ATOM      1  C   UNL     1      44.530  -5.737  26.302  1.00  0.00     0.000 C 
ENDROOT
BRANCH   1   2
ATOM      2  C   UNL     1      45.057  -6.947  27.090  1.00  0.00     0.000 C 
BRANCH   2   3
ATOM      3  C   UNL     1      46.073  -7.776  26.289  1.00  0.00     0.006 C 
BRANCH   3   4
ATOM      4  C   UNL     1      46.494  -7.090  24.983  1.00  0.00     0.053 C 
BRANCH   4   5
ATOM      5  C   UNL     1      47.915  -6.629  25.071  1.00  0.00     0.041 C 
ATOM      6  O   UNL     1      48.175  -5.419  25.303  1.00  0.00    -0.550 OA
ATOM      7  O   UNL     1      48.951  -7.526  24.848  1.00  0.00    -0.550 OA
ENDBRANCH   4   5
ENDBRANCH   3   4
ENDBRANCH   2   3
ENDBRANCH   1   2
BRANCH   1   8
ATOM      8  C   UNL     1      43.166  -5.241  26.810  1.00  0.00     0.000 C 
BRANCH   8   9
ATOM      9  C   UNL     1      43.249  -4.471  28.146  1.00  0.00     0.000 C 
BRANCH   9  10
ATOM     10  C   UNL     1      44.577  -3.707  28.293  1.00  0.00     0.006 C 
BRANCH  10  11
ATOM     11  C   UNL     1      44.363  -2.254  28.735  1.00  0.00     0.053 C 
BRANCH  11  12
ATOM     12  C   UNL     1      45.465  -1.361  28.253  1.00  0.00     0.041 C 
ATOM     13  O   UNL     1      45.509  -0.156  28.612  1.00  0.00    -0.550 OA
ATOM     14  O   UNL     1      46.461  -1.871  27.430  1.00  0.00    -0.550 OA
ENDBRANCH  11  12
ENDBRANCH  10  11
ENDBRANCH   9  10
ENDBRANCH   8   9
ENDBRANCH   1   8
TORSDOF 9
ENDMDL
MODEL 6
REMARK VINA RESULT:    -4.717      1.562      1.987
REMARK INTER + INTRA:          -7.838
REMARK INTER:                  -7.054
REMARK INTRA:                  -0.784
REMARK UNBOUND:                -0.638
REMARK SMILES O=C([O-])CCCCCCCCC(=O)[O-]
REMARK SMILES IDX 7 1 6 2 5 3 4 4 2 5 1 6 3 7 8 8 9 9 10 10 11 11 12 12 13 13
REMARK SMILES IDX 14 14
REMARK H PARENT
REMARK Flexibility Score: inf
ROOT
ATOM      1  C   UNL     1      45.655  -7.589  26.219  1.00  0.00     0.000 C 
ENDROOT
BRANCH   1   2
ATOM      2  C   UNL     1      44.978  -6.607  27.189  1.00  0.00     0.000 C 
BRANCH   2   3
ATOM      3  C   UNL     1      44.116  -5.561  26.465  1.00  0.00     0.006 C 
BRANCH   3   4
ATOM      4  C   UNL     1      42.938  -5.074  27.320  1.00  0.00     0.053 C 
BRANCH   4   5
ATOM      5  C   UNL     1      43.434  -4.463  28.591  1.00  0.00     0.041 C 
ATOM      6  O   UNL     1      43.086  -4.942  29.702  1.00  0.00    -0.550 OA
ATOM      7  O   UNL     1      44.242  -3.334  28.551  1.00  0.00    -0.550 OA
ENDBRANCH   4   5
ENDBRANCH   3   4
ENDBRANCH   2   3
ENDBRANCH   1   2
BRANCH   1   8
ATOM      8  C   UNL     1      45.383  -7.253  24.743  1.00  0.00     0.000 C 
BRANCH   8   9
ATOM      9  C   UNL     1      46.536  -7.655  23.798  1.00  0.00     0.000 C 
BRANCH   9  10
ATOM     10  C   UNL     1      47.916  -7.329  24.396  1.00  0.00     0.006 C 
BRANCH  10  11
ATOM     11  C   UNL     1      48.292  -5.853  24.213  1.00  0.00     0.053 C 
BRANCH  11  12
ATOM     12  C   UNL     1      48.529  -5.176  25.528  1.00  0.00     0.041 C 
ATOM     13  O   UNL     1      47.593  -4.563  26.104  1.00  0.00    -0.550 OA
ATOM     14  O   UNL     1      49.779  -5.247  26.130  1.00  0.00    -0.550 OA
ENDBRANCH  11  12
ENDBRANCH  10  11
ENDBRANCH   9  10
ENDBRANCH   8   9
ENDBRANCH   1   8
TORSDOF 9
ENDMDL
MODEL 7
REMARK VINA RESULT:    -4.686      2.462      3.105
REMARK INTER + INTRA:          -7.790
REMARK INTER:                  -7.445
REMARK INTRA:                  -0.344
REMARK UNBOUND:                -0.638
REMARK SMILES O=C([O-])CCCCCCCCC(=O)[O-]
REMARK SMILES IDX 7 1 6 2 5 3 4 4 2 5 1 6 3 7 8 8 9 9 10 10 11 11 12 12 13 13
REMARK SMILES IDX 14 14
REMARK H PARENT
REMARK Flexibility Score: inf
ROOT
ATOM      1  C   UNL     1      43.403  -5.489  26.769  1.00  0.00     0.000 C 
ENDROOT
BRANCH   1   2
ATOM      2  C   UNL     1      43.108  -4.367  27.778  1.00  0.00     0.000 C 
BRANCH   2   3
ATOM      3  C   UNL     1      44.385  -3.780  28.399  1.00  0.00     0.006 C 
BRANCH   3   4
ATOM      4  C   UNL     1      44.231  -2.300  28.775  1.00  0.00     0.053 C 
BRANCH   4   5
ATOM      5  C   UNL     1      45.391  -1.508  28.260  1.00  0.00     0.041 C 
ATOM      6  O   UNL     1      46.270  -2.062  27.549  1.00  0.00    -0.550 OA
ATOM      7  O   UNL     1      45.527  -0.170  28.605  1.00  0.00    -0.550 OA
ENDBRANCH   4   5
ENDBRANCH   3   4
ENDBRANCH   2   3
ENDBRANCH   1   2
BRANCH   1   8
ATOM      8  C   UNL     1      44.897  -5.847  26.694  1.00  0.00     0.000 C 
BRANCH   8   9
ATOM      9  C   UNL     1      45.167  -7.227  26.056  1.00  0.00     0.000 C 
BRANCH   9  10
ATOM     10  C   UNL     1      46.660  -7.439  25.744  1.00  0.00     0.006 C 
BRANCH  10  11
ATOM     11  C   UNL     1      46.954  -7.357  24.241  1.00  0.00     0.053 C 
BRANCH  11  12
ATOM     12  C   UNL     1      48.426  -7.380  23.964  1.00  0.00     0.041 C 
ATOM     13  O   UNL     1      49.249  -7.503  24.908  1.00  0.00    -0.550 OA
ATOM     14  O   UNL     1      48.887  -7.295  22.656  1.00  0.00    -0.550 OA
ENDBRANCH  11  12
ENDBRANCH  10  11
ENDBRANCH   9  10
ENDBRANCH   8   9
ENDBRANCH   1   8
TORSDOF 9
ENDMDL
MODEL 8
REMARK VINA RESULT:    -4.665      1.883      6.323
REMARK INTER + INTRA:          -7.758
REMARK INTER:                  -7.258
REMARK INTRA:                  -0.500
REMARK UNBOUND:                -0.638
REMARK SMILES O=C([O-])CCCCCCCCC(=O)[O-]
REMARK SMILES IDX 7 1 6 2 5 3 4 4 2 5 1 6 3 7 8 8 9 9 10 10 11 11 12 12 13 13
REMARK SMILES IDX 14 14
REMARK H PARENT
REMARK Flexibility Score: inf
ROOT
ATOM      1  C   UNL     1      45.179  -6.643  27.133  1.00  0.00     0.000 C 
ENDROOT
BRANCH   1   2
ATOM      2  C   UNL     1      45.809  -7.704  26.215  1.00  0.00     0.000 C 
BRANCH   2   3
ATOM      3  C   UNL     1      45.618  -7.383  24.724  1.00  0.00     0.006 C 
BRANCH   3   4
ATOM      4  C   UNL     1      46.944  -7.364  23.952  1.00  0.00     0.053 C 
BRANCH   4   5
ATOM      5  C   UNL     1      48.010  -6.696  24.761  1.00  0.00     0.041 C 
ATOM      6  O   UNL     1      47.962  -5.455  24.970  1.00  0.00    -0.550 OA
ATOM      7  O   UNL     1      49.081  -7.435  25.245  1.00  0.00    -0.550 OA
ENDBRANCH   4   5
ENDBRANCH   3   4
ENDBRANCH   2   3
ENDBRANCH   1   2
BRANCH   1   8
ATOM      8  C   UNL     1      44.401  -5.567  26.356  1.00  0.00     0.000 C 
BRANCH   8   9
ATOM      9  C   UNL     1      43.121  -5.093  27.076  1.00  0.00     0.000 C 
BRANCH   9  10
ATOM     10  C   UNL     1      43.412  -4.575  28.496  1.00  0.00     0.006 C 
BRANCH  10  11
ATOM     11  C   UNL     1      42.825  -3.178  28.734  1.00  0.00     0.053 C 
BRANCH  11  12
ATOM     12  C   UNL     1      43.887  -2.187  29.101  1.00  0.00     0.041 C 
ATOM     13  O   UNL     1      44.990  -2.183  28.494  1.00  0.00    -0.550 OA
ATOM     14  O   UNL     1      43.646  -1.248  30.096  1.00  0.00    -0.550 OA
ENDBRANCH  11  12
ENDBRANCH  10  11
ENDBRANCH   9  10
ENDBRANCH   8   9
ENDBRANCH   1   8
TORSDOF 9
ENDMDL
MODEL 9
REMARK VINA RESULT:    -4.596      2.054      2.343
REMARK INTER + INTRA:          -7.653
REMARK INTER:                  -7.243
REMARK INTRA:                  -0.410
REMARK UNBOUND:                -0.638
REMARK SMILES O=C([O-])CCCCCCCCC(=O)[O-]
REMARK SMILES IDX 7 1 6 2 5 3 4 4 2 5 1 6 3 7 8 8 9 9 10 10 11 11 12 12 13 13
REMARK SMILES IDX 14 14
REMARK H PARENT
REMARK Flexibility Score: inf
ROOT
ATOM      1  C   UNL     1      45.697  -7.421  26.462  1.00  0.00     0.000 C 
ENDROOT
BRANCH   1   2
ATOM      2  C   UNL     1      45.410  -6.069  27.136  1.00  0.00     0.000 C 
BRANCH   2   3
ATOM      3  C   UNL     1      44.018  -5.519  26.786  1.00  0.00     0.006 C 
BRANCH   3   4
ATOM      4  C   UNL     1      43.415  -4.679  27.920  1.00  0.00     0.053 C 
BRANCH   4   5
ATOM      5  C   UNL     1      41.992  -4.336  27.615  1.00  0.00     0.041 C 
ATOM      6  O   UNL     1      41.475  -4.694  26.523  1.00  0.00    -0.550 OA
ATOM      7  O   UNL     1      41.250  -3.581  28.513  1.00  0.00    -0.550 OA
ENDBRANCH   4   5
ENDBRANCH   3   4
ENDBRANCH   2   3
ENDBRANCH   1   2
BRANCH   1   8
ATOM      8  C   UNL     1      46.996  -7.414  25.638  1.00  0.00     0.000 C 
BRANCH   8   9
ATOM      9  C   UNL     1      47.426  -6.004  25.179  1.00  0.00     0.000 C 
BRANCH   9  10
ATOM     10  C   UNL     1      48.502  -6.055  24.079  1.00  0.00     0.006 C 
BRANCH  10  11
ATOM     11  C   UNL     1      48.798  -7.490  23.626  1.00  0.00     0.053 C 
BRANCH  11  12
ATOM     12  C   UNL     1      48.266  -7.756  22.251  1.00  0.00     0.041 C 
ATOM     13  O   UNL     1      47.029  -7.896  22.065  1.00  0.00    -0.550 OA
ATOM     14  O   UNL     1      49.136  -7.821  21.170  1.00  0.00    -0.550 OA
ENDBRANCH  11  12
ENDBRANCH  10  11
ENDBRANCH   9  10
ENDBRANCH   8   9
ENDBRANCH   1   8
TORSDOF 9
ENDMDL
