MODEL 1
REMARK VINA RESULT:    -8.817      0.000      0.000
REMARK INTER + INTRA:         -10.930
REMARK INTER:                 -10.622
REMARK INTRA:                  -0.308
REMARK UNBOUND:                -0.308
REMARK SMILES O=c1c(O)c(-c2ccc(O)cc2O)oc2cc(O)cc(O)c12
REMARK SMILES IDX 5 1 3 2 2 3 1 4 22 5 20 6 19 7 17 8 16 9 15 10 14 11 6 12
REMARK SMILES IDX 8 13 7 14 9 15 11 16 12 17 10 18 13 20 4 22 21 24 18 26
REMARK H PARENT 10 19 13 21 4 23 21 25 18 27
REMARK Flexibility Score: inf
ROOT
ATOM      1  C   UNL     1     137.332 -17.990  79.604  1.00  0.00     0.184 A 
ATOM      2  C   UNL     1     138.468 -18.445  78.912  1.00  0.00     0.208 A 
ATOM      3  C   UNL     1     139.668 -17.728  79.032  1.00  0.00     0.238 A 
ATOM      4  O   UNL     1     140.697 -18.132  78.426  1.00  0.00    -0.285 OA
ATOM      5  C   UNL     1     139.704 -16.561  79.824  1.00  0.00     0.111 A 
ATOM      6  C   UNL     1     140.872 -15.778  79.997  1.00  0.00     0.134 A 
ATOM      7  C   UNL     1     140.825 -14.625  80.794  1.00  0.00     0.093 A 
ATOM      8  C   UNL     1     139.638 -14.239  81.420  1.00  0.00     0.123 A 
ATOM      9  C   UNL     1     138.481 -15.009  81.254  1.00  0.00     0.094 A 
ATOM     10  C   UNL     1     138.506 -16.162  80.465  1.00  0.00     0.146 A 
ATOM     11  O   UNL     1     137.397 -16.877  80.328  1.00  0.00    -0.451 OA
ENDROOT
BRANCH   1  12
ATOM     12  C   UNL     1     136.040 -18.704  79.529  1.00  0.00     0.063 A 
ATOM     13  C   UNL     1     134.362 -20.082  80.622  1.00  0.00     0.047 A 
ATOM     14  C   UNL     1     135.576 -19.392  80.661  1.00  0.00     0.020 A 
ATOM     15  C   UNL     1     133.602 -20.104  79.446  1.00  0.00     0.119 A 
ATOM     16  C   UNL     1     134.068 -19.441  78.307  1.00  0.00     0.093 A 
ATOM     17  C   UNL     1     135.290 -18.751  78.336  1.00  0.00     0.130 A 
BRANCH  15  18
ATOM     18  O   UNL     1     132.388 -20.785  79.398  1.00  0.00    -0.508 OA
ATOM     19  H   UNL     1     132.246 -21.650  79.907  1.00  0.00     0.293 HD
ENDBRANCH  15  18
BRANCH  17  20
ATOM     20  O   UNL     1     135.766 -18.135  77.178  1.00  0.00    -0.507 OA
ATOM     21  H   UNL     1     136.714 -18.277  76.851  1.00  0.00     0.293 HD
ENDBRANCH  17  20
ENDBRANCH   1  12
BRANCH   2  22
ATOM     22  O   UNL     1     138.387 -19.578  78.099  1.00  0.00    -0.502 OA
ATOM     23  H   UNL     1     137.818 -20.380  78.342  1.00  0.00     0.293 HD
ENDBRANCH   2  22
BRANCH   6  24
ATOM     24  O   UNL     1     142.073 -16.135  79.384  1.00  0.00    -0.507 OA
ATOM     25  H   UNL     1     142.935 -15.637  79.568  1.00  0.00     0.293 HD
ENDBRANCH   6  24
BRANCH   8  26
ATOM     26  O   UNL     1     139.617 -13.089  82.206  1.00  0.00    -0.508 OA
ATOM     27  H   UNL     1     140.301 -12.935  82.937  1.00  0.00     0.293 HD
ENDBRANCH   8  26
TORSDOF 6
ENDMDL
MODEL 2
REMARK VINA RESULT:    -7.342      2.812      5.755
REMARK INTER + INTRA:          -9.152
REMARK INTER:                  -8.745
REMARK INTRA:                  -0.407
REMARK UNBOUND:                -0.308
REMARK SMILES O=c1c(O)c(-c2ccc(O)cc2O)oc2cc(O)cc(O)c12
REMARK SMILES IDX 5 1 3 2 2 3 1 4 22 5 20 6 19 7 17 8 16 9 15 10 14 11 6 12
REMARK SMILES IDX 8 13 7 14 9 15 11 16 12 17 10 18 13 20 4 22 21 24 18 26
REMARK H PARENT 10 19 13 21 4 23 21 25 18 27
REMARK Flexibility Score: inf
ROOT
ATOM      1  C   UNL     1     138.978 -19.633  78.759  1.00  0.00     0.184 A 
ATOM      2  C   UNL     1     137.726 -20.050  78.275  1.00  0.00     0.208 A 
ATOM      3  C   UNL     1     136.564 -19.544  78.877  1.00  0.00     0.238 A 
ATOM      4  O   UNL     1     135.434 -19.901  78.445  1.00  0.00    -0.285 OA
ATOM      5  C   UNL     1     136.676 -18.650  79.963  1.00  0.00     0.111 A 
ATOM      6  C   UNL     1     135.555 -18.097  80.628  1.00  0.00     0.134 A 
ATOM      7  C   UNL     1     135.750 -17.221  81.707  1.00  0.00     0.093 A 
ATOM      8  C   UNL     1     137.037 -16.888  82.132  1.00  0.00     0.123 A 
ATOM      9  C   UNL     1     138.149 -17.431  81.478  1.00  0.00     0.094 A 
ATOM     10  C   UNL     1     137.977 -18.305  80.401  1.00  0.00     0.146 A 
ATOM     11  O   UNL     1     139.048 -18.802  79.793  1.00  0.00    -0.451 OA
ENDROOT
BRANCH   1  12
ATOM     12  C   UNL     1     140.241 -20.118  78.162  1.00  0.00     0.063 A 
ATOM     13  C   UNL     1     141.961 -21.833  78.050  1.00  0.00     0.047 A 
ATOM     14  C   UNL     1     140.766 -21.349  78.588  1.00  0.00     0.020 A 
ATOM     15  C   UNL     1     142.652 -21.088  77.087  1.00  0.00     0.119 A 
ATOM     16  C   UNL     1     142.148 -19.851  76.674  1.00  0.00     0.093 A 
ATOM     17  C   UNL     1     140.952 -19.354  77.215  1.00  0.00     0.130 A 
BRANCH  15  18
ATOM     18  O   UNL     1     143.841 -21.564  76.540  1.00  0.00    -0.508 OA
ATOM     19  H   UNL     1     144.734 -21.400  76.991  1.00  0.00     0.293 HD
ENDBRANCH  15  18
BRANCH  17  20
ATOM     20  O   UNL     1     140.486 -18.096  76.829  1.00  0.00    -0.507 OA
ATOM     21  H   UNL     1     140.501 -17.307  77.464  1.00  0.00     0.293 HD
ENDBRANCH  17  20
ENDBRANCH   1  12
BRANCH   2  22
ATOM     22  O   UNL     1     137.649 -20.972  77.228  1.00  0.00    -0.502 OA
ATOM     23  H   UNL     1     137.712 -20.694  76.256  1.00  0.00     0.293 HD
ENDBRANCH   2  22
BRANCH   6  24
ATOM     24  O   UNL     1     134.256 -18.410  80.229  1.00  0.00    -0.507 OA
ATOM     25  H   UNL     1     133.553 -17.694  80.093  1.00  0.00     0.293 HD
ENDBRANCH   6  24
BRANCH   8  26
ATOM     26  O   UNL     1     137.203 -16.017  83.206  1.00  0.00    -0.508 OA
ATOM     27  H   UNL     1     136.784 -16.203  84.109  1.00  0.00     0.293 HD
ENDBRANCH   8  26
TORSDOF 6
ENDMDL
MODEL 3
REMARK VINA RESULT:    -7.015      1.529      6.775
REMARK INTER + INTRA:          -8.759
REMARK INTER:                  -8.411
REMARK INTRA:                  -0.348
REMARK UNBOUND:                -0.308
REMARK SMILES O=c1c(O)c(-c2ccc(O)cc2O)oc2cc(O)cc(O)c12
REMARK SMILES IDX 5 1 3 2 2 3 1 4 22 5 20 6 19 7 17 8 16 9 15 10 14 11 6 12
REMARK SMILES IDX 8 13 7 14 9 15 11 16 12 17 10 18 13 20 4 22 21 24 18 26
REMARK H PARENT 10 19 13 21 4 23 21 25 18 27
REMARK Flexibility Score: inf
ROOT
ATOM      1  C   UNL     1     137.436 -17.865  79.643  1.00  0.00     0.184 A 
ATOM      2  C   UNL     1     136.922 -18.690  80.659  1.00  0.00     0.208 A 
ATOM      3  C   UNL     1     135.683 -19.317  80.461  1.00  0.00     0.238 A 
ATOM      4  O   UNL     1     135.216 -20.067  81.360  1.00  0.00    -0.285 OA
ATOM      5  C   UNL     1     134.973 -19.093  79.262  1.00  0.00     0.111 A 
ATOM      6  C   UNL     1     133.717 -19.684  78.984  1.00  0.00     0.134 A 
ATOM      7  C   UNL     1     133.069 -19.404  77.772  1.00  0.00     0.093 A 
ATOM      8  C   UNL     1     133.651 -18.548  76.834  1.00  0.00     0.123 A 
ATOM      9  C   UNL     1     134.893 -17.962  77.103  1.00  0.00     0.094 A 
ATOM     10  C   UNL     1     135.555 -18.228  78.304  1.00  0.00     0.146 A 
ATOM     11  O   UNL     1     136.735 -17.663  78.533  1.00  0.00    -0.451 OA
ENDROOT
BRANCH   1  12
ATOM     12  C   UNL     1     138.740 -17.184  79.783  1.00  0.00     0.063 A 
ATOM     13  C   UNL     1     140.125 -15.568  80.960  1.00  0.00     0.047 A 
ATOM     14  C   UNL     1     138.907 -16.235  80.805  1.00  0.00     0.020 A 
ATOM     15  C   UNL     1     141.188 -15.832  80.088  1.00  0.00     0.119 A 
ATOM     16  C   UNL     1     141.024 -16.758  79.053  1.00  0.00     0.093 A 
ATOM     17  C   UNL     1     139.801 -17.427  78.887  1.00  0.00     0.130 A 
BRANCH  15  18
ATOM     18  O   UNL     1     142.407 -15.176  80.237  1.00  0.00    -0.508 OA
ATOM     19  H   UNL     1     142.891 -15.154  81.128  1.00  0.00     0.293 HD
ENDBRANCH  15  18
BRANCH  17  20
ATOM     20  O   UNL     1     139.635 -18.313  77.820  1.00  0.00    -0.507 OA
ATOM     21  H   UNL     1     138.866 -18.220  77.167  1.00  0.00     0.293 HD
ENDBRANCH  17  20
ENDBRANCH   1  12
BRANCH   2  22
ATOM     22  O   UNL     1     137.627 -18.854  81.854  1.00  0.00    -0.502 OA
ATOM     23  H   UNL     1     138.500 -19.367  81.901  1.00  0.00     0.293 HD
ENDBRANCH   2  22
BRANCH   6  24
ATOM     24  O   UNL     1     133.109 -20.543  79.900  1.00  0.00    -0.507 OA
ATOM     25  H   UNL     1     132.105 -20.674  79.923  1.00  0.00     0.293 HD
ENDBRANCH   6  24
BRANCH   8  26
ATOM     26  O   UNL     1     132.987 -18.286  75.638  1.00  0.00    -0.508 OA
ATOM     27  H   UNL     1     133.079 -18.898  74.836  1.00  0.00     0.293 HD
ENDBRANCH   8  26
TORSDOF 6
ENDMDL
MODEL 4
REMARK VINA RESULT:    -6.859      3.155      5.856
REMARK INTER + INTRA:          -8.571
REMARK INTER:                  -8.428
REMARK INTRA:                  -0.143
REMARK UNBOUND:                -0.308
REMARK SMILES O=c1c(O)c(-c2ccc(O)cc2O)oc2cc(O)cc(O)c12
REMARK SMILES IDX 5 1 3 2 2 3 1 4 22 5 20 6 19 7 17 8 16 9 15 10 14 11 6 12
REMARK SMILES IDX 8 13 7 14 9 15 11 16 12 17 10 18 13 20 4 22 21 24 18 26
REMARK H PARENT 10 19 13 21 4 23 21 25 18 27
REMARK Flexibility Score: inf
ROOT
ATOM      1  C   UNL     1     133.666 -18.726  77.146  1.00  0.00     0.184 A 
ATOM      2  C   UNL     1     133.221 -19.481  78.246  1.00  0.00     0.208 A 
ATOM      3  C   UNL     1     134.159 -19.917  79.193  1.00  0.00     0.238 A 
ATOM      4  O   UNL     1     133.771 -20.584  80.190  1.00  0.00    -0.285 OA
ATOM      5  C   UNL     1     135.524 -19.609  79.013  1.00  0.00     0.111 A 
ATOM      6  C   UNL     1     136.535 -20.013  79.920  1.00  0.00     0.134 A 
ATOM      7  C   UNL     1     137.872 -19.675  79.665  1.00  0.00     0.093 A 
ATOM      8  C   UNL     1     138.219 -18.944  78.527  1.00  0.00     0.123 A 
ATOM      9  C   UNL     1     137.224 -18.541  77.628  1.00  0.00     0.094 A 
ATOM     10  C   UNL     1     135.886 -18.866  77.864  1.00  0.00     0.146 A 
ATOM     11  O   UNL     1     134.961 -18.468  76.998  1.00  0.00    -0.451 OA
ENDROOT
BRANCH   1  12
ATOM     12  C   UNL     1     132.729 -18.226  76.118  1.00  0.00     0.063 A 
ATOM     13  C   UNL     1     130.621 -17.140  75.580  1.00  0.00     0.047 A 
ATOM     14  C   UNL     1     131.531 -17.617  76.526  1.00  0.00     0.020 A 
ATOM     15  C   UNL     1     130.891 -17.276  74.213  1.00  0.00     0.119 A 
ATOM     16  C   UNL     1     132.070 -17.902  73.797  1.00  0.00     0.093 A 
ATOM     17  C   UNL     1     132.987 -18.390  74.742  1.00  0.00     0.130 A 
BRANCH  15  18
ATOM     18  O   UNL     1     129.993 -16.799  73.261  1.00  0.00    -0.508 OA
ATOM     19  H   UNL     1     129.016 -17.069  73.273  1.00  0.00     0.293 HD
ENDBRANCH  15  18
BRANCH  17  20
ATOM     20  O   UNL     1     134.136 -19.056  74.313  1.00  0.00    -0.507 OA
ATOM     21  H   UNL     1     135.063 -18.724  74.552  1.00  0.00     0.293 HD
ENDBRANCH  17  20
ENDBRANCH   1  12
BRANCH   2  22
ATOM     22  O   UNL     1     131.868 -19.808  78.371  1.00  0.00    -0.502 OA
ATOM     23  H   UNL     1     131.387 -20.390  77.696  1.00  0.00     0.293 HD
ENDBRANCH   2  22
BRANCH   6  24
ATOM     24  O   UNL     1     136.222 -20.745  81.065  1.00  0.00    -0.507 OA
ATOM     25  H   UNL     1     135.878 -20.299  81.906  1.00  0.00     0.293 HD
ENDBRANCH   6  24
BRANCH   8  26
ATOM     26  O   UNL     1     139.554 -18.622  78.297  1.00  0.00    -0.508 OA
ATOM     27  H   UNL     1     139.941 -17.729  78.580  1.00  0.00     0.293 HD
ENDBRANCH   8  26
TORSDOF 6
ENDMDL
MODEL 5
REMARK VINA RESULT:    -6.809      1.551      6.890
REMARK INTER + INTRA:          -8.510
REMARK INTER:                  -8.421
REMARK INTRA:                  -0.089
REMARK UNBOUND:                -0.308
REMARK SMILES O=c1c(O)c(-c2ccc(O)cc2O)oc2cc(O)cc(O)c12
REMARK SMILES IDX 5 1 3 2 2 3 1 4 22 5 20 6 19 7 17 8 16 9 15 10 14 11 6 12
REMARK SMILES IDX 8 13 7 14 9 15 11 16 12 17 10 18 13 20 4 22 21 24 18 26
REMARK H PARENT 10 19 13 21 4 23 21 25 18 27
REMARK Flexibility Score: inf
ROOT
ATOM      1  C   UNL     1     137.685 -17.531  79.848  1.00  0.00     0.184 A 
ATOM      2  C   UNL     1     137.104 -18.174  80.955  1.00  0.00     0.208 A 
ATOM      3  C   UNL     1     135.892 -18.858  80.783  1.00  0.00     0.238 A 
ATOM      4  O   UNL     1     135.367 -19.448  81.766  1.00  0.00    -0.285 OA
ATOM      5  C   UNL     1     135.274 -18.870  79.515  1.00  0.00     0.111 A 
ATOM      6  C   UNL     1     134.050 -19.534  79.257  1.00  0.00     0.134 A 
ATOM      7  C   UNL     1     133.493 -19.491  77.970  1.00  0.00     0.093 A 
ATOM      8  C   UNL     1     134.135 -18.802  76.939  1.00  0.00     0.123 A 
ATOM      9  C   UNL     1     135.345 -18.145  77.188  1.00  0.00     0.094 A 
ATOM     10  C   UNL     1     135.916 -18.175  78.463  1.00  0.00     0.146 A 
ATOM     11  O   UNL     1     137.068 -17.548  78.671  1.00  0.00    -0.451 OA
ENDROOT
BRANCH   1  12
ATOM     12  C   UNL     1     138.966 -16.803  79.958  1.00  0.00     0.063 A 
ATOM     13  C   UNL     1     141.280 -16.550  79.254  1.00  0.00     0.047 A 
ATOM     14  C   UNL     1     140.053 -17.214  79.169  1.00  0.00     0.020 A 
ATOM     15  C   UNL     1     141.439 -15.475  80.136  1.00  0.00     0.119 A 
ATOM     16  C   UNL     1     140.369 -15.073  80.941  1.00  0.00     0.093 A 
ATOM     17  C   UNL     1     139.136 -15.739  80.867  1.00  0.00     0.130 A 
BRANCH  15  18
ATOM     18  O   UNL     1     142.656 -14.803  80.224  1.00  0.00    -0.508 OA
ATOM     19  H   UNL     1     143.160 -14.510  79.395  1.00  0.00     0.293 HD
ENDBRANCH  15  18
BRANCH  17  20
ATOM     20  O   UNL     1     138.091 -15.359  81.712  1.00  0.00    -0.507 OA
ATOM     21  H   UNL     1     137.964 -14.396  82.000  1.00  0.00     0.293 HD
ENDBRANCH  17  20
ENDBRANCH   1  12
BRANCH   2  22
ATOM     22  O   UNL     1     137.719 -18.105  82.208  1.00  0.00    -0.502 OA
ATOM     23  H   UNL     1     137.512 -18.763  82.950  1.00  0.00     0.293 HD
ENDBRANCH   2  22
BRANCH   6  24
ATOM     24  O   UNL     1     133.384 -20.231  80.266  1.00  0.00    -0.507 OA
ATOM     25  H   UNL     1     132.466 -19.950  80.591  1.00  0.00     0.293 HD
ENDBRANCH   6  24
BRANCH   8  26
ATOM     26  O   UNL     1     133.561 -18.774  75.670  1.00  0.00    -0.508 OA
ATOM     27  H   UNL     1     133.608 -17.949  75.085  1.00  0.00     0.293 HD
ENDBRANCH   8  26
TORSDOF 6
ENDMDL
MODEL 6
REMARK VINA RESULT:    -6.758      1.755      6.898
REMARK INTER + INTRA:          -8.449
REMARK INTER:                  -8.089
REMARK INTRA:                  -0.360
REMARK UNBOUND:                -0.308
REMARK SMILES O=c1c(O)c(-c2ccc(O)cc2O)oc2cc(O)cc(O)c12
REMARK SMILES IDX 5 1 3 2 2 3 1 4 22 5 20 6 19 7 17 8 16 9 15 10 14 11 6 12
REMARK SMILES IDX 8 13 7 14 9 15 11 16 12 17 10 18 13 20 4 22 21 24 18 26
REMARK H PARENT 10 19 13 21 4 23 21 25 18 27
REMARK Flexibility Score: inf
ROOT
ATOM      1  C   UNL     1     137.093 -17.116  80.187  1.00  0.00     0.184 A 
ATOM      2  C   UNL     1     136.429 -17.856  81.180  1.00  0.00     0.208 A 
ATOM      3  C   UNL     1     135.423 -18.755  80.797  1.00  0.00     0.238 A 
ATOM      4  O   UNL     1     134.827 -19.434  81.678  1.00  0.00    -0.285 OA
ATOM      5  C   UNL     1     135.086 -18.882  79.433  1.00  0.00     0.111 A 
ATOM      6  C   UNL     1     134.082 -19.763  78.963  1.00  0.00     0.134 A 
ATOM      7  C   UNL     1     133.799 -19.825  77.590  1.00  0.00     0.093 A 
ATOM      8  C   UNL     1     134.497 -19.027  76.681  1.00  0.00     0.123 A 
ATOM      9  C   UNL     1     135.491 -18.156  77.140  1.00  0.00     0.094 A 
ATOM     10  C   UNL     1     135.789 -18.079  78.503  1.00  0.00     0.146 A 
ATOM     11  O   UNL     1     136.740 -17.248  78.912  1.00  0.00    -0.451 OA
ENDROOT
BRANCH   1  12
ATOM     12  C   UNL     1     138.170 -16.160  80.521  1.00  0.00     0.063 A 
ATOM     13  C   UNL     1     140.549 -15.699  80.725  1.00  0.00     0.047 A 
ATOM     14  C   UNL     1     139.507 -16.575  80.411  1.00  0.00     0.020 A 
ATOM     15  C   UNL     1     140.267 -14.400  81.165  1.00  0.00     0.119 A 
ATOM     16  C   UNL     1     138.938 -13.985  81.299  1.00  0.00     0.093 A 
ATOM     17  C   UNL     1     137.886 -14.862  80.992  1.00  0.00     0.130 A 
BRANCH  15  18
ATOM     18  O   UNL     1     141.298 -13.516  81.476  1.00  0.00    -0.508 OA
ATOM     19  H   UNL     1     141.250 -12.536  81.220  1.00  0.00     0.293 HD
ENDBRANCH  15  18
BRANCH  17  20
ATOM     20  O   UNL     1     136.565 -14.451  81.177  1.00  0.00    -0.507 OA
ATOM     21  H   UNL     1     135.867 -15.070  81.573  1.00  0.00     0.293 HD
ENDBRANCH  17  20
ENDBRANCH   1  12
BRANCH   2  22
ATOM     22  O   UNL     1     136.755 -17.674  82.527  1.00  0.00    -0.502 OA
ATOM     23  H   UNL     1     137.062 -18.437  83.118  1.00  0.00     0.293 HD
ENDBRANCH   2  22
BRANCH   6  24
ATOM     24  O   UNL     1     133.365 -20.572  79.844  1.00  0.00    -0.507 OA
ATOM     25  H   UNL     1     132.756 -20.181  80.552  1.00  0.00     0.293 HD
ENDBRANCH   6  24
BRANCH   8  26
ATOM     26  O   UNL     1     134.196 -19.107  75.324  1.00  0.00    -0.508 OA
ATOM     27  H   UNL     1     134.647 -19.784  74.720  1.00  0.00     0.293 HD
ENDBRANCH   8  26
TORSDOF 6
ENDMDL
MODEL 7
REMARK VINA RESULT:    -6.665      2.607      6.452
REMARK INTER + INTRA:          -8.337
REMARK INTER:                  -8.020
REMARK INTRA:                  -0.317
REMARK UNBOUND:                -0.308
REMARK SMILES O=c1c(O)c(-c2ccc(O)cc2O)oc2cc(O)cc(O)c12
REMARK SMILES IDX 5 1 3 2 2 3 1 4 22 5 20 6 19 7 17 8 16 9 15 10 14 11 6 12
REMARK SMILES IDX 8 13 7 14 9 15 11 16 12 17 10 18 13 20 4 22 21 24 18 26
REMARK H PARENT 10 19 13 21 4 23 21 25 18 27
REMARK Flexibility Score: inf
ROOT
ATOM      1  C   UNL     1     139.224 -19.264  78.738  1.00  0.00     0.184 A 
ATOM      2  C   UNL     1     139.286 -17.971  79.287  1.00  0.00     0.208 A 
ATOM      3  C   UNL     1     138.126 -17.418  79.851  1.00  0.00     0.238 A 
ATOM      4  O   UNL     1     138.171 -16.264  80.357  1.00  0.00    -0.285 OA
ATOM      5  C   UNL     1     136.925 -18.158  79.837  1.00  0.00     0.111 A 
ATOM      6  C   UNL     1     135.711 -17.674  80.382  1.00  0.00     0.134 A 
ATOM      7  C   UNL     1     134.555 -18.467  80.321  1.00  0.00     0.093 A 
ATOM      8  C   UNL     1     134.589 -19.731  79.729  1.00  0.00     0.123 A 
ATOM      9  C   UNL     1     135.786 -20.216  79.190  1.00  0.00     0.094 A 
ATOM     10  C   UNL     1     136.949 -19.442  79.241  1.00  0.00     0.146 A 
ATOM     11  O   UNL     1     138.073 -19.927  78.727  1.00  0.00    -0.451 OA
ENDROOT
BRANCH   1  12
ATOM     12  C   UNL     1     140.411 -19.909  78.138  1.00  0.00     0.063 A 
ATOM     13  C   UNL     1     142.157 -19.885  76.446  1.00  0.00     0.047 A 
ATOM     14  C   UNL     1     141.037 -19.298  77.040  1.00  0.00     0.020 A 
ATOM     15  C   UNL     1     142.658 -21.097  76.934  1.00  0.00     0.119 A 
ATOM     16  C   UNL     1     142.028 -21.725  78.013  1.00  0.00     0.093 A 
ATOM     17  C   UNL     1     140.898 -21.145  78.611  1.00  0.00     0.130 A 
BRANCH  15  18
ATOM     18  O   UNL     1     143.777 -21.688  76.352  1.00  0.00    -0.508 OA
ATOM     19  H   UNL     1     144.106 -21.410  75.435  1.00  0.00     0.293 HD
ENDBRANCH  15  18
BRANCH  17  20
ATOM     20  O   UNL     1     140.250 -21.807  79.655  1.00  0.00    -0.507 OA
ATOM     21  H   UNL     1     139.438 -22.392  79.491  1.00  0.00     0.293 HD
ENDBRANCH  17  20
ENDBRANCH   1  12
BRANCH   2  22
ATOM     22  O   UNL     1     140.479 -17.246  79.244  1.00  0.00    -0.502 OA
ATOM     23  H   UNL     1     140.574 -16.334  79.673  1.00  0.00     0.293 HD
ENDBRANCH   2  22
BRANCH   6  24
ATOM     24  O   UNL     1     135.644 -16.415  80.979  1.00  0.00    -0.507 OA
ATOM     25  H   UNL     1     134.961 -15.724  80.691  1.00  0.00     0.293 HD
ENDBRANCH   6  24
BRANCH   8  26
ATOM     26  O   UNL     1     133.428 -20.499  79.681  1.00  0.00    -0.508 OA
ATOM     27  H   UNL     1     132.614 -20.197  79.158  1.00  0.00     0.293 HD
ENDBRANCH   8  26
TORSDOF 6
ENDMDL
MODEL 8
REMARK VINA RESULT:    -6.227      1.396      6.258
REMARK INTER + INTRA:          -7.809
REMARK INTER:                  -7.664
REMARK INTRA:                  -0.145
REMARK UNBOUND:                -0.308
REMARK SMILES O=c1c(O)c(-c2ccc(O)cc2O)oc2cc(O)cc(O)c12
REMARK SMILES IDX 5 1 3 2 2 3 1 4 22 5 20 6 19 7 17 8 16 9 15 10 14 11 6 12
REMARK SMILES IDX 8 13 7 14 9 15 11 16 12 17 10 18 13 20 4 22 21 24 18 26
REMARK H PARENT 10 19 13 21 4 23 21 25 18 27
REMARK Flexibility Score: inf
ROOT
ATOM      1  C   UNL     1     138.087 -16.651  79.904  1.00  0.00     0.184 A 
ATOM      2  C   UNL     1     138.979 -17.469  79.188  1.00  0.00     0.208 A 
ATOM      3  C   UNL     1     138.532 -18.714  78.721  1.00  0.00     0.238 A 
ATOM      4  O   UNL     1     139.319 -19.451  78.068  1.00  0.00    -0.285 OA
ATOM      5  C   UNL     1     137.211 -19.127  78.997  1.00  0.00     0.111 A 
ATOM      6  C   UNL     1     136.682 -20.367  78.565  1.00  0.00     0.134 A 
ATOM      7  C   UNL     1     135.361 -20.710  78.887  1.00  0.00     0.093 A 
ATOM      8  C   UNL     1     134.560 -19.839  79.629  1.00  0.00     0.123 A 
ATOM      9  C   UNL     1     135.076 -18.611  80.057  1.00  0.00     0.094 A 
ATOM     10  C   UNL     1     136.390 -18.250  79.746  1.00  0.00     0.146 A 
ATOM     11  O   UNL     1     136.854 -17.077  80.160  1.00  0.00    -0.451 OA
ENDROOT
BRANCH   1  12
ATOM     12  C   UNL     1     138.490 -15.324  80.414  1.00  0.00     0.063 A 
ATOM     13  C   UNL     1     140.109 -13.963  81.614  1.00  0.00     0.047 A 
ATOM     14  C   UNL     1     139.701 -15.202  81.113  1.00  0.00     0.020 A 
ATOM     15  C   UNL     1     139.304 -12.832  81.433  1.00  0.00     0.119 A 
ATOM     16  C   UNL     1     138.085 -12.948  80.758  1.00  0.00     0.093 A 
ATOM     17  C   UNL     1     137.666 -14.191  80.257  1.00  0.00     0.130 A 
BRANCH  15  18
ATOM     18  O   UNL     1     139.702 -11.591  81.924  1.00  0.00    -0.508 OA
ATOM     19  H   UNL     1     139.656 -10.755  81.352  1.00  0.00     0.293 HD
ENDBRANCH  15  18
BRANCH  17  20
ATOM     20  O   UNL     1     136.424 -14.302  79.628  1.00  0.00    -0.507 OA
ATOM     21  H   UNL     1     136.325 -14.196  78.626  1.00  0.00     0.293 HD
ENDBRANCH  17  20
ENDBRANCH   1  12
BRANCH   2  22
ATOM     22  O   UNL     1     140.294 -17.050  78.972  1.00  0.00    -0.502 OA
ATOM     23  H   UNL     1     140.548 -16.434  78.209  1.00  0.00     0.293 HD
ENDBRANCH   2  22
BRANCH   6  24
ATOM     24  O   UNL     1     137.457 -21.260  77.824  1.00  0.00    -0.507 OA
ATOM     25  H   UNL     1     137.061 -21.816  77.076  1.00  0.00     0.293 HD
ENDBRANCH   6  24
BRANCH   8  26
ATOM     26  O   UNL     1     133.251 -20.203  79.936  1.00  0.00    -0.508 OA
ATOM     27  H   UNL     1     132.951 -20.348  80.893  1.00  0.00     0.293 HD
ENDBRANCH   8  26
TORSDOF 6
ENDMDL
MODEL 9
REMARK VINA RESULT:    -6.203      1.274      2.959
REMARK INTER + INTRA:          -7.780
REMARK INTER:                  -7.756
REMARK INTRA:                  -0.024
REMARK UNBOUND:                -0.308
REMARK SMILES O=c1c(O)c(-c2ccc(O)cc2O)oc2cc(O)cc(O)c12
REMARK SMILES IDX 5 1 3 2 2 3 1 4 22 5 20 6 19 7 17 8 16 9 15 10 14 11 6 12
REMARK SMILES IDX 8 13 7 14 9 15 11 16 12 17 10 18 13 20 4 22 21 24 18 26
REMARK H PARENT 10 19 13 21 4 23 21 25 18 27
REMARK Flexibility Score: inf
ROOT
ATOM      1  C   UNL     1     137.198 -17.075  80.212  1.00  0.00     0.184 A 
ATOM      2  C   UNL     1     136.725 -15.981  80.957  1.00  0.00     0.208 A 
ATOM      3  C   UNL     1     137.626 -14.968  81.321  1.00  0.00     0.238 A 
ATOM      4  O   UNL     1     137.212 -13.976  81.979  1.00  0.00    -0.285 OA
ATOM      5  C   UNL     1     138.983 -15.079  80.952  1.00  0.00     0.111 A 
ATOM      6  C   UNL     1     139.957 -14.105  81.281  1.00  0.00     0.134 A 
ATOM      7  C   UNL     1     141.290 -14.292  80.885  1.00  0.00     0.093 A 
ATOM      8  C   UNL     1     141.667 -15.430  80.169  1.00  0.00     0.123 A 
ATOM      9  C   UNL     1     140.709 -16.396  79.840  1.00  0.00     0.094 A 
ATOM     10  C   UNL     1     139.376 -16.228  80.224  1.00  0.00     0.146 A 
ATOM     11  O   UNL     1     138.486 -17.156  79.895  1.00  0.00    -0.451 OA
ENDROOT
BRANCH   1  12
ATOM     12  C   UNL     1     136.301 -18.170  79.787  1.00  0.00     0.063 A 
ATOM     13  C   UNL     1     134.475 -19.685  80.320  1.00  0.00     0.047 A 
ATOM     14  C   UNL     1     135.334 -18.647  80.687  1.00  0.00     0.020 A 
ATOM     15  C   UNL     1     134.578 -20.268  79.051  1.00  0.00     0.119 A 
ATOM     16  C   UNL     1     135.553 -19.815  78.156  1.00  0.00     0.093 A 
ATOM     17  C   UNL     1     136.424 -18.777  78.521  1.00  0.00     0.130 A 
BRANCH  15  18
ATOM     18  O   UNL     1     133.723 -21.300  78.672  1.00  0.00    -0.508 OA
ATOM     19  H   UNL     1     132.819 -21.427  79.113  1.00  0.00     0.293 HD
ENDBRANCH  15  18
BRANCH  17  20
ATOM     20  O   UNL     1     137.424 -18.369  77.636  1.00  0.00    -0.507 OA
ATOM     21  H   UNL     1     137.924 -19.032  77.057  1.00  0.00     0.293 HD
ENDBRANCH  17  20
ENDBRANCH   1  12
BRANCH   2  22
ATOM     22  O   UNL     1     135.385 -15.923  81.347  1.00  0.00    -0.502 OA
ATOM     23  H   UNL     1     134.668 -15.510  80.762  1.00  0.00     0.293 HD
ENDBRANCH   2  22
BRANCH   6  24
ATOM     24  O   UNL     1     139.612 -12.958  81.996  1.00  0.00    -0.507 OA
ATOM     25  H   UNL     1     139.992 -12.049  81.761  1.00  0.00     0.293 HD
ENDBRANCH   6  24
BRANCH   8  26
ATOM     26  O   UNL     1     142.997 -15.592  79.788  1.00  0.00    -0.508 OA
ATOM     27  H   UNL     1     143.308 -16.414  79.284  1.00  0.00     0.293 HD
ENDBRANCH   8  26
TORSDOF 6
ENDMDL
