MODEL 1
REMARK VINA RESULT:    -5.790      0.000      0.000
REMARK INTER + INTRA:          -8.198
REMARK INTER:                  -7.821
REMARK INTRA:                  -0.377
REMARK UNBOUND:                -0.377
REMARK SMILES CCCCCCC=CC(=O)[O-]
REMARK SMILES IDX 5 1 6 2 7 3 8 4 9 5 10 6 11 7 4 8 3 9 2 10 1 11
REMARK H PARENT
REMARK Flexibility Score: inf
ROOT
ATOM      1  C   UNL     1      15.002  72.191  72.364  1.00  0.00     0.004 C 
ENDROOT
BRANCH   1   2
ATOM      2  C   UNL     1      16.398  72.813  72.176  1.00  0.00     0.027 C 
BRANCH   2   3
ATOM      3  C   UNL     1      17.494  71.785  72.198  1.00  0.00    -0.025 C 
ATOM      4  C   UNL     1      18.688  72.024  71.645  1.00  0.00     0.020 C 
BRANCH   4   5
ATOM      5  C   UNL     1      19.778  71.035  71.661  1.00  0.00     0.064 C 
ATOM      6  O   UNL     1      19.877  70.161  70.758  1.00  0.00    -0.545 OA
ATOM      7  O   UNL     1      20.713  71.066  72.688  1.00  0.00    -0.545 OA
ENDBRANCH   4   5
ENDBRANCH   2   3
ENDBRANCH   1   2
BRANCH   1   8
ATOM      8  C   UNL     1      14.988  70.650  72.355  1.00  0.00     0.000 C 
BRANCH   8   9
ATOM      9  C   UNL     1      14.208  70.001  73.513  1.00  0.00    -0.000 C 
BRANCH   9  10
ATOM     10  C   UNL     1      14.660  70.477  74.910  1.00  0.00    -0.003 C 
ATOM     11  C   UNL     1      13.923  69.760  76.041  1.00  0.00     0.004 C 
ENDBRANCH   9  10
ENDBRANCH   8   9
ENDBRANCH   1   8
TORSDOF 6
ENDMDL
MODEL 2
REMARK VINA RESULT:    -5.620      0.756      1.015
REMARK INTER + INTRA:          -7.968
REMARK INTER:                  -7.659
REMARK INTRA:                  -0.308
REMARK UNBOUND:                -0.377
REMARK SMILES CCCCCCC=CC(=O)[O-]
REMARK SMILES IDX 5 1 6 2 7 3 8 4 9 5 10 6 11 7 4 8 3 9 2 10 1 11
REMARK H PARENT
REMARK Flexibility Score: inf
ROOT
ATOM      1  C   UNL     1      15.380  72.265  72.369  1.00  0.00     0.004 C 
ENDROOT
BRANCH   1   2
ATOM      2  C   UNL     1      16.760  72.902  72.124  1.00  0.00     0.027 C 
BRANCH   2   3
ATOM      3  C   UNL     1      17.851  71.877  71.981  1.00  0.00    -0.025 C 
ATOM      4  C   UNL     1      19.094  72.224  71.632  1.00  0.00     0.020 C 
BRANCH   4   5
ATOM      5  C   UNL     1      20.178  71.239  71.493  1.00  0.00     0.064 C 
ATOM      6  O   UNL     1      20.376  70.360  72.375  1.00  0.00    -0.545 OA
ATOM      7  O   UNL     1      20.996  71.276  70.371  1.00  0.00    -0.545 OA
ENDBRANCH   4   5
ENDBRANCH   2   3
ENDBRANCH   1   2
BRANCH   1   8
ATOM      8  C   UNL     1      15.385  70.724  72.371  1.00  0.00     0.000 C 
BRANCH   8   9
ATOM      9  C   UNL     1      14.134  70.071  72.988  1.00  0.00    -0.000 C 
BRANCH   9  10
ATOM     10  C   UNL     1      13.707  70.697  74.332  1.00  0.00    -0.003 C 
ATOM     11  C   UNL     1      14.039  69.804  75.527  1.00  0.00     0.004 C 
ENDBRANCH   9  10
ENDBRANCH   8   9
ENDBRANCH   1   8
TORSDOF 6
ENDMDL
MODEL 3
REMARK VINA RESULT:    -5.546      2.655      3.278
REMARK INTER + INTRA:          -7.868
REMARK INTER:                  -7.249
REMARK INTRA:                  -0.619
REMARK UNBOUND:                -0.377
REMARK SMILES CCCCCCC=CC(=O)[O-]
REMARK SMILES IDX 5 1 6 2 7 3 8 4 9 5 10 6 11 7 4 8 3 9 2 10 1 11
REMARK H PARENT
REMARK Flexibility Score: inf
ROOT
ATOM      1  C   UNL     1      15.571  71.137  72.309  1.00  0.00     0.004 C 
ENDROOT
BRANCH   1   2
ATOM      2  C   UNL     1      16.795  72.033  72.574  1.00  0.00     0.027 C 
BRANCH   2   3
ATOM      3  C   UNL     1      17.526  71.654  73.832  1.00  0.00    -0.025 C 
ATOM      4  C   UNL     1      16.986  71.848  75.040  1.00  0.00     0.020 C 
BRANCH   4   5
ATOM      5  C   UNL     1      17.681  71.477  76.283  1.00  0.00     0.064 C 
ATOM      6  O   UNL     1      17.036  71.151  77.317  1.00  0.00    -0.545 OA
ATOM      7  O   UNL     1      19.069  71.486  76.318  1.00  0.00    -0.545 OA
ENDBRANCH   4   5
ENDBRANCH   2   3
ENDBRANCH   1   2
BRANCH   1   8
ATOM      8  C   UNL     1      14.226  71.766  72.721  1.00  0.00     0.000 C 
BRANCH   8   9
ATOM      9  C   UNL     1      13.346  70.881  73.625  1.00  0.00    -0.000 C 
BRANCH   9  10
ATOM     10  C   UNL     1      14.130  69.777  74.365  1.00  0.00    -0.003 C 
ATOM     11  C   UNL     1      14.008  69.889  75.884  1.00  0.00     0.004 C 
ENDBRANCH   9  10
ENDBRANCH   8   9
ENDBRANCH   1   8
TORSDOF 6
ENDMDL
MODEL 4
REMARK VINA RESULT:    -5.519      5.098      6.552
REMARK INTER + INTRA:          -7.832
REMARK INTER:                  -7.199
REMARK INTRA:                  -0.633
REMARK UNBOUND:                -0.377
REMARK SMILES CCCCCCC=CC(=O)[O-]
REMARK SMILES IDX 5 1 6 2 7 3 8 4 9 5 10 6 11 7 4 8 3 9 2 10 1 11
REMARK H PARENT
REMARK Flexibility Score: inf
ROOT
ATOM      1  C   UNL     1      13.450  72.914  72.138  1.00  0.00     0.004 C 
ENDROOT
BRANCH   1   2
ATOM      2  C   UNL     1      12.213  72.825  73.051  1.00  0.00     0.027 C 
BRANCH   2   3
ATOM      3  C   UNL     1      11.036  72.190  72.366  1.00  0.00    -0.025 C 
ATOM      4  C   UNL     1      11.176  71.106  71.595  1.00  0.00     0.020 C 
BRANCH   4   5
ATOM      5  C   UNL     1      10.037  70.464  70.921  1.00  0.00     0.064 C 
ATOM      6  O   UNL     1       9.986  69.213  70.778  1.00  0.00    -0.545 OA
ATOM      7  O   UNL     1       8.999  71.250  70.436  1.00  0.00    -0.545 OA
ENDBRANCH   4   5
ENDBRANCH   2   3
ENDBRANCH   1   2
BRANCH   1   8
ATOM      8  C   UNL     1      14.757  72.426  72.794  1.00  0.00     0.000 C 
BRANCH   8   9
ATOM      9  C   UNL     1      15.247  71.046  72.317  1.00  0.00    -0.000 C 
BRANCH   9  10
ATOM     10  C   UNL     1      14.362  69.875  72.794  1.00  0.00    -0.003 C 
ATOM     11  C   UNL     1      14.141  69.885  74.306  1.00  0.00     0.004 C 
ENDBRANCH   9  10
ENDBRANCH   8   9
ENDBRANCH   1   8
TORSDOF 6
ENDMDL
MODEL 5
REMARK VINA RESULT:    -5.450      6.199      7.655
REMARK INTER + INTRA:          -7.738
REMARK INTER:                  -7.291
REMARK INTRA:                  -0.447
REMARK UNBOUND:                -0.377
REMARK SMILES CCCCCCC=CC(=O)[O-]
REMARK SMILES IDX 5 1 6 2 7 3 8 4 9 5 10 6 11 7 4 8 3 9 2 10 1 11
REMARK H PARENT
REMARK Flexibility Score: inf
ROOT
ATOM      1  C   UNL     1      12.002  71.436  72.709  1.00  0.00     0.004 C 
ENDROOT
BRANCH   1   2
ATOM      2  C   UNL     1      11.854  72.449  73.859  1.00  0.00     0.027 C 
BRANCH   2   3
ATOM      3  C   UNL     1      10.564  72.283  74.612  1.00  0.00    -0.025 C 
ATOM      4  C   UNL     1      10.520  72.352  75.947  1.00  0.00     0.020 C 
BRANCH   4   5
ATOM      5  C   UNL     1       9.267  72.199  76.703  1.00  0.00     0.064 C 
ATOM      6  O   UNL     1       8.524  71.194  76.536  1.00  0.00    -0.545 OA
ATOM      7  O   UNL     1       8.897  73.177  77.618  1.00  0.00    -0.545 OA
ENDBRANCH   4   5
ENDBRANCH   2   3
ENDBRANCH   1   2
BRANCH   1   8
ATOM      8  C   UNL     1      13.460  71.063  72.377  1.00  0.00     0.000 C 
BRANCH   8   9
ATOM      9  C   UNL     1      14.046  69.916  73.221  1.00  0.00    -0.000 C 
BRANCH   9  10
ATOM     10  C   UNL     1      14.658  70.380  74.559  1.00  0.00    -0.003 C 
ATOM     11  C   UNL     1      13.915  69.819  75.770  1.00  0.00     0.004 C 
ENDBRANCH   9  10
ENDBRANCH   8   9
ENDBRANCH   1   8
TORSDOF 6
ENDMDL
MODEL 6
REMARK VINA RESULT:    -5.342      2.246      2.694
REMARK INTER + INTRA:          -7.593
REMARK INTER:                  -7.354
REMARK INTRA:                  -0.239
REMARK UNBOUND:                -0.377
REMARK SMILES CCCCCCC=CC(=O)[O-]
REMARK SMILES IDX 5 1 6 2 7 3 8 4 9 5 10 6 11 7 4 8 3 9 2 10 1 11
REMARK H PARENT
REMARK Flexibility Score: inf
ROOT
ATOM      1  C   UNL     1      16.670  71.708  73.500  1.00  0.00     0.004 C 
ENDROOT
BRANCH   1   2
ATOM      2  C   UNL     1      18.147  71.679  73.068  1.00  0.00     0.027 C 
BRANCH   2   3
ATOM      3  C   UNL     1      19.067  71.275  74.186  1.00  0.00    -0.025 C 
ATOM      4  C   UNL     1      20.164  70.543  73.959  1.00  0.00     0.020 C 
BRANCH   4   5
ATOM      5  C   UNL     1      21.081  70.141  75.037  1.00  0.00     0.064 C 
ATOM      6  O   UNL     1      22.297  69.907  74.803  1.00  0.00    -0.545 OA
ATOM      7  O   UNL     1      20.599  70.020  76.334  1.00  0.00    -0.545 OA
ENDBRANCH   4   5
ENDBRANCH   2   3
ENDBRANCH   1   2
BRANCH   1   8
ATOM      8  C   UNL     1      15.683  71.246  72.410  1.00  0.00     0.000 C 
BRANCH   8   9
ATOM      9  C   UNL     1      14.631  70.223  72.878  1.00  0.00    -0.000 C 
BRANCH   9  10
ATOM     10  C   UNL     1      13.827  70.680  74.114  1.00  0.00    -0.003 C 
ATOM     11  C   UNL     1      14.003  69.743  75.308  1.00  0.00     0.004 C 
ENDBRANCH   9  10
ENDBRANCH   8   9
ENDBRANCH   1   8
TORSDOF 6
ENDMDL
MODEL 7
REMARK VINA RESULT:    -5.324      3.155      5.785
REMARK INTER + INTRA:          -7.568
REMARK INTER:                  -7.308
REMARK INTRA:                  -0.260
REMARK UNBOUND:                -0.377
REMARK SMILES CCCCCCC=CC(=O)[O-]
REMARK SMILES IDX 5 1 6 2 7 3 8 4 9 5 10 6 11 7 4 8 3 9 2 10 1 11
REMARK H PARENT
REMARK Flexibility Score: inf
ROOT
ATOM      1  C   UNL     1      18.634  71.379  71.730  1.00  0.00     0.004 C 
ENDROOT
BRANCH   1   2
ATOM      2  C   UNL     1      17.741  72.633  71.773  1.00  0.00     0.027 C 
BRANCH   2   3
ATOM      3  C   UNL     1      16.360  72.340  72.289  1.00  0.00    -0.025 C 
ATOM      4  C   UNL     1      15.794  71.139  72.129  1.00  0.00     0.020 C 
BRANCH   4   5
ATOM      5  C   UNL     1      14.447  70.829  72.632  1.00  0.00     0.064 C 
ATOM      6  O   UNL     1      13.648  71.747  72.961  1.00  0.00    -0.545 OA
ATOM      7  O   UNL     1      14.047  69.503  72.744  1.00  0.00    -0.545 OA
ENDBRANCH   4   5
ENDBRANCH   2   3
ENDBRANCH   1   2
BRANCH   1   8
ATOM      8  C   UNL     1      20.138  71.678  71.573  1.00  0.00     0.000 C 
BRANCH   8   9
ATOM      9  C   UNL     1      20.874  70.789  70.554  1.00  0.00    -0.000 C 
BRANCH   9  10
ATOM     10  C   UNL     1      20.621  69.279  70.750  1.00  0.00    -0.003 C 
ATOM     11  C   UNL     1      20.081  68.605  69.490  1.00  0.00     0.004 C 
ENDBRANCH   9  10
ENDBRANCH   8   9
ENDBRANCH   1   8
TORSDOF 6
ENDMDL
MODEL 8
REMARK VINA RESULT:    -5.318      5.354      6.679
REMARK INTER + INTRA:          -7.560
REMARK INTER:                  -7.190
REMARK INTRA:                  -0.370
REMARK UNBOUND:                -0.377
REMARK SMILES CCCCCCC=CC(=O)[O-]
REMARK SMILES IDX 5 1 6 2 7 3 8 4 9 5 10 6 11 7 4 8 3 9 2 10 1 11
REMARK H PARENT
REMARK Flexibility Score: inf
ROOT
ATOM      1  C   UNL     1      14.226  72.580  72.272  1.00  0.00     0.004 C 
ENDROOT
BRANCH   1   2
ATOM      2  C   UNL     1      12.719  72.278  72.182  1.00  0.00     0.027 C 
BRANCH   2   3
ATOM      3  C   UNL     1      12.026  72.404  73.510  1.00  0.00    -0.025 C 
ATOM      4  C   UNL     1      10.767  71.987  73.684  1.00  0.00     0.020 C 
BRANCH   4   5
ATOM      5  C   UNL     1      10.072  72.095  74.977  1.00  0.00     0.064 C 
ATOM      6  O   UNL     1      10.702  72.376  76.033  1.00  0.00    -0.545 OA
ATOM      7  O   UNL     1       8.701  71.886  75.035  1.00  0.00    -0.545 OA
ENDBRANCH   4   5
ENDBRANCH   2   3
ENDBRANCH   1   2
BRANCH   1   8
ATOM      8  C   UNL     1      15.104  71.345  72.554  1.00  0.00     0.000 C 
BRANCH   8   9
ATOM      9  C   UNL     1      15.205  70.946  74.038  1.00  0.00    -0.000 C 
BRANCH   9  10
ATOM     10  C   UNL     1      14.192  69.861  74.460  1.00  0.00    -0.003 C 
ATOM     11  C   UNL     1      13.945  69.843  75.968  1.00  0.00     0.004 C 
ENDBRANCH   9  10
ENDBRANCH   8   9
ENDBRANCH   1   8
TORSDOF 6
ENDMDL
MODEL 9
REMARK VINA RESULT:    -5.198      7.301      9.009
REMARK INTER + INTRA:          -7.398
REMARK INTER:                  -7.096
REMARK INTRA:                  -0.301
REMARK UNBOUND:                -0.377
REMARK SMILES CCCCCCC=CC(=O)[O-]
REMARK SMILES IDX 5 1 6 2 7 3 8 4 9 5 10 6 11 7 4 8 3 9 2 10 1 11
REMARK H PARENT
REMARK Flexibility Score: inf
ROOT
ATOM      1  C   UNL     1      10.909  72.048  74.042  1.00  0.00     0.004 C 
ENDROOT
BRANCH   1   2
ATOM      2  C   UNL     1      10.808  72.214  75.569  1.00  0.00     0.027 C 
BRANCH   2   3
ATOM      3  C   UNL     1       9.386  72.290  76.048  1.00  0.00    -0.025 C 
ATOM      4  C   UNL     1       8.387  71.714  75.370  1.00  0.00     0.020 C 
BRANCH   4   5
ATOM      5  C   UNL     1       6.989  71.770  75.824  1.00  0.00     0.064 C 
ATOM      6  O   UNL     1       6.040  71.474  75.049  1.00  0.00    -0.545 OA
ATOM      7  O   UNL     1       6.710  72.153  77.130  1.00  0.00    -0.545 OA
ENDBRANCH   4   5
ENDBRANCH   2   3
ENDBRANCH   1   2
BRANCH   1   8
ATOM      8  C   UNL     1      12.347  72.107  73.492  1.00  0.00     0.000 C 
BRANCH   8   9
ATOM      9  C   UNL     1      12.785  70.871  72.684  1.00  0.00    -0.000 C 
BRANCH   9  10
ATOM     10  C   UNL     1      14.111  70.249  73.170  1.00  0.00    -0.003 C 
ATOM     11  C   UNL     1      14.058  69.829  74.638  1.00  0.00     0.004 C 
ENDBRANCH   9  10
ENDBRANCH   8   9
ENDBRANCH   1   8
TORSDOF 6
ENDMDL
