MODEL 1
REMARK VINA RESULT:    -3.767      0.000      0.000
REMARK INTER + INTRA:          -4.848
REMARK INTER:                  -4.648
REMARK INTRA:                  -0.200
REMARK UNBOUND:                -0.200
REMARK SMILES CCCCC=CC(C)=O
REMARK SMILES IDX 4 1 3 2 2 3 1 4 5 5 6 6 7 7 9 8 8 9
REMARK H PARENT
REMARK Flexibility Score: inf
ROOT
ATOM      1  C   UNL     1      17.733  53.220  35.599  1.00  0.00     0.027 C 
ENDROOT
BRANCH   1   2
ATOM      2  C   UNL     1      19.200  52.897  35.276  1.00  0.00     0.004 C 
BRANCH   2   3
ATOM      3  C   UNL     1      19.648  53.516  33.944  1.00  0.00    -0.003 C 
ATOM      4  C   UNL     1      19.948  52.437  32.908  1.00  0.00     0.004 C 
ENDBRANCH   2   3
ENDBRANCH   1   2
BRANCH   1   5
ATOM      5  C   UNL     1      16.774  52.286  34.907  1.00  0.00    -0.023 C 
ATOM      6  C   UNL     1      15.635  51.797  35.424  1.00  0.00     0.042 C 
BRANCH   6   7
ATOM      7  C   UNL     1      15.063  52.118  36.753  1.00  0.00     0.152 C 
ATOM      8  O   UNL     1      14.662  53.277  37.039  1.00  0.00    -0.295 OA
ATOM      9  C   UNL     1      14.890  51.023  37.756  1.00  0.00     0.093 C 
ENDBRANCH   6   7
ENDBRANCH   1   5
TORSDOF 4
ENDMDL
MODEL 2
REMARK VINA RESULT:    -3.747      2.231      4.994
REMARK INTER + INTRA:          -4.823
REMARK INTER:                  -4.555
REMARK INTRA:                  -0.268
REMARK UNBOUND:                -0.200
REMARK SMILES CCCCC=CC(C)=O
REMARK SMILES IDX 4 1 3 2 2 3 1 4 5 5 6 6 7 7 9 8 8 9
REMARK H PARENT
REMARK Flexibility Score: inf
ROOT
ATOM      1  C   UNL     1      16.626  53.292  35.418  1.00  0.00     0.027 C 
ENDROOT
BRANCH   1   2
ATOM      2  C   UNL     1      15.813  52.062  35.856  1.00  0.00     0.004 C 
BRANCH   2   3
ATOM      3  C   UNL     1      15.237  52.226  37.270  1.00  0.00    -0.003 C 
ATOM      4  C   UNL     1      14.712  50.898  37.808  1.00  0.00     0.004 C 
ENDBRANCH   2   3
ENDBRANCH   1   2
BRANCH   1   5
ATOM      5  C   UNL     1      18.071  53.200  35.832  1.00  0.00    -0.023 C 
ATOM      6  C   UNL     1      19.122  53.058  35.007  1.00  0.00     0.042 C 
BRANCH   6   7
ATOM      7  C   UNL     1      19.079  53.016  33.527  1.00  0.00     0.152 C 
ATOM      8  O   UNL     1      19.326  54.035  32.828  1.00  0.00    -0.295 OA
ATOM      9  C   UNL     1      18.807  51.716  32.841  1.00  0.00     0.093 C 
ENDBRANCH   6   7
ENDBRANCH   1   5
TORSDOF 4
ENDMDL
MODEL 3
REMARK VINA RESULT:    -3.692     16.456     17.933
REMARK INTER + INTRA:          -4.755
REMARK INTER:                  -4.499
REMARK INTRA:                  -0.256
REMARK UNBOUND:                -0.200
REMARK SMILES CCCCC=CC(C)=O
REMARK SMILES IDX 4 1 3 2 2 3 1 4 5 5 6 6 7 7 9 8 8 9
REMARK H PARENT
REMARK Flexibility Score: inf
ROOT
ATOM      1  C   UNL     1      14.128  60.715  20.811  1.00  0.00     0.027 C 
ENDROOT
BRANCH   1   2
ATOM      2  C   UNL     1      13.131  61.842  20.497  1.00  0.00     0.004 C 
BRANCH   2   3
ATOM      3  C   UNL     1      12.604  61.760  19.056  1.00  0.00    -0.003 C 
ATOM      4  C   UNL     1      11.826  63.018  18.683  1.00  0.00     0.004 C 
ENDBRANCH   2   3
ENDBRANCH   1   2
BRANCH   1   5
ATOM      5  C   UNL     1      15.305  60.711  19.871  1.00  0.00    -0.023 C 
ATOM      6  C   UNL     1      16.600  60.734  20.227  1.00  0.00     0.042 C 
BRANCH   6   7
ATOM      7  C   UNL     1      17.133  60.712  21.609  1.00  0.00     0.152 C 
ATOM      8  O   UNL     1      17.623  59.667  22.114  1.00  0.00    -0.295 OA
ATOM      9  C   UNL     1      17.158  61.980  22.402  1.00  0.00     0.093 C 
ENDBRANCH   6   7
ENDBRANCH   1   5
TORSDOF 4
ENDMDL
MODEL 4
REMARK VINA RESULT:    -3.546      2.345      4.802
REMARK INTER + INTRA:          -4.575
REMARK INTER:                  -4.229
REMARK INTRA:                  -0.346
REMARK UNBOUND:                -0.200
REMARK SMILES CCCCC=CC(C)=O
REMARK SMILES IDX 4 1 3 2 2 3 1 4 5 5 6 6 7 7 9 8 8 9
REMARK H PARENT
REMARK Flexibility Score: inf
ROOT
ATOM      1  C   UNL     1      16.525  52.135  34.261  1.00  0.00     0.027 C 
ENDROOT
BRANCH   1   2
ATOM      2  C   UNL     1      15.233  52.119  35.093  1.00  0.00     0.004 C 
BRANCH   2   3
ATOM      3  C   UNL     1      15.515  52.235  36.598  1.00  0.00    -0.003 C 
ATOM      4  C   UNL     1      14.920  51.057  37.363  1.00  0.00     0.004 C 
ENDBRANCH   2   3
ENDBRANCH   1   2
BRANCH   1   5
ATOM      5  C   UNL     1      17.762  52.144  35.121  1.00  0.00    -0.023 C 
ATOM      6  C   UNL     1      18.732  53.073  35.101  1.00  0.00     0.042 C 
BRANCH   6   7
ATOM      7  C   UNL     1      18.758  54.300  34.271  1.00  0.00     0.152 C 
ATOM      8  O   UNL     1      19.404  54.355  33.191  1.00  0.00    -0.295 OA
ATOM      9  C   UNL     1      17.939  55.479  34.686  1.00  0.00     0.093 C 
ENDBRANCH   6   7
ENDBRANCH   1   5
TORSDOF 4
ENDMDL
MODEL 5
REMARK VINA RESULT:    -3.508     16.811     17.922
REMARK INTER + INTRA:          -4.528
REMARK INTER:                  -4.274
REMARK INTRA:                  -0.254
REMARK UNBOUND:                -0.200
REMARK SMILES CCCCC=CC(C)=O
REMARK SMILES IDX 4 1 3 2 2 3 1 4 5 5 6 6 7 7 9 8 8 9
REMARK H PARENT
REMARK Flexibility Score: inf
ROOT
ATOM      1  C   UNL     1      12.933  61.690  22.962  1.00  0.00     0.027 C 
ENDROOT
BRANCH   1   2
ATOM      2  C   UNL     1      12.957  62.912  23.894  1.00  0.00     0.004 C 
BRANCH   2   3
ATOM      3  C   UNL     1      11.546  63.444  24.185  1.00  0.00    -0.003 C 
ATOM      4  C   UNL     1      11.294  64.762  23.461  1.00  0.00     0.004 C 
ENDBRANCH   2   3
ENDBRANCH   1   2
BRANCH   1   5
ATOM      5  C   UNL     1      14.101  61.672  22.011  1.00  0.00    -0.023 C 
ATOM      6  C   UNL     1      14.032  61.522  20.677  1.00  0.00     0.042 C 
BRANCH   6   7
ATOM      7  C   UNL     1      12.796  61.400  19.869  1.00  0.00     0.152 C 
ATOM      8  O   UNL     1      12.166  60.312  19.783  1.00  0.00    -0.295 OA
ATOM      9  C   UNL     1      12.241  62.614  19.196  1.00  0.00     0.093 C 
ENDBRANCH   6   7
ENDBRANCH   1   5
TORSDOF 4
ENDMDL
MODEL 6
REMARK VINA RESULT:    -3.434     16.145     17.459
REMARK INTER + INTRA:          -4.437
REMARK INTER:                  -4.176
REMARK INTRA:                  -0.262
REMARK UNBOUND:                -0.200
REMARK SMILES CCCCC=CC(C)=O
REMARK SMILES IDX 4 1 3 2 2 3 1 4 5 5 6 6 7 7 9 8 8 9
REMARK H PARENT
REMARK Flexibility Score: inf
ROOT
ATOM      1  C   UNL     1      15.667  60.614  20.119  1.00  0.00     0.027 C 
ENDROOT
BRANCH   1   2
ATOM      2  C   UNL     1      16.523  59.628  20.930  1.00  0.00     0.004 C 
BRANCH   2   3
ATOM      3  C   UNL     1      17.825  60.271  21.430  1.00  0.00    -0.003 C 
ATOM      4  C   UNL     1      17.843  60.366  22.952  1.00  0.00     0.004 C 
ENDBRANCH   2   3
ENDBRANCH   1   2
BRANCH   1   5
ATOM      5  C   UNL     1      14.859  61.531  21.000  1.00  0.00    -0.023 C 
ATOM      6  C   UNL     1      13.555  61.820  20.854  1.00  0.00     0.042 C 
BRANCH   6   7
ATOM      7  C   UNL     1      12.637  61.258  19.835  1.00  0.00     0.152 C 
ATOM      8  O   UNL     1      12.076  60.141  19.994  1.00  0.00    -0.295 OA
ATOM      9  C   UNL     1      12.311  62.067  18.622  1.00  0.00     0.093 C 
ENDBRANCH   6   7
ENDBRANCH   1   5
TORSDOF 4
ENDMDL
MODEL 7
REMARK VINA RESULT:    -3.433      1.484      2.106
REMARK INTER + INTRA:          -4.435
REMARK INTER:                  -4.068
REMARK INTRA:                  -0.367
REMARK UNBOUND:                -0.200
REMARK SMILES CCCCC=CC(C)=O
REMARK SMILES IDX 4 1 3 2 2 3 1 4 5 5 6 6 7 7 9 8 8 9
REMARK H PARENT
REMARK Flexibility Score: inf
ROOT
ATOM      1  C   UNL     1      17.997  53.240  35.570  1.00  0.00     0.027 C 
ENDROOT
BRANCH   1   2
ATOM      2  C   UNL     1      18.931  53.810  34.491  1.00  0.00     0.004 C 
BRANCH   2   3
ATOM      3  C   UNL     1      18.297  54.994  33.746  1.00  0.00    -0.003 C 
ATOM      4  C   UNL     1      17.674  55.988  34.721  1.00  0.00     0.004 C 
ENDBRANCH   2   3
ENDBRANCH   1   2
BRANCH   1   5
ATOM      5  C   UNL     1      17.015  52.244  35.009  1.00  0.00    -0.023 C 
ATOM      6  C   UNL     1      15.773  52.013  35.469  1.00  0.00     0.042 C 
BRANCH   6   7
ATOM      7  C   UNL     1      15.101  52.725  36.581  1.00  0.00     0.152 C 
ATOM      8  O   UNL     1      15.281  52.394  37.783  1.00  0.00    -0.295 OA
ATOM      9  C   UNL     1      14.244  53.911  36.276  1.00  0.00     0.093 C 
ENDBRANCH   6   7
ENDBRANCH   1   5
TORSDOF 4
ENDMDL
MODEL 8
REMARK VINA RESULT:    -3.359     15.991     17.273
REMARK INTER + INTRA:          -4.345
REMARK INTER:                  -3.960
REMARK INTRA:                  -0.385
REMARK UNBOUND:                -0.200
REMARK SMILES CCCCC=CC(C)=O
REMARK SMILES IDX 4 1 3 2 2 3 1 4 5 5 6 6 7 7 9 8 8 9
REMARK H PARENT
REMARK Flexibility Score: inf
ROOT
ATOM      1  C   UNL     1      15.840  60.256  20.285  1.00  0.00     0.027 C 
ENDROOT
BRANCH   1   2
ATOM      2  C   UNL     1      16.646  59.470  21.332  1.00  0.00     0.004 C 
BRANCH   2   3
ATOM      3  C   UNL     1      16.427  57.955  21.209  1.00  0.00    -0.003 C 
ATOM      4  C   UNL     1      14.943  57.606  21.274  1.00  0.00     0.004 C 
ENDBRANCH   2   3
ENDBRANCH   1   2
BRANCH   1   5
ATOM      5  C   UNL     1      15.172  61.473  20.871  1.00  0.00    -0.023 C 
ATOM      6  C   UNL     1      13.902  61.858  20.657  1.00  0.00     0.042 C 
BRANCH   6   7
ATOM      7  C   UNL     1      12.890  61.140  19.848  1.00  0.00     0.152 C 
ATOM      8  O   UNL     1      12.681  61.429  18.640  1.00  0.00    -0.295 OA
ATOM      9  C   UNL     1      12.147  59.995  20.458  1.00  0.00     0.093 C 
ENDBRANCH   6   7
ENDBRANCH   1   5
TORSDOF 4
ENDMDL
MODEL 9
REMARK VINA RESULT:    -3.289     16.123     17.165
REMARK INTER + INTRA:          -4.258
REMARK INTER:                  -3.727
REMARK INTRA:                  -0.532
REMARK UNBOUND:                -0.200
REMARK SMILES CCCCC=CC(C)=O
REMARK SMILES IDX 4 1 3 2 2 3 1 4 5 5 6 6 7 7 9 8 8 9
REMARK H PARENT
REMARK Flexibility Score: inf
ROOT
ATOM      1  C   UNL     1      14.676  61.876  20.857  1.00  0.00     0.027 C 
ENDROOT
BRANCH   1   2
ATOM      2  C   UNL     1      14.056  60.748  20.017  1.00  0.00     0.004 C 
BRANCH   2   3
ATOM      3  C   UNL     1      12.608  61.058  19.613  1.00  0.00    -0.003 C 
ATOM      4  C   UNL     1      12.420  62.546  19.336  1.00  0.00     0.004 C 
ENDBRANCH   2   3
ENDBRANCH   1   2
BRANCH   1   5
ATOM      5  C   UNL     1      15.042  61.422  22.246  1.00  0.00    -0.023 C 
ATOM      6  C   UNL     1      14.210  61.352  23.299  1.00  0.00     0.042 C 
BRANCH   6   7
ATOM      7  C   UNL     1      12.759  61.654  23.296  1.00  0.00     0.152 C 
ATOM      8  O   UNL     1      11.895  60.749  23.150  1.00  0.00    -0.295 OA
ATOM      9  C   UNL     1      12.305  63.056  23.545  1.00  0.00     0.093 C 
ENDBRANCH   6   7
ENDBRANCH   1   5
TORSDOF 4
ENDMDL
