MODEL 1
REMARK VINA RESULT:    -4.951      0.000      0.000
REMARK INTER + INTRA:          -4.951
REMARK INTER:                  -4.951
REMARK INTRA:                   0.000
REMARK UNBOUND:                 0.000
REMARK SMILES CC1=CC[C@@]2(C)CCCC(C)(C)[C@]23C[C@H]13
REMARK SMILES IDX 1 1 2 2 3 3 4 4 5 5 7 6 8 7 9 8 10 9 13 10 15 11 14 12 11 13
REMARK SMILES IDX 12 14 6 15
REMARK H PARENT
REMARK Flexibility Score: inf
ROOT
ATOM      1  C   UNL     1       1.111  11.244  14.104  1.00  0.00     0.039 C 
ATOM      2  C   UNL     1       0.930  12.732  14.177  1.00  0.00    -0.074 C 
ATOM      3  C   UNL     1       0.403  13.396  13.133  1.00  0.00    -0.027 C 
ATOM      4  C   UNL     1       0.303  14.898  13.141  1.00  0.00     0.034 C 
ATOM      5  C   UNL     1       1.555  15.533  13.801  1.00  0.00    -0.022 C 
ATOM      6  C   UNL     1       1.435  17.087  13.754  1.00  0.00     0.008 C 
ATOM      7  C   UNL     1       0.598  17.690  14.868  1.00  0.00     0.001 C 
ATOM      8  C   UNL     1       1.218  17.335  16.213  1.00  0.00     0.007 C 
ATOM      9  C   UNL     1       1.122  15.821  16.520  1.00  0.00    -0.029 C 
ATOM     10  C   UNL     1       1.693  14.968  15.294  1.00  0.00    -0.012 C 
ATOM     11  C   UNL     1       1.319  13.467  15.439  1.00  0.00     0.022 C 
ATOM     12  C   UNL     1       2.772  13.877  15.542  1.00  0.00     0.017 C 
ATOM     13  C   UNL     1      -0.366  15.475  16.819  1.00  0.00     0.012 C 
ATOM     14  C   UNL     1       1.917  15.593  17.830  1.00  0.00     0.012 C 
ATOM     15  C   UNL     1       2.794  15.208  12.912  1.00  0.00     0.012 C 
ENDROOT
TORSDOF 0
ENDMDL
MODEL 2
REMARK VINA RESULT:    -4.939      1.057      3.404
REMARK INTER + INTRA:          -4.939
REMARK INTER:                  -4.939
REMARK INTRA:                   0.000
REMARK UNBOUND:                 0.000
REMARK SMILES CC1=CC[C@@]2(C)CCCC(C)(C)[C@]23C[C@H]13
REMARK SMILES IDX 1 1 2 2 3 3 4 4 5 5 7 6 8 7 9 8 10 9 13 10 15 11 14 12 11 13
REMARK SMILES IDX 12 14 6 15
REMARK H PARENT
REMARK Flexibility Score: inf
ROOT
ATOM      1  C   UNL     1       3.489  15.167  12.247  1.00  0.00     0.039 C 
ATOM      2  C   UNL     1       2.871  14.892  13.587  1.00  0.00    -0.074 C 
ATOM      3  C   UNL     1       3.359  13.908  14.362  1.00  0.00    -0.027 C 
ATOM      4  C   UNL     1       2.696  13.546  15.664  1.00  0.00     0.034 C 
ATOM      5  C   UNL     1       1.151  13.622  15.538  1.00  0.00    -0.022 C 
ATOM      6  C   UNL     1       0.499  13.201  16.890  1.00  0.00     0.008 C 
ATOM      7  C   UNL     1       0.423  14.308  17.927  1.00  0.00     0.001 C 
ATOM      8  C   UNL     1      -0.406  15.460  17.375  1.00  0.00     0.007 C 
ATOM      9  C   UNL     1       0.294  16.172  16.193  1.00  0.00    -0.029 C 
ATOM     10  C   UNL     1       0.743  15.106  15.090  1.00  0.00    -0.012 C 
ATOM     11  C   UNL     1       1.717  15.745  14.061  1.00  0.00     0.022 C 
ATOM     12  C   UNL     1       0.342  15.311  13.601  1.00  0.00     0.017 C 
ATOM     13  C   UNL     1       1.509  16.969  16.751  1.00  0.00     0.012 C 
ATOM     14  C   UNL     1      -0.720  17.207  15.647  1.00  0.00     0.012 C 
ATOM     15  C   UNL     1       0.689  12.532  14.523  1.00  0.00     0.012 C 
ENDROOT
TORSDOF 0
ENDMDL
MODEL 3
REMARK VINA RESULT:    -4.935      1.254      2.629
REMARK INTER + INTRA:          -4.935
REMARK INTER:                  -4.935
REMARK INTRA:                   0.000
REMARK UNBOUND:                 0.000
REMARK SMILES CC1=CC[C@@]2(C)CCCC(C)(C)[C@]23C[C@H]13
REMARK SMILES IDX 1 1 2 2 3 3 4 4 5 5 7 6 8 7 9 8 10 9 13 10 15 11 14 12 11 13
REMARK SMILES IDX 12 14 6 15
REMARK H PARENT
REMARK Flexibility Score: inf
ROOT
ATOM      1  C   UNL     1       0.176  13.092  18.619  1.00  0.00     0.039 C 
ATOM      2  C   UNL     1       0.358  13.773  17.293  1.00  0.00    -0.074 C 
ATOM      3  C   UNL     1       0.202  13.076  16.154  1.00  0.00    -0.027 C 
ATOM      4  C   UNL     1       0.476  13.709  14.816  1.00  0.00     0.034 C 
ATOM      5  C   UNL     1       1.711  14.645  14.888  1.00  0.00    -0.022 C 
ATOM      6  C   UNL     1       1.988  15.248  13.478  1.00  0.00     0.008 C 
ATOM      7  C   UNL     1       1.145  16.463  13.133  1.00  0.00     0.001 C 
ATOM      8  C   UNL     1       1.414  17.567  14.147  1.00  0.00     0.007 C 
ATOM      9  C   UNL     1       0.896  17.204  15.559  1.00  0.00    -0.029 C 
ATOM     10  C   UNL     1       1.443  15.768  15.999  1.00  0.00    -0.012 C 
ATOM     11  C   UNL     1       0.690  15.246  17.255  1.00  0.00     0.022 C 
ATOM     12  C   UNL     1       2.158  15.595  17.369  1.00  0.00     0.017 C 
ATOM     13  C   UNL     1      -0.661  17.245  15.535  1.00  0.00     0.012 C 
ATOM     14  C   UNL     1       1.368  18.339  16.501  1.00  0.00     0.012 C 
ATOM     15  C   UNL     1       2.967  13.773  15.196  1.00  0.00     0.012 C 
ENDROOT
TORSDOF 0
ENDMDL
MODEL 4
REMARK VINA RESULT:    -4.849      1.232      3.994
REMARK INTER + INTRA:          -4.849
REMARK INTER:                  -4.849
REMARK INTRA:                   0.000
REMARK UNBOUND:                 0.000
REMARK SMILES CC1=CC[C@@]2(C)CCCC(C)(C)[C@]23C[C@H]13
REMARK SMILES IDX 1 1 2 2 3 3 4 4 5 5 7 6 8 7 9 8 10 9 13 10 15 11 14 12 11 13
REMARK SMILES IDX 12 14 6 15
REMARK H PARENT
REMARK Flexibility Score: inf
ROOT
ATOM      1  C   UNL     1       1.872  17.458  12.978  1.00  0.00     0.039 C 
ATOM      2  C   UNL     1       1.117  16.724  14.048  1.00  0.00    -0.074 C 
ATOM      3  C   UNL     1       0.311  17.401  14.885  1.00  0.00    -0.027 C 
ATOM      4  C   UNL     1      -0.379  16.705  16.027  1.00  0.00     0.034 C 
ATOM      5  C   UNL     1       0.552  15.643  16.672  1.00  0.00    -0.022 C 
ATOM      6  C   UNL     1      -0.181  14.974  17.875  1.00  0.00     0.008 C 
ATOM      7  C   UNL     1      -1.125  13.848  17.493  1.00  0.00     0.001 C 
ATOM      8  C   UNL     1      -0.339  12.751  16.787  1.00  0.00     0.007 C 
ATOM      9  C   UNL     1       0.194  13.207  15.408  1.00  0.00    -0.029 C 
ATOM     10  C   UNL     1       0.987  14.588  15.549  1.00  0.00    -0.012 C 
ATOM     11  C   UNL     1       1.252  15.223  14.155  1.00  0.00     0.022 C 
ATOM     12  C   UNL     1       2.424  14.722  14.970  1.00  0.00     0.017 C 
ATOM     13  C   UNL     1      -1.014  13.333  14.433  1.00  0.00     0.012 C 
ATOM     14  C   UNL     1       1.086  12.055  14.884  1.00  0.00     0.012 C 
ATOM     15  C   UNL     1       1.764  16.384  17.314  1.00  0.00     0.012 C 
ENDROOT
TORSDOF 0
ENDMDL
MODEL 5
REMARK VINA RESULT:    -4.790      1.200      3.205
REMARK INTER + INTRA:          -4.790
REMARK INTER:                  -4.790
REMARK INTRA:                   0.000
REMARK UNBOUND:                 0.000
REMARK SMILES CC1=CC[C@@]2(C)CCCC(C)(C)[C@]23C[C@H]13
REMARK SMILES IDX 1 1 2 2 3 3 4 4 5 5 7 6 8 7 9 8 10 9 13 10 15 11 14 12 11 13
REMARK SMILES IDX 12 14 6 15
REMARK H PARENT
REMARK Flexibility Score: inf
ROOT
ATOM      1  C   UNL     1       0.390  11.768  14.135  1.00  0.00     0.039 C 
ATOM      2  C   UNL     1       0.831  13.048  14.785  1.00  0.00    -0.074 C 
ATOM      3  C   UNL     1       1.858  13.040  15.652  1.00  0.00    -0.027 C 
ATOM      4  C   UNL     1       2.255  14.289  16.393  1.00  0.00     0.034 C 
ATOM      5  C   UNL     1       1.004  15.106  16.812  1.00  0.00    -0.022 C 
ATOM      6  C   UNL     1       1.452  16.367  17.611  1.00  0.00     0.008 C 
ATOM      7  C   UNL     1       1.875  17.544  16.750  1.00  0.00     0.001 C 
ATOM      8  C   UNL     1       0.707  17.969  15.870  1.00  0.00     0.007 C 
ATOM      9  C   UNL     1       0.355  16.900  14.807  1.00  0.00    -0.029 C 
ATOM     10  C   UNL     1       0.163  15.472  15.499  1.00  0.00    -0.012 C 
ATOM     11  C   UNL     1       0.128  14.338  14.435  1.00  0.00     0.022 C 
ATOM     12  C   UNL     1      -1.125  14.644  15.228  1.00  0.00     0.017 C 
ATOM     13  C   UNL     1       1.490  16.876  13.742  1.00  0.00     0.012 C 
ATOM     14  C   UNL     1      -0.927  17.399  14.097  1.00  0.00     0.012 C 
ATOM     15  C   UNL     1       0.190  14.259  17.839  1.00  0.00     0.012 C 
ENDROOT
TORSDOF 0
ENDMDL
MODEL 6
REMARK VINA RESULT:    -4.614      1.460      3.690
REMARK INTER + INTRA:          -4.614
REMARK INTER:                  -4.614
REMARK INTRA:                   0.000
REMARK UNBOUND:                 0.000
REMARK SMILES CC1=CC[C@@]2(C)CCCC(C)(C)[C@]23C[C@H]13
REMARK SMILES IDX 1 1 2 2 3 3 4 4 5 5 7 6 8 7 9 8 10 9 13 10 15 11 14 12 11 13
REMARK SMILES IDX 12 14 6 15
REMARK H PARENT
REMARK Flexibility Score: inf
ROOT
ATOM      1  C   UNL     1       0.753  12.758  18.643  1.00  0.00     0.039 C 
ATOM      2  C   UNL     1       1.041  13.695  17.506  1.00  0.00    -0.074 C 
ATOM      3  C   UNL     1       1.162  15.014  17.738  1.00  0.00    -0.027 C 
ATOM      4  C   UNL     1       1.350  15.985  16.603  1.00  0.00     0.034 C 
ATOM      5  C   UNL     1       0.492  15.576  15.376  1.00  0.00    -0.022 C 
ATOM      6  C   UNL     1       0.681  16.626  14.239  1.00  0.00     0.008 C 
ATOM      7  C   UNL     1       1.919  16.418  13.385  1.00  0.00     0.001 C 
ATOM      8  C   UNL     1       1.848  15.051  12.719  1.00  0.00     0.007 C 
ATOM      9  C   UNL     1       1.961  13.894  13.740  1.00  0.00    -0.029 C 
ATOM     10  C   UNL     1       0.909  14.096  14.927  1.00  0.00    -0.012 C 
ATOM     11  C   UNL     1       1.216  13.139  16.112  1.00  0.00     0.022 C 
ATOM     12  C   UNL     1      -0.055  12.940  15.316  1.00  0.00     0.017 C 
ATOM     13  C   UNL     1       3.425  13.850  14.270  1.00  0.00     0.012 C 
ATOM     14  C   UNL     1       1.724  12.587  12.945  1.00  0.00     0.012 C 
ATOM     15  C   UNL     1      -1.012  15.691  15.771  1.00  0.00     0.012 C 
ENDROOT
TORSDOF 0
ENDMDL
MODEL 7
REMARK VINA RESULT:    -4.561      1.276      4.127
REMARK INTER + INTRA:          -4.561
REMARK INTER:                  -4.561
REMARK INTRA:                   0.000
REMARK UNBOUND:                 0.000
REMARK SMILES CC1=CC[C@@]2(C)CCCC(C)(C)[C@]23C[C@H]13
REMARK SMILES IDX 1 1 2 2 3 3 4 4 5 5 7 6 8 7 9 8 10 9 13 10 15 11 14 12 11 13
REMARK SMILES IDX 12 14 6 15
REMARK H PARENT
REMARK Flexibility Score: inf
ROOT
ATOM      1  C   UNL     1       2.228  18.749  17.480  1.00  0.00     0.039 C 
ATOM      2  C   UNL     1       1.828  17.710  16.473  1.00  0.00    -0.074 C 
ATOM      3  C   UNL     1       1.742  18.035  15.172  1.00  0.00    -0.027 C 
ATOM      4  C   UNL     1       1.247  17.040  14.156  1.00  0.00     0.034 C 
ATOM      5  C   UNL     1       0.083  16.191  14.734  1.00  0.00    -0.022 C 
ATOM      6  C   UNL     1      -0.429  15.203  13.642  1.00  0.00     0.008 C 
ATOM      7  C   UNL     1       0.380  13.924  13.516  1.00  0.00     0.001 C 
ATOM      8  C   UNL     1       0.347  13.176  14.842  1.00  0.00     0.007 C 
ATOM      9  C   UNL     1       1.106  13.930  15.960  1.00  0.00    -0.029 C 
ATOM     10  C   UNL     1       0.597  15.443  16.054  1.00  0.00    -0.012 C 
ATOM     11  C   UNL     1       1.550  16.298  16.934  1.00  0.00     0.022 C 
ATOM     12  C   UNL     1       0.143  16.027  17.421  1.00  0.00     0.017 C 
ATOM     13  C   UNL     1       2.631  13.854  15.654  1.00  0.00     0.012 C 
ATOM     14  C   UNL     1       0.861  13.134  17.265  1.00  0.00     0.012 C 
ATOM     15  C   UNL     1      -1.125  17.139  15.003  1.00  0.00     0.012 C 
ENDROOT
TORSDOF 0
ENDMDL
MODEL 8
REMARK VINA RESULT:    -4.300      1.340      3.842
REMARK INTER + INTRA:          -4.300
REMARK INTER:                  -4.300
REMARK INTRA:                   0.000
REMARK UNBOUND:                 0.000
REMARK SMILES CC1=CC[C@@]2(C)CCCC(C)(C)[C@]23C[C@H]13
REMARK SMILES IDX 1 1 2 2 3 3 4 4 5 5 7 6 8 7 9 8 10 9 13 10 15 11 14 12 11 13
REMARK SMILES IDX 12 14 6 15
REMARK H PARENT
REMARK Flexibility Score: inf
ROOT
ATOM      1  C   UNL     1      -1.058  18.717  15.173  1.00  0.00     0.039 C 
ATOM      2  C   UNL     1      -0.076  17.623  14.868  1.00  0.00    -0.074 C 
ATOM      3  C   UNL     1       0.886  17.822  13.950  1.00  0.00    -0.027 C 
ATOM      4  C   UNL     1       1.819  16.709  13.553  1.00  0.00     0.034 C 
ATOM      5  C   UNL     1       1.066  15.354  13.481  1.00  0.00    -0.022 C 
ATOM      6  C   UNL     1       2.053  14.236  13.028  1.00  0.00     0.008 C 
ATOM      7  C   UNL     1       2.903  13.652  14.143  1.00  0.00     0.001 C 
ATOM      8  C   UNL     1       1.994  13.039  15.200  1.00  0.00     0.007 C 
ATOM      9  C   UNL     1       1.164  14.108  15.951  1.00  0.00    -0.029 C 
ATOM     10  C   UNL     1       0.406  15.055  14.910  1.00  0.00    -0.012 C 
ATOM     11  C   UNL     1      -0.167  16.314  15.617  1.00  0.00     0.022 C 
ATOM     12  C   UNL     1      -1.125  15.291  15.046  1.00  0.00     0.017 C 
ATOM     13  C   UNL     1       2.126  14.917  16.871  1.00  0.00     0.012 C 
ATOM     14  C   UNL     1       0.192  13.334  16.875  1.00  0.00     0.012 C 
ATOM     15  C   UNL     1       0.016  15.440  12.332  1.00  0.00     0.012 C 
ENDROOT
TORSDOF 0
ENDMDL
MODEL 9
REMARK VINA RESULT:    -4.247      1.375      4.415
REMARK INTER + INTRA:          -4.247
REMARK INTER:                  -4.247
REMARK INTRA:                   0.000
REMARK UNBOUND:                 0.000
REMARK SMILES CC1=CC[C@@]2(C)CCCC(C)(C)[C@]23C[C@H]13
REMARK SMILES IDX 1 1 2 2 3 3 4 4 5 5 7 6 8 7 9 8 10 9 13 10 15 11 14 12 11 13
REMARK SMILES IDX 12 14 6 15
REMARK H PARENT
REMARK Flexibility Score: inf
ROOT
ATOM      1  C   UNL     1       1.859  16.873  17.529  1.00  0.00     0.039 C 
ATOM      2  C   UNL     1       1.115  15.920  16.639  1.00  0.00    -0.074 C 
ATOM      3  C   UNL     1      -0.210  15.754  16.793  1.00  0.00    -0.027 C 
ATOM      4  C   UNL     1      -0.961  14.731  15.983  1.00  0.00     0.034 C 
ATOM      5  C   UNL     1      -0.120  13.439  15.804  1.00  0.00    -0.022 C 
ATOM      6  C   UNL     1      -0.946  12.391  14.997  1.00  0.00     0.008 C 
ATOM      7  C   UNL     1      -0.900  12.575  13.490  1.00  0.00     0.001 C 
ATOM      8  C   UNL     1       0.542  12.466  13.013  1.00  0.00     0.007 C 
ATOM      9  C   UNL     1       1.414  13.644  13.509  1.00  0.00    -0.029 C 
ATOM     10  C   UNL     1       1.263  13.820  15.090  1.00  0.00    -0.012 C 
ATOM     11  C   UNL     1       1.865  15.173  15.561  1.00  0.00     0.022 C 
ATOM     12  C   UNL     1       2.530  13.883  15.990  1.00  0.00     0.017 C 
ATOM     13  C   UNL     1       0.982  14.929  12.743  1.00  0.00     0.012 C 
ATOM     14  C   UNL     1       2.866  13.322  13.078  1.00  0.00     0.012 C 
ATOM     15  C   UNL     1       0.078  12.788  17.206  1.00  0.00     0.012 C 
ENDROOT
TORSDOF 0
ENDMDL
