MODEL 1
REMARK VINA RESULT:     2.415      0.000      0.000
REMARK INTER + INTRA:           2.415
REMARK INTER:                   2.415
REMARK INTRA:                   0.000
REMARK UNBOUND:                 0.000
REMARK SMILES CC1(C)[C@@H]2CC[C@@]1(C)C(=O)C2
REMARK SMILES IDX 1 1 2 2 4 3 5 4 6 5 7 6 9 7 10 8 11 9 8 10 3 11
REMARK H PARENT
REMARK Flexibility Score: inf
ROOT
ATOM      1  C   UNL     1      31.006  29.759  47.459  1.00  0.00     0.012 C 
ATOM      2  C   UNL     1      29.447  29.694  47.439  1.00  0.00    -0.020 C 
ATOM      3  C   UNL     1      28.852  28.750  48.511  1.00  0.00     0.003 C 
ATOM      4  C   UNL     1      27.324  29.005  48.382  1.00  0.00     0.005 C 
ATOM      5  C   UNL     1      27.252  30.519  48.060  1.00  0.00     0.015 C 
ATOM      6  C   UNL     1      28.743  30.932  48.036  1.00  0.00     0.032 C 
ATOM      7  C   UNL     1      29.191  30.843  49.473  1.00  0.00     0.139 C 
ATOM      8  O   UNL     1      29.360  31.785  50.232  1.00  0.00    -0.299 OA
ATOM      9  C   UNL     1      29.293  29.397  49.853  1.00  0.00     0.080 C 
ATOM     10  C   UNL     1      29.025  32.275  47.351  1.00  0.00     0.020 C 
ATOM     11  C   UNL     1      29.040  29.328  45.981  1.00  0.00     0.012 C 
ENDROOT
TORSDOF 0
ENDMDL
MODEL 2
REMARK VINA RESULT:     2.639      1.743      3.190
REMARK INTER + INTRA:           2.639
REMARK INTER:                   2.639
REMARK INTRA:                   0.000
REMARK UNBOUND:                 0.000
REMARK SMILES CC1(C)[C@@H]2CC[C@@]1(C)C(=O)C2
REMARK SMILES IDX 1 1 2 2 4 3 5 4 6 5 7 6 9 7 10 8 11 9 8 10 3 11
REMARK H PARENT
REMARK Flexibility Score: inf
ROOT
ATOM      1  C   UNL     1      29.375  32.410  47.781  1.00  0.00     0.012 C 
ATOM      2  C   UNL     1      28.835  31.107  48.449  1.00  0.00    -0.020 C 
ATOM      3  C   UNL     1      27.399  30.733  48.008  1.00  0.00     0.003 C 
ATOM      4  C   UNL     1      27.188  29.344  48.673  1.00  0.00     0.005 C 
ATOM      5  C   UNL     1      28.592  28.697  48.578  1.00  0.00     0.015 C 
ATOM      6  C   UNL     1      29.428  29.799  47.883  1.00  0.00     0.032 C 
ATOM      7  C   UNL     1      28.904  29.844  46.469  1.00  0.00     0.139 C 
ATOM      8  O   UNL     1      29.452  29.373  45.485  1.00  0.00    -0.299 OA
ATOM      9  C   UNL     1      27.543  30.471  46.483  1.00  0.00     0.080 C 
ATOM     10  C   UNL     1      30.946  29.627  48.006  1.00  0.00     0.020 C 
ATOM     11  C   UNL     1      28.990  31.304  49.987  1.00  0.00     0.012 C 
ENDROOT
TORSDOF 0
ENDMDL
MODEL 3
REMARK VINA RESULT:     3.167      1.543      2.788
REMARK INTER + INTRA:           3.167
REMARK INTER:                   3.167
REMARK INTRA:                   0.000
REMARK UNBOUND:                 0.000
REMARK SMILES CC1(C)[C@@H]2CC[C@@]1(C)C(=O)C2
REMARK SMILES IDX 1 1 2 2 4 3 5 4 6 5 7 6 9 7 10 8 11 9 8 10 3 11
REMARK H PARENT
REMARK Flexibility Score: inf
ROOT
ATOM      1  C   UNL     1      28.961  31.481  49.807  1.00  0.00     0.012 C 
ATOM      2  C   UNL     1      29.101  31.060  48.311  1.00  0.00    -0.020 C 
ATOM      3  C   UNL     1      30.335  30.169  48.031  1.00  0.00     0.003 C 
ATOM      4  C   UNL     1      30.136  29.768  46.543  1.00  0.00     0.005 C 
ATOM      5  C   UNL     1      28.599  29.619  46.426  1.00  0.00     0.015 C 
ATOM      6  C   UNL     1      28.115  29.963  47.855  1.00  0.00     0.032 C 
ATOM      7  C   UNL     1      28.573  28.805  48.706  1.00  0.00     0.139 C 
ATOM      8  O   UNL     1      27.869  27.898  49.122  1.00  0.00    -0.299 OA
ATOM      9  C   UNL     1      30.059  28.890  48.870  1.00  0.00     0.080 C 
ATOM     10  C   UNL     1      26.623  30.298  47.965  1.00  0.00     0.020 C 
ATOM     11  C   UNL     1      29.073  32.377  47.479  1.00  0.00     0.012 C 
ENDROOT
TORSDOF 0
ENDMDL
MODEL 4
REMARK VINA RESULT:     3.511      1.520      3.026
REMARK INTER + INTRA:           3.511
REMARK INTER:                   3.511
REMARK INTRA:                   0.000
REMARK UNBOUND:                 0.000
REMARK SMILES CC1(C)[C@@H]2CC[C@@]1(C)C(=O)C2
REMARK SMILES IDX 1 1 2 2 4 3 5 4 6 5 7 6 9 7 10 8 11 9 8 10 3 11
REMARK H PARENT
REMARK Flexibility Score: inf
ROOT
ATOM      1  C   UNL     1      29.190  29.357  45.999  1.00  0.00     0.012 C 
ATOM      2  C   UNL     1      29.476  30.003  47.390  1.00  0.00    -0.020 C 
ATOM      3  C   UNL     1      29.216  31.528  47.431  1.00  0.00     0.003 C 
ATOM      4  C   UNL     1      29.409  31.869  48.935  1.00  0.00     0.005 C 
ATOM      5  C   UNL     1      28.841  30.617  49.649  1.00  0.00     0.015 C 
ATOM      6  C   UNL     1      28.406  29.719  48.466  1.00  0.00     0.032 C 
ATOM      7  C   UNL     1      27.214  30.422  47.867  1.00  0.00     0.139 C 
ATOM      8  O   UNL     1      26.045  30.103  48.013  1.00  0.00    -0.299 OA
ATOM      9  C   UNL     1      27.693  31.646  47.147  1.00  0.00     0.080 C 
ATOM     10  C   UNL     1      28.176  28.247  48.828  1.00  0.00     0.020 C 
ATOM     11  C   UNL     1      30.933  29.603  47.770  1.00  0.00     0.012 C 
ENDROOT
TORSDOF 0
ENDMDL
MODEL 5
REMARK VINA RESULT:     3.959      1.503      2.718
REMARK INTER + INTRA:           3.959
REMARK INTER:                   3.959
REMARK INTRA:                   0.000
REMARK UNBOUND:                 0.000
REMARK SMILES CC1(C)[C@@H]2CC[C@@]1(C)C(=O)C2
REMARK SMILES IDX 1 1 2 2 4 3 5 4 6 5 7 6 9 7 10 8 11 9 8 10 3 11
REMARK H PARENT
REMARK Flexibility Score: inf
ROOT
ATOM      1  C   UNL     1      27.843  28.131  48.474  1.00  0.00     0.012 C 
ATOM      2  C   UNL     1      28.061  29.661  48.260  1.00  0.00    -0.020 C 
ATOM      3  C   UNL     1      28.680  30.376  49.485  1.00  0.00     0.003 C 
ATOM      4  C   UNL     1      28.939  31.811  48.948  1.00  0.00     0.005 C 
ATOM      5  C   UNL     1      29.346  31.562  47.474  1.00  0.00     0.015 C 
ATOM      6  C   UNL     1      29.258  30.021  47.354  1.00  0.00     0.032 C 
ATOM      7  C   UNL     1      30.404  29.503  48.186  1.00  0.00     0.139 C 
ATOM      8  O   UNL     1      31.463  29.071  47.759  1.00  0.00    -0.299 OA
ATOM      9  C   UNL     1      30.073  29.705  49.633  1.00  0.00     0.080 C 
ATOM     10  C   UNL     1      29.209  29.491  45.916  1.00  0.00     0.020 C 
ATOM     11  C   UNL     1      26.685  30.244  47.819  1.00  0.00     0.012 C 
ENDROOT
TORSDOF 0
ENDMDL
MODEL 6
REMARK VINA RESULT:     4.025      1.211      2.939
REMARK INTER + INTRA:           4.025
REMARK INTER:                   4.025
REMARK INTRA:                   0.000
REMARK UNBOUND:                 0.000
REMARK SMILES CC1(C)[C@@H]2CC[C@@]1(C)C(=O)C2
REMARK SMILES IDX 1 1 2 2 4 3 5 4 6 5 7 6 9 7 10 8 11 9 8 10 3 11
REMARK H PARENT
REMARK Flexibility Score: inf
ROOT
ATOM      1  C   UNL     1      26.595  30.084  48.584  1.00  0.00     0.012 C 
ATOM      2  C   UNL     1      28.030  29.614  48.190  1.00  0.00    -0.020 C 
ATOM      3  C   UNL     1      28.324  29.722  46.675  1.00  0.00     0.003 C 
ATOM      4  C   UNL     1      29.834  29.363  46.593  1.00  0.00     0.005 C 
ATOM      5  C   UNL     1      30.409  29.982  47.892  1.00  0.00     0.015 C 
ATOM      6  C   UNL     1      29.156  30.605  48.554  1.00  0.00     0.032 C 
ATOM      7  C   UNL     1      28.795  31.774  47.672  1.00  0.00     0.139 C 
ATOM      8  O   UNL     1      29.011  32.950  47.915  1.00  0.00    -0.299 OA
ATOM      9  C   UNL     1      28.220  31.247  46.392  1.00  0.00     0.080 C 
ATOM     10  C   UNL     1      29.316  30.941  50.041  1.00  0.00     0.020 C 
ATOM     11  C   UNL     1      28.193  28.173  48.762  1.00  0.00     0.012 C 
ENDROOT
TORSDOF 0
ENDMDL
MODEL 7
REMARK VINA RESULT:     4.502      1.417      2.735
REMARK INTER + INTRA:           4.502
REMARK INTER:                   4.502
REMARK INTRA:                   0.000
REMARK UNBOUND:                 0.000
REMARK SMILES CC1(C)[C@@H]2CC[C@@]1(C)C(=O)C2
REMARK SMILES IDX 1 1 2 2 4 3 5 4 6 5 7 6 9 7 10 8 11 9 8 10 3 11
REMARK H PARENT
REMARK Flexibility Score: inf
ROOT
ATOM      1  C   UNL     1      28.969  32.028  47.384  1.00  0.00     0.012 C 
ATOM      2  C   UNL     1      28.397  30.635  47.795  1.00  0.00    -0.020 C 
ATOM      3  C   UNL     1      28.495  29.570  46.676  1.00  0.00     0.003 C 
ATOM      4  C   UNL     1      28.026  28.275  47.395  1.00  0.00     0.005 C 
ATOM      5  C   UNL     1      28.590  28.449  48.827  1.00  0.00     0.015 C 
ATOM      6  C   UNL     1      29.299  29.822  48.748  1.00  0.00     0.032 C 
ATOM      7  C   UNL     1      30.498  29.587  47.864  1.00  0.00     0.139 C 
ATOM      8  O   UNL     1      31.653  29.465  48.239  1.00  0.00    -0.299 OA
ATOM      9  C   UNL     1      30.025  29.418  46.452  1.00  0.00     0.080 C 
ATOM     10  C   UNL     1      29.611  30.463  50.105  1.00  0.00     0.020 C 
ATOM     11  C   UNL     1      26.944  30.888  48.298  1.00  0.00     0.012 C 
ENDROOT
TORSDOF 0
ENDMDL
MODEL 8
REMARK VINA RESULT:     5.080      1.416      2.129
REMARK INTER + INTRA:           5.080
REMARK INTER:                   5.080
REMARK INTRA:                   0.000
REMARK UNBOUND:                 0.000
REMARK SMILES CC1(C)[C@@H]2CC[C@@]1(C)C(=O)C2
REMARK SMILES IDX 1 1 2 2 4 3 5 4 6 5 7 6 9 7 10 8 11 9 8 10 3 11
REMARK H PARENT
REMARK Flexibility Score: inf
ROOT
ATOM      1  C   UNL     1      30.610  29.633  48.334  1.00  0.00     0.012 C 
ATOM      2  C   UNL     1      29.051  29.664  48.367  1.00  0.00    -0.020 C 
ATOM      3  C   UNL     1      28.472  30.556  49.491  1.00  0.00     0.003 C 
ATOM      4  C   UNL     1      26.947  30.540  49.190  1.00  0.00     0.005 C 
ATOM      5  C   UNL     1      26.900  30.520  47.642  1.00  0.00     0.015 C 
ATOM      6  C   UNL     1      28.399  30.516  47.256  1.00  0.00     0.032 C 
ATOM      7  C   UNL     1      28.897  31.890  47.630  1.00  0.00     0.139 C 
ATOM      8  O   UNL     1      29.116  32.808  46.857  1.00  0.00    -0.299 OA
ATOM      9  C   UNL     1      28.977  31.979  49.124  1.00  0.00     0.080 C 
ATOM     10  C   UNL     1      28.690  30.092  45.812  1.00  0.00     0.020 C 
ATOM     11  C   UNL     1      28.582  28.179  48.437  1.00  0.00     0.012 C 
ENDROOT
TORSDOF 0
ENDMDL
MODEL 9
REMARK VINA RESULT:     5.350      1.729      3.044
REMARK INTER + INTRA:           5.350
REMARK INTER:                   5.350
REMARK INTRA:                   0.000
REMARK UNBOUND:                 0.000
REMARK SMILES CC1(C)[C@@H]2CC[C@@]1(C)C(=O)C2
REMARK SMILES IDX 1 1 2 2 4 3 5 4 6 5 7 6 9 7 10 8 11 9 8 10 3 11
REMARK H PARENT
REMARK Flexibility Score: inf
ROOT
ATOM      1  C   UNL     1      27.112  30.884  46.646  1.00  0.00     0.012 C 
ATOM      2  C   UNL     1      28.325  31.058  47.612  1.00  0.00    -0.020 C 
ATOM      3  C   UNL     1      27.968  30.840  49.102  1.00  0.00     0.003 C 
ATOM      4  C   UNL     1      29.356  30.902  49.799  1.00  0.00     0.005 C 
ATOM      5  C   UNL     1      30.294  30.233  48.764  1.00  0.00     0.015 C 
ATOM      6  C   UNL     1      29.328  29.884  47.606  1.00  0.00     0.032 C 
ATOM      7  C   UNL     1      28.462  28.774  48.148  1.00  0.00     0.139 C 
ATOM      8  O   UNL     1      28.566  27.588  47.880  1.00  0.00    -0.299 OA
ATOM      9  C   UNL     1      27.517  29.354  49.155  1.00  0.00     0.080 C 
ATOM     10  C   UNL     1      30.013  29.578  46.269  1.00  0.00     0.020 C 
ATOM     11  C   UNL     1      28.932  32.461  47.308  1.00  0.00     0.012 C 
ENDROOT
TORSDOF 0
ENDMDL
