MODEL 1
REMARK VINA RESULT:    -3.618      0.000      0.000
REMARK INTER + INTRA:          -4.952
REMARK INTER:                  -5.098
REMARK INTRA:                   0.146
REMARK UNBOUND:                 0.146
REMARK SMILES CC1=CCC(=C(C)C)C(=O)CC(C)=CCC1
REMARK SMILES IDX 12 1 14 2 13 3 15 4 16 5 2 6 1 7 3 8 11 10 9 11 10 12 5 13
REMARK SMILES IDX 6 14 7 15 8 16 4 17
REMARK H PARENT
REMARK Flexibility Score: 60.00
ROOT
ATOM      1  C   UNL     1       1.959  10.523  16.695  1.00  0.00    -0.070 C 
ATOM      2  C   UNL     1       1.662   9.217  16.872  1.00  0.00    -0.027 C 
ATOM      3  C   UNL     1       2.004  11.053  15.284  1.00  0.00     0.039 C 
ENDROOT
BRANCH   2   4
ATOM      4  C   UNL     1       1.475   8.526  18.205  1.00  0.00     0.032 C 
BRANCH   4   5
ATOM      5  C   UNL     1       0.064   8.665  18.814  1.00  0.00     0.034 C 
BRANCH   5   6
ATOM      6  C   UNL     1       0.082   9.075  20.276  1.00  0.00    -0.077 C 
ATOM      7  C   UNL     1       0.572   8.062  21.281  1.00  0.00     0.039 C 
ATOM      8  C   UNL     1      -0.246  10.310  20.727  1.00  0.00    -0.023 CG0
ATOM      9  G   UNL     1      -0.777  11.471  19.910  1.00  0.00     0.000 G0
ENDBRANCH   5   6
ENDBRANCH   4   5
ENDBRANCH   2   4
BRANCH   1  10
ATOM     10  C   UNL     1       2.154  11.494  17.842  1.00  0.00     0.111 C 
BRANCH  10  11
ATOM     11  C   UNL     1       0.904  12.288  18.117  1.00  0.00     0.163 C 
ATOM     12  O   UNL     1       0.295  12.792  17.136  1.00  0.00    -0.294 OA
BRANCH  11  13
ATOM     13  C   UNL     1       0.336  12.441  19.490  1.00  0.00    -0.002 C 
ATOM     14  C   UNL     1       0.745  13.458  20.306  1.00  0.00    -0.069 C 
ATOM     15  C   UNL     1       0.078  13.736  21.635  1.00  0.00     0.039 C 
ATOM     16  C   UNL     1       1.891  14.365  19.914  1.00  0.00     0.039 C 
BRANCH  13  17
ATOM     17  C   UNL     1      -0.773  11.483  19.894  1.00  0.00     0.066 CG0
ATOM     18  G   UNL     1      -0.253  10.308  20.700  1.00  0.00     0.000 G0
ENDBRANCH  13  17
ENDBRANCH  11  13
ENDBRANCH  10  11
ENDBRANCH   1  10
TORSDOF 0
ENDMDL
MODEL 2
REMARK VINA RESULT:    -3.549      2.013      3.832
REMARK INTER + INTRA:          -4.855
REMARK INTER:                  -5.150
REMARK INTRA:                   0.296
REMARK UNBOUND:                 0.146
REMARK SMILES CC1=CCC(=C(C)C)C(=O)CC(C)=CCC1
REMARK SMILES IDX 12 1 14 2 13 3 15 4 16 5 2 6 1 7 3 8 11 10 9 11 10 12 5 13
REMARK SMILES IDX 6 14 7 15 8 16 4 17
REMARK H PARENT
REMARK Flexibility Score: 60.00
ROOT
ATOM      1  C   UNL     1       0.943   8.811  18.730  1.00  0.00    -0.070 C 
ATOM      2  C   UNL     1       1.435   8.852  17.473  1.00  0.00    -0.027 C 
ATOM      3  C   UNL     1      -0.405   8.169  18.940  1.00  0.00     0.039 C 
ENDROOT
BRANCH   2   4
ATOM      4  C   UNL     1       2.803   9.364  17.075  1.00  0.00     0.032 C 
BRANCH   4   5
ATOM      5  C   UNL     1       3.009  10.880  17.271  1.00  0.00     0.034 C 
BRANCH   5   6
ATOM      6  C   UNL     1       1.826  11.710  16.806  1.00  0.00    -0.077 C 
ATOM      7  C   UNL     1       1.528  11.738  15.328  1.00  0.00     0.039 C 
ATOM      8  C   UNL     1       0.980  12.367  17.637  1.00  0.00    -0.023 CG0
ATOM      9  G   UNL     1       1.092  12.492  19.144  1.00  0.00     0.000 G0
ENDBRANCH   5   6
ENDBRANCH   4   5
ENDBRANCH   2   4
BRANCH   1  10
ATOM     10  C   UNL     1       1.717   9.289  19.942  1.00  0.00     0.111 C 
BRANCH  10  11
ATOM     11  C   UNL     1       1.007  10.417  20.645  1.00  0.00     0.163 C 
ATOM     12  O   UNL     1       1.091  10.479  21.900  1.00  0.00    -0.294 OA
BRANCH  11  13
ATOM     13  C   UNL     1       0.269  11.484  19.906  1.00  0.00    -0.002 C 
ATOM     14  C   UNL     1      -1.093  11.571  19.978  1.00  0.00    -0.069 C 
ATOM     15  C   UNL     1      -1.855  12.729  19.374  1.00  0.00     0.039 C 
ATOM     16  C   UNL     1      -1.910  10.505  20.675  1.00  0.00     0.039 C 
BRANCH  13  17
ATOM     17  C   UNL     1       1.101  12.514  19.158  1.00  0.00     0.066 CG0
ATOM     18  G   UNL     1       0.975  12.373  17.653  1.00  0.00     0.000 G0
ENDBRANCH  13  17
ENDBRANCH  11  13
ENDBRANCH  10  11
ENDBRANCH   1  10
TORSDOF 0
ENDMDL
MODEL 3
REMARK VINA RESULT:    -3.539      1.989      2.425
REMARK INTER + INTRA:          -4.842
REMARK INTER:                  -5.019
REMARK INTRA:                   0.177
REMARK UNBOUND:                 0.146
REMARK SMILES CC1=CCC(=C(C)C)C(=O)CC(C)=CCC1
REMARK SMILES IDX 12 1 14 2 13 3 15 4 16 5 2 6 1 7 3 8 11 10 9 11 10 12 5 13
REMARK SMILES IDX 6 14 7 15 8 16 4 17
REMARK H PARENT
REMARK Flexibility Score: 60.00
ROOT
ATOM      1  C   UNL     1       1.160   9.606  17.916  1.00  0.00    -0.070 C 
ATOM      2  C   UNL     1       0.589   8.497  18.433  1.00  0.00    -0.027 C 
ATOM      3  C   UNL     1       1.809   9.499  16.559  1.00  0.00     0.039 C 
ENDROOT
BRANCH   2   4
ATOM      4  C   UNL     1      -0.191   8.426  19.728  1.00  0.00     0.032 C 
BRANCH   4   5
ATOM      5  C   UNL     1       0.673   8.284  20.998  1.00  0.00     0.034 C 
BRANCH   5   6
ATOM      6  C   UNL     1       0.338   9.309  22.067  1.00  0.00    -0.077 C 
ATOM      7  C   UNL     1      -0.958   9.137  22.820  1.00  0.00     0.039 C 
ATOM      8  C   UNL     1       1.157  10.325  22.436  1.00  0.00    -0.023 CG0
ATOM      9  G   UNL     1       2.488  10.699  21.813  1.00  0.00     0.000 G0
ENDBRANCH   5   6
ENDBRANCH   4   5
ENDBRANCH   2   4
BRANCH   1  10
ATOM     10  C   UNL     1       1.096  10.964  18.586  1.00  0.00     0.111 C 
BRANCH  10  11
ATOM     11  C   UNL     1       2.374  11.283  19.317  1.00  0.00     0.163 C 
ATOM     12  O   UNL     1       3.459  11.187  18.684  1.00  0.00    -0.294 OA
BRANCH  11  13
ATOM     13  C   UNL     1       2.390  11.763  20.731  1.00  0.00    -0.002 C 
ATOM     14  C   UNL     1       2.226  13.088  21.022  1.00  0.00    -0.069 C 
ATOM     15  C   UNL     1       2.080  13.584  22.444  1.00  0.00     0.039 C 
ATOM     16  C   UNL     1       2.181  14.131  19.927  1.00  0.00     0.039 C 
BRANCH  13  17
ATOM     17  C   UNL     1       2.500  10.709  21.821  1.00  0.00     0.066 CG0
ATOM     18  G   UNL     1       1.149  10.339  22.402  1.00  0.00     0.000 G0
ENDBRANCH  13  17
ENDBRANCH  11  13
ENDBRANCH  10  11
ENDBRANCH   1  10
TORSDOF 0
ENDMDL
MODEL 4
REMARK VINA RESULT:    -3.483      4.052      5.894
REMARK INTER + INTRA:          -4.763
REMARK INTER:                  -5.178
REMARK INTRA:                   0.415
REMARK UNBOUND:                 0.146
REMARK SMILES CC1=CCC(=C(C)C)C(=O)CC(C)=CCC1
REMARK SMILES IDX 12 1 14 2 13 3 15 4 16 5 2 6 1 7 3 8 11 10 9 11 10 12 5 13
REMARK SMILES IDX 6 14 7 15 8 16 4 17
REMARK H PARENT
REMARK Flexibility Score: 60.00
ROOT
ATOM      1  C   UNL     1       1.610  16.424  21.711  1.00  0.00    -0.070 C 
ATOM      2  C   UNL     1       2.280  15.986  22.798  1.00  0.00    -0.027 C 
ATOM      3  C   UNL     1       0.251  17.044  21.921  1.00  0.00     0.039 C 
ENDROOT
BRANCH   2   4
ATOM      4  C   UNL     1       3.687  15.428  22.804  1.00  0.00     0.032 C 
BRANCH   4   5
ATOM      5  C   UNL     1       3.805  13.977  23.313  1.00  0.00     0.034 C 
BRANCH   5   6
ATOM      6  C   UNL     1       2.880  13.012  22.593  1.00  0.00    -0.077 C 
ATOM      7  C   UNL     1       1.823  12.313  23.412  1.00  0.00     0.039 C 
ATOM      8  C   UNL     1       2.895  12.793  21.256  1.00  0.00    -0.023 CG0
ATOM      9  G   UNL     1       3.870  13.367  20.246  1.00  0.00     0.000 G0
ENDBRANCH   5   6
ENDBRANCH   4   5
ENDBRANCH   2   4
BRANCH   1  10
ATOM     10  C   UNL     1       2.193  16.409  20.312  1.00  0.00     0.111 C 
BRANCH  10  11
ATOM     11  C   UNL     1       2.020  15.066  19.653  1.00  0.00     0.163 C 
ATOM     12  O   UNL     1       0.847  14.657  19.438  1.00  0.00    -0.294 OA
BRANCH  11  13
ATOM     13  C   UNL     1       3.178  14.242  19.195  1.00  0.00    -0.002 C 
ATOM     14  C   UNL     1       3.648  14.344  17.916  1.00  0.00    -0.069 C 
ATOM     15  C   UNL     1       4.912  13.645  17.468  1.00  0.00     0.039 C 
ATOM     16  C   UNL     1       2.920  15.171  16.878  1.00  0.00     0.039 C 
BRANCH  13  17
ATOM     17  C   UNL     1       3.862  13.367  20.234  1.00  0.00     0.066 CG0
ATOM     18  G   UNL     1       2.885  12.807  21.249  1.00  0.00     0.000 G0
ENDBRANCH  13  17
ENDBRANCH  11  13
ENDBRANCH  10  11
ENDBRANCH   1  10
TORSDOF 0
ENDMDL
MODEL 5
REMARK VINA RESULT:    -3.408      2.268      4.065
REMARK INTER + INTRA:          -4.657
REMARK INTER:                  -4.805
REMARK INTRA:                   0.147
REMARK UNBOUND:                 0.146
REMARK SMILES CC1=CCC(=C(C)C)C(=O)CC(C)=CCC1
REMARK SMILES IDX 12 1 14 2 13 3 15 4 16 5 2 6 1 7 3 8 11 10 9 11 10 12 5 13
REMARK SMILES IDX 6 14 7 15 8 16 4 17
REMARK H PARENT
REMARK Flexibility Score: 60.00
ROOT
ATOM      1  C   UNL     1       0.969   9.368  18.243  1.00  0.00    -0.070 C 
ATOM      2  C   UNL     1       1.700   9.247  17.114  1.00  0.00    -0.027 C 
ATOM      3  C   UNL     1       0.733   8.128  19.068  1.00  0.00     0.039 C 
ENDROOT
BRANCH   2   4
ATOM      4  C   UNL     1       2.125  10.384  16.210  1.00  0.00     0.032 C 
BRANCH   4   5
ATOM      5  C   UNL     1       3.333  11.198  16.717  1.00  0.00     0.034 C 
BRANCH   5   6
ATOM      6  C   UNL     1       3.082  12.695  16.730  1.00  0.00    -0.077 C 
ATOM      7  C   UNL     1       2.901  13.386  15.401  1.00  0.00     0.039 C 
ATOM      8  C   UNL     1       2.942  13.438  17.855  1.00  0.00    -0.023 CG0
ATOM      9  G   UNL     1       3.099  12.966  19.287  1.00  0.00     0.000 G0
ENDBRANCH   5   6
ENDBRANCH   4   5
ENDBRANCH   2   4
BRANCH   1  10
ATOM     10  C   UNL     1       0.459  10.696  18.765  1.00  0.00     0.111 C 
BRANCH  10  11
ATOM     11  C   UNL     1       1.315  11.216  19.890  1.00  0.00     0.163 C 
ATOM     12  O   UNL     1       1.697  10.399  20.771  1.00  0.00    -0.294 OA
BRANCH  11  13
ATOM     13  C   UNL     1       1.771  12.636  19.961  1.00  0.00    -0.002 C 
ATOM     14  C   UNL     1       1.055  13.566  20.661  1.00  0.00    -0.069 C 
ATOM     15  C   UNL     1       1.570  14.971  20.884  1.00  0.00     0.039 C 
ATOM     16  C   UNL     1      -0.297  13.232  21.251  1.00  0.00     0.039 C 
BRANCH  13  17
ATOM     17  C   UNL     1       3.103  12.971  19.309  1.00  0.00     0.066 CG0
ATOM     18  G   UNL     1       2.943  13.422  17.870  1.00  0.00     0.000 G0
ENDBRANCH  13  17
ENDBRANCH  11  13
ENDBRANCH  10  11
ENDBRANCH   1  10
TORSDOF 0
ENDMDL
MODEL 6
REMARK VINA RESULT:    -3.401      3.073      5.500
REMARK INTER + INTRA:          -4.646
REMARK INTER:                  -5.000
REMARK INTRA:                   0.354
REMARK UNBOUND:                 0.146
REMARK SMILES CC1=CCC(=C(C)C)C(=O)CC(C)=CCC1
REMARK SMILES IDX 12 1 14 2 13 3 15 4 16 5 2 6 1 7 3 8 11 10 9 11 10 12 5 13
REMARK SMILES IDX 6 14 7 15 8 16 4 17
REMARK H PARENT
REMARK Flexibility Score: 60.00
ROOT
ATOM      1  C   UNL     1       1.799  15.690  21.918  1.00  0.00    -0.070 C 
ATOM      2  C   UNL     1       2.748  15.846  22.866  1.00  0.00    -0.027 C 
ATOM      3  C   UNL     1       1.515  16.855  21.003  1.00  0.00     0.039 C 
ENDROOT
BRANCH   2   4
ATOM      4  C   UNL     1       3.242  14.770  23.808  1.00  0.00     0.032 C 
BRANCH   4   5
ATOM      5  C   UNL     1       4.012  13.619  23.130  1.00  0.00     0.034 C 
BRANCH   5   6
ATOM      6  C   UNL     1       3.455  12.246  23.467  1.00  0.00    -0.077 C 
ATOM      7  C   UNL     1       3.331  11.880  24.925  1.00  0.00     0.039 C 
ATOM      8  C   UNL     1       2.998  11.360  22.549  1.00  0.00    -0.023 CG0
ATOM      9  G   UNL     1       3.038  11.504  21.040  1.00  0.00     0.000 G0
ENDBRANCH   5   6
ENDBRANCH   4   5
ENDBRANCH   2   4
BRANCH   1  10
ATOM     10  C   UNL     1       1.080  14.379  21.670  1.00  0.00     0.111 C 
BRANCH  10  11
ATOM     11  C   UNL     1       1.675  13.630  20.506  1.00  0.00     0.163 C 
ATOM     12  O   UNL     1       2.161  14.300  19.556  1.00  0.00    -0.294 OA
BRANCH  11  13
ATOM     13  C   UNL     1       1.763  12.140  20.472  1.00  0.00    -0.002 C 
ATOM     14  C   UNL     1       0.780  11.395  19.884  1.00  0.00    -0.069 C 
ATOM     15  C   UNL     1       0.914   9.900  19.693  1.00  0.00     0.039 C 
ATOM     16  C   UNL     1      -0.500  12.034  19.392  1.00  0.00     0.039 C 
BRANCH  13  17
ATOM     17  C   UNL     1       3.028  11.506  21.028  1.00  0.00     0.066 CG0
ATOM     18  G   UNL     1       2.988  11.367  22.537  1.00  0.00     0.000 G0
ENDBRANCH  13  17
ENDBRANCH  11  13
ENDBRANCH  10  11
ENDBRANCH   1  10
TORSDOF 0
ENDMDL
MODEL 7
REMARK VINA RESULT:    -3.307      3.081      5.630
REMARK INTER + INTRA:          -4.514
REMARK INTER:                  -5.259
REMARK INTRA:                   0.745
REMARK UNBOUND:                 0.146
REMARK SMILES CC1=CCC(=C(C)C)C(=O)CC(C)=CCC1
REMARK SMILES IDX 12 1 14 2 13 3 15 4 16 5 2 6 1 7 3 8 11 10 9 11 10 12 5 13
REMARK SMILES IDX 6 14 7 15 8 16 4 17
REMARK H PARENT
REMARK Flexibility Score: 60.00
ROOT
ATOM      1  C   UNL     1       1.652  16.345  21.528  1.00  0.00    -0.070 C 
ATOM      2  C   UNL     1       2.089  16.071  22.776  1.00  0.00    -0.027 C 
ATOM      3  C   UNL     1       0.321  17.040  21.382  1.00  0.00     0.039 C 
ENDROOT
BRANCH   2   4
ATOM      4  C   UNL     1       3.432  15.471  23.131  1.00  0.00     0.032 C 
BRANCH   4   5
ATOM      5  C   UNL     1       3.362  14.131  23.892  1.00  0.00     0.034 C 
BRANCH   5   6
ATOM      6  C   UNL     1       3.755  12.937  23.040  1.00  0.00    -0.077 C 
ATOM      7  C   UNL     1       5.080  12.276  23.330  1.00  0.00     0.039 C 
ATOM      8  C   UNL     1       2.965  12.385  22.088  1.00  0.00    -0.023 CG0
ATOM      9  G   UNL     1       1.613  12.885  21.618  1.00  0.00     0.000 G0
ENDBRANCH   5   6
ENDBRANCH   4   5
ENDBRANCH   2   4
BRANCH   1  10
ATOM     10  C   UNL     1       2.471  16.075  20.282  1.00  0.00     0.111 C 
BRANCH  10  11
ATOM     11  C   UNL     1       2.728  14.603  20.094  1.00  0.00     0.163 C 
ATOM     12  O   UNL     1       3.904  14.235  19.828  1.00  0.00    -0.294 OA
BRANCH  11  13
ATOM     13  C   UNL     1       1.661  13.574  20.272  1.00  0.00    -0.002 C 
ATOM     14  C   UNL     1       0.844  13.226  19.233  1.00  0.00    -0.069 C 
ATOM     15  C   UNL     1      -0.137  12.079  19.334  1.00  0.00     0.039 C 
ATOM     16  C   UNL     1       0.885  13.977  17.920  1.00  0.00     0.039 C 
BRANCH  13  17
ATOM     17  C   UNL     1       1.591  12.870  21.619  1.00  0.00     0.066 CG0
ATOM     18  G   UNL     1       2.949  12.382  22.084  1.00  0.00     0.000 G0
ENDBRANCH  13  17
ENDBRANCH  11  13
ENDBRANCH  10  11
ENDBRANCH   1  10
TORSDOF 0
ENDMDL
MODEL 8
REMARK VINA RESULT:    -3.227      1.732      2.333
REMARK INTER + INTRA:          -4.401
REMARK INTER:                  -4.646
REMARK INTRA:                   0.245
REMARK UNBOUND:                 0.146
REMARK SMILES CC1=CCC(=C(C)C)C(=O)CC(C)=CCC1
REMARK SMILES IDX 12 1 14 2 13 3 15 4 16 5 2 6 1 7 3 8 11 10 9 11 10 12 5 13
REMARK SMILES IDX 6 14 7 15 8 16 4 17
REMARK H PARENT
REMARK Flexibility Score: 60.00
ROOT
ATOM      1  C   UNL     1       1.605  12.550  15.637  1.00  0.00    -0.070 C 
ATOM      2  C   UNL     1       1.870  11.279  15.263  1.00  0.00    -0.027 C 
ATOM      3  C   UNL     1       1.976  13.659  14.684  1.00  0.00     0.039 C 
ENDROOT
BRANCH   2   4
ATOM      4  C   UNL     1       1.488  10.033  16.031  1.00  0.00     0.032 C 
BRANCH   4   5
ATOM      5  C   UNL     1       2.322   9.776  17.303  1.00  0.00     0.034 C 
BRANCH   5   6
ATOM      6  C   UNL     1       1.475   9.630  18.555  1.00  0.00    -0.077 C 
ATOM      7  C   UNL     1       0.517   8.467  18.621  1.00  0.00     0.039 C 
ATOM      8  C   UNL     1       1.573  10.433  19.642  1.00  0.00    -0.023 CG0
ATOM      9  G   UNL     1       2.446  11.664  19.794  1.00  0.00     0.000 G0
ENDBRANCH   5   6
ENDBRANCH   4   5
ENDBRANCH   2   4
BRANCH   1  10
ATOM     10  C   UNL     1       0.871  12.904  16.915  1.00  0.00     0.111 C 
BRANCH  10  11
ATOM     11  C   UNL     1       1.817  13.396  17.979  1.00  0.00     0.163 C 
ATOM     12  O   UNL     1       2.687  14.247  17.652  1.00  0.00    -0.294 OA
BRANCH  11  13
ATOM     13  C   UNL     1       1.718  12.960  19.404  1.00  0.00    -0.002 C 
ATOM     14  C   UNL     1       0.929  13.639  20.290  1.00  0.00    -0.069 C 
ATOM     15  C   UNL     1       0.683  13.132  21.694  1.00  0.00     0.039 C 
ATOM     16  C   UNL     1       0.257  14.939  19.905  1.00  0.00     0.039 C 
BRANCH  13  17
ATOM     17  C   UNL     1       2.449  11.685  19.793  1.00  0.00     0.066 CG0
ATOM     18  G   UNL     1       1.581  10.452  19.634  1.00  0.00     0.000 G0
ENDBRANCH  13  17
ENDBRANCH  11  13
ENDBRANCH  10  11
ENDBRANCH   1  10
TORSDOF 0
ENDMDL
MODEL 9
REMARK VINA RESULT:    -3.196      2.021      3.967
REMARK INTER + INTRA:          -4.357
REMARK INTER:                  -4.474
REMARK INTRA:                   0.117
REMARK UNBOUND:                 0.146
REMARK SMILES CC1=CCC(=C(C)C)C(=O)CC(C)=CCC1
REMARK SMILES IDX 12 1 14 2 13 3 15 4 16 5 2 6 1 7 3 8 11 10 9 11 10 12 5 13
REMARK SMILES IDX 6 14 7 15 8 16 4 17
REMARK H PARENT
REMARK Flexibility Score: 60.00
ROOT
ATOM      1  C   UNL     1       0.350   8.422  20.766  1.00  0.00    -0.070 C 
ATOM      2  C   UNL     1       0.816   7.733  19.702  1.00  0.00    -0.027 C 
ATOM      3  C   UNL     1       0.330   7.727  22.104  1.00  0.00     0.039 C 
ENDROOT
BRANCH   2   4
ATOM      4  C   UNL     1       1.004   8.284  18.305  1.00  0.00     0.032 C 
BRANCH   4   5
ATOM      5  C   UNL     1       2.356   8.986  18.063  1.00  0.00     0.034 C 
BRANCH   5   6
ATOM      6  C   UNL     1       2.215  10.341  17.392  1.00  0.00    -0.077 C 
ATOM      7  C   UNL     1       1.843  10.364  15.931  1.00  0.00     0.039 C 
ATOM      8  C   UNL     1       2.332  11.529  18.035  1.00  0.00    -0.023 CG0
ATOM      9  G   UNL     1       2.714  11.749  19.486  1.00  0.00     0.000 G0
ENDBRANCH   5   6
ENDBRANCH   4   5
ENDBRANCH   2   4
BRANCH   1  10
ATOM     10  C   UNL     1      -0.062   9.879  20.697  1.00  0.00     0.111 C 
BRANCH  10  11
ATOM     11  C   UNL     1       1.036  10.789  21.180  1.00  0.00     0.163 C 
ATOM     12  O   UNL     1       1.608  10.505  22.267  1.00  0.00    -0.294 OA
BRANCH  11  13
ATOM     13  C   UNL     1       1.505  11.968  20.392  1.00  0.00    -0.002 C 
ATOM     14  C   UNL     1       0.921  13.193  20.551  1.00  0.00    -0.069 C 
ATOM     15  C   UNL     1       1.473  14.436  19.889  1.00  0.00     0.039 C 
ATOM     16  C   UNL     1      -0.316  13.366  21.405  1.00  0.00     0.039 C 
BRANCH  13  17
ATOM     17  C   UNL     1       2.712  11.764  19.489  1.00  0.00     0.066 CG0
ATOM     18  G   UNL     1       2.317  11.535  18.043  1.00  0.00     0.000 G0
ENDBRANCH  13  17
ENDBRANCH  11  13
ENDBRANCH  10  11
ENDBRANCH   1  10
TORSDOF 0
ENDMDL
