MODEL 1
REMARK VINA RESULT:    -7.072      0.000      0.000
REMARK INTER + INTRA:          -7.823
REMARK INTER:                  -7.692
REMARK INTRA:                  -0.132
REMARK UNBOUND:                -0.132
REMARK SMILES CC(=O)[C@H]1CC[C@@H]2[C@H]3CC=C4C[C@@H](O)CC[C@]4(C)[C@H]3CC[C@]12C
REMARK SMILES IDX 4 1 5 2 6 3 7 4 22 5 21 6 20 7 19 8 8 9 9 10 10 11 11 12
REMARK SMILES IDX 17 13 16 14 15 15 13 16 12 17 18 18 23 19 2 20 1 21 3 22
REMARK SMILES IDX 14 23
REMARK H PARENT 14 24
REMARK Flexibility Score: inf
ROOT
ATOM      1  C   UNL     1      18.375  14.639  11.191  1.00  0.00     0.062 C 
ATOM      2  C   UNL     1      18.426  14.852  12.701  1.00  0.00     0.012 C 
ATOM      3  C   UNL     1      19.109  16.196  12.888  1.00  0.00     0.005 C 
ATOM      4  C   UNL     1      19.998  16.440  11.644  1.00  0.00    -0.001 C 
ATOM      5  C   UNL     1      19.698  15.258  10.662  1.00  0.00    -0.020 C 
ATOM      6  C   UNL     1      19.569  15.707   9.181  1.00  0.00     0.008 C 
ATOM      7  C   UNL     1      18.713  16.966   8.927  1.00  0.00     0.005 C 
ATOM      8  C   UNL     1      18.526  17.921  10.142  1.00  0.00     0.003 C 
ATOM      9  C   UNL     1      19.760  17.869  11.068  1.00  0.00     0.000 C 
ATOM     10  C   UNL     1      20.988  18.451  10.346  1.00  0.00     0.031 C 
ATOM     11  C   UNL     1      20.689  19.812   9.777  1.00  0.00    -0.027 C 
ATOM     12  C   UNL     1      19.444  20.238   9.452  1.00  0.00    -0.065 C 
ATOM     13  C   UNL     1      18.180  19.413   9.738  1.00  0.00    -0.008 C 
ATOM     14  C   UNL     1      17.431  20.119  10.917  1.00  0.00     0.014 C 
ATOM     15  C   UNL     1      17.238  21.642  10.719  1.00  0.00     0.033 C 
ATOM     16  C   UNL     1      18.554  22.361  10.368  1.00  0.00     0.118 C 
ATOM     17  C   UNL     1      19.242  21.707   9.158  1.00  0.00     0.063 C 
ATOM     18  C   UNL     1      17.241  19.425   8.496  1.00  0.00     0.016 C 
ATOM     19  C   UNL     1      20.860  14.230  10.749  1.00  0.00     0.012 C 
ENDROOT
BRANCH   1  20
ATOM     20  C   UNL     1      18.106  13.202  10.759  1.00  0.00     0.133 C 
ATOM     21  C   UNL     1      18.380  12.020  11.646  1.00  0.00     0.088 C 
ATOM     22  O   UNL     1      17.628  12.999   9.652  1.00  0.00    -0.300 OA
ENDBRANCH   1  20
BRANCH  16  23
ATOM     23  O   UNL     1      18.279  23.709  10.090  1.00  0.00    -0.393 OA
ATOM     24  H   UNL     1      18.866  24.250  10.680  1.00  0.00     0.210 HD
ENDBRANCH  16  23
TORSDOF 2
ENDMDL
MODEL 2
REMARK VINA RESULT:    -7.027      2.158      6.957
REMARK INTER + INTRA:          -7.775
REMARK INTER:                  -7.665
REMARK INTRA:                  -0.110
REMARK UNBOUND:                -0.132
REMARK SMILES CC(=O)[C@H]1CC[C@@H]2[C@H]3CC=C4C[C@@H](O)CC[C@]4(C)[C@H]3CC[C@]12C
REMARK SMILES IDX 4 1 5 2 6 3 7 4 22 5 21 6 20 7 19 8 8 9 9 10 10 11 11 12
REMARK SMILES IDX 17 13 16 14 15 15 13 16 12 17 18 18 23 19 2 20 1 21 3 22
REMARK SMILES IDX 14 23
REMARK H PARENT 14 24
REMARK Flexibility Score: inf
ROOT
ATOM      1  C   UNL     1      19.595  17.943   9.219  1.00  0.00     0.062 C 
ATOM      2  C   UNL     1      20.852  17.945  10.086  1.00  0.00     0.012 C 
ATOM      3  C   UNL     1      20.483  17.139  11.320  1.00  0.00     0.005 C 
ATOM      4  C   UNL     1      18.947  17.230  11.490  1.00  0.00    -0.001 C 
ATOM      5  C   UNL     1      18.419  18.000  10.233  1.00  0.00    -0.020 C 
ATOM      6  C   UNL     1      17.121  17.390   9.639  1.00  0.00     0.008 C 
ATOM      7  C   UNL     1      17.101  15.854   9.488  1.00  0.00     0.005 C 
ATOM      8  C   UNL     1      18.095  15.066  10.391  1.00  0.00     0.003 C 
ATOM      9  C   UNL     1      18.332  15.817  11.719  1.00  0.00     0.000 C 
ATOM     10  C   UNL     1      17.039  15.839  12.552  1.00  0.00     0.031 C 
ATOM     11  C   UNL     1      16.468  14.454  12.708  1.00  0.00    -0.027 C 
ATOM     12  C   UNL     1      16.701  13.440  11.840  1.00  0.00    -0.065 C 
ATOM     13  C   UNL     1      17.670  13.564  10.655  1.00  0.00    -0.008 C 
ATOM     14  C   UNL     1      18.935  12.711  11.008  1.00  0.00     0.014 C 
ATOM     15  C   UNL     1      18.612  11.280  11.498  1.00  0.00     0.033 C 
ATOM     16  C   UNL     1      17.579  11.266  12.640  1.00  0.00     0.118 C 
ATOM     17  C   UNL     1      16.308  12.039  12.251  1.00  0.00     0.063 C 
ATOM     18  C   UNL     1      17.028  12.959   9.371  1.00  0.00     0.016 C 
ATOM     19  C   UNL     1      18.114  19.469  10.638  1.00  0.00     0.012 C 
ENDROOT
BRANCH   1  20
ATOM     20  C   UNL     1      19.572  19.007   8.128  1.00  0.00     0.133 C 
ATOM     21  C   UNL     1      20.642  20.053   7.986  1.00  0.00     0.088 C 
ATOM     22  O   UNL     1      18.656  19.000   7.319  1.00  0.00    -0.300 OA
ENDBRANCH   1  20
BRANCH  16  23
ATOM     23  O   UNL     1      17.253   9.935  12.946  1.00  0.00    -0.393 OA
ATOM     24  H   UNL     1      16.479   9.965  13.567  1.00  0.00     0.210 HD
ENDBRANCH  16  23
TORSDOF 2
ENDMDL
MODEL 3
REMARK VINA RESULT:    -6.979      1.578      6.627
REMARK INTER + INTRA:          -7.722
REMARK INTER:                  -7.600
REMARK INTRA:                  -0.122
REMARK UNBOUND:                -0.132
REMARK SMILES CC(=O)[C@H]1CC[C@@H]2[C@H]3CC=C4C[C@@H](O)CC[C@]4(C)[C@H]3CC[C@]12C
REMARK SMILES IDX 4 1 5 2 6 3 7 4 22 5 21 6 20 7 19 8 8 9 9 10 10 11 11 12
REMARK SMILES IDX 17 13 16 14 15 15 13 16 12 17 18 18 23 19 2 20 1 21 3 22
REMARK SMILES IDX 14 23
REMARK H PARENT 14 24
REMARK Flexibility Score: inf
ROOT
ATOM      1  C   UNL     1      19.219  20.186   9.648  1.00  0.00     0.062 C 
ATOM      2  C   UNL     1      17.894  20.272   8.895  1.00  0.00     0.012 C 
ATOM      3  C   UNL     1      17.491  18.829   8.637  1.00  0.00     0.005 C 
ATOM      4  C   UNL     1      18.787  17.982   8.626  1.00  0.00    -0.001 C 
ATOM      5  C   UNL     1      19.944  18.959   9.028  1.00  0.00    -0.020 C 
ATOM      6  C   UNL     1      20.959  18.332  10.021  1.00  0.00     0.008 C 
ATOM      7  C   UNL     1      20.355  17.553  11.208  1.00  0.00     0.005 C 
ATOM      8  C   UNL     1      18.899  17.035  11.015  1.00  0.00     0.003 C 
ATOM      9  C   UNL     1      18.629  16.721   9.528  1.00  0.00     0.000 C 
ATOM     10  C   UNL     1      19.491  15.531   9.073  1.00  0.00     0.031 C 
ATOM     11  C   UNL     1      19.330  14.357  10.001  1.00  0.00    -0.027 C 
ATOM     12  C   UNL     1      18.950  14.465  11.298  1.00  0.00    -0.065 C 
ATOM     13  C   UNL     1      18.531  15.799  11.933  1.00  0.00    -0.008 C 
ATOM     14  C   UNL     1      16.981  15.739  12.141  1.00  0.00     0.014 C 
ATOM     15  C   UNL     1      16.489  14.449  12.840  1.00  0.00     0.033 C 
ATOM     16  C   UNL     1      17.023  13.172  12.164  1.00  0.00     0.118 C 
ATOM     17  C   UNL     1      18.555  13.207  12.037  1.00  0.00     0.063 C 
ATOM     18  C   UNL     1      19.197  15.958  13.333  1.00  0.00     0.016 C 
ATOM     19  C   UNL     1      20.720  19.369   7.745  1.00  0.00     0.012 C 
ENDROOT
BRANCH   1  20
ATOM     20  C   UNL     1      20.025  21.480   9.669  1.00  0.00     0.133 C 
ATOM     21  C   UNL     1      19.627  22.700   8.887  1.00  0.00     0.088 C 
ATOM     22  O   UNL     1      21.026  21.538  10.367  1.00  0.00    -0.300 OA
ENDBRANCH   1  20
BRANCH  16  23
ATOM     23  O   UNL     1      16.632  12.056  12.921  1.00  0.00    -0.393 OA
ATOM     24  H   UNL     1      17.459  11.670  13.310  1.00  0.00     0.210 HD
ENDBRANCH  16  23
TORSDOF 2
ENDMDL
MODEL 4
REMARK VINA RESULT:    -6.938      2.045      3.514
REMARK INTER + INTRA:          -7.678
REMARK INTER:                  -7.540
REMARK INTRA:                  -0.138
REMARK UNBOUND:                -0.132
REMARK SMILES CC(=O)[C@H]1CC[C@@H]2[C@H]3CC=C4C[C@@H](O)CC[C@]4(C)[C@H]3CC[C@]12C
REMARK SMILES IDX 4 1 5 2 6 3 7 4 22 5 21 6 20 7 19 8 8 9 9 10 10 11 11 12
REMARK SMILES IDX 17 13 16 14 15 15 13 16 12 17 18 18 23 19 2 20 1 21 3 22
REMARK SMILES IDX 14 23
REMARK H PARENT 14 24
REMARK Flexibility Score: inf
ROOT
ATOM      1  C   UNL     1      17.650  14.121  11.961  1.00  0.00     0.062 C 
ATOM      2  C   UNL     1      17.068  13.604  10.648  1.00  0.00     0.012 C 
ATOM      3  C   UNL     1      16.809  14.847   9.812  1.00  0.00     0.005 C 
ATOM      4  C   UNL     1      16.610  16.029  10.792  1.00  0.00    -0.001 C 
ATOM      5  C   UNL     1      16.903  15.459  12.221  1.00  0.00    -0.020 C 
ATOM      6  C   UNL     1      17.741  16.420  13.106  1.00  0.00     0.008 C 
ATOM      7  C   UNL     1      18.965  17.072  12.429  1.00  0.00     0.005 C 
ATOM      8  C   UNL     1      18.933  17.133  10.873  1.00  0.00     0.003 C 
ATOM      9  C   UNL     1      17.479  17.251  10.366  1.00  0.00     0.000 C 
ATOM     10  C   UNL     1      16.881  18.605  10.786  1.00  0.00     0.031 C 
ATOM     11  C   UNL     1      17.780  19.744  10.384  1.00  0.00    -0.027 C 
ATOM     12  C   UNL     1      19.115  19.621  10.193  1.00  0.00    -0.065 C 
ATOM     13  C   UNL     1      19.845  18.270  10.256  1.00  0.00    -0.008 C 
ATOM     14  C   UNL     1      20.237  17.895   8.788  1.00  0.00     0.014 C 
ATOM     15  C   UNL     1      20.944  19.033   8.015  1.00  0.00     0.033 C 
ATOM     16  C   UNL     1      20.164  20.359   8.074  1.00  0.00     0.118 C 
ATOM     17  C   UNL     1      19.853  20.759   9.526  1.00  0.00     0.063 C 
ATOM     18  C   UNL     1      21.157  18.408  11.084  1.00  0.00     0.016 C 
ATOM     19  C   UNL     1      15.551  15.202  12.943  1.00  0.00     0.012 C 
ENDROOT
BRANCH   1  20
ATOM     20  C   UNL     1      17.618  13.120  13.110  1.00  0.00     0.133 C 
ATOM     21  C   UNL     1      16.894  11.806  13.026  1.00  0.00     0.088 C 
ATOM     22  O   UNL     1      18.225  13.384  14.137  1.00  0.00    -0.300 OA
ENDBRANCH   1  20
BRANCH  16  23
ATOM     23  O   UNL     1      20.922  21.365   7.453  1.00  0.00    -0.393 OA
ATOM     24  H   UNL     1      21.804  20.965   7.234  1.00  0.00     0.210 HD
ENDBRANCH  16  23
TORSDOF 2
ENDMDL
MODEL 5
REMARK VINA RESULT:    -6.935      1.767      6.783
REMARK INTER + INTRA:          -7.675
REMARK INTER:                  -7.523
REMARK INTRA:                  -0.152
REMARK UNBOUND:                -0.132
REMARK SMILES CC(=O)[C@H]1CC[C@@H]2[C@H]3CC=C4C[C@@H](O)CC[C@]4(C)[C@H]3CC[C@]12C
REMARK SMILES IDX 4 1 5 2 6 3 7 4 22 5 21 6 20 7 19 8 8 9 9 10 10 11 11 12
REMARK SMILES IDX 17 13 16 14 15 15 13 16 12 17 18 18 23 19 2 20 1 21 3 22
REMARK SMILES IDX 14 23
REMARK H PARENT 14 24
REMARK Flexibility Score: inf
ROOT
ATOM      1  C   UNL     1      18.875  19.546  10.076  1.00  0.00     0.062 C 
ATOM      2  C   UNL     1      17.509  20.008  10.576  1.00  0.00     0.012 C 
ATOM      3  C   UNL     1      16.652  18.753  10.601  1.00  0.00     0.005 C 
ATOM      4  C   UNL     1      17.244  17.768   9.563  1.00  0.00    -0.001 C 
ATOM      5  C   UNL     1      18.558  18.436   9.035  1.00  0.00    -0.020 C 
ATOM      6  C   UNL     1      19.737  17.438   8.885  1.00  0.00     0.008 C 
ATOM      7  C   UNL     1      19.958  16.466  10.064  1.00  0.00     0.005 C 
ATOM      8  C   UNL     1      18.727  16.223  10.987  1.00  0.00     0.003 C 
ATOM      9  C   UNL     1      17.415  16.349  10.184  1.00  0.00     0.000 C 
ATOM     10  C   UNL     1      17.314  15.212   9.152  1.00  0.00     0.031 C 
ATOM     11  C   UNL     1      17.526  13.870   9.800  1.00  0.00    -0.027 C 
ATOM     12  C   UNL     1      18.223  13.687  10.948  1.00  0.00    -0.065 C 
ATOM     13  C   UNL     1      18.781  14.852  11.778  1.00  0.00    -0.008 C 
ATOM     14  C   UNL     1      17.903  14.954  13.070  1.00  0.00     0.014 C 
ATOM     15  C   UNL     1      17.705  13.607  13.805  1.00  0.00     0.033 C 
ATOM     16  C   UNL     1      17.211  12.490  12.866  1.00  0.00     0.118 C 
ATOM     17  C   UNL     1      18.127  12.346  11.640  1.00  0.00     0.063 C 
ATOM     18  C   UNL     1      20.244  14.547  12.216  1.00  0.00     0.016 C 
ATOM     19  C   UNL     1      18.276  19.057   7.638  1.00  0.00     0.012 C 
ENDROOT
BRANCH   1  20
ATOM     20  C   UNL     1      19.784  20.666   9.582  1.00  0.00     0.133 C 
ATOM     21  C   UNL     1      19.284  22.054   9.293  1.00  0.00     0.088 C 
ATOM     22  O   UNL     1      20.975  20.435   9.433  1.00  0.00    -0.300 OA
ENDBRANCH   1  20
BRANCH  16  23
ATOM     23  O   UNL     1      17.170  11.280  13.576  1.00  0.00    -0.393 OA
ATOM     24  H   UNL     1      18.111  11.003  13.725  1.00  0.00     0.210 HD
ENDBRANCH  16  23
TORSDOF 2
ENDMDL
MODEL 6
REMARK VINA RESULT:    -6.883      3.640      8.020
REMARK INTER + INTRA:          -7.618
REMARK INTER:                  -7.468
REMARK INTRA:                  -0.150
REMARK UNBOUND:                -0.132
REMARK SMILES CC(=O)[C@H]1CC[C@@H]2[C@H]3CC=C4C[C@@H](O)CC[C@]4(C)[C@H]3CC[C@]12C
REMARK SMILES IDX 4 1 5 2 6 3 7 4 22 5 21 6 20 7 19 8 8 9 9 10 10 11 11 12
REMARK SMILES IDX 17 13 16 14 15 15 13 16 12 17 18 18 23 19 2 20 1 21 3 22
REMARK SMILES IDX 14 23
REMARK H PARENT 14 24
REMARK Flexibility Score: inf
ROOT
ATOM      1  C   UNL     1      17.182  16.319  13.171  1.00  0.00     0.062 C 
ATOM      2  C   UNL     1      16.704  16.882  11.835  1.00  0.00     0.012 C 
ATOM      3  C   UNL     1      17.106  15.843  10.801  1.00  0.00     0.005 C 
ATOM      4  C   UNL     1      18.315  15.063  11.375  1.00  0.00    -0.001 C 
ATOM      5  C   UNL     1      18.513  15.589  12.837  1.00  0.00    -0.020 C 
ATOM      6  C   UNL     1      18.820  14.462  13.859  1.00  0.00     0.008 C 
ATOM      7  C   UNL     1      17.938  13.199  13.761  1.00  0.00     0.005 C 
ATOM      8  C   UNL     1      17.238  12.960  12.391  1.00  0.00     0.003 C 
ATOM      9  C   UNL     1      18.094  13.526  11.239  1.00  0.00     0.000 C 
ATOM     10  C   UNL     1      19.404  12.729  11.111  1.00  0.00     0.031 C 
ATOM     11  C   UNL     1      19.133  11.251  11.023  1.00  0.00    -0.027 C 
ATOM     12  C   UNL     1      18.020  10.656  11.516  1.00  0.00    -0.065 C 
ATOM     13  C   UNL     1      16.853  11.447  12.123  1.00  0.00    -0.008 C 
ATOM     14  C   UNL     1      15.671  11.377  11.099  1.00  0.00     0.014 C 
ATOM     15  C   UNL     1      15.357   9.947  10.597  1.00  0.00     0.033 C 
ATOM     16  C   UNL     1      16.609   9.218  10.074  1.00  0.00     0.118 C 
ATOM     17  C   UNL     1      17.736   9.225  11.120  1.00  0.00     0.063 C 
ATOM     18  C   UNL     1      16.381  10.776  13.447  1.00  0.00     0.016 C 
ATOM     19  C   UNL     1      19.704  16.586  12.852  1.00  0.00     0.012 C 
ENDROOT
BRANCH   1  20
ATOM     20  C   UNL     1      17.260  17.340  14.301  1.00  0.00     0.133 C 
ATOM     21  C   UNL     1      17.324  16.948  15.750  1.00  0.00     0.088 C 
ATOM     22  O   UNL     1      17.295  18.528  14.018  1.00  0.00    -0.300 OA
ENDBRANCH   1  20
BRANCH  16  23
ATOM     23  O   UNL     1      16.267   7.896   9.749  1.00  0.00    -0.393 OA
ATOM     24  H   UNL     1      17.088   7.351   9.863  1.00  0.00     0.210 HD
ENDBRANCH  16  23
TORSDOF 2
ENDMDL
MODEL 7
REMARK VINA RESULT:    -6.759      3.853      5.361
REMARK INTER + INTRA:          -7.484
REMARK INTER:                  -7.329
REMARK INTRA:                  -0.154
REMARK UNBOUND:                -0.132
REMARK SMILES CC(=O)[C@H]1CC[C@@H]2[C@H]3CC=C4C[C@@H](O)CC[C@]4(C)[C@H]3CC[C@]12C
REMARK SMILES IDX 4 1 5 2 6 3 7 4 22 5 21 6 20 7 19 8 8 9 9 10 10 11 11 12
REMARK SMILES IDX 17 13 16 14 15 15 13 16 12 17 18 18 23 19 2 20 1 21 3 22
REMARK SMILES IDX 14 23
REMARK H PARENT 14 24
REMARK Flexibility Score: inf
ROOT
ATOM      1  C   UNL     1      17.584  14.065  12.351  1.00  0.00     0.062 C 
ATOM      2  C   UNL     1      19.107  14.081  12.455  1.00  0.00     0.012 C 
ATOM      3  C   UNL     1      19.461  15.498  12.875  1.00  0.00     0.005 C 
ATOM      4  C   UNL     1      18.313  16.421  12.398  1.00  0.00    -0.001 C 
ATOM      5  C   UNL     1      17.213  15.474  11.811  1.00  0.00    -0.020 C 
ATOM      6  C   UNL     1      15.771  15.882  12.218  1.00  0.00     0.008 C 
ATOM      7  C   UNL     1      15.561  16.241  13.704  1.00  0.00     0.005 C 
ATOM      8  C   UNL     1      16.837  16.665  14.490  1.00  0.00     0.003 C 
ATOM      9  C   UNL     1      17.846  17.360  13.551  1.00  0.00     0.000 C 
ATOM     10  C   UNL     1      17.273  18.699  13.056  1.00  0.00     0.031 C 
ATOM     11  C   UNL     1      16.801  19.547  14.208  1.00  0.00    -0.027 C 
ATOM     12  C   UNL     1      16.421  19.047  15.408  1.00  0.00    -0.065 C 
ATOM     13  C   UNL     1      16.538  17.557  15.764  1.00  0.00    -0.008 C 
ATOM     14  C   UNL     1      17.712  17.424  16.790  1.00  0.00     0.014 C 
ATOM     15  C   UNL     1      17.632  18.418  17.972  1.00  0.00     0.033 C 
ATOM     16  C   UNL     1      17.446  19.874  17.506  1.00  0.00     0.118 C 
ATOM     17  C   UNL     1      16.240  20.008  16.561  1.00  0.00     0.063 C 
ATOM     18  C   UNL     1      15.233  17.069  16.462  1.00  0.00     0.016 C 
ATOM     19  C   UNL     1      17.300  15.509  10.260  1.00  0.00     0.012 C 
ENDROOT
BRANCH   1  20
ATOM     20  C   UNL     1      17.011  12.891  11.565  1.00  0.00     0.133 C 
ATOM     21  C   UNL     1      17.858  11.996  10.704  1.00  0.00     0.088 C 
ATOM     22  O   UNL     1      15.816  12.652  11.652  1.00  0.00    -0.300 OA
ENDBRANCH   1  20
BRANCH  16  23
ATOM     23  O   UNL     1      17.264  20.695  18.631  1.00  0.00    -0.393 OA
ATOM     24  H   UNL     1      16.799  20.146  19.314  1.00  0.00     0.210 HD
ENDBRANCH  16  23
TORSDOF 2
ENDMDL
MODEL 8
REMARK VINA RESULT:    -6.605      2.696      7.593
REMARK INTER + INTRA:          -7.316
REMARK INTER:                  -7.167
REMARK INTRA:                  -0.150
REMARK UNBOUND:                -0.132
REMARK SMILES CC(=O)[C@H]1CC[C@@H]2[C@H]3CC=C4C[C@@H](O)CC[C@]4(C)[C@H]3CC[C@]12C
REMARK SMILES IDX 4 1 5 2 6 3 7 4 22 5 21 6 20 7 19 8 8 9 9 10 10 11 11 12
REMARK SMILES IDX 17 13 16 14 15 15 13 16 12 17 18 18 23 19 2 20 1 21 3 22
REMARK SMILES IDX 14 23
REMARK H PARENT 14 24
REMARK Flexibility Score: inf
ROOT
ATOM      1  C   UNL     1      17.366  17.110  11.705  1.00  0.00     0.062 C 
ATOM      2  C   UNL     1      16.996  17.355  10.245  1.00  0.00     0.012 C 
ATOM      3  C   UNL     1      17.568  16.169   9.487  1.00  0.00     0.005 C 
ATOM      4  C   UNL     1      18.758  15.622  10.314  1.00  0.00    -0.001 C 
ATOM      5  C   UNL     1      18.768  16.442  11.648  1.00  0.00    -0.020 C 
ATOM      6  C   UNL     1      19.038  15.569  12.903  1.00  0.00     0.008 C 
ATOM      7  C   UNL     1      18.254  14.242  12.989  1.00  0.00     0.005 C 
ATOM      8  C   UNL     1      17.717  13.679  11.640  1.00  0.00     0.003 C 
ATOM      9  C   UNL     1      18.651  14.076  10.477  1.00  0.00     0.000 C 
ATOM     10  C   UNL     1      20.015  13.381  10.633  1.00  0.00     0.031 C 
ATOM     11  C   UNL     1      19.850  11.897  10.827  1.00  0.00    -0.027 C 
ATOM     12  C   UNL     1      18.731  11.321  11.330  1.00  0.00    -0.065 C 
ATOM     13  C   UNL     1      17.459  12.117  11.655  1.00  0.00    -0.008 C 
ATOM     14  C   UNL     1      16.398  11.746  10.566  1.00  0.00     0.014 C 
ATOM     15  C   UNL     1      16.229  10.225  10.342  1.00  0.00     0.033 C 
ATOM     16  C   UNL     1      17.573   9.513  10.094  1.00  0.00     0.118 C 
ATOM     17  C   UNL     1      18.582   9.821  11.213  1.00  0.00     0.063 C 
ATOM     18  C   UNL     1      16.895  11.683  13.041  1.00  0.00     0.016 C 
ATOM     19  C   UNL     1      19.886  17.518  11.565  1.00  0.00     0.012 C 
ENDROOT
BRANCH   1  20
ATOM     20  C   UNL     1      17.261  18.337  12.604  1.00  0.00     0.133 C 
ATOM     21  C   UNL     1      17.252  18.250  14.104  1.00  0.00     0.088 C 
ATOM     22  O   UNL     1      17.203  19.442  12.085  1.00  0.00    -0.300 OA
ENDBRANCH   1  20
BRANCH  16  23
ATOM     23  O   UNL     1      17.351   8.129  10.018  1.00  0.00    -0.393 OA
ATOM     24  H   UNL     1      16.816   7.969   9.197  1.00  0.00     0.210 HD
ENDBRANCH  16  23
TORSDOF 2
ENDMDL
MODEL 9
REMARK VINA RESULT:    -6.535      4.639      5.982
REMARK INTER + INTRA:          -7.240
REMARK INTER:                  -7.097
REMARK INTRA:                  -0.143
REMARK UNBOUND:                -0.132
REMARK SMILES CC(=O)[C@H]1CC[C@@H]2[C@H]3CC=C4C[C@@H](O)CC[C@]4(C)[C@H]3CC[C@]12C
REMARK SMILES IDX 4 1 5 2 6 3 7 4 22 5 21 6 20 7 19 8 8 9 9 10 10 11 11 12
REMARK SMILES IDX 17 13 16 14 15 15 13 16 12 17 18 18 23 19 2 20 1 21 3 22
REMARK SMILES IDX 14 23
REMARK H PARENT 14 24
REMARK Flexibility Score: inf
ROOT
ATOM      1  C   UNL     1      16.744  12.719  11.385  1.00  0.00     0.062 C 
ATOM      2  C   UNL     1      16.623  11.511  12.311  1.00  0.00     0.012 C 
ATOM      3  C   UNL     1      16.852  12.059  13.710  1.00  0.00     0.005 C 
ATOM      4  C   UNL     1      17.708  13.342  13.569  1.00  0.00    -0.001 C 
ATOM      5  C   UNL     1      17.851  13.599  12.031  1.00  0.00    -0.020 C 
ATOM      6  C   UNL     1      17.694  15.093  11.641  1.00  0.00     0.008 C 
ATOM      7  C   UNL     1      16.516  15.845  12.296  1.00  0.00     0.005 C 
ATOM      8  C   UNL     1      15.963  15.231  13.616  1.00  0.00     0.003 C 
ATOM      9  C   UNL     1      17.088  14.512  14.391  1.00  0.00     0.000 C 
ATOM     10  C   UNL     1      18.128  15.533  14.883  1.00  0.00     0.031 C 
ATOM     11  C   UNL     1      17.470  16.659  15.635  1.00  0.00    -0.027 C 
ATOM     12  C   UNL     1      16.180  17.035  15.456  1.00  0.00    -0.065 C 
ATOM     13  C   UNL     1      15.210  16.272  14.541  1.00  0.00    -0.008 C 
ATOM     14  C   UNL     1      14.202  15.519  15.472  1.00  0.00     0.014 C 
ATOM     15  C   UNL     1      13.570  16.409  16.568  1.00  0.00     0.033 C 
ATOM     16  C   UNL     1      14.626  17.182  17.380  1.00  0.00     0.118 C 
ATOM     17  C   UNL     1      15.562  17.982  16.460  1.00  0.00     0.063 C 
ATOM     18  C   UNL     1      14.399  17.274  13.666  1.00  0.00     0.016 C 
ATOM     19  C   UNL     1      19.261  13.131  11.575  1.00  0.00     0.012 C 
ENDROOT
BRANCH   1  20
ATOM     20  C   UNL     1      16.955  12.376   9.915  1.00  0.00     0.133 C 
ATOM     21  C   UNL     1      16.809  13.388   8.813  1.00  0.00     0.088 C 
ATOM     22  O   UNL     1      17.278  11.235   9.617  1.00  0.00    -0.300 OA
ENDBRANCH   1  20
BRANCH  16  23
ATOM     23  O   UNL     1      13.974  18.050  18.270  1.00  0.00    -0.393 OA
ATOM     24  H   UNL     1      13.778  18.883  17.765  1.00  0.00     0.210 HD
ENDBRANCH  16  23
TORSDOF 2
ENDMDL
