MODEL 1
REMARK VINA RESULT:    -7.907      0.000      0.000
REMARK INTER + INTRA:         -11.324
REMARK INTER:                 -10.680
REMARK INTRA:                  -0.643
REMARK UNBOUND:                -0.643
REMARK SMILES O=c1c(-c2ccc(O)cc2)coc2c([C@@H]3O[C@H](CO)[C@H](O)[C@H](O)[C@@H]3O)c(O)ccc12
REMARK SMILES IDX 3 1 11 2 12 3 13 4 30 5 2 6 1 7 29 8 28 9 26 10 14 11 4 12
REMARK SMILES IDX 5 13 6 14 7 15 10 16 9 17 8 18 15 20 24 21 16 22 22 23 17 24
REMARK SMILES IDX 20 25 25 26 23 28 18 30 19 31 21 33 27 35
REMARK H PARENT 8 19 25 27 23 29 19 32 21 34 27 36
REMARK Flexibility Score: inf
ROOT
ATOM      1  C   UNL     1     169.270 173.765 184.742  1.00  0.00     0.065 A 
ATOM      2  C   UNL     1     170.358 173.632 183.869  1.00  0.00     0.208 A 
ATOM      3  O   UNL     1     171.502 173.098 184.281  1.00  0.00    -0.463 OA
ATOM      4  C   UNL     1     171.696 172.662 185.523  1.00  0.00     0.147 A 
ATOM      5  C   UNL     1     170.654 172.768 186.473  1.00  0.00     0.066 A 
ATOM      6  C   UNL     1     169.430 173.332 186.071  1.00  0.00     0.200 A 
ATOM      7  O   UNL     1     168.487 173.467 186.900  1.00  0.00    -0.288 OA
ATOM      8  C   UNL     1     170.867 172.328 187.788  1.00  0.00     0.020 A 
ATOM      9  C   UNL     1     172.101 171.798 188.159  1.00  0.00     0.047 A 
ATOM     10  C   UNL     1     173.141 171.691 187.229  1.00  0.00     0.125 A 
ATOM     11  C   UNL     1     172.942 172.099 185.888  1.00  0.00     0.069 A 
ENDROOT
BRANCH   1  12
ATOM     12  C   UNL     1     167.999 174.357 184.255  1.00  0.00    -0.011 A 
ATOM     13  C   UNL     1     167.270 175.243 185.069  1.00  0.00     0.013 A 
ATOM     14  C   UNL     1     166.077 175.809 184.610  1.00  0.00     0.047 A 
ATOM     15  C   UNL     1     165.600 175.502 183.329  1.00  0.00     0.115 A 
ATOM     16  C   UNL     1     167.516 174.060 182.967  1.00  0.00     0.013 A 
ATOM     17  C   UNL     1     166.323 174.628 182.510  1.00  0.00     0.047 A 
BRANCH  15  18
ATOM     18  O   UNL     1     164.413 176.059 182.860  1.00  0.00    -0.508 OA
ATOM     19  H   UNL     1     163.990 175.749 181.992  1.00  0.00     0.293 HD
ENDBRANCH  15  18
ENDBRANCH   1  12
BRANCH  11  20
ATOM     20  C   UNL     1     174.064 172.015 184.860  1.00  0.00     0.188 C 
ATOM     21  C   UNL     1     174.894 173.320 184.854  1.00  0.00     0.179 C 
ATOM     22  O   UNL     1     174.887 170.886 185.118  1.00  0.00    -0.362 OA
ATOM     23  C   UNL     1     176.042 173.205 183.827  1.00  0.00     0.177 C 
ATOM     24  C   UNL     1     175.817 170.691 184.064  1.00  0.00     0.176 C 
ATOM     25  C   UNL     1     176.812 171.878 183.982  1.00  0.00     0.177 C 
BRANCH  21  26
ATOM     26  O   UNL     1     175.401 173.580 186.140  1.00  0.00    -0.387 OA
ATOM     27  H   UNL     1     174.744 174.167 186.598  1.00  0.00     0.211 HD
ENDBRANCH  21  26
BRANCH  23  28
ATOM     28  O   UNL     1     176.928 174.287 183.942  1.00  0.00    -0.387 OA
ATOM     29  H   UNL     1     176.674 174.780 184.765  1.00  0.00     0.211 HD
ENDBRANCH  23  28
BRANCH  24  30
ATOM     30  C   UNL     1     176.552 169.362 184.283  1.00  0.00     0.191 C 
BRANCH  30  31
ATOM     31  O   UNL     1     176.802 169.160 185.648  1.00  0.00    -0.394 OA
ATOM     32  H   UNL     1     177.407 169.893 185.937  1.00  0.00     0.210 HD
ENDBRANCH  30  31
ENDBRANCH  24  30
BRANCH  25  33
ATOM     33  O   UNL     1     177.688 171.920 185.086  1.00  0.00    -0.388 OA
ATOM     34  H   UNL     1     178.454 172.506 184.855  1.00  0.00     0.211 HD
ENDBRANCH  25  33
ENDBRANCH  11  20
BRANCH  10  35
ATOM     35  O   UNL     1     174.374 171.184 187.642  1.00  0.00    -0.507 OA
ATOM     36  H   UNL     1     174.699 170.269 187.351  1.00  0.00     0.293 HD
ENDBRANCH  10  35
TORSDOF 9
ENDMDL
MODEL 2
REMARK VINA RESULT:    -7.777      2.023      8.568
REMARK INTER + INTRA:         -11.148
REMARK INTER:                 -10.598
REMARK INTRA:                  -0.550
REMARK UNBOUND:                -0.643
REMARK SMILES O=c1c(-c2ccc(O)cc2)coc2c([C@@H]3O[C@H](CO)[C@H](O)[C@H](O)[C@@H]3O)c(O)ccc12
REMARK SMILES IDX 3 1 11 2 12 3 13 4 30 5 2 6 1 7 29 8 28 9 26 10 14 11 4 12
REMARK SMILES IDX 5 13 6 14 7 15 10 16 9 17 8 18 15 20 24 21 16 22 22 23 17 24
REMARK SMILES IDX 20 25 25 26 23 28 18 30 19 31 21 33 27 35
REMARK H PARENT 8 19 25 27 23 29 19 32 21 34 27 36
REMARK Flexibility Score: inf
ROOT
ATOM      1  C   UNL     1     174.807 170.802 184.974  1.00  0.00     0.065 A 
ATOM      2  C   UNL     1     173.800 171.035 184.026  1.00  0.00     0.208 A 
ATOM      3  O   UNL     1     172.628 171.545 184.386  1.00  0.00    -0.463 OA
ATOM      4  C   UNL     1     172.329 171.865 185.643  1.00  0.00     0.147 A 
ATOM      5  C   UNL     1     173.282 171.652 186.665  1.00  0.00     0.066 A 
ATOM      6  C   UNL     1     174.533 171.110 186.319  1.00  0.00     0.200 A 
ATOM      7  O   UNL     1     175.398 170.882 187.211  1.00  0.00    -0.288 OA
ATOM      8  C   UNL     1     172.957 171.970 187.993  1.00  0.00     0.020 A 
ATOM      9  C   UNL     1     171.699 172.481 188.304  1.00  0.00     0.047 A 
ATOM     10  C   UNL     1     170.746 172.692 187.301  1.00  0.00     0.125 A 
ATOM     11  C   UNL     1     171.060 172.411 185.950  1.00  0.00     0.069 A 
ENDROOT
BRANCH   1  12
ATOM     12  C   UNL     1     176.111 170.239 184.545  1.00  0.00    -0.011 A 
ATOM     13  C   UNL     1     176.793 169.323 185.366  1.00  0.00     0.013 A 
ATOM     14  C   UNL     1     178.018 168.784 184.961  1.00  0.00     0.047 A 
ATOM     15  C   UNL     1     178.573 169.148 183.728  1.00  0.00     0.115 A 
ATOM     16  C   UNL     1     176.673 170.594 183.305  1.00  0.00     0.013 A 
ATOM     17  C   UNL     1     177.898 170.053 182.902  1.00  0.00     0.047 A 
BRANCH  15  18
ATOM     18  O   UNL     1     179.793 168.619 183.313  1.00  0.00    -0.508 OA
ATOM     19  H   UNL     1     180.039 167.653 183.495  1.00  0.00     0.293 HD
ENDBRANCH  15  18
ENDBRANCH   1  12
BRANCH  11  20
ATOM     20  C   UNL     1     170.034 172.610 184.841  1.00  0.00     0.188 C 
ATOM     21  C   UNL     1     169.251 171.300 184.584  1.00  0.00     0.179 C 
ATOM     22  O   UNL     1     169.155 173.677 185.167  1.00  0.00    -0.362 OA
ATOM     23  C   UNL     1     168.197 171.530 183.478  1.00  0.00     0.177 C 
ATOM     24  C   UNL     1     168.318 173.993 184.065  1.00  0.00     0.176 C 
ATOM     25  C   UNL     1     167.374 172.808 183.734  1.00  0.00     0.177 C 
BRANCH  21  26
ATOM     26  O   UNL     1     168.637 170.860 185.771  1.00  0.00    -0.387 OA
ATOM     27  H   UNL     1     169.316 170.335 186.271  1.00  0.00     0.211 HD
ENDBRANCH  21  26
BRANCH  23  28
ATOM     28  O   UNL     1     167.340 170.424 183.365  1.00  0.00    -0.387 OA
ATOM     29  H   UNL     1     166.413 170.771 183.438  1.00  0.00     0.211 HD
ENDBRANCH  23  28
BRANCH  24  30
ATOM     30  C   UNL     1     167.523 175.266 184.387  1.00  0.00     0.191 C 
BRANCH  30  31
ATOM     31  O   UNL     1     167.191 175.303 185.749  1.00  0.00    -0.394 OA
ATOM     32  H   UNL     1     166.266 174.950 185.826  1.00  0.00     0.210 HD
ENDBRANCH  30  31
ENDBRANCH  24  30
BRANCH  25  33
ATOM     33  O   UNL     1     166.403 172.600 184.735  1.00  0.00    -0.388 OA
ATOM     34  H   UNL     1     166.651 171.789 185.248  1.00  0.00     0.211 HD
ENDBRANCH  25  33
ENDBRANCH  11  20
BRANCH  10  35
ATOM     35  O   UNL     1     169.485 173.177 187.652  1.00  0.00    -0.507 OA
ATOM     36  H   UNL     1     169.311 173.608 188.553  1.00  0.00     0.293 HD
ENDBRANCH  10  35
TORSDOF 9
ENDMDL
MODEL 3
REMARK VINA RESULT:    -7.499      2.605      9.115
REMARK INTER + INTRA:         -10.773
REMARK INTER:                  -9.630
REMARK INTRA:                  -1.143
REMARK UNBOUND:                -0.643
REMARK SMILES O=c1c(-c2ccc(O)cc2)coc2c([C@@H]3O[C@H](CO)[C@H](O)[C@H](O)[C@@H]3O)c(O)ccc12
REMARK SMILES IDX 3 1 11 2 12 3 13 4 30 5 2 6 1 7 29 8 28 9 26 10 14 11 4 12
REMARK SMILES IDX 5 13 6 14 7 15 10 16 9 17 8 18 15 20 24 21 16 22 22 23 17 24
REMARK SMILES IDX 20 25 25 26 23 28 18 30 19 31 21 33 27 35
REMARK H PARENT 8 19 25 27 23 29 19 32 21 34 27 36
REMARK Flexibility Score: inf
ROOT
ATOM      1  C   UNL     1     176.463 170.362 184.003  1.00  0.00     0.065 A 
ATOM      2  C   UNL     1     175.187 169.828 183.774  1.00  0.00     0.208 A 
ATOM      3  O   UNL     1     174.108 170.599 183.813  1.00  0.00    -0.463 OA
ATOM      4  C   UNL     1     174.154 171.905 184.068  1.00  0.00     0.147 A 
ATOM      5  C   UNL     1     175.399 172.524 184.322  1.00  0.00     0.066 A 
ATOM      6  C   UNL     1     176.564 171.736 184.291  1.00  0.00     0.200 A 
ATOM      7  O   UNL     1     177.689 172.251 184.540  1.00  0.00    -0.288 OA
ATOM      8  C   UNL     1     175.445 173.897 184.611  1.00  0.00     0.020 A 
ATOM      9  C   UNL     1     174.269 174.643 184.659  1.00  0.00     0.047 A 
ATOM     10  C   UNL     1     173.031 174.040 184.412  1.00  0.00     0.125 A 
ATOM     11  C   UNL     1     172.960 172.664 184.087  1.00  0.00     0.069 A 
ENDROOT
BRANCH   1  12
ATOM     12  C   UNL     1     177.656 169.481 183.946  1.00  0.00    -0.011 A 
ATOM     13  C   UNL     1     178.442 169.425 182.781  1.00  0.00     0.013 A 
ATOM     14  C   UNL     1     179.571 168.602 182.728  1.00  0.00     0.047 A 
ATOM     15  C   UNL     1     179.933 167.831 183.839  1.00  0.00     0.115 A 
ATOM     16  C   UNL     1     178.031 168.708 185.060  1.00  0.00     0.013 A 
ATOM     17  C   UNL     1     179.161 167.887 185.004  1.00  0.00     0.047 A 
BRANCH  15  18
ATOM     18  O   UNL     1     181.056 167.007 183.798  1.00  0.00    -0.508 OA
ATOM     19  H   UNL     1     181.947 167.345 183.455  1.00  0.00     0.293 HD
ENDBRANCH  15  18
ENDBRANCH   1  12
BRANCH  11  20
ATOM     20  C   UNL     1     171.623 171.977 183.837  1.00  0.00     0.188 C 
ATOM     21  C   UNL     1     171.018 171.466 185.166  1.00  0.00     0.179 C 
ATOM     22  O   UNL     1     170.730 172.860 183.173  1.00  0.00    -0.362 OA
ATOM     23  C   UNL     1     169.651 170.799 184.896  1.00  0.00     0.177 C 
ATOM     24  C   UNL     1     169.554 172.176 182.770  1.00  0.00     0.176 C 
ATOM     25  C   UNL     1     168.755 171.681 184.003  1.00  0.00     0.177 C 
BRANCH  21  26
ATOM     26  O   UNL     1     170.881 172.529 186.078  1.00  0.00    -0.387 OA
ATOM     27  H   UNL     1     171.079 172.165 186.980  1.00  0.00     0.211 HD
ENDBRANCH  21  26
BRANCH  23  28
ATOM     28  O   UNL     1     168.989 170.509 186.099  1.00  0.00    -0.387 OA
ATOM     29  H   UNL     1     169.639 170.030 186.675  1.00  0.00     0.211 HD
ENDBRANCH  23  28
BRANCH  24  30
ATOM     30  C   UNL     1     168.706 173.109 181.894  1.00  0.00     0.191 C 
BRANCH  30  31
ATOM     31  O   UNL     1     168.766 174.423 182.380  1.00  0.00    -0.394 OA
ATOM     32  H   UNL     1     168.911 175.011 181.593  1.00  0.00     0.210 HD
ENDBRANCH  30  31
ENDBRANCH  24  30
BRANCH  25  33
ATOM     33  O   UNL     1     168.188 172.743 184.737  1.00  0.00    -0.388 OA
ATOM     34  H   UNL     1     167.708 173.338 184.106  1.00  0.00     0.211 HD
ENDBRANCH  25  33
ENDBRANCH  11  20
BRANCH  10  35
ATOM     35  O   UNL     1     171.870 174.810 184.498  1.00  0.00    -0.507 OA
ATOM     36  H   UNL     1     171.043 174.477 184.981  1.00  0.00     0.293 HD
ENDBRANCH  10  35
TORSDOF 9
ENDMDL
MODEL 4
REMARK VINA RESULT:    -7.361      1.055      1.326
REMARK INTER + INTRA:         -10.587
REMARK INTER:                  -9.505
REMARK INTRA:                  -1.082
REMARK UNBOUND:                -0.643
REMARK SMILES O=c1c(-c2ccc(O)cc2)coc2c([C@@H]3O[C@H](CO)[C@H](O)[C@H](O)[C@@H]3O)c(O)ccc12
REMARK SMILES IDX 3 1 11 2 12 3 13 4 30 5 2 6 1 7 29 8 28 9 26 10 14 11 4 12
REMARK SMILES IDX 5 13 6 14 7 15 10 16 9 17 8 18 15 20 24 21 16 22 22 23 17 24
REMARK SMILES IDX 20 25 25 26 23 28 18 30 19 31 21 33 27 35
REMARK H PARENT 8 19 25 27 23 29 19 32 21 34 27 36
REMARK Flexibility Score: inf
ROOT
ATOM      1  C   UNL     1     169.683 173.011 184.168  1.00  0.00     0.065 A 
ATOM      2  C   UNL     1     170.847 172.720 183.441  1.00  0.00     0.208 A 
ATOM      3  O   UNL     1     171.951 172.314 184.056  1.00  0.00    -0.463 OA
ATOM      4  C   UNL     1     172.035 172.158 185.375  1.00  0.00     0.147 A 
ATOM      5  C   UNL     1     170.911 172.439 186.186  1.00  0.00     0.066 A 
ATOM      6  C   UNL     1     169.725 172.875 185.568  1.00  0.00     0.200 A 
ATOM      7  O   UNL     1     168.711 173.161 186.263  1.00  0.00    -0.288 OA
ATOM      8  C   UNL     1     171.007 172.294 187.579  1.00  0.00     0.020 A 
ATOM      9  C   UNL     1     172.205 171.886 188.160  1.00  0.00     0.047 A 
ATOM     10  C   UNL     1     173.325 171.608 187.368  1.00  0.00     0.125 A 
ATOM     11  C   UNL     1     173.246 171.715 185.959  1.00  0.00     0.069 A 
ENDROOT
BRANCH   1  12
ATOM     12  C   UNL     1     168.459 173.455 183.457  1.00  0.00    -0.011 A 
ATOM     13  C   UNL     1     167.533 172.510 182.978  1.00  0.00     0.013 A 
ATOM     14  C   UNL     1     166.375 172.927 182.315  1.00  0.00     0.047 A 
ATOM     15  C   UNL     1     166.122 174.292 182.129  1.00  0.00     0.115 A 
ATOM     16  C   UNL     1     168.194 174.824 183.271  1.00  0.00     0.013 A 
ATOM     17  C   UNL     1     167.034 175.238 182.609  1.00  0.00     0.047 A 
BRANCH  15  18
ATOM     18  O   UNL     1     164.972 174.719 181.471  1.00  0.00    -0.508 OA
ATOM     19  H   UNL     1     165.016 175.388 180.710  1.00  0.00     0.293 HD
ENDBRANCH  15  18
ENDBRANCH   1  12
BRANCH  11  20
ATOM     20  C   UNL     1     174.456 171.440 185.074  1.00  0.00     0.188 C 
ATOM     21  C   UNL     1     175.251 172.743 184.823  1.00  0.00     0.179 C 
ATOM     22  O   UNL     1     175.279 170.442 185.660  1.00  0.00    -0.362 OA
ATOM     23  C   UNL     1     176.489 172.439 183.950  1.00  0.00     0.177 C 
ATOM     24  C   UNL     1     176.303 170.045 184.762  1.00  0.00     0.176 C 
ATOM     25  C   UNL     1     177.273 171.222 184.479  1.00  0.00     0.177 C 
BRANCH  21  26
ATOM     26  O   UNL     1     175.637 173.321 186.046  1.00  0.00    -0.387 OA
ATOM     27  H   UNL     1     175.121 172.863 186.760  1.00  0.00     0.211 HD
ENDBRANCH  21  26
BRANCH  23  28
ATOM     28  O   UNL     1     177.335 173.557 183.873  1.00  0.00    -0.387 OA
ATOM     29  H   UNL     1     177.900 173.544 184.688  1.00  0.00     0.211 HD
ENDBRANCH  23  28
BRANCH  24  30
ATOM     30  C   UNL     1     177.048 168.839 185.350  1.00  0.00     0.191 C 
BRANCH  30  31
ATOM     31  O   UNL     1     178.293 168.682 184.726  1.00  0.00    -0.394 OA
ATOM     32  H   UNL     1     178.843 168.112 185.326  1.00  0.00     0.210 HD
ENDBRANCH  30  31
ENDBRANCH  24  30
BRANCH  25  33
ATOM     33  O   UNL     1     178.047 171.563 185.607  1.00  0.00    -0.388 OA
ATOM     34  H   UNL     1     177.801 172.481 185.890  1.00  0.00     0.211 HD
ENDBRANCH  25  33
ENDBRANCH  11  20
BRANCH  10  35
ATOM     35  O   UNL     1     174.518 171.230 187.986  1.00  0.00    -0.507 OA
ATOM     36  H   UNL     1     175.362 171.053 187.453  1.00  0.00     0.293 HD
ENDBRANCH  10  35
TORSDOF 9
ENDMDL
MODEL 5
REMARK VINA RESULT:    -7.358      2.158      4.987
REMARK INTER + INTRA:         -10.583
REMARK INTER:                  -9.479
REMARK INTRA:                  -1.103
REMARK UNBOUND:                -0.643
REMARK SMILES O=c1c(-c2ccc(O)cc2)coc2c([C@@H]3O[C@H](CO)[C@H](O)[C@H](O)[C@@H]3O)c(O)ccc12
REMARK SMILES IDX 3 1 11 2 12 3 13 4 30 5 2 6 1 7 29 8 28 9 26 10 14 11 4 12
REMARK SMILES IDX 5 13 6 14 7 15 10 16 9 17 8 18 15 20 24 21 16 22 22 23 17 24
REMARK SMILES IDX 20 25 25 26 23 28 18 30 19 31 21 33 27 35
REMARK H PARENT 8 19 25 27 23 29 19 32 21 34 27 36
REMARK Flexibility Score: inf
ROOT
ATOM      1  C   UNL     1     166.334 175.819 183.632  1.00  0.00     0.065 A 
ATOM      2  C   UNL     1     167.325 175.946 184.615  1.00  0.00     0.208 A 
ATOM      3  O   UNL     1     168.250 175.008 184.777  1.00  0.00    -0.463 OA
ATOM      4  C   UNL     1     168.304 173.903 184.037  1.00  0.00     0.147 A 
ATOM      5  C   UNL     1     167.336 173.688 183.029  1.00  0.00     0.066 A 
ATOM      6  C   UNL     1     166.339 174.661 182.833  1.00  0.00     0.200 A 
ATOM      7  O   UNL     1     165.443 174.488 181.960  1.00  0.00    -0.288 OA
ATOM      8  C   UNL     1     167.381 172.513 182.264  1.00  0.00     0.020 A 
ATOM      9  C   UNL     1     168.366 171.558 182.502  1.00  0.00     0.047 A 
ATOM     10  C   UNL     1     169.328 171.758 183.500  1.00  0.00     0.125 A 
ATOM     11  C   UNL     1     169.324 172.950 184.264  1.00  0.00     0.069 A 
ENDROOT
BRANCH   1  12
ATOM     12  C   UNL     1     165.315 176.886 183.465  1.00  0.00    -0.011 A 
ATOM     13  C   UNL     1     164.137 176.868 184.232  1.00  0.00     0.013 A 
ATOM     14  C   UNL     1     163.179 177.876 184.083  1.00  0.00     0.047 A 
ATOM     15  C   UNL     1     163.391 178.918 183.171  1.00  0.00     0.115 A 
ATOM     16  C   UNL     1     165.523 177.939 182.556  1.00  0.00     0.013 A 
ATOM     17  C   UNL     1     164.564 178.946 182.409  1.00  0.00     0.047 A 
BRANCH  15  18
ATOM     18  O   UNL     1     162.445 179.928 183.012  1.00  0.00    -0.508 OA
ATOM     19  H   UNL     1     162.063 180.424 183.810  1.00  0.00     0.293 HD
ENDBRANCH  15  18
ENDBRANCH   1  12
BRANCH  11  20
ATOM     20  C   UNL     1     170.345 173.183 185.371  1.00  0.00     0.188 C 
ATOM     21  C   UNL     1     169.912 172.462 186.670  1.00  0.00     0.179 C 
ATOM     22  O   UNL     1     171.634 172.756 184.953  1.00  0.00    -0.362 OA
ATOM     23  C   UNL     1     170.973 172.686 187.770  1.00  0.00     0.177 C 
ATOM     24  C   UNL     1     172.621 173.138 185.898  1.00  0.00     0.176 C 
ATOM     25  C   UNL     1     172.398 172.412 187.250  1.00  0.00     0.177 C 
BRANCH  21  26
ATOM     26  O   UNL     1     169.732 171.088 186.426  1.00  0.00    -0.387 OA
ATOM     27  H   UNL     1     169.227 170.720 187.198  1.00  0.00     0.211 HD
ENDBRANCH  21  26
BRANCH  23  28
ATOM     28  O   UNL     1     170.710 171.883 188.891  1.00  0.00    -0.387 OA
ATOM     29  H   UNL     1     171.563 171.435 189.128  1.00  0.00     0.211 HD
ENDBRANCH  23  28
BRANCH  24  30
ATOM     30  C   UNL     1     174.011 172.832 185.324  1.00  0.00     0.191 C 
BRANCH  30  31
ATOM     31  O   UNL     1     174.967 172.802 186.349  1.00  0.00    -0.394 OA
ATOM     32  H   UNL     1     174.477 172.600 187.189  1.00  0.00     0.210 HD
ENDBRANCH  30  31
ENDBRANCH  24  30
BRANCH  25  33
ATOM     33  O   UNL     1     172.655 171.029 187.166  1.00  0.00    -0.388 OA
ATOM     34  H   UNL     1     172.726 170.782 186.208  1.00  0.00     0.211 HD
ENDBRANCH  25  33
ENDBRANCH  11  20
BRANCH  10  35
ATOM     35  O   UNL     1     170.283 170.767 183.732  1.00  0.00    -0.507 OA
ATOM     36  H   UNL     1     171.275 170.945 183.620  1.00  0.00     0.293 HD
ENDBRANCH  10  35
TORSDOF 9
ENDMDL
MODEL 6
REMARK VINA RESULT:    -7.292      1.873      8.382
REMARK INTER + INTRA:         -10.493
REMARK INTER:                  -9.402
REMARK INTRA:                  -1.091
REMARK UNBOUND:                -0.643
REMARK SMILES O=c1c(-c2ccc(O)cc2)coc2c([C@@H]3O[C@H](CO)[C@H](O)[C@H](O)[C@@H]3O)c(O)ccc12
REMARK SMILES IDX 3 1 11 2 12 3 13 4 30 5 2 6 1 7 29 8 28 9 26 10 14 11 4 12
REMARK SMILES IDX 5 13 6 14 7 15 10 16 9 17 8 18 15 20 24 21 16 22 22 23 17 24
REMARK SMILES IDX 20 25 25 26 23 28 18 30 19 31 21 33 27 35
REMARK H PARENT 8 19 25 27 23 29 19 32 21 34 27 36
REMARK Flexibility Score: inf
ROOT
ATOM      1  C   UNL     1     174.554 172.815 183.993  1.00  0.00     0.065 A 
ATOM      2  C   UNL     1     173.385 173.100 183.273  1.00  0.00     0.208 A 
ATOM      3  O   UNL     1     172.208 173.169 183.883  1.00  0.00    -0.463 OA
ATOM      4  C   UNL     1     172.053 172.977 185.190  1.00  0.00     0.147 A 
ATOM      5  C   UNL     1     173.178 172.673 185.991  1.00  0.00     0.066 A 
ATOM      6  C   UNL     1     174.441 172.588 185.377  1.00  0.00     0.200 A 
ATOM      7  O   UNL     1     175.462 172.292 186.057  1.00  0.00    -0.288 OA
ATOM      8  C   UNL     1     173.010 172.449 187.367  1.00  0.00     0.020 A 
ATOM      9  C   UNL     1     171.741 172.515 187.938  1.00  0.00     0.047 A 
ATOM     10  C   UNL     1     170.620 172.812 187.155  1.00  0.00     0.125 A 
ATOM     11  C   UNL     1     170.766 173.073 185.771  1.00  0.00     0.069 A 
ENDROOT
BRANCH   1  12
ATOM     12  C   UNL     1     175.860 172.751 183.290  1.00  0.00    -0.011 A 
ATOM     13  C   UNL     1     176.264 171.566 182.650  1.00  0.00     0.013 A 
ATOM     14  C   UNL     1     177.490 171.505 181.980  1.00  0.00     0.047 A 
ATOM     15  C   UNL     1     178.323 172.630 181.935  1.00  0.00     0.115 A 
ATOM     16  C   UNL     1     176.700 173.878 183.234  1.00  0.00     0.013 A 
ATOM     17  C   UNL     1     177.925 173.815 182.562  1.00  0.00     0.047 A 
BRANCH  15  18
ATOM     18  O   UNL     1     179.547 172.583 181.271  1.00  0.00    -0.508 OA
ATOM     19  H   UNL     1     180.173 173.380 181.259  1.00  0.00     0.293 HD
ENDBRANCH  15  18
ENDBRANCH   1  12
BRANCH  11  20
ATOM     20  C   UNL     1     169.560 173.376 184.890  1.00  0.00     0.188 C 
ATOM     21  C   UNL     1     168.861 172.066 184.458  1.00  0.00     0.179 C 
ATOM     22  O   UNL     1     168.657 174.238 185.569  1.00  0.00    -0.362 OA
ATOM     23  C   UNL     1     167.625 172.394 183.591  1.00  0.00     0.177 C 
ATOM     24  C   UNL     1     167.629 174.676 184.695  1.00  0.00     0.176 C 
ATOM     25  C   UNL     1     166.748 173.482 184.241  1.00  0.00     0.177 C 
BRANCH  21  26
ATOM     26  O   UNL     1     168.489 171.316 185.589  1.00  0.00    -0.387 OA
ATOM     27  H   UNL     1     168.898 171.759 186.378  1.00  0.00     0.211 HD
ENDBRANCH  21  26
BRANCH  23  28
ATOM     28  O   UNL     1     166.859 171.242 183.353  1.00  0.00    -0.387 OA
ATOM     29  H   UNL     1     165.907 171.521 183.378  1.00  0.00     0.211 HD
ENDBRANCH  23  28
BRANCH  24  30
ATOM     30  C   UNL     1     166.790 175.748 185.404  1.00  0.00     0.191 C 
BRANCH  30  31
ATOM     31  O   UNL     1     165.443 175.639 185.034  1.00  0.00    -0.394 OA
ATOM     32  H   UNL     1     164.907 175.885 185.832  1.00  0.00     0.210 HD
ENDBRANCH  30  31
ENDBRANCH  24  30
BRANCH  25  33
ATOM     33  O   UNL     1     165.975 172.954 185.295  1.00  0.00    -0.388 OA
ATOM     34  H   UNL     1     165.804 171.996 185.109  1.00  0.00     0.211 HD
ENDBRANCH  25  33
ENDBRANCH  11  20
BRANCH  10  35
ATOM     35  O   UNL     1     169.360 172.840 187.754  1.00  0.00    -0.507 OA
ATOM     36  H   UNL     1     168.769 173.663 187.715  1.00  0.00     0.293 HD
ENDBRANCH  10  35
TORSDOF 9
ENDMDL
MODEL 7
REMARK VINA RESULT:    -7.212      3.454      6.519
REMARK INTER + INTRA:         -10.385
REMARK INTER:                  -9.375
REMARK INTRA:                  -1.010
REMARK UNBOUND:                -0.643
REMARK SMILES O=c1c(-c2ccc(O)cc2)coc2c([C@@H]3O[C@H](CO)[C@H](O)[C@H](O)[C@@H]3O)c(O)ccc12
REMARK SMILES IDX 3 1 11 2 12 3 13 4 30 5 2 6 1 7 29 8 28 9 26 10 14 11 4 12
REMARK SMILES IDX 5 13 6 14 7 15 10 16 9 17 8 18 15 20 24 21 16 22 22 23 17 24
REMARK SMILES IDX 20 25 25 26 23 28 18 30 19 31 21 33 27 35
REMARK H PARENT 8 19 25 27 23 29 19 32 21 34 27 36
REMARK Flexibility Score: inf
ROOT
ATOM      1  C   UNL     1     174.179 171.602 185.693  1.00  0.00     0.065 A 
ATOM      2  C   UNL     1     174.623 170.282 185.532  1.00  0.00     0.208 A 
ATOM      3  O   UNL     1     175.653 170.001 184.742  1.00  0.00    -0.463 OA
ATOM      4  C   UNL     1     176.323 170.927 184.061  1.00  0.00     0.147 A 
ATOM      5  C   UNL     1     175.935 172.283 184.156  1.00  0.00     0.066 A 
ATOM      6  C   UNL     1     174.846 172.617 184.982  1.00  0.00     0.200 A 
ATOM      7  O   UNL     1     174.456 173.815 185.069  1.00  0.00    -0.288 OA
ATOM      8  C   UNL     1     176.629 173.256 183.420  1.00  0.00     0.020 A 
ATOM      9  C   UNL     1     177.687 172.887 182.592  1.00  0.00     0.047 A 
ATOM     10  C   UNL     1     178.077 171.547 182.487  1.00  0.00     0.125 A 
ATOM     11  C   UNL     1     177.415 170.550 183.243  1.00  0.00     0.069 A 
ENDROOT
BRANCH   1  12
ATOM     12  C   UNL     1     173.031 171.893 186.588  1.00  0.00    -0.011 A 
ATOM     13  C   UNL     1     173.222 171.998 187.977  1.00  0.00     0.013 A 
ATOM     14  C   UNL     1     172.144 172.280 188.821  1.00  0.00     0.047 A 
ATOM     15  C   UNL     1     170.863 172.469 188.287  1.00  0.00     0.115 A 
ATOM     16  C   UNL     1     171.743 172.090 186.059  1.00  0.00     0.013 A 
ATOM     17  C   UNL     1     170.666 172.374 186.905  1.00  0.00     0.047 A 
BRANCH  15  18
ATOM     18  O   UNL     1     169.781 172.750 189.117  1.00  0.00    -0.508 OA
ATOM     19  H   UNL     1     169.804 173.524 189.772  1.00  0.00     0.293 HD
ENDBRANCH  15  18
ENDBRANCH   1  12
BRANCH  11  20
ATOM     20  C   UNL     1     177.805 169.081 183.131  1.00  0.00     0.188 C 
ATOM     21  C   UNL     1     177.193 168.454 181.856  1.00  0.00     0.179 C 
ATOM     22  O   UNL     1     179.218 168.943 183.142  1.00  0.00    -0.362 OA
ATOM     23  C   UNL     1     177.623 166.974 181.744  1.00  0.00     0.177 C 
ATOM     24  C   UNL     1     179.588 167.576 183.227  1.00  0.00     0.176 C 
ATOM     25  C   UNL     1     179.140 166.805 181.958  1.00  0.00     0.177 C 
BRANCH  21  26
ATOM     26  O   UNL     1     177.596 169.175 180.717  1.00  0.00    -0.387 OA
ATOM     27  H   UNL     1     178.568 169.353 180.815  1.00  0.00     0.211 HD
ENDBRANCH  21  26
BRANCH  23  28
ATOM     28  O   UNL     1     177.253 166.437 180.501  1.00  0.00    -0.387 OA
ATOM     29  H   UNL     1     176.977 167.200 179.930  1.00  0.00     0.211 HD
ENDBRANCH  23  28
BRANCH  24  30
ATOM     30  C   UNL     1     181.106 167.479 183.431  1.00  0.00     0.191 C 
BRANCH  30  31
ATOM     31  O   UNL     1     181.569 166.210 183.055  1.00  0.00    -0.394 OA
ATOM     32  H   UNL     1     180.857 165.563 183.301  1.00  0.00     0.210 HD
ENDBRANCH  30  31
ENDBRANCH  24  30
BRANCH  25  33
ATOM     33  O   UNL     1     179.865 167.191 180.812  1.00  0.00    -0.388 OA
ATOM     34  H   UNL     1     179.837 168.179 180.742  1.00  0.00     0.211 HD
ENDBRANCH  25  33
ENDBRANCH  11  20
BRANCH  10  35
ATOM     35  O   UNL     1     179.121 171.208 181.625  1.00  0.00    -0.507 OA
ATOM     36  H   UNL     1     178.951 170.764 180.730  1.00  0.00     0.293 HD
ENDBRANCH  10  35
TORSDOF 9
ENDMDL
MODEL 8
REMARK VINA RESULT:    -7.192      2.054      8.974
REMARK INTER + INTRA:         -10.358
REMARK INTER:                  -9.487
REMARK INTRA:                  -0.871
REMARK UNBOUND:                -0.643
REMARK SMILES O=c1c(-c2ccc(O)cc2)coc2c([C@@H]3O[C@H](CO)[C@H](O)[C@H](O)[C@@H]3O)c(O)ccc12
REMARK SMILES IDX 3 1 11 2 12 3 13 4 30 5 2 6 1 7 29 8 28 9 26 10 14 11 4 12
REMARK SMILES IDX 5 13 6 14 7 15 10 16 9 17 8 18 15 20 24 21 16 22 22 23 17 24
REMARK SMILES IDX 20 25 25 26 23 28 18 30 19 31 21 33 27 35
REMARK H PARENT 8 19 25 27 23 29 19 32 21 34 27 36
REMARK Flexibility Score: inf
ROOT
ATOM      1  C   UNL     1     170.984 172.799 184.906  1.00  0.00     0.065 A 
ATOM      2  C   UNL     1     170.783 173.493 183.705  1.00  0.00     0.208 A 
ATOM      3  O   UNL     1     169.639 174.123 183.464  1.00  0.00    -0.463 OA
ATOM      4  C   UNL     1     168.623 174.141 184.323  1.00  0.00     0.147 A 
ATOM      5  C   UNL     1     168.735 173.458 185.555  1.00  0.00     0.066 A 
ATOM      6  C   UNL     1     169.933 172.777 185.842  1.00  0.00     0.200 A 
ATOM      7  O   UNL     1     170.057 172.133 186.921  1.00  0.00    -0.288 OA
ATOM      8  C   UNL     1     167.655 173.460 186.451  1.00  0.00     0.020 A 
ATOM      9  C   UNL     1     166.475 174.123 186.124  1.00  0.00     0.047 A 
ATOM     10  C   UNL     1     166.350 174.800 184.905  1.00  0.00     0.125 A 
ATOM     11  C   UNL     1     167.436 174.840 183.998  1.00  0.00     0.069 A 
ENDROOT
BRANCH   1  12
ATOM     12  C   UNL     1     172.274 172.110 185.156  1.00  0.00    -0.011 A 
ATOM     13  C   UNL     1     173.295 172.753 185.878  1.00  0.00     0.013 A 
ATOM     14  C   UNL     1     174.508 172.103 186.122  1.00  0.00     0.047 A 
ATOM     15  C   UNL     1     174.714 170.798 185.654  1.00  0.00     0.115 A 
ATOM     16  C   UNL     1     172.486 170.797 184.696  1.00  0.00     0.013 A 
ATOM     17  C   UNL     1     173.700 170.149 184.942  1.00  0.00     0.047 A 
BRANCH  15  18
ATOM     18  O   UNL     1     175.918 170.140 185.890  1.00  0.00    -0.508 OA
ATOM     19  H   UNL     1     176.319 170.088 186.820  1.00  0.00     0.293 HD
ENDBRANCH  15  18
ENDBRANCH   1  12
BRANCH  11  20
ATOM     20  C   UNL     1     167.320 175.551 182.655  1.00  0.00     0.188 C 
ATOM     21  C   UNL     1     166.879 174.559 181.552  1.00  0.00     0.179 C 
ATOM     22  O   UNL     1     166.418 176.644 182.751  1.00  0.00    -0.362 OA
ATOM     23  C   UNL     1     166.739 175.303 180.206  1.00  0.00     0.177 C 
ATOM     24  C   UNL     1     166.445 177.422 181.565  1.00  0.00     0.176 C 
ATOM     25  C   UNL     1     165.922 176.602 180.356  1.00  0.00     0.177 C 
BRANCH  21  26
ATOM     26  O   UNL     1     165.665 173.944 181.908  1.00  0.00    -0.387 OA
ATOM     27  H   UNL     1     165.803 173.521 182.796  1.00  0.00     0.211 HD
ENDBRANCH  21  26
BRANCH  23  28
ATOM     28  O   UNL     1     166.149 174.477 179.236  1.00  0.00    -0.387 OA
ATOM     29  H   UNL     1     165.181 174.430 179.450  1.00  0.00     0.211 HD
ENDBRANCH  23  28
BRANCH  24  30
ATOM     30  C   UNL     1     165.609 178.692 181.778  1.00  0.00     0.191 C 
BRANCH  30  31
ATOM     31  O   UNL     1     165.773 179.170 183.086  1.00  0.00    -0.394 OA
ATOM     32  H   UNL     1     164.931 178.967 183.571  1.00  0.00     0.210 HD
ENDBRANCH  30  31
ENDBRANCH  24  30
BRANCH  25  33
ATOM     33  O   UNL     1     164.542 176.331 180.448  1.00  0.00    -0.388 OA
ATOM     34  H   UNL     1     164.146 176.945 181.118  1.00  0.00     0.211 HD
ENDBRANCH  25  33
ENDBRANCH  11  20
BRANCH  10  35
ATOM     35  O   UNL     1     165.142 175.428 184.596  1.00  0.00    -0.507 OA
ATOM     36  H   UNL     1     164.257 175.087 184.953  1.00  0.00     0.293 HD
ENDBRANCH  10  35
TORSDOF 9
ENDMDL
MODEL 9
REMARK VINA RESULT:    -7.177      2.681      4.229
REMARK INTER + INTRA:         -10.338
REMARK INTER:                  -9.396
REMARK INTRA:                  -0.942
REMARK UNBOUND:                -0.643
REMARK SMILES O=c1c(-c2ccc(O)cc2)coc2c([C@@H]3O[C@H](CO)[C@H](O)[C@H](O)[C@@H]3O)c(O)ccc12
REMARK SMILES IDX 3 1 11 2 12 3 13 4 30 5 2 6 1 7 29 8 28 9 26 10 14 11 4 12
REMARK SMILES IDX 5 13 6 14 7 15 10 16 9 17 8 18 15 20 24 21 16 22 22 23 17 24
REMARK SMILES IDX 20 25 25 26 23 28 18 30 19 31 21 33 27 35
REMARK H PARENT 8 19 25 27 23 29 19 32 21 34 27 36
REMARK Flexibility Score: inf
ROOT
ATOM      1  C   UNL     1     166.370 175.961 182.983  1.00  0.00     0.065 A 
ATOM      2  C   UNL     1     167.493 175.601 182.225  1.00  0.00     0.208 A 
ATOM      3  O   UNL     1     168.400 174.760 182.707  1.00  0.00    -0.463 OA
ATOM      4  C   UNL     1     168.315 174.212 183.917  1.00  0.00     0.147 A 
ATOM      5  C   UNL     1     167.220 174.529 184.753  1.00  0.00     0.066 A 
ATOM      6  C   UNL     1     166.241 175.419 184.275  1.00  0.00     0.200 A 
ATOM      7  O   UNL     1     165.265 175.746 185.006  1.00  0.00    -0.288 OA
ATOM      8  C   UNL     1     167.142 173.967 186.037  1.00  0.00     0.020 A 
ATOM      9  C   UNL     1     168.143 173.110 186.489  1.00  0.00     0.047 A 
ATOM     10  C   UNL     1     169.233 172.791 185.670  1.00  0.00     0.125 A 
ATOM     11  C   UNL     1     169.319 173.319 184.360  1.00  0.00     0.069 A 
ENDROOT
BRANCH   1  12
ATOM     12  C   UNL     1     165.365 176.896 182.418  1.00  0.00    -0.011 A 
ATOM     13  C   UNL     1     164.255 176.403 181.710  1.00  0.00     0.013 A 
ATOM     14  C   UNL     1     163.302 177.281 181.185  1.00  0.00     0.047 A 
ATOM     15  C   UNL     1     163.443 178.663 181.367  1.00  0.00     0.115 A 
ATOM     16  C   UNL     1     165.495 178.285 182.602  1.00  0.00     0.013 A 
ATOM     17  C   UNL     1     164.540 179.161 182.077  1.00  0.00     0.047 A 
BRANCH  15  18
ATOM     18  O   UNL     1     162.501 179.548 180.848  1.00  0.00    -0.508 OA
ATOM     19  H   UNL     1     161.580 179.643 181.262  1.00  0.00     0.293 HD
ENDBRANCH  15  18
ENDBRANCH   1  12
BRANCH  11  20
ATOM     20  C   UNL     1     170.506 173.007 183.457  1.00  0.00     0.188 C 
ATOM     21  C   UNL     1     171.623 174.061 183.644  1.00  0.00     0.179 C 
ATOM     22  O   UNL     1     170.991 171.696 183.713  1.00  0.00    -0.362 OA
ATOM     23  C   UNL     1     172.828 173.712 182.743  1.00  0.00     0.177 C 
ATOM     24  C   UNL     1     171.970 171.326 182.755  1.00  0.00     0.176 C 
ATOM     25  C   UNL     1     173.226 172.228 182.876  1.00  0.00     0.177 C 
BRANCH  21  26
ATOM     26  O   UNL     1     172.014 174.121 184.994  1.00  0.00    -0.387 OA
ATOM     27  H   UNL     1     171.557 173.374 185.462  1.00  0.00     0.211 HD
ENDBRANCH  21  26
BRANCH  23  28
ATOM     28  O   UNL     1     173.929 174.530 183.038  1.00  0.00    -0.387 OA
ATOM     29  H   UNL     1     174.726 173.939 183.067  1.00  0.00     0.211 HD
ENDBRANCH  23  28
BRANCH  24  30
ATOM     30  C   UNL     1     172.326 169.846 182.947  1.00  0.00     0.191 C 
BRANCH  30  31
ATOM     31  O   UNL     1     171.413 169.232 183.816  1.00  0.00    -0.394 OA
ATOM     32  H   UNL     1     171.199 168.345 183.424  1.00  0.00     0.210 HD
ENDBRANCH  30  31
ENDBRANCH  24  30
BRANCH  25  33
ATOM     33  O   UNL     1     173.941 171.995 184.068  1.00  0.00    -0.388 OA
ATOM     34  H   UNL     1     173.571 171.184 184.502  1.00  0.00     0.211 HD
ENDBRANCH  25  33
ENDBRANCH  11  20
BRANCH  10  35
ATOM     35  O   UNL     1     170.233 171.952 186.166  1.00  0.00    -0.507 OA
ATOM     36  H   UNL     1     170.821 172.226 186.945  1.00  0.00     0.293 HD
ENDBRANCH  10  35
TORSDOF 9
ENDMDL
