MODEL 1
REMARK VINA RESULT:    -3.517      0.000      0.000
REMARK INTER + INTRA:          -2.869
REMARK INTER:                  -4.339
REMARK INTRA:                   1.470
REMARK UNBOUND:                 1.470
REMARK SMILES C=C1CC[C@@H]2[C@H]([C@@H]3[C@@H](C)CC[C@@H]13)C2(C)C
REMARK SMILES IDX 3 1 2 2 1 3 12 4 9 5 8 6 10 7 7 8 11 9 4 11 5 12 6 13 13 14
REMARK SMILES IDX 14 16 15 17
REMARK H PARENT
REMARK Flexibility Score: 80.00
ROOT
ATOM      1  C   UNL     1      29.775   8.788  29.484  1.00  0.00     0.031 C 
ENDROOT
BRANCH   1   2
ATOM      2  C   UNL     1      30.305   8.046  28.267  1.00  0.00    -0.074 C 
ATOM      3  C   UNL     1      31.222   7.077  28.469  1.00  0.00     0.008 C 
BRANCH   2   4
ATOM      4  C   UNL     1      29.634   8.260  26.901  1.00  0.00     0.018 C 
ATOM      5  C   UNL     1      30.446  10.657  24.190  1.00  0.00     0.008 C 
ATOM      6  C   UNL     1      29.509   9.672  24.899  1.00  0.00    -0.010 C 
ATOM      7  C   UNL     1      29.778   8.220  24.481  1.00  0.00     0.004 C 
ATOM      8  C   UNL     1      29.674   9.723  26.436  1.00  0.00     0.003 CG0
ATOM      9  C   UNL     1      30.261   7.503  25.729  1.00  0.00     0.008 C 
ATOM     10  G   UNL     1      28.532  10.549  27.076  1.00  0.00     0.000 G0
ENDBRANCH   2   4
ENDBRANCH   1   2
BRANCH   1  11
ATOM     11  C   UNL     1      29.868  10.313  29.344  1.00  0.00     0.009 C 
BRANCH  11  12
ATOM     12  C   UNL     1      28.637  10.867  28.604  1.00  0.00    -0.001 C 
ATOM     13  C   UNL     1      28.534  10.570  27.099  1.00  0.00     0.002 CG0
ATOM     14  C   UNL     1      28.767  12.014  27.586  1.00  0.00    -0.029 C 
ATOM     15  G   UNL     1      29.673   9.745  26.452  1.00  0.00     0.000 G0
ATOM     16  C   UNL     1      30.122  12.735  27.437  1.00  0.00     0.011 C 
ATOM     17  C   UNL     1      27.534  12.924  27.511  1.00  0.00     0.011 C 
ENDBRANCH  11  12
ENDBRANCH   1  11
TORSDOF 0
ENDMDL
MODEL 2
REMARK VINA RESULT:    -3.508      1.290      3.298
REMARK INTER + INTRA:          -2.858
REMARK INTER:                  -4.433
REMARK INTRA:                   1.575
REMARK UNBOUND:                 1.470
REMARK SMILES C=C1CC[C@@H]2[C@H]([C@@H]3[C@@H](C)CC[C@@H]13)C2(C)C
REMARK SMILES IDX 3 1 2 2 1 3 12 4 9 5 8 6 10 7 7 8 11 9 4 11 5 12 6 13 13 14
REMARK SMILES IDX 14 16 15 17
REMARK H PARENT
REMARK Flexibility Score: 80.00
ROOT
ATOM      1  C   UNL     1      29.530  12.257  29.089  1.00  0.00     0.031 C 
ENDROOT
BRANCH   1   2
ATOM      2  C   UNL     1      30.135  11.080  29.838  1.00  0.00    -0.074 C 
ATOM      3  C   UNL     1      30.835  11.340  30.962  1.00  0.00     0.008 C 
BRANCH   2   4
ATOM      4  C   UNL     1      29.751   9.649  29.431  1.00  0.00     0.018 C 
ATOM      5  C   UNL     1      31.356   7.343  27.009  1.00  0.00     0.008 C 
ATOM      6  C   UNL     1      30.180   7.794  27.884  1.00  0.00    -0.010 C 
ATOM      7  C   UNL     1      30.312   7.292  29.328  1.00  0.00     0.004 C 
ATOM      8  C   UNL     1      30.077   9.335  27.964  1.00  0.00     0.003 CG0
ATOM      9  C   UNL     1      30.462   8.530  30.195  1.00  0.00     0.008 C 
ATOM     10  G   UNL     1      28.968   9.853  27.016  1.00  0.00     0.000 G0
ENDBRANCH   2   4
ENDBRANCH   1   2
BRANCH   1  11
ATOM     11  C   UNL     1      29.862  12.248  27.591  1.00  0.00     0.009 C 
BRANCH  11  12
ATOM     12  C   UNL     1      28.857  11.376  26.817  1.00  0.00    -0.001 C 
ATOM     13  C   UNL     1      28.961   9.853  27.006  1.00  0.00     0.002 CG0
ATOM     14  C   UNL     1      29.309  10.487  25.644  1.00  0.00    -0.029 C 
ATOM     15  G   UNL     1      30.065   9.324  27.954  1.00  0.00     0.000 G0
ATOM     16  C   UNL     1      30.756  10.605  25.127  1.00  0.00     0.011 C 
ATOM     17  C   UNL     1      28.243  10.298  24.558  1.00  0.00     0.011 C 
ENDBRANCH  11  12
ENDBRANCH   1  11
TORSDOF 0
ENDMDL
MODEL 3
REMARK VINA RESULT:    -3.455      1.428      4.049
REMARK INTER + INTRA:          -2.793
REMARK INTER:                  -4.244
REMARK INTRA:                   1.451
REMARK UNBOUND:                 1.470
REMARK SMILES C=C1CC[C@@H]2[C@H]([C@@H]3[C@@H](C)CC[C@@H]13)C2(C)C
REMARK SMILES IDX 3 1 2 2 1 3 12 4 9 5 8 6 10 7 7 8 11 9 4 11 5 12 6 13 13 14
REMARK SMILES IDX 14 16 15 17
REMARK H PARENT
REMARK Flexibility Score: 80.00
ROOT
ATOM      1  C   UNL     1      30.083   6.338  25.298  1.00  0.00     0.031 C 
ENDROOT
BRANCH   1   2
ATOM      2  C   UNL     1      29.520   6.971  26.562  1.00  0.00    -0.074 C 
ATOM      3  C   UNL     1      28.802   6.187  27.393  1.00  0.00     0.008 C 
BRANCH   2   4
ATOM      4  C   UNL     1      29.963   8.387  26.958  1.00  0.00     0.018 C 
ATOM      5  C   UNL     1      28.412  11.673  26.209  1.00  0.00     0.008 C 
ATOM      6  C   UNL     1      29.587  10.792  26.654  1.00  0.00    -0.010 C 
ATOM      7  C   UNL     1      29.517  10.452  28.149  1.00  0.00     0.004 C 
ATOM      8  C   UNL     1      29.615   9.443  25.899  1.00  0.00     0.003 CG0
ATOM      9  C   UNL     1      29.328   8.948  28.232  1.00  0.00     0.008 C 
ATOM     10  G   UNL     1      30.673   9.478  24.769  1.00  0.00     0.000 G0
ENDBRANCH   2   4
ENDBRANCH   1   2
BRANCH   1  11
ATOM     11  C   UNL     1      29.746   7.133  24.030  1.00  0.00     0.009 C 
BRANCH  11  12
ATOM     12  C   UNL     1      30.766   8.264  23.810  1.00  0.00    -0.001 C 
ATOM     13  C   UNL     1      30.694   9.466  24.767  1.00  0.00     0.002 CG0
ATOM     14  C   UNL     1      30.328   9.641  23.280  1.00  0.00    -0.029 C 
ATOM     15  G   UNL     1      29.605   9.441  25.867  1.00  0.00     0.000 G0
ATOM     16  C   UNL     1      28.877   9.833  22.797  1.00  0.00     0.011 C 
ATOM     17  C   UNL     1      31.394  10.352  22.436  1.00  0.00     0.011 C 
ENDBRANCH  11  12
ENDBRANCH   1  11
TORSDOF 0
ENDMDL
MODEL 4
REMARK VINA RESULT:    -3.328      1.546      2.642
REMARK INTER + INTRA:          -2.635
REMARK INTER:                  -4.182
REMARK INTRA:                   1.547
REMARK UNBOUND:                 1.470
REMARK SMILES C=C1CC[C@@H]2[C@H]([C@@H]3[C@@H](C)CC[C@@H]13)C2(C)C
REMARK SMILES IDX 3 1 2 2 1 3 12 4 9 5 8 6 10 7 7 8 11 9 4 11 5 12 6 13 13 14
REMARK SMILES IDX 14 16 15 17
REMARK H PARENT
REMARK Flexibility Score: 80.00
ROOT
ATOM      1  C   UNL     1      30.077  11.034  31.300  1.00  0.00     0.031 C 
ENDROOT
BRANCH   1   2
ATOM      2  C   UNL     1      30.667   9.653  31.054  1.00  0.00    -0.074 C 
ATOM      3  C   UNL     1      31.584   9.194  31.930  1.00  0.00     0.008 C 
BRANCH   2   4
ATOM      4  C   UNL     1      30.052   8.752  29.972  1.00  0.00     0.018 C 
ATOM      5  C   UNL     1      30.948   8.363  26.394  1.00  0.00     0.008 C 
ATOM      6  C   UNL     1      29.994   8.197  27.584  1.00  0.00    -0.010 C 
ATOM      7  C   UNL     1      30.299   6.930  28.392  1.00  0.00     0.004 C 
ATOM      8  C   UNL     1      30.093   9.382  28.572  1.00  0.00     0.003 CG0
ATOM      9  C   UNL     1      30.738   7.400  29.767  1.00  0.00     0.008 C 
ATOM     10  G   UNL     1      28.914  10.363  28.361  1.00  0.00     0.000 G0
ENDBRANCH   2   4
ENDBRANCH   1   2
BRANCH   1  11
ATOM     11  C   UNL     1      30.143  11.942  30.065  1.00  0.00     0.009 C 
BRANCH  11  12
ATOM     12  C   UNL     1      28.936  11.693  29.142  1.00  0.00    -0.001 C 
ATOM     13  C   UNL     1      28.910  10.366  28.368  1.00  0.00     0.002 CG0
ATOM     14  C   UNL     1      29.089  11.697  27.611  1.00  0.00    -0.029 C 
ATOM     15  G   UNL     1      30.095   9.392  28.575  1.00  0.00     0.000 G0
ATOM     16  C   UNL     1      30.432  12.128  26.991  1.00  0.00     0.011 C 
ATOM     17  C   UNL     1      27.841  12.182  26.861  1.00  0.00     0.011 C 
ENDBRANCH  11  12
ENDBRANCH   1  11
TORSDOF 0
ENDMDL
MODEL 5
REMARK VINA RESULT:    -3.311      1.404      3.594
REMARK INTER + INTRA:          -2.615
REMARK INTER:                  -4.156
REMARK INTRA:                   1.542
REMARK UNBOUND:                 1.470
REMARK SMILES C=C1CC[C@@H]2[C@H]([C@@H]3[C@@H](C)CC[C@@H]13)C2(C)C
REMARK SMILES IDX 3 1 2 2 1 3 12 4 9 5 8 6 10 7 7 8 11 9 4 11 5 12 6 13 13 14
REMARK SMILES IDX 14 16 15 17
REMARK H PARENT
REMARK Flexibility Score: 80.00
ROOT
ATOM      1  C   UNL     1      29.569   7.803  26.575  1.00  0.00     0.031 C 
ENDROOT
BRANCH   1   2
ATOM      2  C   UNL     1      29.733   7.498  28.056  1.00  0.00    -0.074 C 
ATOM      3  C   UNL     1      29.507   6.233  28.468  1.00  0.00     0.008 C 
BRANCH   2   4
ATOM      4  C   UNL     1      30.354   8.557  28.980  1.00  0.00     0.018 C 
ATOM      5  C   UNL     1      28.732  11.199  31.016  1.00  0.00     0.008 C 
ATOM      6  C   UNL     1      29.948  10.565  30.329  1.00  0.00    -0.010 C 
ATOM      7  C   UNL     1      30.607   9.491  31.203  1.00  0.00     0.004 C 
ATOM      8  C   UNL     1      29.564   9.874  29.000  1.00  0.00     0.003 CG0
ATOM      9  C   UNL     1      30.440   8.178  30.459  1.00  0.00     0.008 C 
ATOM     10  G   UNL     1      29.936  10.773  27.795  1.00  0.00     0.000 G0
ENDBRANCH   2   4
ENDBRANCH   1   2
BRANCH   1  11
ATOM     11  C   UNL     1      28.665   9.014  26.309  1.00  0.00     0.009 C 
BRANCH  11  12
ATOM     12  C   UNL     1      29.473  10.322  26.385  1.00  0.00    -0.001 C 
ATOM     13  C   UNL     1      29.948  10.770  27.777  1.00  0.00     0.002 CG0
ATOM     14  C   UNL     1      28.879  11.589  27.026  1.00  0.00    -0.029 C 
ATOM     15  G   UNL     1      29.576   9.874  28.984  1.00  0.00     0.000 G0
ATOM     16  C   UNL     1      27.394  11.597  27.440  1.00  0.00     0.011 C 
ATOM     17  C   UNL     1      29.390  12.898  26.410  1.00  0.00     0.011 C 
ENDBRANCH  11  12
ENDBRANCH   1  11
TORSDOF 0
ENDMDL
MODEL 6
REMARK VINA RESULT:    -3.311      5.517      8.017
REMARK INTER + INTRA:          -2.615
REMARK INTER:                  -4.150
REMARK INTRA:                   1.536
REMARK UNBOUND:                 1.470
REMARK SMILES C=C1CC[C@@H]2[C@H]([C@@H]3[C@@H](C)CC[C@@H]13)C2(C)C
REMARK SMILES IDX 3 1 2 2 1 3 12 4 9 5 8 6 10 7 7 8 11 9 4 11 5 12 6 13 13 14
REMARK SMILES IDX 14 16 15 17
REMARK H PARENT
REMARK Flexibility Score: 80.00
ROOT
ATOM      1  C   UNL     1      32.254  10.406  34.801  1.00  0.00     0.031 C 
ENDROOT
BRANCH   1   2
ATOM      2  C   UNL     1      31.395   9.688  35.832  1.00  0.00    -0.074 C 
ATOM      3  C   UNL     1      31.854   9.625  37.100  1.00  0.00     0.008 C 
BRANCH   2   4
ATOM      4  C   UNL     1      29.966   9.266  35.461  1.00  0.00     0.018 C 
ATOM      5  C   UNL     1      28.701   6.058  34.093  1.00  0.00     0.008 C 
ATOM      6  C   UNL     1      28.565   7.556  34.399  1.00  0.00    -0.010 C 
ATOM      7  C   UNL     1      28.064   7.808  35.827  1.00  0.00     0.004 C 
ATOM      8  C   UNL     1      29.916   8.296  34.271  1.00  0.00     0.003 CG0
ATOM      9  C   UNL     1      29.190   8.524  36.550  1.00  0.00     0.008 C 
ATOM     10  G   UNL     1      29.994   9.052  32.923  1.00  0.00     0.000 G0
ENDBRANCH   2   4
ENDBRANCH   1   2
BRANCH   1  11
ATOM     11  C   UNL     1      32.500   9.568  33.540  1.00  0.00     0.009 C 
BRANCH  11  12
ATOM     12  C   UNL     1      31.336   9.728  32.545  1.00  0.00    -0.001 C 
ATOM     13  C   UNL     1      29.997   9.075  32.924  1.00  0.00     0.002 CG0
ATOM     14  C   UNL     1      30.811   8.531  31.733  1.00  0.00    -0.029 C 
ATOM     15  G   UNL     1      29.929   8.309  34.269  1.00  0.00     0.000 G0
ATOM     16  C   UNL     1      31.575   7.193  31.787  1.00  0.00     0.011 C 
ATOM     17  C   UNL     1      30.257   8.908  30.353  1.00  0.00     0.011 C 
ENDBRANCH  11  12
ENDBRANCH   1  11
TORSDOF 0
ENDMDL
MODEL 7
REMARK VINA RESULT:    -3.248      7.630     10.025
REMARK INTER + INTRA:          -2.537
REMARK INTER:                  -4.082
REMARK INTRA:                   1.545
REMARK UNBOUND:                 1.470
REMARK SMILES C=C1CC[C@@H]2[C@H]([C@@H]3[C@@H](C)CC[C@@H]13)C2(C)C
REMARK SMILES IDX 3 1 2 2 1 3 12 4 9 5 8 6 10 7 7 8 11 9 4 11 5 12 6 13 13 14
REMARK SMILES IDX 14 16 15 17
REMARK H PARENT
REMARK Flexibility Score: 80.00
ROOT
ATOM      1  C   UNL     1      31.378   6.497  36.017  1.00  0.00     0.031 C 
ENDROOT
BRANCH   1   2
ATOM      2  C   UNL     1      30.824   6.978  37.350  1.00  0.00    -0.074 C 
ATOM      3  C   UNL     1      30.330   6.053  38.198  1.00  0.00     0.008 C 
BRANCH   2   4
ATOM      4  C   UNL     1      31.044   8.438  37.775  1.00  0.00     0.018 C 
ATOM      5  C   UNL     1      28.917  11.429  37.238  1.00  0.00     0.008 C 
ATOM      6  C   UNL     1      30.249  10.751  37.583  1.00  0.00    -0.010 C 
ATOM      7  C   UNL     1      30.328  10.362  39.065  1.00  0.00     0.004 C 
ATOM      8  C   UNL     1      30.459   9.448  36.777  1.00  0.00     0.003 CG0
ATOM      9  C   UNL     1      30.402   8.846  39.102  1.00  0.00     0.008 C 
ATOM     10  G   UNL     1      31.425   9.695  35.592  1.00  0.00     0.000 G0
ENDBRANCH   2   4
ENDBRANCH   1   2
BRANCH   1  11
ATOM     11  C   UNL     1      30.793   7.253  34.817  1.00  0.00     0.009 C 
BRANCH  11  12
ATOM     12  C   UNL     1      31.582   8.547  34.553  1.00  0.00    -0.001 C 
ATOM     13  C   UNL     1      31.415   9.689  35.569  1.00  0.00     0.002 CG0
ATOM     14  C   UNL     1      30.869   9.846  34.135  1.00  0.00    -0.029 C 
ATOM     15  G   UNL     1      30.467   9.446  36.769  1.00  0.00     0.000 G0
ATOM     16  C   UNL     1      29.364   9.804  33.808  1.00  0.00     0.011 C 
ATOM     17  C   UNL     1      31.708  10.753  33.225  1.00  0.00     0.011 C 
ENDBRANCH  11  12
ENDBRANCH   1  11
TORSDOF 0
ENDMDL
MODEL 8
REMARK VINA RESULT:    -3.155      1.837      4.413
REMARK INTER + INTRA:          -2.422
REMARK INTER:                  -3.924
REMARK INTRA:                   1.502
REMARK UNBOUND:                 1.470
REMARK SMILES C=C1CC[C@@H]2[C@H]([C@@H]3[C@@H](C)CC[C@@H]13)C2(C)C
REMARK SMILES IDX 3 1 2 2 1 3 12 4 9 5 8 6 10 7 7 8 11 9 4 11 5 12 6 13 13 14
REMARK SMILES IDX 14 16 15 17
REMARK H PARENT
REMARK Flexibility Score: 80.00
ROOT
ATOM      1  C   UNL     1      29.897   9.396  26.808  1.00  0.00     0.031 C 
ENDROOT
BRANCH   1   2
ATOM      2  C   UNL     1      29.466  10.664  27.531  1.00  0.00    -0.074 C 
ATOM      3  C   UNL     1      28.947  10.538  28.769  1.00  0.00     0.008 C 
BRANCH   2   4
ATOM      4  C   UNL     1      29.835  12.033  26.938  1.00  0.00     0.018 C 
ATOM      5  C   UNL     1      27.925  14.233  24.641  1.00  0.00     0.008 C 
ATOM      6  C   UNL     1      29.219  13.782  25.332  1.00  0.00    -0.010 C 
ATOM      7  C   UNL     1      29.372  14.403  26.727  1.00  0.00     0.004 C 
ATOM      8  C   UNL     1      29.264  12.249  25.528  1.00  0.00     0.003 CG0
ATOM      9  C   UNL     1      29.325  13.249  27.712  1.00  0.00     0.008 C 
ATOM     10  G   UNL     1      30.160  11.592  24.450  1.00  0.00     0.000 G0
ENDBRANCH   2   4
ENDBRANCH   1   2
BRANCH   1  11
ATOM     11  C   UNL     1      29.310   9.284  25.395  1.00  0.00     0.009 C 
BRANCH  11  12
ATOM     12  C   UNL     1      30.188  10.037  24.380  1.00  0.00    -0.001 C 
ATOM     13  C   UNL     1      30.172  11.573  24.445  1.00  0.00     0.002 CG0
ATOM     14  C   UNL     1      29.562  10.845  23.229  1.00  0.00    -0.029 C 
ATOM     15  G   UNL     1      29.275  12.235  25.519  1.00  0.00     0.000 G0
ATOM     16  C   UNL     1      28.042  10.756  22.988  1.00  0.00     0.011 C 
ATOM     17  C   UNL     1      30.421  10.889  21.959  1.00  0.00     0.011 C 
ENDBRANCH  11  12
ENDBRANCH   1  11
TORSDOF 0
ENDMDL
MODEL 9
REMARK VINA RESULT:    -2.959      2.108      3.637
REMARK INTER + INTRA:          -2.181
REMARK INTER:                  -3.732
REMARK INTRA:                   1.551
REMARK UNBOUND:                 1.470
REMARK SMILES C=C1CC[C@@H]2[C@H]([C@@H]3[C@@H](C)CC[C@@H]13)C2(C)C
REMARK SMILES IDX 3 1 2 2 1 3 12 4 9 5 8 6 10 7 7 8 11 9 4 11 5 12 6 13 13 14
REMARK SMILES IDX 14 16 15 17
REMARK H PARENT
REMARK Flexibility Score: 80.00
ROOT
ATOM      1  C   UNL     1      28.742  11.615  26.466  1.00  0.00     0.031 C 
ENDROOT
BRANCH   1   2
ATOM      2  C   UNL     1      29.236  10.176  26.447  1.00  0.00    -0.074 C 
ATOM      3  C   UNL     1      29.618   9.626  27.619  1.00  0.00     0.008 C 
BRANCH   2   4
ATOM      4  C   UNL     1      29.076   9.339  25.169  1.00  0.00     0.018 C 
ATOM      5  C   UNL     1      31.418   8.831  22.338  1.00  0.00     0.008 C 
ATOM      6  C   UNL     1      30.025   8.777  22.978  1.00  0.00    -0.010 C 
ATOM      7  C   UNL     1      29.811   7.490  23.784  1.00  0.00     0.004 C 
ATOM      8  C   UNL     1      29.795   9.951  23.958  1.00  0.00     0.003 CG0
ATOM      9  C   UNL     1      29.641   7.919  25.230  1.00  0.00     0.008 C 
ATOM     10  G   UNL     1      28.937  11.054  23.290  1.00  0.00     0.000 G0
ENDBRANCH   2   4
ENDBRANCH   1   2
BRANCH   1  11
ATOM     11  C   UNL     1      29.442  12.501  25.428  1.00  0.00     0.009 C 
BRANCH  11  12
ATOM     12  C   UNL     1      28.753  12.380  24.056  1.00  0.00    -0.001 C 
ATOM     13  C   UNL     1      28.938  11.058  23.295  1.00  0.00     0.002 CG0
ATOM     14  C   UNL     1      29.570  12.356  22.752  1.00  0.00    -0.029 C 
ATOM     15  G   UNL     1      29.802   9.961  23.964  1.00  0.00     0.000 G0
ATOM     16  C   UNL     1      31.085  12.632  22.810  1.00  0.00     0.011 C 
ATOM     17  C   UNL     1      28.843  12.969  21.549  1.00  0.00     0.011 C 
ENDBRANCH  11  12
ENDBRANCH   1  11
TORSDOF 0
ENDMDL
