MODEL 1
REMARK VINA RESULT:    -7.525      0.000      0.000
REMARK INTER + INTRA:          -9.276
REMARK INTER:                  -9.065
REMARK INTRA:                  -0.210
REMARK UNBOUND:                -0.210
REMARK SMILES O=c1c(O)c(-c2ccc(O)c(O)c2)oc2cc(O)cc(O)c12
REMARK SMILES IDX 5 1 3 2 2 3 1 4 22 5 20 6 19 7 17 8 16 9 15 10 14 11 6 12
REMARK SMILES IDX 7 13 8 14 9 15 13 16 11 17 10 18 12 20 4 22 21 24 18 26
REMARK H PARENT 10 19 12 21 4 23 21 25 18 27
REMARK Flexibility Score: inf
ROOT
ATOM      1  C   UNL     1      -8.796  -6.674  -4.608  1.00  0.00     0.180 A 
ATOM      2  C   UNL     1      -9.799  -6.144  -5.438  1.00  0.00     0.208 A 
ATOM      3  C   UNL     1      -9.525  -5.954  -6.802  1.00  0.00     0.238 A 
ATOM      4  O   UNL     1     -10.409  -5.429  -7.528  1.00  0.00    -0.285 OA
ATOM      5  C   UNL     1      -8.257  -6.309  -7.322  1.00  0.00     0.111 A 
ATOM      6  C   UNL     1      -7.884  -6.197  -8.694  1.00  0.00     0.134 A 
ATOM      7  C   UNL     1      -6.562  -6.455  -9.074  1.00  0.00     0.093 A 
ATOM      8  C   UNL     1      -5.614  -6.885  -8.141  1.00  0.00     0.123 A 
ATOM      9  C   UNL     1      -5.985  -7.055  -6.809  1.00  0.00     0.094 A 
ATOM     10  C   UNL     1      -7.288  -6.771  -6.394  1.00  0.00     0.146 A 
ATOM     11  O   UNL     1      -7.595  -6.936  -5.113  1.00  0.00    -0.452 OA
ENDROOT
BRANCH   1  12
ATOM     12  C   UNL     1      -9.018  -6.927  -3.166  1.00  0.00     0.025 A 
ATOM     13  C   UNL     1      -8.271  -6.212  -2.216  1.00  0.00     0.016 A 
ATOM     14  C   UNL     1      -8.449  -6.450  -0.851  1.00  0.00     0.051 A 
ATOM     15  C   UNL     1      -9.362  -7.414  -0.415  1.00  0.00     0.157 A 
ATOM     16  C   UNL     1      -9.921  -7.911  -2.725  1.00  0.00     0.062 A 
ATOM     17  C   UNL     1     -10.100  -8.151  -1.355  1.00  0.00     0.158 A 
BRANCH  15  18
ATOM     18  O   UNL     1      -9.521  -7.627   0.955  1.00  0.00    -0.504 OA
ATOM     19  H   UNL     1      -9.025  -8.361   1.446  1.00  0.00     0.293 HD
ENDBRANCH  15  18
BRANCH  17  20
ATOM     20  O   UNL     1     -11.003  -9.124  -0.928  1.00  0.00    -0.504 OA
ATOM     21  H   UNL     1     -10.698  -9.943  -0.414  1.00  0.00     0.293 HD
ENDBRANCH  17  20
ENDBRANCH   1  12
BRANCH   2  22
ATOM     22  O   UNL     1     -11.036  -5.779  -4.899  1.00  0.00    -0.502 OA
ATOM     23  H   UNL     1     -11.293  -5.983  -3.940  1.00  0.00     0.293 HD
ENDBRANCH   2  22
BRANCH   6  24
ATOM     24  O   UNL     1      -8.774  -5.864  -9.721  1.00  0.00    -0.507 OA
ATOM     25  H   UNL     1      -8.787  -4.979 -10.205  1.00  0.00     0.293 HD
ENDBRANCH   6  24
BRANCH   8  26
ATOM     26  O   UNL     1      -4.305  -7.154  -8.530  1.00  0.00    -0.508 OA
ATOM     27  H   UNL     1      -3.655  -7.626  -7.911  1.00  0.00     0.293 HD
ENDBRANCH   8  26
TORSDOF 6
ENDMDL
MODEL 2
REMARK VINA RESULT:    -7.262      3.148      5.613
REMARK INTER + INTRA:          -8.958
REMARK INTER:                  -8.639
REMARK INTRA:                  -0.319
REMARK UNBOUND:                -0.210
REMARK SMILES O=c1c(O)c(-c2ccc(O)c(O)c2)oc2cc(O)cc(O)c12
REMARK SMILES IDX 5 1 3 2 2 3 1 4 22 5 20 6 19 7 17 8 16 9 15 10 14 11 6 12
REMARK SMILES IDX 7 13 8 14 9 15 13 16 11 17 10 18 12 20 4 22 21 24 18 26
REMARK H PARENT 10 19 12 21 4 23 21 25 18 27
REMARK Flexibility Score: inf
ROOT
ATOM      1  C   UNL     1      -9.756  -6.503  -4.122  1.00  0.00     0.180 A 
ATOM      2  C   UNL     1     -10.323  -7.782  -3.993  1.00  0.00     0.208 A 
ATOM      3  C   UNL     1     -11.645  -7.989  -4.419  1.00  0.00     0.238 A 
ATOM      4  O   UNL     1     -12.165  -9.123  -4.250  1.00  0.00    -0.285 OA
ATOM      5  C   UNL     1     -12.378  -6.918  -4.985  1.00  0.00     0.111 A 
ATOM      6  C   UNL     1     -13.709  -7.023  -5.488  1.00  0.00     0.134 A 
ATOM      7  C   UNL     1     -14.383  -5.869  -5.905  1.00  0.00     0.093 A 
ATOM      8  C   UNL     1     -13.750  -4.623  -5.900  1.00  0.00     0.123 A 
ATOM      9  C   UNL     1     -12.430  -4.521  -5.467  1.00  0.00     0.094 A 
ATOM     10  C   UNL     1     -11.744  -5.648  -5.010  1.00  0.00     0.146 A 
ATOM     11  O   UNL     1     -10.491  -5.503  -4.596  1.00  0.00    -0.452 OA
ENDROOT
BRANCH   1  12
ATOM     12  C   UNL     1      -8.361  -6.214  -3.719  1.00  0.00     0.025 A 
ATOM     13  C   UNL     1      -7.314  -6.472  -4.618  1.00  0.00     0.016 A 
ATOM     14  C   UNL     1      -5.989  -6.227  -4.250  1.00  0.00     0.051 A 
ATOM     15  C   UNL     1      -5.688  -5.737  -2.977  1.00  0.00     0.157 A 
ATOM     16  C   UNL     1      -8.054  -5.741  -2.430  1.00  0.00     0.062 A 
ATOM     17  C   UNL     1      -6.724  -5.496  -2.059  1.00  0.00     0.158 A 
BRANCH  15  18
ATOM     18  O   UNL     1      -4.356  -5.499  -2.639  1.00  0.00    -0.504 OA
ATOM     19  H   UNL     1      -3.921  -4.593  -2.767  1.00  0.00     0.293 HD
ENDBRANCH  15  18
BRANCH  17  20
ATOM     20  O   UNL     1      -6.430  -5.020  -0.782  1.00  0.00    -0.504 OA
ATOM     21  H   UNL     1      -6.091  -5.635  -0.051  1.00  0.00     0.293 HD
ENDBRANCH  17  20
ENDBRANCH   1  12
BRANCH   2  22
ATOM     22  O   UNL     1      -9.589  -8.820  -3.411  1.00  0.00    -0.502 OA
ATOM     23  H   UNL     1      -8.773  -8.652  -2.834  1.00  0.00     0.293 HD
ENDBRANCH   2  22
BRANCH   6  24
ATOM     24  O   UNL     1     -14.399  -8.232  -5.622  1.00  0.00    -0.507 OA
ATOM     25  H   UNL     1     -14.930  -8.675  -4.887  1.00  0.00     0.293 HD
ENDBRANCH   6  24
BRANCH   8  26
ATOM     26  O   UNL     1     -14.423  -3.483  -6.331  1.00  0.00    -0.508 OA
ATOM     27  H   UNL     1     -13.971  -2.793  -6.920  1.00  0.00     0.293 HD
ENDBRANCH   8  26
TORSDOF 6
ENDMDL
MODEL 3
REMARK VINA RESULT:    -7.165      1.446      7.111
REMARK INTER + INTRA:          -8.841
REMARK INTER:                  -8.733
REMARK INTRA:                  -0.108
REMARK UNBOUND:                -0.210
REMARK SMILES O=c1c(O)c(-c2ccc(O)c(O)c2)oc2cc(O)cc(O)c12
REMARK SMILES IDX 5 1 3 2 2 3 1 4 22 5 20 6 19 7 17 8 16 9 15 10 14 11 6 12
REMARK SMILES IDX 7 13 8 14 9 15 13 16 11 17 10 18 12 20 4 22 21 24 18 26
REMARK H PARENT 10 19 12 21 4 23 21 25 18 27
REMARK Flexibility Score: inf
ROOT
ATOM      1  C   UNL     1      -7.603  -6.492  -5.161  1.00  0.00     0.180 A 
ATOM      2  C   UNL     1      -6.883  -5.676  -4.271  1.00  0.00     0.208 A 
ATOM      3  C   UNL     1      -7.176  -5.739  -2.899  1.00  0.00     0.238 A 
ATOM      4  O   UNL     1      -6.566  -4.967  -2.114  1.00  0.00    -0.285 OA
ATOM      5  C   UNL     1      -8.175  -6.629  -2.433  1.00  0.00     0.111 A 
ATOM      6  C   UNL     1      -8.525  -6.805  -1.061  1.00  0.00     0.134 A 
ATOM      7  C   UNL     1      -9.616  -7.615  -0.726  1.00  0.00     0.093 A 
ATOM      8  C   UNL     1     -10.328  -8.308  -1.709  1.00  0.00     0.123 A 
ATOM      9  C   UNL     1      -9.955  -8.189  -3.045  1.00  0.00     0.094 A 
ATOM     10  C   UNL     1      -8.893  -7.360  -3.413  1.00  0.00     0.146 A 
ATOM     11  O   UNL     1      -8.578  -7.267  -4.700  1.00  0.00    -0.452 OA
ENDROOT
BRANCH   1  12
ATOM     12  C   UNL     1      -7.334  -6.499  -6.617  1.00  0.00     0.025 A 
ATOM     13  C   UNL     1      -6.053  -6.841  -7.081  1.00  0.00     0.016 A 
ATOM     14  C   UNL     1      -5.772  -6.833  -8.450  1.00  0.00     0.051 A 
ATOM     15  C   UNL     1      -6.756  -6.471  -9.372  1.00  0.00     0.157 A 
ATOM     16  C   UNL     1      -8.318  -6.115  -7.546  1.00  0.00     0.062 A 
ATOM     17  C   UNL     1      -8.035  -6.106  -8.920  1.00  0.00     0.158 A 
BRANCH  15  18
ATOM     18  O   UNL     1      -6.446  -6.476 -10.732  1.00  0.00    -0.504 OA
ATOM     19  H   UNL     1      -7.143  -6.292 -11.444  1.00  0.00     0.293 HD
ENDBRANCH  15  18
BRANCH  17  20
ATOM     20  O   UNL     1      -9.019  -5.730  -9.834  1.00  0.00    -0.504 OA
ATOM     21  H   UNL     1      -9.035  -4.805 -10.248  1.00  0.00     0.293 HD
ENDBRANCH  17  20
ENDBRANCH   1  12
BRANCH   2  22
ATOM     22  O   UNL     1      -5.918  -4.789  -4.756  1.00  0.00    -0.502 OA
ATOM     23  H   UNL     1      -5.948  -4.414  -5.697  1.00  0.00     0.293 HD
ENDBRANCH   2  22
BRANCH   6  24
ATOM     24  O   UNL     1      -7.824  -6.232   0.004  1.00  0.00    -0.507 OA
ATOM     25  H   UNL     1      -8.023  -6.399   0.980  1.00  0.00     0.293 HD
ENDBRANCH   6  24
BRANCH   8  26
ATOM     26  O   UNL     1     -11.403  -9.125  -1.365  1.00  0.00    -0.508 OA
ATOM     27  H   UNL     1     -11.410 -10.113  -1.589  1.00  0.00     0.293 HD
ENDBRANCH   8  26
TORSDOF 6
ENDMDL
MODEL 4
REMARK VINA RESULT:    -7.005      2.776      4.900
REMARK INTER + INTRA:          -8.649
REMARK INTER:                  -8.337
REMARK INTRA:                  -0.312
REMARK UNBOUND:                -0.210
REMARK SMILES O=c1c(O)c(-c2ccc(O)c(O)c2)oc2cc(O)cc(O)c12
REMARK SMILES IDX 5 1 3 2 2 3 1 4 22 5 20 6 19 7 17 8 16 9 15 10 14 11 6 12
REMARK SMILES IDX 7 13 8 14 9 15 13 16 11 17 10 18 12 20 4 22 21 24 18 26
REMARK H PARENT 10 19 12 21 4 23 21 25 18 27
REMARK Flexibility Score: inf
ROOT
ATOM      1  C   UNL     1     -10.779  -6.123  -5.999  1.00  0.00     0.180 A 
ATOM      2  C   UNL     1      -9.940  -6.396  -4.905  1.00  0.00     0.208 A 
ATOM      3  C   UNL     1      -8.565  -6.579  -5.129  1.00  0.00     0.238 A 
ATOM      4  O   UNL     1      -7.828  -6.876  -4.153  1.00  0.00    -0.285 OA
ATOM      5  C   UNL     1      -8.046  -6.471  -6.442  1.00  0.00     0.111 A 
ATOM      6  C   UNL     1      -6.665  -6.597  -6.779  1.00  0.00     0.134 A 
ATOM      7  C   UNL     1      -6.281  -6.602  -8.125  1.00  0.00     0.093 A 
ATOM      8  C   UNL     1      -7.220  -6.419  -9.144  1.00  0.00     0.123 A 
ATOM      9  C   UNL     1      -8.562  -6.236  -8.821  1.00  0.00     0.094 A 
ATOM     10  C   UNL     1      -8.981  -6.262  -7.489  1.00  0.00     0.146 A 
ATOM     11  O   UNL     1     -10.271  -6.093  -7.226  1.00  0.00    -0.452 OA
ENDROOT
BRANCH   1  12
ATOM     12  C   UNL     1     -12.233  -5.894  -5.838  1.00  0.00     0.025 A 
ATOM     13  C   UNL     1     -13.107  -6.993  -5.815  1.00  0.00     0.016 A 
ATOM     14  C   UNL     1     -14.485  -6.797  -5.686  1.00  0.00     0.051 A 
ATOM     15  C   UNL     1     -15.011  -5.507  -5.594  1.00  0.00     0.157 A 
ATOM     16  C   UNL     1     -12.766  -4.594  -5.766  1.00  0.00     0.062 A 
ATOM     17  C   UNL     1     -14.149  -4.398  -5.638  1.00  0.00     0.158 A 
BRANCH  15  18
ATOM     18  O   UNL     1     -16.390  -5.344  -5.462  1.00  0.00    -0.504 OA
ATOM     19  H   UNL     1     -16.843  -4.451  -5.618  1.00  0.00     0.293 HD
ENDBRANCH  15  18
BRANCH  17  20
ATOM     20  O   UNL     1     -14.668  -3.106  -5.560  1.00  0.00    -0.504 OA
ATOM     21  H   UNL     1     -14.086  -2.313  -5.314  1.00  0.00     0.293 HD
ENDBRANCH  17  20
ENDBRANCH   1  12
BRANCH   2  22
ATOM     22  O   UNL     1     -10.477  -6.521  -3.621  1.00  0.00    -0.502 OA
ATOM     23  H   UNL     1      -9.932  -6.850  -2.833  1.00  0.00     0.293 HD
ENDBRANCH   2  22
BRANCH   6  24
ATOM     24  O   UNL     1      -5.636  -6.692  -5.837  1.00  0.00    -0.507 OA
ATOM     25  H   UNL     1      -4.808  -7.258  -5.946  1.00  0.00     0.293 HD
ENDBRANCH   6  24
BRANCH   8  26
ATOM     26  O   UNL     1      -6.827  -6.410 -10.480  1.00  0.00    -0.508 OA
ATOM     27  H   UNL     1      -7.409  -6.812 -11.206  1.00  0.00     0.293 HD
ENDBRANCH   8  26
TORSDOF 6
ENDMDL
MODEL 5
REMARK VINA RESULT:    -6.972      1.171      2.851
REMARK INTER + INTRA:          -8.609
REMARK INTER:                  -8.380
REMARK INTRA:                  -0.229
REMARK UNBOUND:                -0.210
REMARK SMILES O=c1c(O)c(-c2ccc(O)c(O)c2)oc2cc(O)cc(O)c12
REMARK SMILES IDX 5 1 3 2 2 3 1 4 22 5 20 6 19 7 17 8 16 9 15 10 14 11 6 12
REMARK SMILES IDX 7 13 8 14 9 15 13 16 11 17 10 18 12 20 4 22 21 24 18 26
REMARK H PARENT 10 19 12 21 4 23 21 25 18 27
REMARK Flexibility Score: inf
ROOT
ATOM      1  C   UNL     1      -8.082  -6.935  -4.296  1.00  0.00     0.180 A 
ATOM      2  C   UNL     1      -6.814  -7.389  -4.697  1.00  0.00     0.208 A 
ATOM      3  C   UNL     1      -6.405  -7.184  -6.025  1.00  0.00     0.238 A 
ATOM      4  O   UNL     1      -5.291  -7.641  -6.392  1.00  0.00    -0.285 OA
ATOM      5  C   UNL     1      -7.264  -6.515  -6.931  1.00  0.00     0.111 A 
ATOM      6  C   UNL     1      -6.936  -6.218  -8.287  1.00  0.00     0.134 A 
ATOM      7  C   UNL     1      -7.911  -5.668  -9.128  1.00  0.00     0.093 A 
ATOM      8  C   UNL     1      -9.181  -5.344  -8.644  1.00  0.00     0.123 A 
ATOM      9  C   UNL     1      -9.490  -5.576  -7.305  1.00  0.00     0.094 A 
ATOM     10  C   UNL     1      -8.550  -6.156  -6.451  1.00  0.00     0.146 A 
ATOM     11  O   UNL     1      -8.890  -6.369  -5.186  1.00  0.00    -0.452 OA
ENDROOT
BRANCH   1  12
ATOM     12  C   UNL     1      -8.572  -7.092  -2.907  1.00  0.00     0.025 A 
ATOM     13  C   UNL     1      -7.994  -6.328  -1.881  1.00  0.00     0.016 A 
ATOM     14  C   UNL     1      -8.427  -6.476  -0.560  1.00  0.00     0.051 A 
ATOM     15  C   UNL     1      -9.429  -7.396  -0.243  1.00  0.00     0.157 A 
ATOM     16  C   UNL     1      -9.567  -8.032  -2.583  1.00  0.00     0.062 A 
ATOM     17  C   UNL     1     -10.000  -8.182  -1.258  1.00  0.00     0.158 A 
BRANCH  15  18
ATOM     18  O   UNL     1      -9.843  -7.518   1.083  1.00  0.00    -0.504 OA
ATOM     19  H   UNL     1     -10.696  -7.090   1.423  1.00  0.00     0.293 HD
ENDBRANCH  15  18
BRANCH  17  20
ATOM     20  O   UNL     1     -10.992  -9.112  -0.947  1.00  0.00    -0.504 OA
ATOM     21  H   UNL     1     -10.865 -10.102  -1.120  1.00  0.00     0.293 HD
ENDBRANCH  17  20
ENDBRANCH   1  12
BRANCH   2  22
ATOM     22  O   UNL     1      -5.992  -8.068  -3.792  1.00  0.00    -0.502 OA
ATOM     23  H   UNL     1      -5.516  -7.597  -3.031  1.00  0.00     0.293 HD
ENDBRANCH   2  22
BRANCH   6  24
ATOM     24  O   UNL     1      -5.670  -6.416  -8.847  1.00  0.00    -0.507 OA
ATOM     25  H   UNL     1      -5.033  -5.677  -9.103  1.00  0.00     0.293 HD
ENDBRANCH   6  24
BRANCH   8  26
ATOM     26  O   UNL     1     -10.141  -4.783  -9.483  1.00  0.00    -0.508 OA
ATOM     27  H   UNL     1      -9.891  -4.385 -10.381  1.00  0.00     0.293 HD
ENDBRANCH   8  26
TORSDOF 6
ENDMDL
MODEL 6
REMARK VINA RESULT:    -6.870      3.031      5.557
REMARK INTER + INTRA:          -8.486
REMARK INTER:                  -8.183
REMARK INTRA:                  -0.304
REMARK UNBOUND:                -0.210
REMARK SMILES O=c1c(O)c(-c2ccc(O)c(O)c2)oc2cc(O)cc(O)c12
REMARK SMILES IDX 5 1 3 2 2 3 1 4 22 5 20 6 19 7 17 8 16 9 15 10 14 11 6 12
REMARK SMILES IDX 7 13 8 14 9 15 13 16 11 17 10 18 12 20 4 22 21 24 18 26
REMARK H PARENT 10 19 12 21 4 23 21 25 18 27
REMARK Flexibility Score: inf
ROOT
ATOM      1  C   UNL     1     -10.892  -5.963  -5.297  1.00  0.00     0.180 A 
ATOM      2  C   UNL     1     -10.076  -6.164  -6.423  1.00  0.00     0.208 A 
ATOM      3  C   UNL     1      -8.688  -6.284  -6.248  1.00  0.00     0.238 A 
ATOM      4  O   UNL     1      -7.958  -6.409  -7.266  1.00  0.00    -0.285 OA
ATOM      5  C   UNL     1      -8.135  -6.217  -4.946  1.00  0.00     0.111 A 
ATOM      6  C   UNL     1      -6.748  -6.366  -4.647  1.00  0.00     0.134 A 
ATOM      7  C   UNL     1      -6.297  -6.151  -3.339  1.00  0.00     0.093 A 
ATOM      8  C   UNL     1      -7.192  -5.858  -2.306  1.00  0.00     0.123 A 
ATOM      9  C   UNL     1      -8.555  -5.770  -2.578  1.00  0.00     0.094 A 
ATOM     10  C   UNL     1      -9.031  -5.943  -3.880  1.00  0.00     0.146 A 
ATOM     11  O   UNL     1     -10.337  -5.840  -4.096  1.00  0.00    -0.452 OA
ENDROOT
BRANCH   1  12
ATOM     12  C   UNL     1     -12.365  -5.854  -5.400  1.00  0.00     0.025 A 
ATOM     13  C   UNL     1     -13.139  -7.020  -5.505  1.00  0.00     0.016 A 
ATOM     14  C   UNL     1     -14.529  -6.938  -5.625  1.00  0.00     0.051 A 
ATOM     15  C   UNL     1     -15.164  -5.695  -5.656  1.00  0.00     0.157 A 
ATOM     16  C   UNL     1     -13.005  -4.602  -5.452  1.00  0.00     0.062 A 
ATOM     17  C   UNL     1     -14.399  -4.519  -5.574  1.00  0.00     0.158 A 
BRANCH  15  18
ATOM     18  O   UNL     1     -16.553  -5.645  -5.773  1.00  0.00    -0.504 OA
ATOM     19  H   UNL     1     -17.103  -6.463  -6.010  1.00  0.00     0.293 HD
ENDBRANCH  15  18
BRANCH  17  20
ATOM     20  O   UNL     1     -15.025  -3.274  -5.618  1.00  0.00    -0.504 OA
ATOM     21  H   UNL     1     -16.026  -3.186  -5.753  1.00  0.00     0.293 HD
ENDBRANCH  17  20
ENDBRANCH   1  12
BRANCH   2  22
ATOM     22  O   UNL     1     -10.641  -6.204  -7.702  1.00  0.00    -0.502 OA
ATOM     23  H   UNL     1     -10.692  -5.388  -8.299  1.00  0.00     0.293 HD
ENDBRANCH   2  22
BRANCH   6  24
ATOM     24  O   UNL     1      -5.783  -6.746  -5.585  1.00  0.00    -0.507 OA
ATOM     25  H   UNL     1      -5.804  -6.500  -6.563  1.00  0.00     0.293 HD
ENDBRANCH   6  24
BRANCH   8  26
ATOM     26  O   UNL     1      -6.736  -5.662  -1.005  1.00  0.00    -0.508 OA
ATOM     27  H   UNL     1      -7.350  -5.773  -0.207  1.00  0.00     0.293 HD
ENDBRANCH   8  26
TORSDOF 6
ENDMDL
MODEL 7
REMARK VINA RESULT:    -6.609      3.318      5.378
REMARK INTER + INTRA:          -8.171
REMARK INTER:                  -8.064
REMARK INTRA:                  -0.108
REMARK UNBOUND:                -0.210
REMARK SMILES O=c1c(O)c(-c2ccc(O)c(O)c2)oc2cc(O)cc(O)c12
REMARK SMILES IDX 5 1 3 2 2 3 1 4 22 5 20 6 19 7 17 8 16 9 15 10 14 11 6 12
REMARK SMILES IDX 7 13 8 14 9 15 13 16 11 17 10 18 12 20 4 22 21 24 18 26
REMARK H PARENT 10 19 12 21 4 23 21 25 18 27
REMARK Flexibility Score: inf
ROOT
ATOM      1  C   UNL     1     -11.261  -6.786  -5.182  1.00  0.00     0.180 A 
ATOM      2  C   UNL     1     -10.639  -7.649  -4.264  1.00  0.00     0.208 A 
ATOM      3  C   UNL     1      -9.255  -7.538  -4.053  1.00  0.00     0.238 A 
ATOM      4  O   UNL     1      -8.696  -8.350  -3.270  1.00  0.00    -0.285 OA
ATOM      5  C   UNL     1      -8.513  -6.556  -4.753  1.00  0.00     0.111 A 
ATOM      6  C   UNL     1      -7.114  -6.328  -4.588  1.00  0.00     0.134 A 
ATOM      7  C   UNL     1      -6.459  -5.418  -5.426  1.00  0.00     0.093 A 
ATOM      8  C   UNL     1      -7.165  -4.679  -6.380  1.00  0.00     0.123 A 
ATOM      9  C   UNL     1      -8.541  -4.852  -6.507  1.00  0.00     0.094 A 
ATOM     10  C   UNL     1      -9.216  -5.779  -5.709  1.00  0.00     0.146 A 
ATOM     11  O   UNL     1     -10.527  -5.919  -5.871  1.00  0.00    -0.452 OA
ENDROOT
BRANCH   1  12
ATOM     12  C   UNL     1     -12.719  -6.825  -5.438  1.00  0.00     0.025 A 
ATOM     13  C   UNL     1     -13.295  -7.988  -5.974  1.00  0.00     0.016 A 
ATOM     14  C   UNL     1     -14.665  -8.039  -6.244  1.00  0.00     0.051 A 
ATOM     15  C   UNL     1     -15.476  -6.928  -5.996  1.00  0.00     0.157 A 
ATOM     16  C   UNL     1     -13.533  -5.701  -5.209  1.00  0.00     0.062 A 
ATOM     17  C   UNL     1     -14.908  -5.751  -5.481  1.00  0.00     0.158 A 
BRANCH  15  18
ATOM     18  O   UNL     1     -16.841  -7.011  -6.272  1.00  0.00    -0.504 OA
ATOM     19  H   UNL     1     -17.506  -6.344  -5.899  1.00  0.00     0.293 HD
ENDBRANCH  15  18
BRANCH  17  20
ATOM     20  O   UNL     1     -15.709  -4.634  -5.245  1.00  0.00    -0.504 OA
ATOM     21  H   UNL     1     -16.415  -4.336  -5.909  1.00  0.00     0.293 HD
ENDBRANCH  17  20
ENDBRANCH   1  12
BRANCH   2  22
ATOM     22  O   UNL     1     -11.387  -8.626  -3.601  1.00  0.00    -0.502 OA
ATOM     23  H   UNL     1     -11.265  -9.617  -3.777  1.00  0.00     0.293 HD
ENDBRANCH   2  22
BRANCH   6  24
ATOM     24  O   UNL     1      -6.333  -6.945  -3.606  1.00  0.00    -0.507 OA
ATOM     25  H   UNL     1      -6.287  -7.941  -3.450  1.00  0.00     0.293 HD
ENDBRANCH   6  24
BRANCH   8  26
ATOM     26  O   UNL     1      -6.508  -3.765  -7.199  1.00  0.00    -0.508 OA
ATOM     27  H   UNL     1      -6.801  -2.796  -7.253  1.00  0.00     0.293 HD
ENDBRANCH   8  26
TORSDOF 6
ENDMDL
MODEL 8
REMARK VINA RESULT:    -6.514      3.542      6.290
REMARK INTER + INTRA:          -8.057
REMARK INTER:                  -7.729
REMARK INTRA:                  -0.328
REMARK UNBOUND:                -0.210
REMARK SMILES O=c1c(O)c(-c2ccc(O)c(O)c2)oc2cc(O)cc(O)c12
REMARK SMILES IDX 5 1 3 2 2 3 1 4 22 5 20 6 19 7 17 8 16 9 15 10 14 11 6 12
REMARK SMILES IDX 7 13 8 14 9 15 13 16 11 17 10 18 12 20 4 22 21 24 18 26
REMARK H PARENT 10 19 12 21 4 23 21 25 18 27
REMARK Flexibility Score: inf
ROOT
ATOM      1  C   UNL     1     -11.110  -6.658  -4.766  1.00  0.00     0.180 A 
ATOM      2  C   UNL     1     -11.772  -7.883  -4.957  1.00  0.00     0.208 A 
ATOM      3  C   UNL     1     -13.134  -7.877  -5.298  1.00  0.00     0.238 A 
ATOM      4  O   UNL     1     -13.733  -8.978  -5.415  1.00  0.00    -0.285 OA
ATOM      5  C   UNL     1     -13.814  -6.645  -5.458  1.00  0.00     0.111 A 
ATOM      6  C   UNL     1     -15.182  -6.520  -5.841  1.00  0.00     0.134 A 
ATOM      7  C   UNL     1     -15.786  -5.256  -5.843  1.00  0.00     0.093 A 
ATOM      8  C   UNL     1     -15.052  -4.106  -5.538  1.00  0.00     0.123 A 
ATOM      9  C   UNL     1     -13.700  -4.214  -5.221  1.00  0.00     0.094 A 
ATOM     10  C   UNL     1     -13.079  -5.464  -5.177  1.00  0.00     0.146 A 
ATOM     11  O   UNL     1     -11.791  -5.522  -4.859  1.00  0.00    -0.452 OA
ENDROOT
BRANCH   1  12
ATOM     12  C   UNL     1      -9.670  -6.584  -4.430  1.00  0.00     0.025 A 
ATOM     13  C   UNL     1      -9.275  -6.566  -3.083  1.00  0.00     0.016 A 
ATOM     14  C   UNL     1      -7.922  -6.475  -2.744  1.00  0.00     0.051 A 
ATOM     15  C   UNL     1      -6.948  -6.386  -3.741  1.00  0.00     0.157 A 
ATOM     16  C   UNL     1      -8.689  -6.474  -5.432  1.00  0.00     0.062 A 
ATOM     17  C   UNL     1      -7.331  -6.381  -5.093  1.00  0.00     0.158 A 
BRANCH  15  18
ATOM     18  O   UNL     1      -5.605  -6.299  -3.372  1.00  0.00    -0.504 OA
ATOM     19  H   UNL     1      -5.012  -5.537  -3.677  1.00  0.00     0.293 HD
ENDBRANCH  15  18
BRANCH  17  20
ATOM     20  O   UNL     1      -6.365  -6.278  -6.093  1.00  0.00    -0.504 OA
ATOM     21  H   UNL     1      -5.511  -5.751  -5.955  1.00  0.00     0.293 HD
ENDBRANCH  17  20
ENDBRANCH   1  12
BRANCH   2  22
ATOM     22  O   UNL     1     -11.087  -9.088  -4.772  1.00  0.00    -0.502 OA
ATOM     23  H   UNL     1     -11.321  -9.931  -5.282  1.00  0.00     0.293 HD
ENDBRANCH   2  22
BRANCH   6  24
ATOM     24  O   UNL     1     -15.980  -7.592  -6.252  1.00  0.00    -0.507 OA
ATOM     25  H   UNL     1     -16.952  -7.712  -6.008  1.00  0.00     0.293 HD
ENDBRANCH   6  24
BRANCH   8  26
ATOM     26  O   UNL     1     -15.656  -2.852  -5.557  1.00  0.00    -0.508 OA
ATOM     27  H   UNL     1     -16.212  -2.520  -4.777  1.00  0.00     0.293 HD
ENDBRANCH   8  26
TORSDOF 6
ENDMDL
MODEL 9
REMARK VINA RESULT:    -6.359      3.879      7.168
REMARK INTER + INTRA:          -7.871
REMARK INTER:                  -7.606
REMARK INTRA:                  -0.265
REMARK UNBOUND:                -0.210
REMARK SMILES O=c1c(O)c(-c2ccc(O)c(O)c2)oc2cc(O)cc(O)c12
REMARK SMILES IDX 5 1 3 2 2 3 1 4 22 5 20 6 19 7 17 8 16 9 15 10 14 11 6 12
REMARK SMILES IDX 7 13 8 14 9 15 13 16 11 17 10 18 12 20 4 22 21 24 18 26
REMARK H PARENT 10 19 12 21 4 23 21 25 18 27
REMARK Flexibility Score: inf
ROOT
ATOM      1  C   UNL     1     -11.670  -6.232  -6.118  1.00  0.00     0.180 A 
ATOM      2  C   UNL     1     -12.346  -7.462  -6.049  1.00  0.00     0.208 A 
ATOM      3  C   UNL     1     -13.733  -7.467  -5.827  1.00  0.00     0.238 A 
ATOM      4  O   UNL     1     -14.323  -8.573  -5.712  1.00  0.00    -0.285 OA
ATOM      5  C   UNL     1     -14.429  -6.241  -5.691  1.00  0.00     0.111 A 
ATOM      6  C   UNL     1     -15.838  -6.127  -5.504  1.00  0.00     0.134 A 
ATOM      7  C   UNL     1     -16.401  -4.870  -5.252  1.00  0.00     0.093 A 
ATOM      8  C   UNL     1     -15.614  -3.715  -5.246  1.00  0.00     0.123 A 
ATOM      9  C   UNL     1     -14.246  -3.811  -5.487  1.00  0.00     0.094 A 
ATOM     10  C   UNL     1     -13.650  -5.055  -5.706  1.00  0.00     0.146 A 
ATOM     11  O   UNL     1     -12.341  -5.102  -5.922  1.00  0.00    -0.452 OA
ENDROOT
BRANCH   1  12
ATOM     12  C   UNL     1     -10.214  -6.145  -6.375  1.00  0.00     0.025 A 
ATOM     13  C   UNL     1      -9.759  -5.808  -7.659  1.00  0.00     0.016 A 
ATOM     14  C   UNL     1      -8.389  -5.742  -7.928  1.00  0.00     0.051 A 
ATOM     15  C   UNL     1      -7.457  -6.025  -6.927  1.00  0.00     0.157 A 
ATOM     16  C   UNL     1      -9.275  -6.450  -5.373  1.00  0.00     0.062 A 
ATOM     17  C   UNL     1      -7.900  -6.385  -5.644  1.00  0.00     0.158 A 
BRANCH  15  18
ATOM     18  O   UNL     1      -6.097  -5.947  -7.225  1.00  0.00    -0.504 OA
ATOM     19  H   UNL     1      -5.441  -6.666  -6.940  1.00  0.00     0.293 HD
ENDBRANCH  15  18
BRANCH  17  20
ATOM     20  O   UNL     1      -6.976  -6.683  -4.643  1.00  0.00    -0.504 OA
ATOM     21  H   UNL     1      -6.341  -5.981  -4.279  1.00  0.00     0.293 HD
ENDBRANCH  17  20
ENDBRANCH   1  12
BRANCH   2  22
ATOM     22  O   UNL     1     -11.636  -8.661  -6.163  1.00  0.00    -0.502 OA
ATOM     23  H   UNL     1     -10.631  -8.710  -6.046  1.00  0.00     0.293 HD
ENDBRANCH   2  22
BRANCH   6  24
ATOM     24  O   UNL     1     -16.727  -7.203  -5.582  1.00  0.00    -0.507 OA
ATOM     25  H   UNL     1     -16.555  -8.119  -5.194  1.00  0.00     0.293 HD
ENDBRANCH   6  24
BRANCH   8  26
ATOM     26  O   UNL     1     -16.185  -2.467  -5.010  1.00  0.00    -0.508 OA
ATOM     27  H   UNL     1     -15.712  -1.766  -4.452  1.00  0.00     0.293 HD
ENDBRANCH   8  26
TORSDOF 6
ENDMDL
