MODEL 1
REMARK VINA RESULT:     7.544      0.000      0.000
REMARK INTER + INTRA:           8.076
REMARK INTER:                   7.985
REMARK INTRA:                   0.092
REMARK UNBOUND:                 0.092
REMARK SMILES CC1=CC[C@@]23[C@@H]([C@H](C(C)C)CC[C@H]2C)[C@H]13
REMARK SMILES IDX 14 1 13 2 12 3 11 4 7 5 6 6 5 7 15 8 2 9 3 10 4 11 1 12 8 13
REMARK SMILES IDX 9 14 10 15
REMARK H PARENT
REMARK Flexibility Score: inf
ROOT
ATOM      1  C   UNL     1       4.725   9.984  10.895  1.00  0.00     0.008 C 
ATOM      2  C   UNL     1       5.422   8.664  11.262  1.00  0.00    -0.007 C 
ATOM      3  C   UNL     1       4.376   7.538  11.260  1.00  0.00     0.004 C 
ATOM      4  C   UNL     1       5.000   6.202  11.650  1.00  0.00     0.004 C 
ATOM      5  C   UNL     1       5.444   6.197  13.130  1.00  0.00    -0.004 C 
ATOM      6  C   UNL     1       6.174   7.500  13.555  1.00  0.00     0.007 C 
ATOM      7  C   UNL     1       6.171   8.733  12.630  1.00  0.00    -0.013 C 
ATOM      8  C   UNL     1       7.411   7.831  12.730  1.00  0.00     0.025 C 
ATOM      9  C   UNL     1       8.434   8.663  13.424  1.00  0.00    -0.073 C 
ATOM     10  C   UNL     1       7.991   9.876  13.718  1.00  0.00    -0.027 C 
ATOM     11  C   UNL     1       6.584  10.078  13.273  1.00  0.00     0.035 C 
ATOM     12  C   UNL     1       9.802   8.171  13.777  1.00  0.00     0.039 C 
ENDROOT
BRANCH   5  13
ATOM     13  C   UNL     1       6.299   4.933  13.472  1.00  0.00    -0.014 C 
ATOM     14  C   UNL     1       6.665   4.875  14.966  1.00  0.00     0.007 C 
ATOM     15  C   UNL     1       7.593   4.875  12.639  1.00  0.00     0.007 C 
ENDBRANCH   5  13
TORSDOF 1
ENDMDL
MODEL 2
REMARK VINA RESULT:     8.994      0.965      3.717
REMARK INTER + INTRA:           9.612
REMARK INTER:                   9.397
REMARK INTRA:                   0.215
REMARK UNBOUND:                 0.092
REMARK SMILES CC1=CC[C@@]23[C@@H]([C@H](C(C)C)CC[C@H]2C)[C@H]13
REMARK SMILES IDX 14 1 13 2 12 3 11 4 7 5 6 6 5 7 15 8 2 9 3 10 4 11 1 12 8 13
REMARK SMILES IDX 9 14 10 15
REMARK H PARENT
REMARK Flexibility Score: inf
ROOT
ATOM      1  C   UNL     1       3.633   8.225  10.941  1.00  0.00     0.008 C 
ATOM      2  C   UNL     1       4.710   8.435  12.017  1.00  0.00    -0.007 C 
ATOM      3  C   UNL     1       5.504   9.706  11.676  1.00  0.00     0.004 C 
ATOM      4  C   UNL     1       6.614   9.953  12.692  1.00  0.00     0.004 C 
ATOM      5  C   UNL     1       7.718   8.875  12.597  1.00  0.00    -0.004 C 
ATOM      6  C   UNL     1       7.155   7.434  12.461  1.00  0.00     0.007 C 
ATOM      7  C   UNL     1       5.658   7.204  12.174  1.00  0.00    -0.013 C 
ATOM      8  C   UNL     1       6.224   7.008  13.589  1.00  0.00     0.025 C 
ATOM      9  C   UNL     1       6.149   5.540  13.830  1.00  0.00    -0.073 C 
ATOM     10  C   UNL     1       5.628   4.880  12.807  1.00  0.00    -0.027 C 
ATOM     11  C   UNL     1       5.257   5.791  11.688  1.00  0.00     0.035 C 
ATOM     12  C   UNL     1       6.637   4.879  15.081  1.00  0.00     0.039 C 
ENDROOT
BRANCH   5  13
ATOM     13  C   UNL     1       8.728   8.977  13.785  1.00  0.00    -0.014 C 
ATOM     14  C   UNL     1       9.968   8.091  13.562  1.00  0.00     0.007 C 
ATOM     15  C   UNL     1       8.076   8.593  15.126  1.00  0.00     0.007 C 
ENDBRANCH   5  13
TORSDOF 1
ENDMDL
