MODEL 1
REMARK VINA RESULT:    -4.295      0.000      0.000
REMARK INTER + INTRA:          -8.850
REMARK INTER:                  -7.811
REMARK INTRA:                  -1.039
REMARK UNBOUND:                -1.039
REMARK SMILES CCCCCC=CCC=CCCCCCCCC(=O)[O-]
REMARK SMILES IDX 11 1 12 2 13 3 14 4 15 5 16 6 17 7 18 8 19 9 20 10 10 11
REMARK SMILES IDX 9 12 8 13 7 14 6 15 5 16 4 17 3 18 2 19 1 20
REMARK H PARENT
REMARK Flexibility Score: inf
ROOT
ATOM      1  C   UNL     1      29.622  -7.828 -15.387  1.00  0.00     0.027 C 
ENDROOT
BRANCH   1   2
ATOM      2  C   UNL     1      29.987  -8.298 -13.972  1.00  0.00     0.004 C 
BRANCH   2   3
ATOM      3  C   UNL     1      29.236  -7.557 -12.847  1.00  0.00     0.000 C 
BRANCH   3   4
ATOM      4  C   UNL     1      28.777  -6.126 -13.195  1.00  0.00     0.000 C 
BRANCH   4   5
ATOM      5  C   UNL     1      29.524  -5.003 -12.453  1.00  0.00     0.000 C 
BRANCH   5   6
ATOM      6  C   UNL     1      31.050  -5.196 -12.464  1.00  0.00     0.006 C 
BRANCH   6   7
ATOM      7  C   UNL     1      31.629  -5.294 -11.046  1.00  0.00     0.053 C 
BRANCH   7   8
ATOM      8  C   UNL     1      32.600  -6.428 -10.921  1.00  0.00     0.041 C 
ATOM      9  O   UNL     1      32.850  -7.160 -11.916  1.00  0.00    -0.550 OA
ATOM     10  O   UNL     1      33.197  -6.702  -9.698  1.00  0.00    -0.550 OA
ENDBRANCH   7   8
ENDBRANCH   6   7
ENDBRANCH   5   6
ENDBRANCH   4   5
ENDBRANCH   3   4
ENDBRANCH   2   3
ENDBRANCH   1   2
BRANCH   1  11
ATOM     11  C   UNL     1      30.700  -6.956 -15.972  1.00  0.00    -0.031 C 
ATOM     12  C   UNL     1      30.821  -5.661 -15.645  1.00  0.00    -0.027 C 
BRANCH  12  13
ATOM     13  C   UNL     1      31.923  -4.812 -16.212  1.00  0.00     0.054 C 
BRANCH  13  14
ATOM     14  C   UNL     1      33.011  -5.662 -16.807  1.00  0.00    -0.027 C 
ATOM     15  C   UNL     1      33.796  -5.183 -17.783  1.00  0.00    -0.031 C 
BRANCH  15  16
ATOM     16  C   UNL     1      34.883  -6.020 -18.405  1.00  0.00     0.027 C 
BRANCH  16  17
ATOM     17  C   UNL     1      36.231  -5.283 -18.458  1.00  0.00     0.004 C 
BRANCH  17  18
ATOM     18  C   UNL     1      36.543  -4.446 -17.202  1.00  0.00     0.000 C 
BRANCH  18  19
ATOM     19  C   UNL     1      37.176  -5.263 -16.056  1.00  0.00    -0.003 C 
ATOM     20  C   UNL     1      37.886  -6.520 -16.557  1.00  0.00     0.004 C 
ENDBRANCH  18  19
ENDBRANCH  17  18
ENDBRANCH  16  17
ENDBRANCH  15  16
ENDBRANCH  13  14
ENDBRANCH  12  13
ENDBRANCH   1  11
TORSDOF 14
ENDMDL
MODEL 2
REMARK VINA RESULT:    -4.260      1.017      1.592
REMARK INTER + INTRA:          -8.787
REMARK INTER:                  -8.021
REMARK INTRA:                  -0.766
REMARK UNBOUND:                -1.039
REMARK SMILES CCCCCC=CCC=CCCCCCCCC(=O)[O-]
REMARK SMILES IDX 11 1 12 2 13 3 14 4 15 5 16 6 17 7 18 8 19 9 20 10 10 11
REMARK SMILES IDX 9 12 8 13 7 14 6 15 5 16 4 17 3 18 2 19 1 20
REMARK H PARENT
REMARK Flexibility Score: inf
ROOT
ATOM      1  C   UNL     1      29.761  -7.914 -14.901  1.00  0.00     0.027 C 
ENDROOT
BRANCH   1   2
ATOM      2  C   UNL     1      29.578  -7.391 -13.469  1.00  0.00     0.004 C 
BRANCH   2   3
ATOM      3  C   UNL     1      28.844  -6.037 -13.380  1.00  0.00     0.000 C 
BRANCH   3   4
ATOM      4  C   UNL     1      29.717  -4.844 -12.940  1.00  0.00     0.000 C 
BRANCH   4   5
ATOM      5  C   UNL     1      30.558  -5.084 -11.673  1.00  0.00     0.000 C 
BRANCH   5   6
ATOM      6  C   UNL     1      32.019  -5.448 -11.988  1.00  0.00     0.006 C 
BRANCH   6   7
ATOM      7  C   UNL     1      32.464  -6.726 -11.265  1.00  0.00     0.053 C 
BRANCH   7   8
ATOM      8  C   UNL     1      32.899  -6.445  -9.858  1.00  0.00     0.041 C 
ATOM      9  O   UNL     1      33.728  -7.203  -9.289  1.00  0.00    -0.550 OA
ATOM     10  O   UNL     1      32.357  -5.371  -9.164  1.00  0.00    -0.550 OA
ENDBRANCH   7   8
ENDBRANCH   6   7
ENDBRANCH   5   6
ENDBRANCH   4   5
ENDBRANCH   3   4
ENDBRANCH   2   3
ENDBRANCH   1   2
BRANCH   1  11
ATOM     11  C   UNL     1      30.327  -6.852 -15.806  1.00  0.00    -0.031 C 
ATOM     12  C   UNL     1      31.420  -6.149 -15.476  1.00  0.00    -0.027 C 
BRANCH  12  13
ATOM     13  C   UNL     1      31.992  -5.115 -16.406  1.00  0.00     0.054 C 
BRANCH  13  14
ATOM     14  C   UNL     1      33.424  -5.425 -16.746  1.00  0.00    -0.027 C 
ATOM     15  C   UNL     1      33.808  -5.561 -18.023  1.00  0.00    -0.031 C 
BRANCH  15  16
ATOM     16  C   UNL     1      35.234  -5.885 -18.389  1.00  0.00     0.027 C 
BRANCH  16  17
ATOM     17  C   UNL     1      36.139  -6.021 -17.155  1.00  0.00     0.004 C 
BRANCH  17  18
ATOM     18  C   UNL     1      37.122  -4.851 -16.961  1.00  0.00     0.000 C 
BRANCH  18  19
ATOM     19  C   UNL     1      36.681  -3.549 -17.661  1.00  0.00    -0.003 C 
ATOM     20  C   UNL     1      37.545  -3.218 -18.876  1.00  0.00     0.004 C 
ENDBRANCH  18  19
ENDBRANCH  17  18
ENDBRANCH  16  17
ENDBRANCH  15  16
ENDBRANCH  13  14
ENDBRANCH  12  13
ENDBRANCH   1  11
TORSDOF 14
ENDMDL
MODEL 3
REMARK VINA RESULT:    -3.171      3.274      4.654
REMARK INTER + INTRA:          -6.805
REMARK INTER:                  -5.633
REMARK INTRA:                  -1.172
REMARK UNBOUND:                -1.039
REMARK SMILES CCCCCC=CCC=CCCCCCCCC(=O)[O-]
REMARK SMILES IDX 11 1 12 2 13 3 14 4 15 5 16 6 17 7 18 8 19 9 20 10 10 11
REMARK SMILES IDX 9 12 8 13 7 14 6 15 5 16 4 17 3 18 2 19 1 20
REMARK H PARENT
REMARK Flexibility Score: inf
ROOT
ATOM      1  C   UNL     1      30.179  -5.209 -13.503  1.00  0.00     0.027 C 
ENDROOT
BRANCH   1   2
ATOM      2  C   UNL     1      28.901  -6.054 -13.418  1.00  0.00     0.004 C 
BRANCH   2   3
ATOM      3  C   UNL     1      29.148  -7.544 -13.107  1.00  0.00     0.000 C 
BRANCH   3   4
ATOM      4  C   UNL     1      30.196  -8.237 -14.003  1.00  0.00     0.000 C 
BRANCH   4   5
ATOM      5  C   UNL     1      29.619  -9.197 -15.058  1.00  0.00     0.000 C 
BRANCH   5   6
ATOM      6  C   UNL     1      29.772  -8.665 -16.493  1.00  0.00     0.006 C 
BRANCH   6   7
ATOM      7  C   UNL     1      28.418  -8.505 -17.197  1.00  0.00     0.053 C 
BRANCH   7   8
ATOM      8  C   UNL     1      28.383  -9.232 -18.506  1.00  0.00     0.041 C 
ATOM      9  O   UNL     1      27.279  -9.538 -19.031  1.00  0.00    -0.550 OA
ATOM     10  O   UNL     1      29.568  -9.609 -19.125  1.00  0.00    -0.550 OA
ENDBRANCH   7   8
ENDBRANCH   6   7
ENDBRANCH   5   6
ENDBRANCH   4   5
ENDBRANCH   3   4
ENDBRANCH   2   3
ENDBRANCH   1   2
BRANCH   1  11
ATOM     11  C   UNL     1      30.620  -5.021 -14.929  1.00  0.00    -0.031 C 
ATOM     12  C   UNL     1      31.704  -5.638 -15.423  1.00  0.00    -0.027 C 
BRANCH  12  13
ATOM     13  C   UNL     1      32.113  -5.467 -16.859  1.00  0.00     0.054 C 
BRANCH  13  14
ATOM     14  C   UNL     1      33.610  -5.483 -17.002  1.00  0.00    -0.027 C 
ATOM     15  C   UNL     1      34.182  -5.369 -18.209  1.00  0.00    -0.031 C 
BRANCH  15  16
ATOM     16  C   UNL     1      35.678  -5.396 -18.381  1.00  0.00     0.027 C 
BRANCH  16  17
ATOM     17  C   UNL     1      36.391  -4.382 -17.472  1.00  0.00     0.004 C 
BRANCH  17  18
ATOM     18  C   UNL     1      37.386  -5.013 -16.480  1.00  0.00     0.000 C 
BRANCH  18  19
ATOM     19  C   UNL     1      37.436  -6.554 -16.549  1.00  0.00    -0.003 C 
ATOM     20  C   UNL     1      38.848  -7.102 -16.352  1.00  0.00     0.004 C 
ENDBRANCH  18  19
ENDBRANCH  17  18
ENDBRANCH  16  17
ENDBRANCH  15  16
ENDBRANCH  13  14
ENDBRANCH  12  13
ENDBRANCH   1  11
TORSDOF 14
ENDMDL
MODEL 4
REMARK VINA RESULT:    -3.073      3.226      7.388
REMARK INTER + INTRA:          -6.628
REMARK INTER:                  -6.701
REMARK INTRA:                   0.073
REMARK UNBOUND:                -1.039
REMARK SMILES CCCCCC=CCC=CCCCCCCCC(=O)[O-]
REMARK SMILES IDX 11 1 12 2 13 3 14 4 15 5 16 6 17 7 18 8 19 9 20 10 10 11
REMARK SMILES IDX 9 12 8 13 7 14 6 15 5 16 4 17 3 18 2 19 1 20
REMARK H PARENT
REMARK Flexibility Score: inf
ROOT
ATOM      1  C   UNL     1      31.681  -4.793 -16.174  1.00  0.00     0.027 C 
ENDROOT
BRANCH   1   2
ATOM      2  C   UNL     1      33.018  -5.513 -16.400  1.00  0.00     0.004 C 
BRANCH   2   3
ATOM      3  C   UNL     1      33.744  -5.105 -17.698  1.00  0.00     0.000 C 
BRANCH   3   4
ATOM      4  C   UNL     1      34.766  -6.132 -18.229  1.00  0.00     0.000 C 
BRANCH   4   5
ATOM      5  C   UNL     1      35.794  -6.624 -17.193  1.00  0.00     0.000 C 
BRANCH   5   6
ATOM      6  C   UNL     1      36.567  -5.473 -16.529  1.00  0.00     0.006 C 
BRANCH   6   7
ATOM      7  C   UNL     1      37.633  -4.880 -17.460  1.00  0.00     0.053 C 
BRANCH   7   8
ATOM      8  C   UNL     1      37.191  -3.574 -18.048  1.00  0.00     0.041 C 
ATOM      9  O   UNL     1      36.173  -2.988 -17.593  1.00  0.00    -0.550 OA
ATOM     10  O   UNL     1      37.878  -3.027 -19.124  1.00  0.00    -0.550 OA
ENDBRANCH   7   8
ENDBRANCH   6   7
ENDBRANCH   5   6
ENDBRANCH   4   5
ENDBRANCH   3   4
ENDBRANCH   2   3
ENDBRANCH   1   2
BRANCH   1  11
ATOM     11  C   UNL     1      30.840  -5.502 -15.147  1.00  0.00    -0.031 C 
ATOM     12  C   UNL     1      30.298  -4.854 -14.105  1.00  0.00    -0.027 C 
BRANCH  12  13
ATOM     13  C   UNL     1      29.433  -5.570 -13.106  1.00  0.00     0.054 C 
BRANCH  13  14
ATOM     14  C   UNL     1      29.055  -6.940 -13.598  1.00  0.00    -0.027 C 
ATOM     15  C   UNL     1      29.979  -7.753 -14.129  1.00  0.00    -0.031 C 
BRANCH  15  16
ATOM     16  C   UNL     1      29.623  -9.124 -14.643  1.00  0.00     0.027 C 
BRANCH  16  17
ATOM     17  C   UNL     1      29.896  -9.275 -16.148  1.00  0.00     0.004 C 
BRANCH  17  18
ATOM     18  C   UNL     1      28.833  -8.621 -17.051  1.00  0.00     0.000 C 
BRANCH  18  19
ATOM     19  C   UNL     1      28.798  -9.198 -18.482  1.00  0.00    -0.003 C 
ATOM     20  C   UNL     1      27.383  -9.247 -19.057  1.00  0.00     0.004 C 
ENDBRANCH  18  19
ENDBRANCH  17  18
ENDBRANCH  16  17
ENDBRANCH  15  16
ENDBRANCH  13  14
ENDBRANCH  12  13
ENDBRANCH   1  11
TORSDOF 14
ENDMDL
MODEL 5
REMARK VINA RESULT:    -2.730      2.445      3.810
REMARK INTER + INTRA:          -6.004
REMARK INTER:                  -6.680
REMARK INTRA:                   0.676
REMARK UNBOUND:                -1.039
REMARK SMILES CCCCCC=CCC=CCCCCCCCC(=O)[O-]
REMARK SMILES IDX 11 1 12 2 13 3 14 4 15 5 16 6 17 7 18 8 19 9 20 10 10 11
REMARK SMILES IDX 9 12 8 13 7 14 6 15 5 16 4 17 3 18 2 19 1 20
REMARK H PARENT
REMARK Flexibility Score: inf
ROOT
ATOM      1  C   UNL     1      31.661  -6.291 -12.878  1.00  0.00     0.027 C 
ENDROOT
BRANCH   1   2
ATOM      2  C   UNL     1      30.847  -5.227 -12.129  1.00  0.00     0.004 C 
BRANCH   2   3
ATOM      3  C   UNL     1      29.418  -5.026 -12.672  1.00  0.00     0.000 C 
BRANCH   3   4
ATOM      4  C   UNL     1      28.829  -6.233 -13.433  1.00  0.00     0.000 C 
BRANCH   4   5
ATOM      5  C   UNL     1      29.298  -7.611 -12.932  1.00  0.00     0.000 C 
BRANCH   5   6
ATOM      6  C   UNL     1      29.637  -8.577 -14.080  1.00  0.00     0.006 C 
BRANCH   6   7
ATOM      7  C   UNL     1      29.568  -7.891 -15.451  1.00  0.00     0.053 C 
BRANCH   7   8
ATOM      8  C   UNL     1      29.498  -8.887 -16.568  1.00  0.00     0.041 C 
ATOM      9  O   UNL     1      30.503  -9.594 -16.848  1.00  0.00    -0.550 OA
ATOM     10  O   UNL     1      28.340  -9.006 -17.324  1.00  0.00    -0.550 OA
ENDBRANCH   7   8
ENDBRANCH   6   7
ENDBRANCH   5   6
ENDBRANCH   4   5
ENDBRANCH   3   4
ENDBRANCH   2   3
ENDBRANCH   1   2
BRANCH   1  11
ATOM     11  C   UNL     1      32.229  -5.748 -14.161  1.00  0.00    -0.031 C 
ATOM     12  C   UNL     1      31.467  -5.554 -15.248  1.00  0.00    -0.027 C 
BRANCH  12  13
ATOM     13  C   UNL     1      32.042  -4.979 -16.512  1.00  0.00     0.054 C 
BRANCH  13  14
ATOM     14  C   UNL     1      33.356  -5.627 -16.854  1.00  0.00    -0.027 C 
ATOM     15  C   UNL     1      33.979  -5.341 -18.005  1.00  0.00    -0.031 C 
BRANCH  15  16
ATOM     16  C   UNL     1      35.288  -5.987 -18.378  1.00  0.00     0.027 C 
BRANCH  16  17
ATOM     17  C   UNL     1      36.244  -6.105 -17.180  1.00  0.00     0.004 C 
BRANCH  17  18
ATOM     18  C   UNL     1      37.270  -4.961 -17.075  1.00  0.00     0.000 C 
BRANCH  18  19
ATOM     19  C   UNL     1      36.747  -3.610 -17.607  1.00  0.00    -0.003 C 
ATOM     20  C   UNL     1      37.432  -3.188 -18.905  1.00  0.00     0.004 C 
ENDBRANCH  18  19
ENDBRANCH  17  18
ENDBRANCH  16  17
ENDBRANCH  15  16
ENDBRANCH  13  14
ENDBRANCH  12  13
ENDBRANCH   1  11
TORSDOF 14
ENDMDL
MODEL 6
REMARK VINA RESULT:    -2.713      1.223      1.830
REMARK INTER + INTRA:          -5.973
REMARK INTER:                  -5.855
REMARK INTRA:                  -0.119
REMARK UNBOUND:                -1.039
REMARK SMILES CCCCCC=CCC=CCCCCCCCC(=O)[O-]
REMARK SMILES IDX 11 1 12 2 13 3 14 4 15 5 16 6 17 7 18 8 19 9 20 10 10 11
REMARK SMILES IDX 9 12 8 13 7 14 6 15 5 16 4 17 3 18 2 19 1 20
REMARK H PARENT
REMARK Flexibility Score: inf
ROOT
ATOM      1  C   UNL     1      29.460  -5.953 -14.681  1.00  0.00     0.027 C 
ENDROOT
BRANCH   1   2
ATOM      2  C   UNL     1      29.512  -7.404 -15.177  1.00  0.00     0.004 C 
BRANCH   2   3
ATOM      3  C   UNL     1      29.678  -8.450 -14.055  1.00  0.00     0.000 C 
BRANCH   3   4
ATOM      4  C   UNL     1      29.323  -7.954 -12.638  1.00  0.00     0.000 C 
BRANCH   4   5
ATOM      5  C   UNL     1      30.291  -6.911 -12.050  1.00  0.00     0.000 C 
BRANCH   5   6
ATOM      6  C   UNL     1      31.764  -7.222 -12.366  1.00  0.00     0.006 C 
BRANCH   6   7
ATOM      7  C   UNL     1      32.713  -6.158 -11.797  1.00  0.00     0.053 C 
BRANCH   7   8
ATOM      8  C   UNL     1      32.731  -6.176 -10.298  1.00  0.00     0.041 C 
ATOM      9  O   UNL     1      33.457  -7.003  -9.684  1.00  0.00    -0.550 OA
ATOM     10  O   UNL     1      31.916  -5.309  -9.582  1.00  0.00    -0.550 OA
ENDBRANCH   7   8
ENDBRANCH   6   7
ENDBRANCH   5   6
ENDBRANCH   4   5
ENDBRANCH   3   4
ENDBRANCH   2   3
ENDBRANCH   1   2
BRANCH   1  11
ATOM     11  C   UNL     1      30.502  -5.103 -15.358  1.00  0.00    -0.031 C 
ATOM     12  C   UNL     1      31.550  -5.642 -15.999  1.00  0.00    -0.027 C 
BRANCH  12  13
ATOM     13  C   UNL     1      32.564  -4.781 -16.698  1.00  0.00     0.054 C 
BRANCH  13  14
ATOM     14  C   UNL     1      33.863  -5.516 -16.884  1.00  0.00    -0.027 C 
ATOM     15  C   UNL     1      34.501  -5.487 -18.063  1.00  0.00    -0.031 C 
BRANCH  15  16
ATOM     16  C   UNL     1      35.796  -6.226 -18.280  1.00  0.00     0.027 C 
BRANCH  16  17
ATOM     17  C   UNL     1      36.729  -6.143 -17.061  1.00  0.00     0.004 C 
BRANCH  17  18
ATOM     18  C   UNL     1      37.394  -4.767 -16.868  1.00  0.00     0.000 C 
BRANCH  18  19
ATOM     19  C   UNL     1      36.792  -3.658 -17.756  1.00  0.00    -0.003 C 
ATOM     20  C   UNL     1      37.717  -3.265 -18.907  1.00  0.00     0.004 C 
ENDBRANCH  18  19
ENDBRANCH  17  18
ENDBRANCH  16  17
ENDBRANCH  15  16
ENDBRANCH  13  14
ENDBRANCH  12  13
ENDBRANCH   1  11
TORSDOF 14
ENDMDL
MODEL 7
REMARK VINA RESULT:    -2.532      2.169      6.809
REMARK INTER + INTRA:          -5.645
REMARK INTER:                  -6.087
REMARK INTRA:                   0.443
REMARK UNBOUND:                -1.039
REMARK SMILES CCCCCC=CCC=CCCCCCCCC(=O)[O-]
REMARK SMILES IDX 11 1 12 2 13 3 14 4 15 5 16 6 17 7 18 8 19 9 20 10 10 11
REMARK SMILES IDX 9 12 8 13 7 14 6 15 5 16 4 17 3 18 2 19 1 20
REMARK H PARENT
REMARK Flexibility Score: inf
ROOT
ATOM      1  C   UNL     1      31.669  -5.100 -16.413  1.00  0.00     0.027 C 
ENDROOT
BRANCH   1   2
ATOM      2  C   UNL     1      33.126  -5.504 -16.678  1.00  0.00     0.004 C 
BRANCH   2   3
ATOM      3  C   UNL     1      33.754  -4.825 -17.913  1.00  0.00     0.000 C 
BRANCH   3   4
ATOM      4  C   UNL     1      34.713  -5.713 -18.733  1.00  0.00     0.000 C 
BRANCH   4   5
ATOM      5  C   UNL     1      36.193  -5.293 -18.685  1.00  0.00     0.000 C 
BRANCH   5   6
ATOM      6  C   UNL     1      36.492  -4.300 -17.549  1.00  0.00     0.006 C 
BRANCH   6   7
ATOM      7  C   UNL     1      37.487  -4.871 -16.530  1.00  0.00     0.053 C 
BRANCH   7   8
ATOM      8  C   UNL     1      37.428  -6.368 -16.477  1.00  0.00     0.041 C 
ATOM      9  O   UNL     1      36.318  -6.954 -16.373  1.00  0.00    -0.550 OA
ATOM     10  O   UNL     1      38.600  -7.112 -16.499  1.00  0.00    -0.550 OA
ENDBRANCH   7   8
ENDBRANCH   6   7
ENDBRANCH   5   6
ENDBRANCH   4   5
ENDBRANCH   3   4
ENDBRANCH   2   3
ENDBRANCH   1   2
BRANCH   1  11
ATOM     11  C   UNL     1      30.960  -6.125 -15.569  1.00  0.00    -0.031 C 
ATOM     12  C   UNL     1      30.441  -7.243 -16.098  1.00  0.00    -0.027 C 
BRANCH  12  13
ATOM     13  C   UNL     1      29.764  -8.273 -15.237  1.00  0.00     0.054 C 
BRANCH  13  14
ATOM     14  C   UNL     1      29.575  -7.766 -13.833  1.00  0.00    -0.027 C 
ATOM     15  C   UNL     1      29.288  -6.477 -13.606  1.00  0.00    -0.031 C 
BRANCH  15  16
ATOM     16  C   UNL     1      29.107  -5.942 -12.209  1.00  0.00     0.027 C 
BRANCH  16  17
ATOM     17  C   UNL     1      30.257  -5.016 -11.783  1.00  0.00     0.004 C 
BRANCH  17  18
ATOM     18  C   UNL     1      31.646  -5.467 -12.273  1.00  0.00     0.000 C 
BRANCH  18  19
ATOM     19  C   UNL     1      32.248  -6.623 -11.447  1.00  0.00    -0.003 C 
ATOM     20  C   UNL     1      32.690  -6.177 -10.054  1.00  0.00     0.004 C 
ENDBRANCH  18  19
ENDBRANCH  17  18
ENDBRANCH  16  17
ENDBRANCH  15  16
ENDBRANCH  13  14
ENDBRANCH  12  13
ENDBRANCH   1  11
TORSDOF 14
ENDMDL
MODEL 8
REMARK VINA RESULT:    -1.855      2.541      6.421
REMARK INTER + INTRA:          -4.413
REMARK INTER:                  -4.884
REMARK INTRA:                   0.471
REMARK UNBOUND:                -1.039
REMARK SMILES CCCCCC=CCC=CCCCCCCCC(=O)[O-]
REMARK SMILES IDX 11 1 12 2 13 3 14 4 15 5 16 6 17 7 18 8 19 9 20 10 10 11
REMARK SMILES IDX 9 12 8 13 7 14 6 15 5 16 4 17 3 18 2 19 1 20
REMARK H PARENT
REMARK Flexibility Score: inf
ROOT
ATOM      1  C   UNL     1      29.973  -8.206 -15.272  1.00  0.00     0.027 C 
ENDROOT
BRANCH   1   2
ATOM      2  C   UNL     1      30.696  -7.294 -16.273  1.00  0.00     0.004 C 
BRANCH   2   3
ATOM      3  C   UNL     1      31.184  -5.959 -15.674  1.00  0.00     0.000 C 
BRANCH   3   4
ATOM      4  C   UNL     1      32.068  -5.105 -16.606  1.00  0.00     0.000 C 
BRANCH   4   5
ATOM      5  C   UNL     1      33.561  -5.478 -16.611  1.00  0.00     0.000 C 
BRANCH   5   6
ATOM      6  C   UNL     1      34.193  -5.383 -18.011  1.00  0.00     0.006 C 
BRANCH   6   7
ATOM      7  C   UNL     1      35.668  -5.806 -18.007  1.00  0.00     0.053 C 
BRANCH   7   8
ATOM      8  C   UNL     1      36.518  -4.848 -17.230  1.00  0.00     0.041 C 
ATOM      9  O   UNL     1      36.476  -3.615 -17.485  1.00  0.00    -0.550 OA
ATOM     10  O   UNL     1      37.386  -5.320 -16.254  1.00  0.00    -0.550 OA
ENDBRANCH   7   8
ENDBRANCH   6   7
ENDBRANCH   5   6
ENDBRANCH   4   5
ENDBRANCH   3   4
ENDBRANCH   2   3
ENDBRANCH   1   2
BRANCH   1  11
ATOM     11  C   UNL     1      29.580  -7.455 -14.029  1.00  0.00    -0.031 C 
ATOM     12  C   UNL     1      28.968  -6.263 -14.084  1.00  0.00    -0.027 C 
BRANCH  12  13
ATOM     13  C   UNL     1      28.551  -5.541 -12.834  1.00  0.00     0.054 C 
BRANCH  13  14
ATOM     14  C   UNL     1      29.739  -5.236 -11.962  1.00  0.00    -0.027 C 
ATOM     15  C   UNL     1      30.971  -5.615 -12.330  1.00  0.00    -0.031 C 
BRANCH  15  16
ATOM     16  C   UNL     1      32.175  -5.334 -11.469  1.00  0.00     0.027 C 
BRANCH  16  17
ATOM     17  C   UNL     1      32.656  -6.581 -10.710  1.00  0.00     0.004 C 
BRANCH  17  18
ATOM     18  C   UNL     1      33.048  -6.316  -9.244  1.00  0.00     0.000 C 
BRANCH  18  19
ATOM     19  C   UNL     1      33.533  -7.575  -8.496  1.00  0.00    -0.003 C 
ATOM     20  C   UNL     1      35.011  -7.871  -8.747  1.00  0.00     0.004 C 
ENDBRANCH  18  19
ENDBRANCH  17  18
ENDBRANCH  16  17
ENDBRANCH  15  16
ENDBRANCH  13  14
ENDBRANCH  12  13
ENDBRANCH   1  11
TORSDOF 14
ENDMDL
