MODEL 1
REMARK VINA RESULT:    -7.531      0.000      0.000
REMARK INTER + INTRA:          -8.001
REMARK INTER:                  -8.191
REMARK INTRA:                   0.190
REMARK UNBOUND:                 0.190
REMARK SMILES CC1(C)CC[C@@]2(C(=O)[O-])CC[C@@]3(C)C(=CC[C@H]4[C@@]5(C)CC[C@@H](O)C(C)(C)[C@H]5CC[C@]43C)[C@H]2C1
REMARK SMILES IDX 6 1 5 2 10 3 32 4 4 5 11 6 14 7 33 8 2 9 12 10 15 11 1 12
REMARK SMILES IDX 3 13 13 14 30 15 16 16 17 17 29 18 31 19 18 20 28 21 27 22
REMARK SMILES IDX 20 23 19 24 24 25 21 26 22 27 25 28 26 29 7 30 8 31 9 32
REMARK SMILES IDX 23 33
REMARK H PARENT 23 34
REMARK Flexibility Score: inf
ROOT
ATOM      1  C   UNL     1       8.059  11.014  38.422  1.00  0.00     0.017 C 
ATOM      2  C   UNL     1       9.345  10.438  37.729  1.00  0.00     0.014 C 
ATOM      3  C   UNL     1       7.260  11.819  37.342  1.00  0.00     0.014 C 
ATOM      4  C   UNL     1       7.204   9.850  39.062  1.00  0.00     0.028 C 
ATOM      5  C   UNL     1      10.179   9.461  38.581  1.00  0.00     0.007 C 
ATOM      6  C   UNL     1       5.759  11.497  37.328  1.00  0.00     0.013 C 
ATOM      7  C   UNL     1       6.256   9.150  38.064  1.00  0.00    -0.064 C 
ATOM      8  C   UNL     1       8.107   8.927  39.935  1.00  0.00     0.015 C 
ATOM      9  C   UNL     1       9.340   8.326  39.211  1.00  0.00    -0.035 C 
ATOM     10  C   UNL     1       5.479   9.980  37.025  1.00  0.00    -0.006 C 
ATOM     11  C   UNL     1       5.843   7.886  38.269  1.00  0.00    -0.027 C 
ATOM     12  C   UNL     1       8.946   7.295  38.128  1.00  0.00     0.011 C 
ATOM     13  C   UNL     1      10.199   7.590  40.269  1.00  0.00     0.011 C 
ATOM     14  C   UNL     1       6.022   9.674  35.590  1.00  0.00     0.017 C 
ATOM     15  C   UNL     1       3.904   9.610  37.119  1.00  0.00    -0.020 C 
ATOM     16  C   UNL     1       4.937   7.182  37.312  1.00  0.00     0.032 C 
ATOM     17  C   UNL     1       3.676   8.023  36.949  1.00  0.00     0.006 C 
ATOM     18  C   UNL     1       3.358  10.086  38.510  1.00  0.00     0.008 C 
ATOM     19  C   UNL     1       3.130  10.389  35.993  1.00  0.00     0.012 C 
ATOM     20  C   UNL     1       2.289   7.434  37.491  1.00  0.00    -0.025 C 
ATOM     21  C   UNL     1       1.982   9.540  38.921  1.00  0.00     0.005 C 
ATOM     22  C   UNL     1       1.884   7.994  38.897  1.00  0.00     0.003 C 
ATOM     23  C   UNL     1       2.215   5.867  37.461  1.00  0.00     0.010 C 
ATOM     24  C   UNL     1       1.178   7.846  36.455  1.00  0.00     0.012 C 
ATOM     25  C   UNL     1       2.378   7.230  40.226  1.00  0.00    -0.006 C 
ATOM     26  C   UNL     1       2.516   5.062  38.745  1.00  0.00     0.033 C 
ATOM     27  C   UNL     1       3.031   5.817  39.980  1.00  0.00     0.120 C 
ATOM     28  C   UNL     1       3.360   8.056  41.109  1.00  0.00     0.014 C 
ATOM     29  C   UNL     1       1.124   6.998  41.125  1.00  0.00     0.014 C 
ENDROOT
BRANCH   1  30
ATOM     30  C   UNL     1       8.424  12.001  39.537  1.00  0.00     0.048 C 
ATOM     31  O   UNL     1       8.335  11.679  40.751  1.00  0.00    -0.550 OA
ATOM     32  O   UNL     1       8.814  13.301  39.213  1.00  0.00    -0.550 OA
ENDBRANCH   1  30
BRANCH  27  33
ATOM     33  O   UNL     1       4.436   5.868  39.965  1.00  0.00    -0.393 OA
ATOM     34  H   UNL     1       4.725   6.383  40.761  1.00  0.00     0.210 HD
ENDBRANCH  27  33
TORSDOF 2
ENDMDL
MODEL 2
REMARK VINA RESULT:    -7.292     12.698     15.958
REMARK INTER + INTRA:          -7.741
REMARK INTER:                  -7.554
REMARK INTRA:                  -0.187
REMARK UNBOUND:                 0.190
REMARK SMILES CC1(C)CC[C@@]2(C(=O)[O-])CC[C@@]3(C)C(=CC[C@H]4[C@@]5(C)CC[C@@H](O)C(C)(C)[C@H]5CC[C@]43C)[C@H]2C1
REMARK SMILES IDX 6 1 5 2 10 3 32 4 4 5 11 6 14 7 33 8 2 9 12 10 15 11 1 12
REMARK SMILES IDX 3 13 13 14 30 15 16 16 17 17 29 18 31 19 18 20 28 21 27 22
REMARK SMILES IDX 20 23 19 24 24 25 21 26 22 27 25 28 26 29 7 30 8 31 9 32
REMARK SMILES IDX 23 33
REMARK H PARENT 23 34
REMARK Flexibility Score: inf
ROOT
ATOM      1  C   UNL     1      11.656   9.884  28.354  1.00  0.00     0.017 C 
ATOM      2  C   UNL     1      12.377   8.489  28.347  1.00  0.00     0.014 C 
ATOM      3  C   UNL     1      12.637  10.920  29.001  1.00  0.00     0.014 C 
ATOM      4  C   UNL     1      11.224  10.294  26.891  1.00  0.00     0.028 C 
ATOM      5  C   UNL     1      11.645   7.366  27.584  1.00  0.00     0.007 C 
ATOM      6  C   UNL     1      12.753  12.228  28.207  1.00  0.00     0.013 C 
ATOM      7  C   UNL     1      12.348  10.969  26.074  1.00  0.00    -0.064 C 
ATOM      8  C   UNL     1      10.461   9.125  26.199  1.00  0.00     0.015 C 
ATOM      9  C   UNL     1      11.219   7.771  26.155  1.00  0.00    -0.035 C 
ATOM     10  C   UNL     1      13.284  11.991  26.745  1.00  0.00    -0.006 C 
ATOM     11  C   UNL     1      12.345  10.934  24.729  1.00  0.00    -0.027 C 
ATOM     12  C   UNL     1      12.454   7.814  25.226  1.00  0.00     0.011 C 
ATOM     13  C   UNL     1      10.247   6.702  25.595  1.00  0.00     0.011 C 
ATOM     14  C   UNL     1      14.726  11.396  26.855  1.00  0.00     0.017 C 
ATOM     15  C   UNL     1      13.304  13.352  25.866  1.00  0.00    -0.020 C 
ATOM     16  C   UNL     1      13.427  11.567  23.916  1.00  0.00     0.032 C 
ATOM     17  C   UNL     1      13.711  13.040  24.336  1.00  0.00     0.006 C 
ATOM     18  C   UNL     1      11.880  14.006  25.920  1.00  0.00     0.008 C 
ATOM     19  C   UNL     1      14.333  14.356  26.503  1.00  0.00     0.012 C 
ATOM     20  C   UNL     1      13.313  14.145  23.248  1.00  0.00    -0.025 C 
ATOM     21  C   UNL     1      11.605  15.117  24.895  1.00  0.00     0.005 C 
ATOM     22  C   UNL     1      11.857  14.695  23.425  1.00  0.00     0.003 C 
ATOM     23  C   UNL     1      13.574  13.694  21.768  1.00  0.00     0.010 C 
ATOM     24  C   UNL     1      14.319  15.343  23.418  1.00  0.00     0.012 C 
ATOM     25  C   UNL     1      10.636  13.958  22.678  1.00  0.00    -0.006 C 
ATOM     26  C   UNL     1      12.410  13.125  20.925  1.00  0.00     0.033 C 
ATOM     27  C   UNL     1      11.059  12.875  21.614  1.00  0.00     0.120 C 
ATOM     28  C   UNL     1       9.605  13.294  23.641  1.00  0.00     0.014 C 
ATOM     29  C   UNL     1       9.827  15.050  21.912  1.00  0.00     0.014 C 
ENDROOT
BRANCH   1  30
ATOM     30  C   UNL     1      10.396   9.854  29.228  1.00  0.00     0.048 C 
ATOM     31  O   UNL     1       9.484  10.711  29.091  1.00  0.00    -0.550 OA
ATOM     32  O   UNL     1      10.271   8.893  30.231  1.00  0.00    -0.550 OA
ENDBRANCH   1  30
BRANCH  27  33
ATOM     33  O   UNL     1      11.014  11.567  22.129  1.00  0.00    -0.393 OA
ATOM     34  H   UNL     1      10.959  10.944  21.360  1.00  0.00     0.210 HD
ENDBRANCH  27  33
TORSDOF 2
ENDMDL
MODEL 3
REMARK VINA RESULT:    -7.168      2.358      4.153
REMARK INTER + INTRA:          -7.606
REMARK INTER:                  -7.438
REMARK INTRA:                  -0.168
REMARK UNBOUND:                 0.190
REMARK SMILES CC1(C)CC[C@@]2(C(=O)[O-])CC[C@@]3(C)C(=CC[C@H]4[C@@]5(C)CC[C@@H](O)C(C)(C)[C@H]5CC[C@]43C)[C@H]2C1
REMARK SMILES IDX 6 1 5 2 10 3 32 4 4 5 11 6 14 7 33 8 2 9 12 10 15 11 1 12
REMARK SMILES IDX 3 13 13 14 30 15 16 16 17 17 29 18 31 19 18 20 28 21 27 22
REMARK SMILES IDX 20 23 19 24 24 25 21 26 22 27 25 28 26 29 7 30 8 31 9 32
REMARK SMILES IDX 23 33
REMARK H PARENT 23 34
REMARK Flexibility Score: inf
ROOT
ATOM      1  C   UNL     1       9.086   7.784  37.865  1.00  0.00     0.017 C 
ATOM      2  C   UNL     1       9.603   8.986  36.995  1.00  0.00     0.014 C 
ATOM      3  C   UNL     1       8.872   8.313  39.324  1.00  0.00     0.014 C 
ATOM      4  C   UNL     1       7.767   7.177  37.244  1.00  0.00     0.028 C 
ATOM      5  C   UNL     1       9.704   8.716  35.481  1.00  0.00     0.007 C 
ATOM      6  C   UNL     1       7.530   7.889  39.935  1.00  0.00     0.013 C 
ATOM      7  C   UNL     1       6.480   7.925  37.656  1.00  0.00    -0.064 C 
ATOM      8  C   UNL     1       7.957   6.899  35.722  1.00  0.00     0.015 C 
ATOM      9  C   UNL     1       8.414   8.117  34.876  1.00  0.00    -0.035 C 
ATOM     10  C   UNL     1       6.304   8.418  39.105  1.00  0.00    -0.006 C 
ATOM     11  C   UNL     1       5.378   7.888  36.886  1.00  0.00    -0.027 C 
ATOM     12  C   UNL     1       7.322   9.207  34.770  1.00  0.00     0.011 C 
ATOM     13  C   UNL     1       8.715   7.613  33.443  1.00  0.00     0.011 C 
ATOM     14  C   UNL     1       6.346   9.982  39.140  1.00  0.00     0.017 C 
ATOM     15  C   UNL     1       4.888   7.882  39.681  1.00  0.00    -0.020 C 
ATOM     16  C   UNL     1       4.126   8.614  37.255  1.00  0.00     0.032 C 
ATOM     17  C   UNL     1       3.672   8.323  38.717  1.00  0.00     0.006 C 
ATOM     18  C   UNL     1       4.949   6.318  39.788  1.00  0.00     0.008 C 
ATOM     19  C   UNL     1       4.671   8.467  41.125  1.00  0.00     0.012 C 
ATOM     20  C   UNL     1       2.310   7.492  38.853  1.00  0.00    -0.025 C 
ATOM     21  C   UNL     1       3.606   5.601  40.000  1.00  0.00     0.005 C 
ATOM     22  C   UNL     1       2.533   5.944  38.937  1.00  0.00     0.003 C 
ATOM     23  C   UNL     1       1.240   7.854  37.764  1.00  0.00     0.010 C 
ATOM     24  C   UNL     1       1.613   7.965  40.182  1.00  0.00     0.012 C 
ATOM     25  C   UNL     1       2.571   5.075  37.581  1.00  0.00    -0.006 C 
ATOM     26  C   UNL     1       1.102   6.971  36.504  1.00  0.00     0.033 C 
ATOM     27  C   UNL     1       2.124   5.845  36.281  1.00  0.00     0.120 C 
ATOM     28  C   UNL     1       3.952   4.414  37.286  1.00  0.00     0.014 C 
ATOM     29  C   UNL     1       1.583   3.882  37.762  1.00  0.00     0.014 C 
ENDROOT
BRANCH   1  30
ATOM     30  C   UNL     1      10.131   6.665  37.942  1.00  0.00     0.048 C 
ATOM     31  O   UNL     1      11.359   6.905  37.798  1.00  0.00    -0.550 OA
ATOM     32  O   UNL     1       9.720   5.344  38.124  1.00  0.00    -0.550 OA
ENDBRANCH   1  30
BRANCH  27  33
ATOM     33  O   UNL     1       3.217   6.326  35.537  1.00  0.00    -0.393 OA
ATOM     34  H   UNL     1       2.855   6.858  34.783  1.00  0.00     0.210 HD
ENDBRANCH  27  33
TORSDOF 2
ENDMDL
MODEL 4
REMARK VINA RESULT:    -7.163      1.884      3.297
REMARK INTER + INTRA:          -7.601
REMARK INTER:                  -7.695
REMARK INTRA:                   0.094
REMARK UNBOUND:                 0.190
REMARK SMILES CC1(C)CC[C@@]2(C(=O)[O-])CC[C@@]3(C)C(=CC[C@H]4[C@@]5(C)CC[C@@H](O)C(C)(C)[C@H]5CC[C@]43C)[C@H]2C1
REMARK SMILES IDX 6 1 5 2 10 3 32 4 4 5 11 6 14 7 33 8 2 9 12 10 15 11 1 12
REMARK SMILES IDX 3 13 13 14 30 15 16 16 17 17 29 18 31 19 18 20 28 21 27 22
REMARK SMILES IDX 20 23 19 24 24 25 21 26 22 27 25 28 26 29 7 30 8 31 9 32
REMARK SMILES IDX 23 33
REMARK H PARENT 23 34
REMARK Flexibility Score: inf
ROOT
ATOM      1  C   UNL     1       8.389  10.565  36.135  1.00  0.00     0.017 C 
ATOM      2  C   UNL     1       9.781  10.635  36.861  1.00  0.00     0.014 C 
ATOM      3  C   UNL     1       8.436   9.359  35.137  1.00  0.00     0.014 C 
ATOM      4  C   UNL     1       7.220  10.433  37.188  1.00  0.00     0.028 C 
ATOM      5  C   UNL     1       9.877  11.649  38.018  1.00  0.00     0.007 C 
ATOM      6  C   UNL     1       7.195   8.458  35.211  1.00  0.00     0.013 C 
ATOM      7  C   UNL     1       6.960   8.983  37.653  1.00  0.00    -0.064 C 
ATOM      8  C   UNL     1       7.365  11.510  38.304  1.00  0.00     0.015 C 
ATOM      9  C   UNL     1       8.729  11.521  39.044  1.00  0.00    -0.035 C 
ATOM     10  C   UNL     1       7.003   7.826  36.638  1.00  0.00    -0.006 C 
ATOM     11  C   UNL     1       6.390   8.728  38.845  1.00  0.00    -0.027 C 
ATOM     12  C   UNL     1       8.937  10.263  39.919  1.00  0.00     0.011 C 
ATOM     13  C   UNL     1       8.750  12.753  39.982  1.00  0.00     0.011 C 
ATOM     14  C   UNL     1       8.242   6.916  36.925  1.00  0.00     0.017 C 
ATOM     15  C   UNL     1       5.636   6.965  36.754  1.00  0.00    -0.020 C 
ATOM     16  C   UNL     1       6.140   7.335  39.324  1.00  0.00     0.032 C 
ATOM     17  C   UNL     1       5.402   6.460  38.268  1.00  0.00     0.006 C 
ATOM     18  C   UNL     1       4.435   7.864  36.296  1.00  0.00     0.008 C 
ATOM     19  C   UNL     1       5.726   5.731  35.783  1.00  0.00     0.012 C 
ATOM     20  C   UNL     1       3.909   6.035  38.662  1.00  0.00    -0.025 C 
ATOM     21  C   UNL     1       3.030   7.345  36.640  1.00  0.00     0.005 C 
ATOM     22  C   UNL     1       2.822   7.037  38.144  1.00  0.00     0.003 C 
ATOM     23  C   UNL     1       3.723   5.733  40.190  1.00  0.00     0.010 C 
ATOM     24  C   UNL     1       3.641   4.631  38.004  1.00  0.00     0.012 C 
ATOM     25  C   UNL     1       2.388   8.282  39.071  1.00  0.00    -0.006 C 
ATOM     26  C   UNL     1       3.154   6.827  41.122  1.00  0.00     0.033 C 
ATOM     27  C   UNL     1       2.930   8.235  40.550  1.00  0.00     0.120 C 
ATOM     28  C   UNL     1       2.753   9.676  38.479  1.00  0.00     0.014 C 
ATOM     29  C   UNL     1       0.830   8.277  39.160  1.00  0.00     0.014 C 
ENDROOT
BRANCH   1  30
ATOM     30  C   UNL     1       8.134  11.826  35.301  1.00  0.00     0.048 C 
ATOM     31  O   UNL     1       8.747  12.901  35.536  1.00  0.00    -0.550 OA
ATOM     32  O   UNL     1       7.169  11.809  34.294  1.00  0.00    -0.550 OA
ENDBRANCH   1  30
BRANCH  27  33
ATOM     33  O   UNL     1       4.086   9.018  40.725  1.00  0.00    -0.393 OA
ATOM     34  H   UNL     1       4.753   8.718  40.057  1.00  0.00     0.210 HD
ENDBRANCH  27  33
TORSDOF 2
ENDMDL
MODEL 5
REMARK VINA RESULT:    -7.090      9.314     12.604
REMARK INTER + INTRA:          -7.521
REMARK INTER:                  -7.333
REMARK INTRA:                  -0.189
REMARK UNBOUND:                 0.190
REMARK SMILES CC1(C)CC[C@@]2(C(=O)[O-])CC[C@@]3(C)C(=CC[C@H]4[C@@]5(C)CC[C@@H](O)C(C)(C)[C@H]5CC[C@]43C)[C@H]2C1
REMARK SMILES IDX 6 1 5 2 10 3 32 4 4 5 11 6 14 7 33 8 2 9 12 10 15 11 1 12
REMARK SMILES IDX 3 13 13 14 30 15 16 16 17 17 29 18 31 19 18 20 28 21 27 22
REMARK SMILES IDX 20 23 19 24 24 25 21 26 22 27 25 28 26 29 7 30 8 31 9 32
REMARK SMILES IDX 23 33
REMARK H PARENT 23 34
REMARK Flexibility Score: inf
ROOT
ATOM      1  C   UNL     1      -0.884  14.110  37.230  1.00  0.00     0.017 C 
ATOM      2  C   UNL     1      -1.695  13.566  38.461  1.00  0.00     0.014 C 
ATOM      3  C   UNL     1      -1.522  13.501  35.936  1.00  0.00     0.014 C 
ATOM      4  C   UNL     1      -0.885  15.689  37.218  1.00  0.00     0.028 C 
ATOM      5  C   UNL     1      -1.335  14.192  39.823  1.00  0.00     0.007 C 
ATOM      6  C   UNL     1      -1.758  14.536  34.828  1.00  0.00     0.013 C 
ATOM      7  C   UNL     1      -2.140  16.308  36.563  1.00  0.00    -0.064 C 
ATOM      8  C   UNL     1      -0.479  16.247  38.616  1.00  0.00     0.015 C 
ATOM      9  C   UNL     1      -1.332  15.737  39.808  1.00  0.00    -0.035 C 
ATOM     10  C   UNL     1      -2.730  15.686  35.284  1.00  0.00    -0.006 C 
ATOM     11  C   UNL     1      -2.551  17.548  36.885  1.00  0.00    -0.027 C 
ATOM     12  C   UNL     1      -2.783  16.270  39.767  1.00  0.00     0.011 C 
ATOM     13  C   UNL     1      -0.678  16.254  41.114  1.00  0.00     0.011 C 
ATOM     14  C   UNL     1      -4.117  15.037  35.603  1.00  0.00     0.017 C 
ATOM     15  C   UNL     1      -2.895  16.839  34.158  1.00  0.00    -0.020 C 
ATOM     16  C   UNL     1      -3.768  18.164  36.276  1.00  0.00     0.032 C 
ATOM     17  C   UNL     1      -3.776  18.068  34.721  1.00  0.00     0.006 C 
ATOM     18  C   UNL     1      -1.469  17.346  33.745  1.00  0.00     0.008 C 
ATOM     19  C   UNL     1      -3.585  16.218  32.889  1.00  0.00     0.012 C 
ATOM     20  C   UNL     1      -3.633  19.466  33.953  1.00  0.00    -0.025 C 
ATOM     21  C   UNL     1      -1.423  18.653  32.939  1.00  0.00     0.005 C 
ATOM     22  C   UNL     1      -2.149  19.841  33.619  1.00  0.00     0.003 C 
ATOM     23  C   UNL     1      -4.373  20.653  34.664  1.00  0.00     0.010 C 
ATOM     24  C   UNL     1      -4.426  19.333  32.601  1.00  0.00     0.012 C 
ATOM     25  C   UNL     1      -1.286  20.685  34.687  1.00  0.00    -0.006 C 
ATOM     26  C   UNL     1      -3.579  21.611  35.580  1.00  0.00     0.033 C 
ATOM     27  C   UNL     1      -2.111  21.281  35.890  1.00  0.00     0.120 C 
ATOM     28  C   UNL     1      -0.075  19.907  35.285  1.00  0.00     0.014 C 
ATOM     29  C   UNL     1      -0.656  21.893  33.927  1.00  0.00     0.014 C 
ENDROOT
BRANCH   1  30
ATOM     30  C   UNL     1       0.575  13.639  37.274  1.00  0.00     0.048 C 
ATOM     31  O   UNL     1       1.481  14.254  36.652  1.00  0.00    -0.550 OA
ATOM     32  O   UNL     1       0.908  12.478  37.973  1.00  0.00    -0.550 OA
ENDBRANCH   1  30
BRANCH  27  33
ATOM     33  O   UNL     1      -2.028  20.485  37.047  1.00  0.00    -0.393 OA
ATOM     34  H   UNL     1      -2.690  19.753  36.954  1.00  0.00     0.210 HD
ENDBRANCH  27  33
TORSDOF 2
ENDMDL
MODEL 6
REMARK VINA RESULT:    -7.049      3.993      6.676
REMARK INTER + INTRA:          -7.476
REMARK INTER:                  -7.289
REMARK INTRA:                  -0.187
REMARK UNBOUND:                 0.190
REMARK SMILES CC1(C)CC[C@@]2(C(=O)[O-])CC[C@@]3(C)C(=CC[C@H]4[C@@]5(C)CC[C@@H](O)C(C)(C)[C@H]5CC[C@]43C)[C@H]2C1
REMARK SMILES IDX 6 1 5 2 10 3 32 4 4 5 11 6 14 7 33 8 2 9 12 10 15 11 1 12
REMARK SMILES IDX 3 13 13 14 30 15 16 16 17 17 29 18 31 19 18 20 28 21 27 22
REMARK SMILES IDX 20 23 19 24 24 25 21 26 22 27 25 28 26 29 7 30 8 31 9 32
REMARK SMILES IDX 23 33
REMARK H PARENT 23 34
REMARK Flexibility Score: inf
ROOT
ATOM      1  C   UNL     1       8.403  13.400  37.675  1.00  0.00     0.017 C 
ATOM      2  C   UNL     1       6.951  13.980  37.521  1.00  0.00     0.014 C 
ATOM      3  C   UNL     1       8.542  12.854  39.136  1.00  0.00     0.014 C 
ATOM      4  C   UNL     1       8.675  12.289  36.586  1.00  0.00     0.028 C 
ATOM      5  C   UNL     1       6.553  14.407  36.094  1.00  0.00     0.007 C 
ATOM      6  C   UNL     1       9.171  11.456  39.207  1.00  0.00     0.013 C 
ATOM      7  C   UNL     1       8.160  10.888  36.981  1.00  0.00    -0.064 C 
ATOM      8  C   UNL     1       8.282  12.805  35.169  1.00  0.00     0.015 C 
ATOM      9  C   UNL     1       6.825  13.320  35.030  1.00  0.00    -0.035 C 
ATOM     10  C   UNL     1       8.326  10.383  38.427  1.00  0.00    -0.006 C 
ATOM     11  C   UNL     1       7.854   9.971  36.045  1.00  0.00    -0.027 C 
ATOM     12  C   UNL     1       5.782  12.185  35.152  1.00  0.00     0.011 C 
ATOM     13  C   UNL     1       6.676  13.945  33.620  1.00  0.00     0.011 C 
ATOM     14  C   UNL     1       6.927  10.286  39.118  1.00  0.00     0.017 C 
ATOM     15  C   UNL     1       9.042   8.929  38.403  1.00  0.00    -0.020 C 
ATOM     16  C   UNL     1       7.342   8.614  36.401  1.00  0.00     0.032 C 
ATOM     17  C   UNL     1       8.221   7.900  37.471  1.00  0.00     0.006 C 
ATOM     18  C   UNL     1      10.504   9.098  37.859  1.00  0.00     0.008 C 
ATOM     19  C   UNL     1       9.124   8.377  39.873  1.00  0.00     0.012 C 
ATOM     20  C   UNL     1       9.017   6.613  36.948  1.00  0.00    -0.025 C 
ATOM     21  C   UNL     1      11.229   7.805  37.455  1.00  0.00     0.005 C 
ATOM     22  C   UNL     1      10.456   6.943  36.426  1.00  0.00     0.003 C 
ATOM     23  C   UNL     1       8.215   5.758  35.904  1.00  0.00     0.010 C 
ATOM     24  C   UNL     1       9.146   5.625  38.166  1.00  0.00     0.012 C 
ATOM     25  C   UNL     1      10.667   7.327  34.876  1.00  0.00    -0.006 C 
ATOM     26  C   UNL     1       8.478   5.952  34.394  1.00  0.00     0.033 C 
ATOM     27  C   UNL     1       9.413   7.088  33.952  1.00  0.00     0.120 C 
ATOM     28  C   UNL     1      11.155   8.788  34.641  1.00  0.00     0.014 C 
ATOM     29  C   UNL     1      11.814   6.425  34.323  1.00  0.00     0.014 C 
ENDROOT
BRANCH   1  30
ATOM     30  C   UNL     1       9.460  14.498  37.505  1.00  0.00     0.048 C 
ATOM     31  O   UNL     1      10.634  14.225  37.140  1.00  0.00    -0.550 OA
ATOM     32  O   UNL     1       9.140  15.822  37.807  1.00  0.00    -0.550 OA
ENDBRANCH   1  30
BRANCH  27  33
ATOM     33  O   UNL     1       8.673   8.265  33.733  1.00  0.00    -0.393 OA
ATOM     34  H   UNL     1       7.807   8.002  33.329  1.00  0.00     0.210 HD
ENDBRANCH  27  33
TORSDOF 2
ENDMDL
MODEL 7
REMARK VINA RESULT:    -7.043      2.320      4.419
REMARK INTER + INTRA:          -7.470
REMARK INTER:                  -7.283
REMARK INTRA:                  -0.187
REMARK UNBOUND:                 0.190
REMARK SMILES CC1(C)CC[C@@]2(C(=O)[O-])CC[C@@]3(C)C(=CC[C@H]4[C@@]5(C)CC[C@@H](O)C(C)(C)[C@H]5CC[C@]43C)[C@H]2C1
REMARK SMILES IDX 6 1 5 2 10 3 32 4 4 5 11 6 14 7 33 8 2 9 12 10 15 11 1 12
REMARK SMILES IDX 3 13 13 14 30 15 16 16 17 17 29 18 31 19 18 20 28 21 27 22
REMARK SMILES IDX 20 23 19 24 24 25 21 26 22 27 25 28 26 29 7 30 8 31 9 32
REMARK SMILES IDX 23 33
REMARK H PARENT 23 34
REMARK Flexibility Score: inf
ROOT
ATOM      1  C   UNL     1       8.606   8.073  37.752  1.00  0.00     0.017 C 
ATOM      2  C   UNL     1       9.453   9.028  38.667  1.00  0.00     0.014 C 
ATOM      3  C   UNL     1       8.304   6.775  38.575  1.00  0.00     0.014 C 
ATOM      4  C   UNL     1       7.291   8.796  37.261  1.00  0.00     0.028 C 
ATOM      5  C   UNL     1       9.703  10.441  38.102  1.00  0.00     0.007 C 
ATOM      6  C   UNL     1       6.836   6.333  38.499  1.00  0.00     0.013 C 
ATOM      7  C   UNL     1       6.126   8.730  38.273  1.00  0.00    -0.064 C 
ATOM      8  C   UNL     1       7.627  10.200  36.672  1.00  0.00     0.015 C 
ATOM      9  C   UNL     1       8.416  11.145  37.617  1.00  0.00    -0.035 C 
ATOM     10  C   UNL     1       5.855   7.430  39.054  1.00  0.00    -0.006 C 
ATOM     11  C   UNL     1       5.150   9.656  38.270  1.00  0.00    -0.027 C 
ATOM     12  C   UNL     1       7.575  11.606  38.830  1.00  0.00     0.011 C 
ATOM     13  C   UNL     1       8.804  12.408  36.808  1.00  0.00     0.011 C 
ATOM     14  C   UNL     1       6.188   7.643  40.567  1.00  0.00     0.017 C 
ATOM     15  C   UNL     1       4.299   7.017  38.874  1.00  0.00    -0.020 C 
ATOM     16  C   UNL     1       4.020   9.621  39.247  1.00  0.00     0.032 C 
ATOM     17  C   UNL     1       3.328   8.227  39.316  1.00  0.00     0.006 C 
ATOM     18  C   UNL     1       4.047   6.648  37.370  1.00  0.00     0.008 C 
ATOM     19  C   UNL     1       4.005   5.743  39.749  1.00  0.00     0.012 C 
ATOM     20  C   UNL     1       1.828   8.185  38.760  1.00  0.00    -0.025 C 
ATOM     21  C   UNL     1       2.577   6.548  36.935  1.00  0.00     0.005 C 
ATOM     22  C   UNL     1       1.740   7.815  37.240  1.00  0.00     0.003 C 
ATOM     23  C   UNL     1       1.002   9.481  39.078  1.00  0.00     0.010 C 
ATOM     24  C   UNL     1       1.062   7.085  39.583  1.00  0.00     0.012 C 
ATOM     25  C   UNL     1       1.794   8.986  36.135  1.00  0.00    -0.006 C 
ATOM     26  C   UNL     1       0.868  10.586  38.006  1.00  0.00     0.033 C 
ATOM     27  C   UNL     1       1.679  10.450  36.708  1.00  0.00     0.120 C 
ATOM     28  C   UNL     1       3.051   8.937  35.215  1.00  0.00     0.014 C 
ATOM     29  C   UNL     1       0.582   8.780  35.175  1.00  0.00     0.014 C 
ENDROOT
BRANCH   1  30
ATOM     30  C   UNL     1       9.400   7.642  36.513  1.00  0.00     0.048 C 
ATOM     31  O   UNL     1       8.819   7.241  35.470  1.00  0.00    -0.550 OA
ATOM     32  O   UNL     1      10.795   7.643  36.548  1.00  0.00    -0.550 OA
ENDBRANCH   1  30
BRANCH  27  33
ATOM     33  O   UNL     1       2.933  11.071  36.854  1.00  0.00    -0.393 OA
ATOM     34  H   UNL     1       3.587  10.553  36.319  1.00  0.00     0.210 HD
ENDBRANCH  27  33
TORSDOF 2
ENDMDL
MODEL 8
REMARK VINA RESULT:    -7.026     12.983     15.777
REMARK INTER + INTRA:          -7.451
REMARK INTER:                  -7.289
REMARK INTRA:                  -0.162
REMARK UNBOUND:                 0.190
REMARK SMILES CC1(C)CC[C@@]2(C(=O)[O-])CC[C@@]3(C)C(=CC[C@H]4[C@@]5(C)CC[C@@H](O)C(C)(C)[C@H]5CC[C@]43C)[C@H]2C1
REMARK SMILES IDX 6 1 5 2 10 3 32 4 4 5 11 6 14 7 33 8 2 9 12 10 15 11 1 12
REMARK SMILES IDX 3 13 13 14 30 15 16 16 17 17 29 18 31 19 18 20 28 21 27 22
REMARK SMILES IDX 20 23 19 24 24 25 21 26 22 27 25 28 26 29 7 30 8 31 9 32
REMARK SMILES IDX 23 33
REMARK H PARENT 23 34
REMARK Flexibility Score: inf
ROOT
ATOM      1  C   UNL     1      11.054  15.281  23.291  1.00  0.00     0.017 C 
ATOM      2  C   UNL     1      12.287  15.859  22.508  1.00  0.00     0.014 C 
ATOM      3  C   UNL     1      10.242  14.382  22.299  1.00  0.00     0.014 C 
ATOM      4  C   UNL     1      11.532  14.488  24.571  1.00  0.00     0.028 C 
ATOM      5  C   UNL     1      13.315  16.630  23.361  1.00  0.00     0.007 C 
ATOM      6  C   UNL     1       9.849  13.022  22.890  1.00  0.00     0.013 C 
ATOM      7  C   UNL     1      11.935  13.025  24.285  1.00  0.00    -0.064 C 
ATOM      8  C   UNL     1      12.539  15.342  25.398  1.00  0.00     0.015 C 
ATOM      9  C   UNL     1      13.777  15.854  24.615  1.00  0.00    -0.035 C 
ATOM     10  C   UNL     1      11.103  12.170  23.311  1.00  0.00    -0.006 C 
ATOM     11  C   UNL     1      12.796  12.373  25.087  1.00  0.00    -0.027 C 
ATOM     12  C   UNL     1      14.734  14.711  24.208  1.00  0.00     0.011 C 
ATOM     13  C   UNL     1      14.561  16.815  25.543  1.00  0.00     0.011 C 
ATOM     14  C   UNL     1      11.934  11.880  22.018  1.00  0.00     0.017 C 
ATOM     15  C   UNL     1      10.693  10.782  24.038  1.00  0.00    -0.020 C 
ATOM     16  C   UNL     1      13.212  10.962  24.825  1.00  0.00     0.032 C 
ATOM     17  C   UNL     1      12.001  10.012  24.585  1.00  0.00     0.006 C 
ATOM     18  C   UNL     1       9.723  11.105  25.228  1.00  0.00     0.008 C 
ATOM     19  C   UNL     1       9.925   9.875  23.009  1.00  0.00     0.012 C 
ATOM     20  C   UNL     1      11.764   8.913  25.724  1.00  0.00    -0.025 C 
ATOM     21  C   UNL     1       9.484   9.969  26.234  1.00  0.00     0.005 C 
ATOM     22  C   UNL     1      10.781   9.386  26.848  1.00  0.00     0.003 C 
ATOM     23  C   UNL     1      13.092   8.341  26.334  1.00  0.00     0.010 C 
ATOM     24  C   UNL     1      11.142   7.649  25.023  1.00  0.00     0.012 C 
ATOM     25  C   UNL     1      11.365  10.156  28.138  1.00  0.00    -0.006 C 
ATOM     26  C   UNL     1      13.635   8.917  27.661  1.00  0.00     0.033 C 
ATOM     27  C   UNL     1      12.935  10.142  28.269  1.00  0.00     0.120 C 
ATOM     28  C   UNL     1      10.894  11.636  28.265  1.00  0.00     0.014 C 
ATOM     29  C   UNL     1      10.799   9.442  29.404  1.00  0.00     0.014 C 
ENDROOT
BRANCH   1  30
ATOM     30  C   UNL     1      10.114  16.401  23.753  1.00  0.00     0.048 C 
ATOM     31  O   UNL     1      10.036  17.490  23.125  1.00  0.00    -0.550 OA
ATOM     32  O   UNL     1       9.366  16.242  24.919  1.00  0.00    -0.550 OA
ENDBRANCH   1  30
BRANCH  27  33
ATOM     33  O   UNL     1      13.527  11.325  27.788  1.00  0.00    -0.393 OA
ATOM     34  H   UNL     1      13.043  11.587  26.964  1.00  0.00     0.210 HD
ENDBRANCH  27  33
TORSDOF 2
ENDMDL
MODEL 9
REMARK VINA RESULT:    -6.778     13.889     17.060
REMARK INTER + INTRA:          -7.183
REMARK INTER:                  -6.994
REMARK INTRA:                  -0.189
REMARK UNBOUND:                 0.190
REMARK SMILES CC1(C)CC[C@@]2(C(=O)[O-])CC[C@@]3(C)C(=CC[C@H]4[C@@]5(C)CC[C@@H](O)C(C)(C)[C@H]5CC[C@]43C)[C@H]2C1
REMARK SMILES IDX 6 1 5 2 10 3 32 4 4 5 11 6 14 7 33 8 2 9 12 10 15 11 1 12
REMARK SMILES IDX 3 13 13 14 30 15 16 16 17 17 29 18 31 19 18 20 28 21 27 22
REMARK SMILES IDX 20 23 19 24 24 25 21 26 22 27 25 28 26 29 7 30 8 31 9 32
REMARK SMILES IDX 23 33
REMARK H PARENT 23 34
REMARK Flexibility Score: inf
ROOT
ATOM      1  C   UNL     1      12.669  11.026  25.672  1.00  0.00     0.017 C 
ATOM      2  C   UNL     1      12.412   9.594  25.079  1.00  0.00     0.014 C 
ATOM      3  C   UNL     1      13.995  11.569  25.040  1.00  0.00     0.014 C 
ATOM      4  C   UNL     1      11.435  11.971  25.391  1.00  0.00     0.028 C 
ATOM      5  C   UNL     1      11.055   8.957  25.441  1.00  0.00     0.007 C 
ATOM      6  C   UNL     1      13.881  13.011  24.530  1.00  0.00     0.013 C 
ATOM      7  C   UNL     1      11.459  12.632  23.995  1.00  0.00    -0.064 C 
ATOM      8  C   UNL     1      10.106  11.275  25.813  1.00  0.00     0.015 C 
ATOM      9  C   UNL     1       9.850   9.887  25.170  1.00  0.00    -0.035 C 
ATOM     10  C   UNL     1      12.782  13.164  23.415  1.00  0.00    -0.006 C 
ATOM     11  C   UNL     1      10.323  13.042  23.402  1.00  0.00    -0.027 C 
ATOM     12  C   UNL     1       9.582   9.978  23.651  1.00  0.00     0.011 C 
ATOM     13  C   UNL     1       8.587   9.282  25.834  1.00  0.00     0.011 C 
ATOM     14  C   UNL     1      13.217  12.284  22.197  1.00  0.00     0.017 C 
ATOM     15  C   UNL     1      12.580  14.703  22.951  1.00  0.00    -0.020 C 
ATOM     16  C   UNL     1      10.318  13.671  22.047  1.00  0.00     0.032 C 
ATOM     17  C   UNL     1      11.346  14.834  21.920  1.00  0.00     0.006 C 
ATOM     18  C   UNL     1      12.311  15.580  24.224  1.00  0.00     0.008 C 
ATOM     19  C   UNL     1      13.905  15.210  22.274  1.00  0.00     0.012 C 
ATOM     20  C   UNL     1      10.706  16.292  21.748  1.00  0.00    -0.025 C 
ATOM     21  C   UNL     1      11.774  16.997  23.969  1.00  0.00     0.005 C 
ATOM     22  C   UNL     1      10.487  17.038  23.108  1.00  0.00     0.003 C 
ATOM     23  C   UNL     1       9.402  16.307  20.875  1.00  0.00     0.010 C 
ATOM     24  C   UNL     1      11.707  17.135  20.875  1.00  0.00     0.012 C 
ATOM     25  C   UNL     1       9.096  16.852  23.898  1.00  0.00    -0.006 C 
ATOM     26  C   UNL     1       8.019  16.296  21.565  1.00  0.00     0.033 C 
ATOM     27  C   UNL     1       7.961  16.115  23.090  1.00  0.00     0.120 C 
ATOM     28  C   UNL     1       9.235  16.135  25.275  1.00  0.00     0.014 C 
ATOM     29  C   UNL     1       8.557  18.276  24.237  1.00  0.00     0.014 C 
ENDROOT
BRANCH   1  30
ATOM     30  C   UNL     1      12.885  10.969  27.188  1.00  0.00     0.048 C 
ATOM     31  O   UNL     1      12.681  11.975  27.917  1.00  0.00    -0.550 OA
ATOM     32  O   UNL     1      13.368   9.799  27.777  1.00  0.00    -0.550 OA
ENDBRANCH   1  30
BRANCH  27  33
ATOM     33  O   UNL     1       7.871  14.749  23.412  1.00  0.00    -0.393 OA
ATOM     34  H   UNL     1       8.457  14.587  24.193  1.00  0.00     0.210 HD
ENDBRANCH  27  33
TORSDOF 2
ENDMDL
