MODEL 1
REMARK VINA RESULT:    -3.822      0.000      0.000
REMARK INTER + INTRA:          -4.639
REMARK INTER:                  -4.381
REMARK INTRA:                  -0.259
REMARK UNBOUND:                -0.259
REMARK SMILES CC=Cc1ccc(O)c(OC)c1
REMARK SMILES IDX 4 1 12 2 9 3 7 4 6 5 5 6 3 7 1 8 2 9 10 10 11 11 8 12
REMARK H PARENT 8 13
REMARK Flexibility Score: inf
ROOT
ATOM      1  C   UNL     1     -21.558  23.546  12.791  1.00  0.00    -0.022 A 
ATOM      2  C   UNL     1     -22.313  23.280  13.946  1.00  0.00     0.058 A 
ATOM      3  C   UNL     1     -21.737  23.415  15.226  1.00  0.00     0.161 A 
ATOM      4  C   UNL     1     -20.387  23.797  15.333  1.00  0.00     0.157 A 
ATOM      5  C   UNL     1     -19.630  24.029  14.181  1.00  0.00     0.051 A 
ATOM      6  C   UNL     1     -20.209  23.896  12.917  1.00  0.00     0.012 A 
ENDROOT
BRANCH   1   7
ATOM      7  C   UNL     1     -22.138  23.389  11.441  1.00  0.00     0.003 C 
ATOM      8  C   UNL     1     -22.882  25.777  11.250  1.00  0.00     0.035 C 
ATOM      9  C   UNL     1     -22.747  24.368  10.757  1.00  0.00    -0.030 C 
ENDBRANCH   1   7
BRANCH   3  10
ATOM     10  O   UNL     1     -22.469  23.174  16.399  1.00  0.00    -0.493 OA
ATOM     11  C   UNL     1     -23.352  24.112  17.007  1.00  0.00     0.278 C 
ENDBRANCH   3  10
BRANCH   4  12
ATOM     12  O   UNL     1     -19.778  23.946  16.579  1.00  0.00    -0.504 OA
ATOM     13  H   UNL     1     -19.821  23.227  17.291  1.00  0.00     0.293 HD
ENDBRANCH   4  12
TORSDOF 3
ENDMDL
MODEL 2
REMARK VINA RESULT:    -3.739      2.279      3.865
REMARK INTER + INTRA:          -4.544
REMARK INTER:                  -4.419
REMARK INTRA:                  -0.125
REMARK UNBOUND:                -0.259
REMARK SMILES CC=Cc1ccc(O)c(OC)c1
REMARK SMILES IDX 4 1 12 2 9 3 7 4 6 5 5 6 3 7 1 8 2 9 10 10 11 11 8 12
REMARK H PARENT 8 13
REMARK Flexibility Score: inf
ROOT
ATOM      1  C   UNL     1     -22.746  24.364  10.012  1.00  0.00    -0.022 A 
ATOM      2  C   UNL     1     -21.622  24.384  10.854  1.00  0.00     0.058 A 
ATOM      3  C   UNL     1     -21.739  24.038  12.216  1.00  0.00     0.161 A 
ATOM      4  C   UNL     1     -23.003  23.693  12.730  1.00  0.00     0.157 A 
ATOM      5  C   UNL     1     -24.125  23.706  11.896  1.00  0.00     0.051 A 
ATOM      6  C   UNL     1     -24.000  24.048  10.548  1.00  0.00     0.012 A 
ENDROOT
BRANCH   1   7
ATOM      7  C   UNL     1     -22.648  24.745   8.589  1.00  0.00     0.003 C 
ATOM      8  C   UNL     1     -23.767  26.971   8.887  1.00  0.00     0.035 C 
ATOM      9  C   UNL     1     -23.117  25.891   8.075  1.00  0.00    -0.030 C 
ENDBRANCH   1   7
BRANCH   3  10
ATOM     10  O   UNL     1     -20.632  24.031  13.079  1.00  0.00    -0.493 OA
ATOM     11  C   UNL     1     -19.741  22.931  13.241  1.00  0.00     0.278 C 
ENDBRANCH   3  10
BRANCH   4  12
ATOM     12  O   UNL     1     -23.164  23.340  14.069  1.00  0.00    -0.504 OA
ATOM     13  H   UNL     1     -23.741  23.879  14.704  1.00  0.00     0.293 HD
ENDBRANCH   4  12
TORSDOF 3
ENDMDL
MODEL 3
REMARK VINA RESULT:    -3.560      7.660      9.800
REMARK INTER + INTRA:          -4.339
REMARK INTER:                  -4.085
REMARK INTRA:                  -0.254
REMARK UNBOUND:                -0.259
REMARK SMILES CC=Cc1ccc(O)c(OC)c1
REMARK SMILES IDX 4 1 12 2 9 3 7 4 6 5 5 6 3 7 1 8 2 9 10 10 11 11 8 12
REMARK H PARENT 8 13
REMARK Flexibility Score: inf
ROOT
ATOM      1  C   UNL     1     -20.197  29.347  20.759  1.00  0.00    -0.022 A 
ATOM      2  C   UNL     1     -21.118  30.262  21.298  1.00  0.00     0.058 A 
ATOM      3  C   UNL     1     -22.440  30.319  20.812  1.00  0.00     0.161 A 
ATOM      4  C   UNL     1     -22.823  29.462  19.763  1.00  0.00     0.157 A 
ATOM      5  C   UNL     1     -21.895  28.577  19.208  1.00  0.00     0.051 A 
ATOM      6  C   UNL     1     -20.588  28.525  19.696  1.00  0.00     0.012 A 
ENDROOT
BRANCH   1   7
ATOM      7  C   UNL     1     -18.802  29.289  21.240  1.00  0.00     0.003 C 
ATOM      8  C   UNL     1     -19.219  27.438  22.881  1.00  0.00     0.035 C 
ATOM      9  C   UNL     1     -18.362  28.459  22.197  1.00  0.00    -0.030 C 
ENDBRANCH   1   7
BRANCH   3  10
ATOM     10  O   UNL     1     -23.389  31.209  21.340  1.00  0.00    -0.493 OA
ATOM     11  C   UNL     1     -23.532  32.568  20.940  1.00  0.00     0.278 C 
ENDBRANCH   3  10
BRANCH   4  12
ATOM     12  O   UNL     1     -24.121  29.482  19.254  1.00  0.00    -0.504 OA
ATOM     13  H   UNL     1     -24.622  28.633  19.018  1.00  0.00     0.293 HD
ENDBRANCH   4  12
TORSDOF 3
ENDMDL
MODEL 4
REMARK VINA RESULT:    -3.471      7.659      9.773
REMARK INTER + INTRA:          -4.236
REMARK INTER:                  -4.026
REMARK INTRA:                  -0.210
REMARK UNBOUND:                -0.259
REMARK SMILES CC=Cc1ccc(O)c(OC)c1
REMARK SMILES IDX 4 1 12 2 9 3 7 4 6 5 5 6 3 7 1 8 2 9 10 10 11 11 8 12
REMARK H PARENT 8 13
REMARK Flexibility Score: inf
ROOT
ATOM      1  C   UNL     1     -20.081  29.783  21.660  1.00  0.00    -0.022 A 
ATOM      2  C   UNL     1     -21.373  29.340  21.988  1.00  0.00     0.058 A 
ATOM      3  C   UNL     1     -22.180  28.701  21.024  1.00  0.00     0.161 A 
ATOM      4  C   UNL     1     -21.684  28.533  19.718  1.00  0.00     0.157 A 
ATOM      5  C   UNL     1     -20.411  29.004  19.386  1.00  0.00     0.051 A 
ATOM      6  C   UNL     1     -19.617  29.634  20.347  1.00  0.00     0.012 A 
ENDROOT
BRANCH   1   7
ATOM      7  C   UNL     1     -19.230  30.474  22.650  1.00  0.00     0.003 C 
ATOM      8  C   UNL     1     -17.771  28.483  23.100  1.00  0.00     0.035 C 
ATOM      9  C   UNL     1     -18.215  29.900  23.311  1.00  0.00    -0.030 C 
ENDBRANCH   1   7
BRANCH   3  10
ATOM     10  O   UNL     1     -23.468  28.231  21.326  1.00  0.00    -0.493 OA
ATOM     11  C   UNL     1     -23.746  26.981  21.950  1.00  0.00     0.278 C 
ENDBRANCH   3  10
BRANCH   4  12
ATOM     12  O   UNL     1     -22.446  27.904  18.734  1.00  0.00    -0.504 OA
ATOM     13  H   UNL     1     -22.394  26.906  18.566  1.00  0.00     0.293 HD
ENDBRANCH   4  12
TORSDOF 3
ENDMDL
MODEL 5
REMARK VINA RESULT:    -3.445      1.310      2.713
REMARK INTER + INTRA:          -4.207
REMARK INTER:                  -3.977
REMARK INTRA:                  -0.230
REMARK UNBOUND:                -0.259
REMARK SMILES CC=Cc1ccc(O)c(OC)c1
REMARK SMILES IDX 4 1 12 2 9 3 7 4 6 5 5 6 3 7 1 8 2 9 10 10 11 11 8 12
REMARK H PARENT 8 13
REMARK Flexibility Score: inf
ROOT
ATOM      1  C   UNL     1     -23.067  23.612  12.070  1.00  0.00    -0.022 A 
ATOM      2  C   UNL     1     -21.752  23.468  12.546  1.00  0.00     0.058 A 
ATOM      3  C   UNL     1     -21.498  23.346  13.927  1.00  0.00     0.161 A 
ATOM      4  C   UNL     1     -22.577  23.393  14.829  1.00  0.00     0.157 A 
ATOM      5  C   UNL     1     -23.880  23.570  14.355  1.00  0.00     0.051 A 
ATOM      6  C   UNL     1     -24.123  23.688  12.985  1.00  0.00     0.012 A 
ENDROOT
BRANCH   1   7
ATOM      7  C   UNL     1     -23.351  23.764  10.629  1.00  0.00     0.003 C 
ATOM      8  C   UNL     1     -22.931  26.237  10.589  1.00  0.00     0.035 C 
ATOM      9  C   UNL     1     -23.314  24.929   9.966  1.00  0.00    -0.030 C 
ENDBRANCH   1   7
BRANCH   3  10
ATOM     10  O   UNL     1     -20.199  23.182  14.432  1.00  0.00    -0.493 OA
ATOM     11  C   UNL     1     -19.284  24.248  14.670  1.00  0.00     0.278 C 
ENDBRANCH   3  10
BRANCH   4  12
ATOM     12  O   UNL     1     -22.372  23.273  16.204  1.00  0.00    -0.504 OA
ATOM     13  H   UNL     1     -23.030  23.638  16.882  1.00  0.00     0.293 HD
ENDBRANCH   4  12
TORSDOF 3
ENDMDL
MODEL 6
REMARK VINA RESULT:    -3.294      8.817     11.003
REMARK INTER + INTRA:          -4.034
REMARK INTER:                  -3.976
REMARK INTRA:                  -0.058
REMARK UNBOUND:                -0.259
REMARK SMILES CC=Cc1ccc(O)c(OC)c1
REMARK SMILES IDX 4 1 12 2 9 3 7 4 6 5 5 6 3 7 1 8 2 9 10 10 11 11 8 12
REMARK H PARENT 8 13
REMARK Flexibility Score: inf
ROOT
ATOM      1  C   UNL     1     -22.293  32.380  21.589  1.00  0.00    -0.022 A 
ATOM      2  C   UNL     1     -21.550  31.197  21.441  1.00  0.00     0.058 A 
ATOM      3  C   UNL     1     -22.080  30.101  20.731  1.00  0.00     0.161 A 
ATOM      4  C   UNL     1     -23.376  30.196  20.190  1.00  0.00     0.157 A 
ATOM      5  C   UNL     1     -24.125  31.362  20.367  1.00  0.00     0.051 A 
ATOM      6  C   UNL     1     -23.592  32.445  21.070  1.00  0.00     0.012 A 
ENDROOT
BRANCH   1   7
ATOM      7  C   UNL     1     -21.764  33.531  22.349  1.00  0.00     0.003 C 
ATOM      8  C   UNL     1     -21.765  35.098  20.389  1.00  0.00     0.035 C 
ATOM      9  C   UNL     1     -21.506  34.736  21.820  1.00  0.00    -0.030 C 
ENDBRANCH   1   7
BRANCH   3  10
ATOM     10  O   UNL     1     -21.356  28.912  20.551  1.00  0.00    -0.493 OA
ATOM     11  C   UNL     1     -20.376  28.709  19.537  1.00  0.00     0.278 C 
ENDBRANCH   3  10
BRANCH   4  12
ATOM     12  O   UNL     1     -23.938  29.137  19.477  1.00  0.00    -0.504 OA
ATOM     13  H   UNL     1     -24.566  28.469  19.908  1.00  0.00     0.293 HD
ENDBRANCH   4  12
TORSDOF 3
ENDMDL
MODEL 7
REMARK VINA RESULT:    -3.287      7.428      9.336
REMARK INTER + INTRA:          -4.026
REMARK INTER:                  -3.802
REMARK INTRA:                  -0.223
REMARK UNBOUND:                -0.259
REMARK SMILES CC=Cc1ccc(O)c(OC)c1
REMARK SMILES IDX 4 1 12 2 9 3 7 4 6 5 5 6 3 7 1 8 2 9 10 10 11 11 8 12
REMARK H PARENT 8 13
REMARK Flexibility Score: inf
ROOT
ATOM      1  C   UNL     1     -19.233  28.544  21.310  1.00  0.00    -0.022 A 
ATOM      2  C   UNL     1     -20.046  27.426  21.564  1.00  0.00     0.058 A 
ATOM      3  C   UNL     1     -21.164  27.153  20.751  1.00  0.00     0.161 A 
ATOM      4  C   UNL     1     -21.473  28.028  19.692  1.00  0.00     0.157 A 
ATOM      5  C   UNL     1     -20.681  29.156  19.463  1.00  0.00     0.051 A 
ATOM      6  C   UNL     1     -19.573  29.418  20.272  1.00  0.00     0.012 A 
ENDROOT
BRANCH   1   7
ATOM      7  C   UNL     1     -18.070  28.859  22.164  1.00  0.00     0.003 C 
ATOM      8  C   UNL     1     -19.322  30.444  23.652  1.00  0.00     0.035 C 
ATOM      9  C   UNL     1     -18.094  29.718  23.193  1.00  0.00    -0.030 C 
ENDBRANCH   1   7
BRANCH   3  10
ATOM     10  O   UNL     1     -21.985  26.035  20.967  1.00  0.00    -0.493 OA
ATOM     11  C   UNL     1     -23.043  25.982  21.920  1.00  0.00     0.278 C 
ENDBRANCH   3  10
BRANCH   4  12
ATOM     12  O   UNL     1     -22.568  27.794  18.861  1.00  0.00    -0.504 OA
ATOM     13  H   UNL     1     -23.090  26.926  18.886  1.00  0.00     0.293 HD
ENDBRANCH   4  12
TORSDOF 3
ENDMDL
MODEL 8
REMARK VINA RESULT:    -3.250      7.605      8.725
REMARK INTER + INTRA:          -3.984
REMARK INTER:                  -3.727
REMARK INTRA:                  -0.257
REMARK UNBOUND:                -0.259
REMARK SMILES CC=Cc1ccc(O)c(OC)c1
REMARK SMILES IDX 4 1 12 2 9 3 7 4 6 5 5 6 3 7 1 8 2 9 10 10 11 11 8 12
REMARK H PARENT 8 13
REMARK Flexibility Score: inf
ROOT
ATOM      1  C   UNL     1     -19.981  28.410  20.282  1.00  0.00    -0.022 A 
ATOM      2  C   UNL     1     -19.650  27.076  20.575  1.00  0.00     0.058 A 
ATOM      3  C   UNL     1     -18.759  26.772  21.623  1.00  0.00     0.161 A 
ATOM      4  C   UNL     1     -18.183  27.823  22.361  1.00  0.00     0.157 A 
ATOM      5  C   UNL     1     -18.489  29.150  22.045  1.00  0.00     0.051 A 
ATOM      6  C   UNL     1     -19.375  29.443  21.006  1.00  0.00     0.012 A 
ENDROOT
BRANCH   1   7
ATOM      7  C   UNL     1     -20.896  28.749  19.173  1.00  0.00     0.003 C 
ATOM      8  C   UNL     1     -22.978  28.617  20.566  1.00  0.00     0.035 C 
ATOM      9  C   UNL     1     -22.230  28.823  19.283  1.00  0.00    -0.030 C 
ENDBRANCH   1   7
BRANCH   3  10
ATOM     10  O   UNL     1     -18.422  25.450  21.953  1.00  0.00    -0.493 OA
ATOM     11  C   UNL     1     -17.517  24.638  21.211  1.00  0.00     0.278 C 
ENDBRANCH   3  10
BRANCH   4  12
ATOM     12  O   UNL     1     -17.299  27.568  23.409  1.00  0.00    -0.504 OA
ATOM     13  H   UNL     1     -16.339  27.891  23.397  1.00  0.00     0.293 HD
ENDBRANCH   4  12
TORSDOF 3
ENDMDL
MODEL 9
REMARK VINA RESULT:    -3.188      9.867     11.731
REMARK INTER + INTRA:          -3.913
REMARK INTER:                  -3.707
REMARK INTRA:                  -0.206
REMARK UNBOUND:                -0.259
REMARK SMILES CC=Cc1ccc(O)c(OC)c1
REMARK SMILES IDX 4 1 12 2 9 3 7 4 6 5 5 6 3 7 1 8 2 9 10 10 11 11 8 12
REMARK H PARENT 8 13
REMARK Flexibility Score: inf
ROOT
ATOM      1  C   UNL     1     -21.933  32.694  22.072  1.00  0.00    -0.022 A 
ATOM      2  C   UNL     1     -21.503  31.485  21.500  1.00  0.00     0.058 A 
ATOM      3  C   UNL     1     -20.342  30.841  21.972  1.00  0.00     0.161 A 
ATOM      4  C   UNL     1     -19.601  31.436  23.010  1.00  0.00     0.157 A 
ATOM      5  C   UNL     1     -20.013  32.655  23.554  1.00  0.00     0.051 A 
ATOM      6  C   UNL     1     -21.166  33.286  23.083  1.00  0.00     0.012 A 
ENDROOT
BRANCH   1   7
ATOM      7  C   UNL     1     -23.135  33.395  21.577  1.00  0.00     0.003 C 
ATOM      8  C   UNL     1     -21.875  34.885  19.998  1.00  0.00     0.035 C 
ATOM      9  C   UNL     1     -23.118  34.385  20.672  1.00  0.00    -0.030 C 
ENDBRANCH   1   7
BRANCH   3  10
ATOM     10  O   UNL     1     -19.896  29.623  21.433  1.00  0.00    -0.493 OA
ATOM     11  C   UNL     1     -20.000  29.261  20.060  1.00  0.00     0.278 C 
ENDBRANCH   3  10
BRANCH   4  12
ATOM     12  O   UNL     1     -18.448  30.831  23.510  1.00  0.00    -0.504 OA
ATOM     13  H   UNL     1     -18.144  30.957  24.468  1.00  0.00     0.293 HD
ENDBRANCH   4  12
TORSDOF 3
ENDMDL
