MODEL 1
REMARK VINA RESULT:    -4.383      0.000      0.000
REMARK INTER + INTRA:         -13.230
REMARK INTER:                  -9.508
REMARK INTRA:                  -3.722
REMARK UNBOUND:                -3.722
REMARK SMILES CCCCCCCCCCCCCCCCCCCCCC(=O)[O-]
REMARK SMILES IDX 12 1 11 2 10 3 9 4 8 5 7 6 6 7 5 8 4 9 3 10 2 11 1 12 13 13
REMARK SMILES IDX 14 14 15 15 16 16 17 17 18 18 19 19 20 20 21 21 22 22 23 23
REMARK SMILES IDX 24 24
REMARK H PARENT
REMARK Flexibility Score: inf
ROOT
ATOM      1  C   UNL     1     -10.499   2.714  22.912  1.00  0.00     0.000 C 
ENDROOT
BRANCH   1   2
ATOM      2  C   UNL     1      -9.614   1.457  23.037  1.00  0.00     0.000 C 
BRANCH   2   3
ATOM      3  C   UNL     1     -10.351   0.119  22.845  1.00  0.00     0.000 C 
BRANCH   3   4
ATOM      4  C   UNL     1     -11.556   0.239  21.899  1.00  0.00    -0.000 C 
BRANCH   4   5
ATOM      5  C   UNL     1     -11.309  -0.399  20.519  1.00  0.00    -0.000 C 
BRANCH   5   6
ATOM      6  C   UNL     1     -10.027  -1.248  20.400  1.00  0.00    -0.000 C 
BRANCH   6   7
ATOM      7  C   UNL     1      -8.871  -0.584  19.630  1.00  0.00    -0.000 C 
BRANCH   7   8
ATOM      8  C   UNL     1      -9.332   0.592  18.756  1.00  0.00    -0.000 C 
BRANCH   8   9
ATOM      9  C   UNL     1      -8.687   1.905  19.220  1.00  0.00    -0.000 C 
BRANCH   9  10
ATOM     10  C   UNL     1      -8.590   2.955  18.101  1.00  0.00    -0.000 C 
BRANCH  10  11
ATOM     11  C   UNL     1      -8.057   4.320  18.579  1.00  0.00    -0.003 C 
ATOM     12  C   UNL     1      -6.967   4.179  19.643  1.00  0.00     0.004 C 
ENDBRANCH  10  11
ENDBRANCH   9  10
ENDBRANCH   8   9
ENDBRANCH   7   8
ENDBRANCH   6   7
ENDBRANCH   5   6
ENDBRANCH   4   5
ENDBRANCH   3   4
ENDBRANCH   2   3
ENDBRANCH   1   2
BRANCH   1  13
ATOM     13  C   UNL     1     -10.084   3.694  21.798  1.00  0.00     0.000 C 
BRANCH  13  14
ATOM     14  C   UNL     1     -11.252   4.310  21.003  1.00  0.00     0.000 C 
BRANCH  14  15
ATOM     15  C   UNL     1     -12.003   3.330  20.078  1.00  0.00     0.000 C 
BRANCH  15  16
ATOM     16  C   UNL     1     -12.875   3.994  18.998  1.00  0.00     0.000 C 
BRANCH  16  17
ATOM     17  C   UNL     1     -12.064   4.892  18.048  1.00  0.00     0.000 C 
BRANCH  17  18
ATOM     18  C   UNL     1     -11.533   4.119  16.829  1.00  0.00     0.000 C 
BRANCH  18  19
ATOM     19  C   UNL     1     -12.463   2.970  16.373  1.00  0.00     0.000 C 
BRANCH  19  20
ATOM     20  C   UNL     1     -11.737   1.624  16.199  1.00  0.00     0.006 C 
BRANCH  20  21
ATOM     21  C   UNL     1     -10.511   1.693  15.278  1.00  0.00     0.053 C 
BRANCH  21  22
ATOM     22  C   UNL     1     -10.537   0.617  14.234  1.00  0.00     0.041 C 
ATOM     23  O   UNL     1      -9.461   0.149  13.777  1.00  0.00    -0.550 OA
ATOM     24  O   UNL     1     -11.751   0.113  13.786  1.00  0.00    -0.550 OA
ENDBRANCH  21  22
ENDBRANCH  20  21
ENDBRANCH  19  20
ENDBRANCH  18  19
ENDBRANCH  17  18
ENDBRANCH  16  17
ENDBRANCH  15  16
ENDBRANCH  14  15
ENDBRANCH  13  14
ENDBRANCH   1  13
TORSDOF 20
ENDMDL
MODEL 2
REMARK VINA RESULT:    -4.125      2.986      5.908
REMARK INTER + INTRA:         -12.669
REMARK INTER:                  -9.285
REMARK INTRA:                  -3.385
REMARK UNBOUND:                -3.722
REMARK SMILES CCCCCCCCCCCCCCCCCCCCCC(=O)[O-]
REMARK SMILES IDX 12 1 11 2 10 3 9 4 8 5 7 6 6 7 5 8 4 9 3 10 2 11 1 12 13 13
REMARK SMILES IDX 14 14 15 15 16 16 17 17 18 18 19 19 20 20 21 21 22 22 23 23
REMARK SMILES IDX 24 24
REMARK H PARENT
REMARK Flexibility Score: inf
ROOT
ATOM      1  C   UNL     1      -9.578  -1.166  20.535  1.00  0.00     0.000 C 
ENDROOT
BRANCH   1   2
ATOM      2  C   UNL     1      -8.812  -0.529  19.357  1.00  0.00     0.000 C 
BRANCH   2   3
ATOM      3  C   UNL     1      -9.522   0.660  18.684  1.00  0.00     0.000 C 
BRANCH   3   4
ATOM      4  C   UNL     1      -8.907   2.013  19.075  1.00  0.00    -0.000 C 
BRANCH   4   5
ATOM      5  C   UNL     1      -9.917   2.967  19.741  1.00  0.00    -0.000 C 
BRANCH   5   6
ATOM      6  C   UNL     1     -11.331   2.973  19.125  1.00  0.00    -0.000 C 
BRANCH   6   7
ATOM      7  C   UNL     1     -11.495   3.852  17.872  1.00  0.00    -0.000 C 
BRANCH   7   8
ATOM      8  C   UNL     1     -12.496   3.271  16.862  1.00  0.00    -0.000 C 
BRANCH   8   9
ATOM      9  C   UNL     1     -11.834   2.194  15.992  1.00  0.00    -0.000 C 
BRANCH   9  10
ATOM     10  C   UNL     1     -10.395   2.552  15.585  1.00  0.00    -0.000 C 
BRANCH  10  11
ATOM     11  C   UNL     1      -9.593   1.355  15.036  1.00  0.00    -0.003 C 
ATOM     12  C   UNL     1     -10.442   0.442  14.151  1.00  0.00     0.004 C 
ENDBRANCH  10  11
ENDBRANCH   9  10
ENDBRANCH   8   9
ENDBRANCH   7   8
ENDBRANCH   6   7
ENDBRANCH   5   6
ENDBRANCH   4   5
ENDBRANCH   3   4
ENDBRANCH   2   3
ENDBRANCH   1   2
BRANCH   1  13
ATOM     13  C   UNL     1      -9.110  -0.719  21.934  1.00  0.00     0.000 C 
BRANCH  13  14
ATOM     14  C   UNL     1     -10.029   0.300  22.634  1.00  0.00     0.000 C 
BRANCH  14  15
ATOM     15  C   UNL     1     -11.418   0.482  21.987  1.00  0.00     0.000 C 
BRANCH  15  16
ATOM     16  C   UNL     1     -12.565   0.756  22.975  1.00  0.00     0.000 C 
BRANCH  16  17
ATOM     17  C   UNL     1     -13.460   1.928  22.536  1.00  0.00     0.000 C 
BRANCH  17  18
ATOM     18  C   UNL     1     -13.133   3.227  23.292  1.00  0.00     0.000 C 
BRANCH  18  19
ATOM     19  C   UNL     1     -11.983   4.040  22.653  1.00  0.00     0.000 C 
BRANCH  19  20
ATOM     20  C   UNL     1     -12.312   5.533  22.474  1.00  0.00     0.006 C 
BRANCH  20  21
ATOM     21  C   UNL     1     -12.457   5.967  21.009  1.00  0.00     0.053 C 
BRANCH  21  22
ATOM     22  C   UNL     1     -13.859   5.785  20.509  1.00  0.00     0.041 C 
ATOM     23  O   UNL     1     -14.244   4.662  20.092  1.00  0.00    -0.550 OA
ATOM     24  O   UNL     1     -14.747   6.853  20.529  1.00  0.00    -0.550 OA
ENDBRANCH  21  22
ENDBRANCH  20  21
ENDBRANCH  19  20
ENDBRANCH  18  19
ENDBRANCH  17  18
ENDBRANCH  16  17
ENDBRANCH  15  16
ENDBRANCH  14  15
ENDBRANCH  13  14
ENDBRANCH   1  13
TORSDOF 20
ENDMDL
MODEL 3
REMARK VINA RESULT:    -4.122      1.354      3.715
REMARK INTER + INTRA:         -12.664
REMARK INTER:                  -8.730
REMARK INTRA:                  -3.934
REMARK UNBOUND:                -3.722
REMARK SMILES CCCCCCCCCCCCCCCCCCCCCC(=O)[O-]
REMARK SMILES IDX 12 1 11 2 10 3 9 4 8 5 7 6 6 7 5 8 4 9 3 10 2 11 1 12 13 13
REMARK SMILES IDX 14 14 15 15 16 16 17 17 18 18 19 19 20 20 21 21 22 22 23 23
REMARK SMILES IDX 24 24
REMARK H PARENT
REMARK Flexibility Score: inf
ROOT
ATOM      1  C   UNL     1      -8.724   2.262  19.236  1.00  0.00     0.000 C 
ENDROOT
BRANCH   1   2
ATOM      2  C   UNL     1      -9.125   0.774  19.292  1.00  0.00     0.000 C 
BRANCH   2   3
ATOM      3  C   UNL     1     -10.601   0.509  19.639  1.00  0.00     0.000 C 
BRANCH   3   4
ATOM      4  C   UNL     1     -10.766  -0.483  20.801  1.00  0.00    -0.000 C 
BRANCH   4   5
ATOM      5  C   UNL     1      -9.469  -0.693  21.606  1.00  0.00    -0.000 C 
BRANCH   5   6
ATOM      6  C   UNL     1      -9.490  -0.152  23.051  1.00  0.00    -0.000 C 
BRANCH   6   7
ATOM      7  C   UNL     1      -9.521   1.382  23.176  1.00  0.00    -0.000 C 
BRANCH   7   8
ATOM      8  C   UNL     1     -10.704   1.890  24.012  1.00  0.00    -0.000 C 
BRANCH   8   9
ATOM      9  C   UNL     1     -11.595   2.828  23.186  1.00  0.00    -0.000 C 
BRANCH   9  10
ATOM     10  C   UNL     1     -12.707   2.086  22.426  1.00  0.00    -0.000 C 
BRANCH  10  11
ATOM     11  C   UNL     1     -13.729   1.392  23.350  1.00  0.00    -0.003 C 
ATOM     12  C   UNL     1     -13.671  -0.132  23.241  1.00  0.00     0.004 C 
ENDBRANCH  10  11
ENDBRANCH   9  10
ENDBRANCH   8   9
ENDBRANCH   7   8
ENDBRANCH   6   7
ENDBRANCH   5   6
ENDBRANCH   4   5
ENDBRANCH   3   4
ENDBRANCH   2   3
ENDBRANCH   1   2
BRANCH   1  13
ATOM     13  C   UNL     1      -9.482   3.177  20.219  1.00  0.00     0.000 C 
BRANCH  13  14
ATOM     14  C   UNL     1     -10.120   4.427  19.583  1.00  0.00     0.000 C 
BRANCH  14  15
ATOM     15  C   UNL     1     -11.640   4.572  19.807  1.00  0.00     0.000 C 
BRANCH  15  16
ATOM     16  C   UNL     1     -12.501   4.422  18.540  1.00  0.00     0.000 C 
BRANCH  16  17
ATOM     17  C   UNL     1     -12.389   3.024  17.907  1.00  0.00     0.000 C 
BRANCH  17  18
ATOM     18  C   UNL     1     -12.021   3.088  16.415  1.00  0.00     0.000 C 
BRANCH  18  19
ATOM     19  C   UNL     1     -10.594   3.623  16.153  1.00  0.00     0.000 C 
BRANCH  19  20
ATOM     20  C   UNL     1      -9.606   2.536  15.693  1.00  0.00     0.006 C 
BRANCH  20  21
ATOM     21  C   UNL     1     -10.183   1.114  15.728  1.00  0.00     0.053 C 
BRANCH  21  22
ATOM     22  C   UNL     1     -10.318   0.532  14.353  1.00  0.00     0.041 C 
ATOM     23  O   UNL     1      -9.293   0.229  13.688  1.00  0.00    -0.550 OA
ATOM     24  O   UNL     1     -11.578   0.301  13.817  1.00  0.00    -0.550 OA
ENDBRANCH  21  22
ENDBRANCH  20  21
ENDBRANCH  19  20
ENDBRANCH  18  19
ENDBRANCH  17  18
ENDBRANCH  16  17
ENDBRANCH  15  16
ENDBRANCH  14  15
ENDBRANCH  13  14
ENDBRANCH   1  13
TORSDOF 20
ENDMDL
MODEL 4
REMARK VINA RESULT:    -4.110      1.337      2.855
REMARK INTER + INTRA:         -12.638
REMARK INTER:                  -9.284
REMARK INTRA:                  -3.354
REMARK UNBOUND:                -3.722
REMARK SMILES CCCCCCCCCCCCCCCCCCCCCC(=O)[O-]
REMARK SMILES IDX 12 1 11 2 10 3 9 4 8 5 7 6 6 7 5 8 4 9 3 10 2 11 1 12 13 13
REMARK SMILES IDX 14 14 15 15 16 16 17 17 18 18 19 19 20 20 21 21 22 22 23 23
REMARK SMILES IDX 24 24
REMARK H PARENT
REMARK Flexibility Score: inf
ROOT
ATOM      1  C   UNL     1      -9.590   0.501  22.517  1.00  0.00     0.000 C 
ENDROOT
BRANCH   1   2
ATOM      2  C   UNL     1      -9.268  -0.828  21.804  1.00  0.00     0.000 C 
BRANCH   2   3
ATOM      3  C   UNL     1      -9.869  -0.973  20.394  1.00  0.00     0.000 C 
BRANCH   3   4
ATOM      4  C   UNL     1      -9.004  -0.306  19.312  1.00  0.00    -0.000 C 
BRANCH   4   5
ATOM      5  C   UNL     1      -9.537   1.072  18.876  1.00  0.00    -0.000 C 
BRANCH   5   6
ATOM      6  C   UNL     1      -8.512   2.224  18.920  1.00  0.00    -0.000 C 
BRANCH   6   7
ATOM      7  C   UNL     1      -8.683   3.208  20.092  1.00  0.00    -0.000 C 
BRANCH   7   8
ATOM      8  C   UNL     1      -7.729   4.409  20.008  1.00  0.00    -0.000 C 
BRANCH   8   9
ATOM      9  C   UNL     1      -6.902   4.361  18.716  1.00  0.00    -0.000 C 
BRANCH   9  10
ATOM     10  C   UNL     1      -5.388   4.283  18.975  1.00  0.00    -0.000 C 
BRANCH  10  11
ATOM     11  C   UNL     1      -4.887   5.300  20.020  1.00  0.00    -0.003 C 
ATOM     12  C   UNL     1      -4.581   6.665  19.403  1.00  0.00     0.004 C 
ENDBRANCH  10  11
ENDBRANCH   9  10
ENDBRANCH   8   9
ENDBRANCH   7   8
ENDBRANCH   6   7
ENDBRANCH   5   6
ENDBRANCH   4   5
ENDBRANCH   3   4
ENDBRANCH   2   3
ENDBRANCH   1   2
BRANCH   1  13
ATOM     13  C   UNL     1     -11.049   0.648  22.992  1.00  0.00     0.000 C 
BRANCH  13  14
ATOM     14  C   UNL     1     -11.739   1.962  22.578  1.00  0.00     0.000 C 
BRANCH  14  15
ATOM     15  C   UNL     1     -12.117   2.061  21.086  1.00  0.00     0.000 C 
BRANCH  15  16
ATOM     16  C   UNL     1     -12.515   3.469  20.608  1.00  0.00     0.000 C 
BRANCH  16  17
ATOM     17  C   UNL     1     -12.451   3.617  19.078  1.00  0.00     0.000 C 
BRANCH  17  18
ATOM     18  C   UNL     1     -11.520   4.760  18.640  1.00  0.00     0.000 C 
BRANCH  18  19
ATOM     19  C   UNL     1     -10.951   4.581  17.213  1.00  0.00     0.000 C 
BRANCH  19  20
ATOM     20  C   UNL     1     -11.364   3.255  16.549  1.00  0.00     0.006 C 
BRANCH  20  21
ATOM     21  C   UNL     1     -10.333   2.713  15.549  1.00  0.00     0.053 C 
BRANCH  21  22
ATOM     22  C   UNL     1     -10.619   1.291  15.169  1.00  0.00     0.041 C 
ATOM     23  O   UNL     1     -11.784   0.943  14.842  1.00  0.00    -0.550 OA
ATOM     24  O   UNL     1      -9.591   0.357  15.151  1.00  0.00    -0.550 OA
ENDBRANCH  21  22
ENDBRANCH  20  21
ENDBRANCH  19  20
ENDBRANCH  18  19
ENDBRANCH  17  18
ENDBRANCH  16  17
ENDBRANCH  15  16
ENDBRANCH  14  15
ENDBRANCH  13  14
ENDBRANCH   1  13
TORSDOF 20
ENDMDL
MODEL 5
REMARK VINA RESULT:    -4.101      3.347      6.564
REMARK INTER + INTRA:         -12.618
REMARK INTER:                  -8.981
REMARK INTRA:                  -3.637
REMARK UNBOUND:                -3.722
REMARK SMILES CCCCCCCCCCCCCCCCCCCCCC(=O)[O-]
REMARK SMILES IDX 12 1 11 2 10 3 9 4 8 5 7 6 6 7 5 8 4 9 3 10 2 11 1 12 13 13
REMARK SMILES IDX 14 14 15 15 16 16 17 17 18 18 19 19 20 20 21 21 22 22 23 23
REMARK SMILES IDX 24 24
REMARK H PARENT
REMARK Flexibility Score: inf
ROOT
ATOM      1  C   UNL     1      -8.719   2.219  18.798  1.00  0.00     0.000 C 
ENDROOT
BRANCH   1   2
ATOM      2  C   UNL     1      -8.956   3.357  19.813  1.00  0.00     0.000 C 
BRANCH   2   3
ATOM      3  C   UNL     1      -9.722   4.573  19.262  1.00  0.00     0.000 C 
BRANCH   3   4
ATOM      4  C   UNL     1     -10.846   5.038  20.202  1.00  0.00    -0.000 C 
BRANCH   4   5
ATOM      5  C   UNL     1     -12.236   5.022  19.538  1.00  0.00    -0.000 C 
BRANCH   5   6
ATOM      6  C   UNL     1     -12.565   3.759  18.716  1.00  0.00    -0.000 C 
BRANCH   6   7
ATOM      7  C   UNL     1     -12.794   3.996  17.213  1.00  0.00    -0.000 C 
BRANCH   7   8
ATOM      8  C   UNL     1     -11.798   3.233  16.328  1.00  0.00    -0.000 C 
BRANCH   8   9
ATOM      9  C   UNL     1     -12.064   1.722  16.382  1.00  0.00    -0.000 C 
BRANCH   9  10
ATOM     10  C   UNL     1     -11.491   0.968  15.170  1.00  0.00    -0.000 C 
BRANCH  10  11
ATOM     11  C   UNL     1      -9.955   0.837  15.194  1.00  0.00    -0.003 C 
ATOM     12  C   UNL     1      -9.378   0.505  13.818  1.00  0.00     0.004 C 
ENDBRANCH  10  11
ENDBRANCH   9  10
ENDBRANCH   8   9
ENDBRANCH   7   8
ENDBRANCH   6   7
ENDBRANCH   5   6
ENDBRANCH   4   5
ENDBRANCH   3   4
ENDBRANCH   2   3
ENDBRANCH   1   2
BRANCH   1  13
ATOM     13  C   UNL     1      -9.666   1.011  18.942  1.00  0.00     0.000 C 
BRANCH  13  14
ATOM     14  C   UNL     1      -8.989  -0.294  19.403  1.00  0.00     0.000 C 
BRANCH  14  15
ATOM     15  C   UNL     1      -9.709  -1.035  20.549  1.00  0.00     0.000 C 
BRANCH  15  16
ATOM     16  C   UNL     1      -9.032  -0.915  21.927  1.00  0.00     0.000 C 
BRANCH  16  17
ATOM     17  C   UNL     1      -9.861  -0.091  22.926  1.00  0.00     0.000 C 
BRANCH  17  18
ATOM     18  C   UNL     1      -9.506   1.405  22.884  1.00  0.00     0.000 C 
BRANCH  18  19
ATOM     19  C   UNL     1     -10.742   2.332  22.823  1.00  0.00     0.000 C 
BRANCH  19  20
ATOM     20  C   UNL     1     -11.783   1.900  21.775  1.00  0.00     0.006 C 
BRANCH  20  21
ATOM     21  C   UNL     1     -13.234   2.196  22.180  1.00  0.00     0.053 C 
BRANCH  21  22
ATOM     22  C   UNL     1     -13.527   1.741  23.579  1.00  0.00     0.041 C 
ATOM     23  O   UNL     1     -13.965   2.555  24.433  1.00  0.00    -0.550 OA
ATOM     24  O   UNL     1     -13.339   0.410  23.930  1.00  0.00    -0.550 OA
ENDBRANCH  21  22
ENDBRANCH  20  21
ENDBRANCH  19  20
ENDBRANCH  18  19
ENDBRANCH  17  18
ENDBRANCH  16  17
ENDBRANCH  15  16
ENDBRANCH  14  15
ENDBRANCH  13  14
ENDBRANCH   1  13
TORSDOF 20
ENDMDL
MODEL 6
REMARK VINA RESULT:    -4.078      3.098      6.296
REMARK INTER + INTRA:         -12.568
REMARK INTER:                  -9.691
REMARK INTRA:                  -2.877
REMARK UNBOUND:                -3.722
REMARK SMILES CCCCCCCCCCCCCCCCCCCCCC(=O)[O-]
REMARK SMILES IDX 12 1 11 2 10 3 9 4 8 5 7 6 6 7 5 8 4 9 3 10 2 11 1 12 13 13
REMARK SMILES IDX 14 14 15 15 16 16 17 17 18 18 19 19 20 20 21 21 22 22 23 23
REMARK SMILES IDX 24 24
REMARK H PARENT
REMARK Flexibility Score: inf
ROOT
ATOM      1  C   UNL     1     -10.709  -0.843  20.202  1.00  0.00     0.000 C 
ENDROOT
BRANCH   1   2
ATOM      2  C   UNL     1     -10.703   0.343  19.216  1.00  0.00     0.000 C 
BRANCH   2   3
ATOM      3  C   UNL     1      -9.326   0.685  18.618  1.00  0.00     0.000 C 
BRANCH   3   4
ATOM      4  C   UNL     1      -8.774   2.023  19.137  1.00  0.00    -0.000 C 
BRANCH   4   5
ATOM      5  C   UNL     1      -9.174   3.224  18.260  1.00  0.00    -0.000 C 
BRANCH   5   6
ATOM      6  C   UNL     1      -9.411   2.908  16.769  1.00  0.00    -0.000 C 
BRANCH   6   7
ATOM      7  C   UNL     1     -10.856   3.108  16.278  1.00  0.00    -0.000 C 
BRANCH   7   8
ATOM      8  C   UNL     1     -11.490   1.815  15.744  1.00  0.00    -0.000 C 
BRANCH   8   9
ATOM      9  C   UNL     1     -10.428   0.903  15.117  1.00  0.00    -0.000 C 
BRANCH   9  10
ATOM     10  C   UNL     1     -10.909   0.219  13.826  1.00  0.00    -0.000 C 
BRANCH  10  11
ATOM     11  C   UNL     1     -12.432  -0.019  13.785  1.00  0.00    -0.003 C 
ATOM     12  C   UNL     1     -12.786  -1.460  13.414  1.00  0.00     0.004 C 
ENDBRANCH  10  11
ENDBRANCH   9  10
ENDBRANCH   8   9
ENDBRANCH   7   8
ENDBRANCH   6   7
ENDBRANCH   5   6
ENDBRANCH   4   5
ENDBRANCH   3   4
ENDBRANCH   2   3
ENDBRANCH   1   2
BRANCH   1  13
ATOM     13  C   UNL     1      -9.340  -1.181  20.823  1.00  0.00     0.000 C 
BRANCH  13  14
ATOM     14  C   UNL     1      -9.187  -0.803  22.309  1.00  0.00     0.000 C 
BRANCH  14  15
ATOM     15  C   UNL     1     -10.186   0.254  22.822  1.00  0.00     0.000 C 
BRANCH  15  16
ATOM     16  C   UNL     1      -9.587   1.651  23.066  1.00  0.00     0.000 C 
BRANCH  16  17
ATOM     17  C   UNL     1     -10.337   2.760  22.309  1.00  0.00     0.000 C 
BRANCH  17  18
ATOM     18  C   UNL     1     -11.804   2.388  22.034  1.00  0.00     0.000 C 
BRANCH  18  19
ATOM     19  C   UNL     1     -12.367   3.014  20.736  1.00  0.00     0.000 C 
BRANCH  19  20
ATOM     20  C   UNL     1     -13.649   3.836  20.956  1.00  0.00     0.006 C 
BRANCH  20  21
ATOM     21  C   UNL     1     -13.403   5.219  21.577  1.00  0.00     0.053 C 
BRANCH  21  22
ATOM     22  C   UNL     1     -13.682   6.325  20.603  1.00  0.00     0.041 C 
ATOM     23  O   UNL     1     -14.846   6.790  20.487  1.00  0.00    -0.550 OA
ATOM     24  O   UNL     1     -12.649   6.858  19.844  1.00  0.00    -0.550 OA
ENDBRANCH  21  22
ENDBRANCH  20  21
ENDBRANCH  19  20
ENDBRANCH  18  19
ENDBRANCH  17  18
ENDBRANCH  16  17
ENDBRANCH  15  16
ENDBRANCH  14  15
ENDBRANCH  13  14
ENDBRANCH   1  13
TORSDOF 20
ENDMDL
MODEL 7
REMARK VINA RESULT:    -4.061      2.521      5.415
REMARK INTER + INTRA:         -12.531
REMARK INTER:                  -9.351
REMARK INTRA:                  -3.180
REMARK UNBOUND:                -3.722
REMARK SMILES CCCCCCCCCCCCCCCCCCCCCC(=O)[O-]
REMARK SMILES IDX 12 1 11 2 10 3 9 4 8 5 7 6 6 7 5 8 4 9 3 10 2 11 1 12 13 13
REMARK SMILES IDX 14 14 15 15 16 16 17 17 18 18 19 19 20 20 21 21 22 22 23 23
REMARK SMILES IDX 24 24
REMARK H PARENT
REMARK Flexibility Score: inf
ROOT
ATOM      1  C   UNL     1     -10.262   2.605  22.507  1.00  0.00     0.000 C 
ENDROOT
BRANCH   1   2
ATOM      2  C   UNL     1     -11.690   2.903  23.007  1.00  0.00     0.000 C 
BRANCH   2   3
ATOM      3  C   UNL     1     -12.549   3.755  22.055  1.00  0.00     0.000 C 
BRANCH   3   4
ATOM      4  C   UNL     1     -12.483   3.263  20.600  1.00  0.00    -0.000 C 
BRANCH   4   5
ATOM      5  C   UNL     1     -12.381   4.410  19.577  1.00  0.00    -0.000 C 
BRANCH   5   6
ATOM      6  C   UNL     1     -12.731   4.036  18.122  1.00  0.00    -0.000 C 
BRANCH   6   7
ATOM      7  C   UNL     1     -11.781   4.604  17.053  1.00  0.00    -0.000 C 
BRANCH   7   8
ATOM      8  C   UNL     1     -11.376   3.563  15.999  1.00  0.00    -0.000 C 
BRANCH   8   9
ATOM      9  C   UNL     1     -12.140   2.248  16.206  1.00  0.00    -0.000 C 
BRANCH   9  10
ATOM     10  C   UNL     1     -11.392   1.025  15.651  1.00  0.00    -0.000 C 
BRANCH  10  11
ATOM     11  C   UNL     1      -9.951   1.335  15.199  1.00  0.00    -0.003 C 
ATOM     12  C   UNL     1      -9.549   0.545  13.954  1.00  0.00     0.004 C 
ENDBRANCH  10  11
ENDBRANCH   9  10
ENDBRANCH   8   9
ENDBRANCH   7   8
ENDBRANCH   6   7
ENDBRANCH   5   6
ENDBRANCH   4   5
ENDBRANCH   3   4
ENDBRANCH   2   3
ENDBRANCH   1   2
BRANCH   1  13
ATOM     13  C   UNL     1      -9.549   1.443  23.226  1.00  0.00     0.000 C 
BRANCH  13  14
ATOM     14  C   UNL     1     -10.068   0.038  22.866  1.00  0.00     0.000 C 
BRANCH  14  15
ATOM     15  C   UNL     1      -9.053  -0.867  22.137  1.00  0.00     0.000 C 
BRANCH  15  16
ATOM     16  C   UNL     1      -9.455  -1.275  20.708  1.00  0.00     0.000 C 
BRANCH  16  17
ATOM     17  C   UNL     1     -10.086  -0.117  19.915  1.00  0.00     0.000 C 
BRANCH  17  18
ATOM     18  C   UNL     1      -9.036   0.700  19.142  1.00  0.00     0.000 C 
BRANCH  18  19
ATOM     19  C   UNL     1      -9.503   2.132  18.794  1.00  0.00     0.000 C 
BRANCH  19  20
ATOM     20  C   UNL     1      -8.366   3.048  18.305  1.00  0.00     0.006 C 
BRANCH  20  21
ATOM     21  C   UNL     1      -7.594   3.740  19.437  1.00  0.00     0.053 C 
BRANCH  21  22
ATOM     22  C   UNL     1      -6.487   4.603  18.910  1.00  0.00     0.041 C 
ATOM     23  O   UNL     1      -6.750   5.616  18.210  1.00  0.00    -0.550 OA
ATOM     24  O   UNL     1      -5.166   4.302  19.216  1.00  0.00    -0.550 OA
ENDBRANCH  21  22
ENDBRANCH  20  21
ENDBRANCH  19  20
ENDBRANCH  18  19
ENDBRANCH  17  18
ENDBRANCH  16  17
ENDBRANCH  15  16
ENDBRANCH  14  15
ENDBRANCH  13  14
ENDBRANCH   1  13
TORSDOF 20
ENDMDL
MODEL 8
REMARK VINA RESULT:    -4.052      3.064      5.733
REMARK INTER + INTRA:         -12.512
REMARK INTER:                  -9.074
REMARK INTRA:                  -3.439
REMARK UNBOUND:                -3.722
REMARK SMILES CCCCCCCCCCCCCCCCCCCCCC(=O)[O-]
REMARK SMILES IDX 12 1 11 2 10 3 9 4 8 5 7 6 6 7 5 8 4 9 3 10 2 11 1 12 13 13
REMARK SMILES IDX 14 14 15 15 16 16 17 17 18 18 19 19 20 20 21 21 22 22 23 23
REMARK SMILES IDX 24 24
REMARK H PARENT
REMARK Flexibility Score: inf
ROOT
ATOM      1  C   UNL     1     -11.550   0.258  22.128  1.00  0.00     0.000 C 
ENDROOT
BRANCH   1   2
ATOM      2  C   UNL     1     -12.212   1.648  22.226  1.00  0.00     0.000 C 
BRANCH   2   3
ATOM      3  C   UNL     1     -12.284   2.430  20.902  1.00  0.00     0.000 C 
BRANCH   3   4
ATOM      4  C   UNL     1     -13.127   3.710  21.018  1.00  0.00    -0.000 C 
BRANCH   4   5
ATOM      5  C   UNL     1     -13.391   4.386  19.659  1.00  0.00    -0.000 C 
BRANCH   5   6
ATOM      6  C   UNL     1     -12.299   4.177  18.590  1.00  0.00    -0.000 C 
BRANCH   6   7
ATOM      7  C   UNL     1     -12.803   3.660  17.231  1.00  0.00    -0.000 C 
BRANCH   7   8
ATOM      8  C   UNL     1     -11.829   2.674  16.569  1.00  0.00    -0.000 C 
BRANCH   8   9
ATOM      9  C   UNL     1     -10.483   3.348  16.274  1.00  0.00    -0.000 C 
BRANCH   9  10
ATOM     10  C   UNL     1      -9.471   2.402  15.605  1.00  0.00    -0.000 C 
BRANCH  10  11
ATOM     11  C   UNL     1      -9.996   0.964  15.426  1.00  0.00    -0.003 C 
ATOM     12  C   UNL     1      -9.643   0.381  14.057  1.00  0.00     0.004 C 
ENDBRANCH  10  11
ENDBRANCH   9  10
ENDBRANCH   8   9
ENDBRANCH   7   8
ENDBRANCH   6   7
ENDBRANCH   5   6
ENDBRANCH   4   5
ENDBRANCH   3   4
ENDBRANCH   2   3
ENDBRANCH   1   2
BRANCH   1  13
ATOM     13  C   UNL     1     -10.058   0.219  22.513  1.00  0.00     0.000 C 
BRANCH  13  14
ATOM     14  C   UNL     1      -9.181  -0.689  21.630  1.00  0.00     0.000 C 
BRANCH  14  15
ATOM     15  C   UNL     1      -9.791  -1.060  20.263  1.00  0.00     0.000 C 
BRANCH  15  16
ATOM     16  C   UNL     1      -9.253  -0.250  19.070  1.00  0.00     0.000 C 
BRANCH  16  17
ATOM     17  C   UNL     1      -9.532   1.257  19.201  1.00  0.00     0.000 C 
BRANCH  17  18
ATOM     18  C   UNL     1      -8.266   2.105  18.987  1.00  0.00     0.000 C 
BRANCH  18  19
ATOM     19  C   UNL     1      -8.440   3.587  19.390  1.00  0.00     0.000 C 
BRANCH  19  20
ATOM     20  C   UNL     1      -9.096   3.776  20.770  1.00  0.00     0.006 C 
BRANCH  20  21
ATOM     21  C   UNL     1      -9.635   5.192  21.015  1.00  0.00     0.053 C 
BRANCH  21  22
ATOM     22  C   UNL     1      -8.571   6.233  20.838  1.00  0.00     0.041 C 
ATOM     23  O   UNL     1      -8.520   6.917  19.782  1.00  0.00    -0.550 OA
ATOM     24  O   UNL     1      -7.651   6.465  21.852  1.00  0.00    -0.550 OA
ENDBRANCH  21  22
ENDBRANCH  20  21
ENDBRANCH  19  20
ENDBRANCH  18  19
ENDBRANCH  17  18
ENDBRANCH  16  17
ENDBRANCH  15  16
ENDBRANCH  14  15
ENDBRANCH  13  14
ENDBRANCH   1  13
TORSDOF 20
ENDMDL
MODEL 9
REMARK VINA RESULT:    -3.993      2.825      5.048
REMARK INTER + INTRA:         -12.383
REMARK INTER:                  -8.635
REMARK INTRA:                  -3.748
REMARK UNBOUND:                -3.722
REMARK SMILES CCCCCCCCCCCCCCCCCCCCCC(=O)[O-]
REMARK SMILES IDX 12 1 11 2 10 3 9 4 8 5 7 6 6 7 5 8 4 9 3 10 2 11 1 12 13 13
REMARK SMILES IDX 14 14 15 15 16 16 17 17 18 18 19 19 20 20 21 21 22 22 23 23
REMARK SMILES IDX 24 24
REMARK H PARENT
REMARK Flexibility Score: inf
ROOT
ATOM      1  C   UNL     1      -9.388   0.784  18.877  1.00  0.00     0.000 C 
ENDROOT
BRANCH   1   2
ATOM      2  C   UNL     1      -9.018  -0.633  19.361  1.00  0.00     0.000 C 
BRANCH   2   3
ATOM      3  C   UNL     1      -9.802  -1.127  20.590  1.00  0.00     0.000 C 
BRANCH   3   4
ATOM      4  C   UNL     1      -9.063  -0.856  21.910  1.00  0.00    -0.000 C 
BRANCH   4   5
ATOM      5  C   UNL     1      -9.875   0.009  22.892  1.00  0.00    -0.000 C 
BRANCH   5   6
ATOM      6  C   UNL     1      -9.609   1.527  22.816  1.00  0.00    -0.000 C 
BRANCH   6   7
ATOM      7  C   UNL     1     -10.731   2.357  22.168  1.00  0.00    -0.000 C 
BRANCH   7   8
ATOM      8  C   UNL     1     -12.086   1.633  22.167  1.00  0.00    -0.000 C 
BRANCH   8   9
ATOM      9  C   UNL     1     -13.226   2.606  21.834  1.00  0.00    -0.000 C 
BRANCH   9  10
ATOM     10  C   UNL     1     -12.970   3.414  20.551  1.00  0.00    -0.000 C 
BRANCH  10  11
ATOM     11  C   UNL     1     -13.684   4.781  20.531  1.00  0.00    -0.003 C 
ATOM     12  C   UNL     1     -12.783   5.900  20.007  1.00  0.00     0.004 C 
ENDBRANCH  10  11
ENDBRANCH   9  10
ENDBRANCH   8   9
ENDBRANCH   7   8
ENDBRANCH   6   7
ENDBRANCH   5   6
ENDBRANCH   4   5
ENDBRANCH   3   4
ENDBRANCH   2   3
ENDBRANCH   1   2
BRANCH   1  13
ATOM     13  C   UNL     1     -10.899   1.051  18.736  1.00  0.00     0.000 C 
BRANCH  13  14
ATOM     14  C   UNL     1     -11.386   1.294  17.295  1.00  0.00     0.000 C 
BRANCH  14  15
ATOM     15  C   UNL     1     -11.613   2.774  16.921  1.00  0.00     0.000 C 
BRANCH  15  16
ATOM     16  C   UNL     1     -10.329   3.588  16.680  1.00  0.00     0.000 C 
BRANCH  16  17
ATOM     17  C   UNL     1     -10.437   5.033  17.198  1.00  0.00     0.000 C 
BRANCH  17  18
ATOM     18  C   UNL     1      -9.367   5.354  18.256  1.00  0.00     0.000 C 
BRANCH  18  19
ATOM     19  C   UNL     1      -9.403   4.406  19.477  1.00  0.00     0.000 C 
BRANCH  19  20
ATOM     20  C   UNL     1      -8.006   4.009  19.989  1.00  0.00     0.006 C 
BRANCH  20  21
ATOM     21  C   UNL     1      -7.043   3.559  18.882  1.00  0.00     0.053 C 
BRANCH  21  22
ATOM     22  C   UNL     1      -5.776   4.361  18.884  1.00  0.00     0.041 C 
ATOM     23  O   UNL     1      -4.704   3.856  18.459  1.00  0.00    -0.550 OA
ATOM     24  O   UNL     1      -5.787   5.676  19.331  1.00  0.00    -0.550 OA
ENDBRANCH  21  22
ENDBRANCH  20  21
ENDBRANCH  19  20
ENDBRANCH  18  19
ENDBRANCH  17  18
ENDBRANCH  16  17
ENDBRANCH  15  16
ENDBRANCH  14  15
ENDBRANCH  13  14
ENDBRANCH   1  13
TORSDOF 20
ENDMDL
