MODEL 1
REMARK VINA RESULT:    -7.411      0.000      0.000
REMARK INTER + INTRA:          -8.893
REMARK INTER:                  -9.144
REMARK INTRA:                   0.251
REMARK UNBOUND:                 0.251
REMARK SMILES COc1cc(-c2oc3cc(O)cc(O)c3c(=O)c2O)ccc1O
REMARK SMILES IDX 6 1 18 2 16 3 17 4 15 5 13 6 12 7 10 8 9 9 8 10 7 11 5 12
REMARK SMILES IDX 3 13 22 14 4 15 21 16 20 17 2 18 1 19 23 20 19 22 14 24
REMARK SMILES IDX 11 26
REMARK H PARENT 23 21 19 23 14 25 11 27
REMARK Flexibility Score: inf
ROOT
ATOM      1  C   UNL     1       9.619  12.975  23.201  1.00  0.00     0.180 A 
ATOM      2  C   UNL     1       8.995  13.649  24.266  1.00  0.00     0.208 A 
ATOM      3  C   UNL     1       8.617  12.919  25.405  1.00  0.00     0.238 A 
ATOM      4  O   UNL     1       8.011  13.517  26.331  1.00  0.00    -0.285 OA
ATOM      5  C   UNL     1       8.883  11.531  25.472  1.00  0.00     0.111 A 
ATOM      6  C   UNL     1       8.580  10.701  26.594  1.00  0.00     0.134 A 
ATOM      7  C   UNL     1       8.768   9.317  26.499  1.00  0.00     0.093 A 
ATOM      8  C   UNL     1       9.308   8.740  25.346  1.00  0.00     0.123 A 
ATOM      9  C   UNL     1       9.662   9.549  24.270  1.00  0.00     0.094 A 
ATOM     10  C   UNL     1       9.453  10.929  24.320  1.00  0.00     0.146 A 
ATOM     11  O   UNL     1       9.795  11.661  23.267  1.00  0.00    -0.452 OA
ENDROOT
BRANCH   1  12
ATOM     12  C   UNL     1      10.067  13.680  21.978  1.00  0.00     0.025 A 
ATOM     13  C   UNL     1      10.867  15.728  20.907  1.00  0.00     0.161 A 
ATOM     14  C   UNL     1      10.867  15.072  19.668  1.00  0.00     0.157 A 
ATOM     15  C   UNL     1      10.458  15.027  22.060  1.00  0.00     0.062 A 
ATOM     16  C   UNL     1      10.458  13.736  19.580  1.00  0.00     0.051 A 
ATOM     17  C   UNL     1      10.055  13.045  20.725  1.00  0.00     0.016 A 
BRANCH  13  18
ATOM     18  O   UNL     1      11.276  17.070  20.953  1.00  0.00    -0.493 OA
ATOM     19  C   UNL     1      11.289  17.868  22.132  1.00  0.00     0.278 C 
ENDBRANCH  13  18
BRANCH  14  20
ATOM     20  O   UNL     1      11.272  15.760  18.525  1.00  0.00    -0.504 OA
ATOM     21  H   UNL     1      12.238  16.029  18.382  1.00  0.00     0.293 HD
ENDBRANCH  14  20
ENDBRANCH   1  12
BRANCH   2  22
ATOM     22  O   UNL     1       8.723  15.016  24.169  1.00  0.00    -0.502 OA
ATOM     23  H   UNL     1       7.782  15.378  24.070  1.00  0.00     0.293 HD
ENDBRANCH   2  22
BRANCH   6  24
ATOM     24  O   UNL     1       8.123  11.187  27.822  1.00  0.00    -0.507 OA
ATOM     25  H   UNL     1       7.153  11.268  28.084  1.00  0.00     0.293 HD
ENDBRANCH   6  24
BRANCH   8  26
ATOM     26  O   UNL     1       9.505   7.364  25.267  1.00  0.00    -0.508 OA
ATOM     27  H   UNL     1       9.085   6.809  24.531  1.00  0.00     0.293 HD
ENDBRANCH   8  26
TORSDOF 6
ENDMDL
MODEL 2
REMARK VINA RESULT:    -6.738      1.597      3.437
REMARK INTER + INTRA:          -8.063
REMARK INTER:                  -8.182
REMARK INTRA:                   0.119
REMARK UNBOUND:                 0.251
REMARK SMILES COc1cc(-c2oc3cc(O)cc(O)c3c(=O)c2O)ccc1O
REMARK SMILES IDX 6 1 18 2 16 3 17 4 15 5 13 6 12 7 10 8 9 9 8 10 7 11 5 12
REMARK SMILES IDX 3 13 22 14 4 15 21 16 20 17 2 18 1 19 23 20 19 22 14 24
REMARK SMILES IDX 11 26
REMARK H PARENT 23 21 19 23 14 25 11 27
REMARK Flexibility Score: inf
ROOT
ATOM      1  C   UNL     1       9.546  12.694  24.503  1.00  0.00     0.180 A 
ATOM      2  C   UNL     1       9.876  11.566  23.732  1.00  0.00     0.208 A 
ATOM      3  C   UNL     1       9.690  10.288  24.281  1.00  0.00     0.238 A 
ATOM      4  O   UNL     1      10.038   9.284  23.607  1.00  0.00    -0.285 OA
ATOM      5  C   UNL     1       9.161  10.153  25.587  1.00  0.00     0.111 A 
ATOM      6  C   UNL     1       8.894   8.905  26.228  1.00  0.00     0.134 A 
ATOM      7  C   UNL     1       8.494   8.890  27.570  1.00  0.00     0.093 A 
ATOM      8  C   UNL     1       8.289  10.080  28.274  1.00  0.00     0.123 A 
ATOM      9  C   UNL     1       8.490  11.302  27.639  1.00  0.00     0.094 A 
ATOM     10  C   UNL     1       8.924  11.349  26.312  1.00  0.00     0.146 A 
ATOM     11  O   UNL     1       9.113  12.536  25.748  1.00  0.00    -0.452 OA
ENDROOT
BRANCH   1  12
ATOM     12  C   UNL     1       9.691  14.074  23.984  1.00  0.00     0.025 A 
ATOM     13  C   UNL     1       9.524  15.644  22.117  1.00  0.00     0.161 A 
ATOM     14  C   UNL     1      10.011  16.667  22.942  1.00  0.00     0.157 A 
ATOM     15  C   UNL     1       9.373  14.345  22.643  1.00  0.00     0.062 A 
ATOM     16  C   UNL     1      10.349  16.395  24.273  1.00  0.00     0.051 A 
ATOM     17  C   UNL     1      10.197  15.107  24.790  1.00  0.00     0.016 A 
BRANCH  13  18
ATOM     18  O   UNL     1       9.203  15.954  20.785  1.00  0.00    -0.493 OA
ATOM     19  C   UNL     1       9.634  15.201  19.656  1.00  0.00     0.278 C 
ENDBRANCH  13  18
BRANCH  14  20
ATOM     20  O   UNL     1      10.161  17.954  22.428  1.00  0.00    -0.504 OA
ATOM     21  H   UNL     1       9.730  18.230  21.554  1.00  0.00     0.293 HD
ENDBRANCH  14  20
ENDBRANCH   1  12
BRANCH   2  22
ATOM     22  O   UNL     1      10.417  11.723  22.453  1.00  0.00    -0.502 OA
ATOM     23  H   UNL     1      11.203  12.334  22.266  1.00  0.00     0.293 HD
ENDBRANCH   2  22
BRANCH   6  24
ATOM     24  O   UNL     1       8.978   7.665  25.588  1.00  0.00    -0.507 OA
ATOM     25  H   UNL     1       9.206   6.796  26.044  1.00  0.00     0.293 HD
ENDBRANCH   6  24
BRANCH   8  26
ATOM     26  O   UNL     1       7.876  10.055  29.604  1.00  0.00    -0.508 OA
ATOM     27  H   UNL     1       8.095  10.812  30.242  1.00  0.00     0.293 HD
ENDBRANCH   8  26
TORSDOF 6
ENDMDL
MODEL 3
REMARK VINA RESULT:    -6.713      1.475      7.568
REMARK INTER + INTRA:          -8.031
REMARK INTER:                  -8.174
REMARK INTRA:                   0.143
REMARK UNBOUND:                 0.251
REMARK SMILES COc1cc(-c2oc3cc(O)cc(O)c3c(=O)c2O)ccc1O
REMARK SMILES IDX 6 1 18 2 16 3 17 4 15 5 13 6 12 7 10 8 9 9 8 10 7 11 5 12
REMARK SMILES IDX 3 13 22 14 4 15 21 16 20 17 2 18 1 19 23 20 19 22 14 24
REMARK SMILES IDX 11 26
REMARK H PARENT 23 21 19 23 14 25 11 27
REMARK Flexibility Score: inf
ROOT
ATOM      1  C   UNL     1       9.518  13.721  24.187  1.00  0.00     0.180 A 
ATOM      2  C   UNL     1       9.538  13.297  22.847  1.00  0.00     0.208 A 
ATOM      3  C   UNL     1       9.963  14.195  21.856  1.00  0.00     0.238 A 
ATOM      4  O   UNL     1       9.927  13.827  20.652  1.00  0.00    -0.285 OA
ATOM      5  C   UNL     1      10.379  15.498  22.217  1.00  0.00     0.111 A 
ATOM      6  C   UNL     1      10.868  16.477  21.299  1.00  0.00     0.134 A 
ATOM      7  C   UNL     1      11.128  17.777  21.750  1.00  0.00     0.093 A 
ATOM      8  C   UNL     1      10.979  18.116  23.098  1.00  0.00     0.123 A 
ATOM      9  C   UNL     1      10.560  17.151  24.010  1.00  0.00     0.094 A 
ATOM     10  C   UNL     1      10.258  15.856  23.585  1.00  0.00     0.146 A 
ATOM     11  O   UNL     1       9.852  14.971  24.487  1.00  0.00    -0.452 OA
ENDROOT
BRANCH   1  12
ATOM     12  C   UNL     1       9.105  12.824  25.292  1.00  0.00     0.025 A 
ATOM     13  C   UNL     1       9.048  10.583  26.269  1.00  0.00     0.161 A 
ATOM     14  C   UNL     1       8.288  11.076  27.338  1.00  0.00     0.157 A 
ATOM     15  C   UNL     1       9.448  11.463  25.242  1.00  0.00     0.062 A 
ATOM     16  C   UNL     1       7.927  12.427  27.380  1.00  0.00     0.051 A 
ATOM     17  C   UNL     1       8.326  13.295  26.361  1.00  0.00     0.016 A 
BRANCH  13  18
ATOM     18  O   UNL     1       9.384   9.220  26.258  1.00  0.00    -0.493 OA
ATOM     19  C   UNL     1       9.381   8.398  25.096  1.00  0.00     0.278 C 
ENDBRANCH  13  18
BRANCH  14  20
ATOM     20  O   UNL     1       7.890  10.210  28.356  1.00  0.00    -0.504 OA
ATOM     21  H   UNL     1       7.372   9.363  28.160  1.00  0.00     0.293 HD
ENDBRANCH  14  20
ENDBRANCH   1  12
BRANCH   2  22
ATOM     22  O   UNL     1       9.102  12.013  22.510  1.00  0.00    -0.502 OA
ATOM     23  H   UNL     1       9.123  11.241  23.166  1.00  0.00     0.293 HD
ENDBRANCH   2  22
BRANCH   6  24
ATOM     24  O   UNL     1      11.139  16.216  19.953  1.00  0.00    -0.507 OA
ATOM     25  H   UNL     1      11.890  15.633  19.620  1.00  0.00     0.293 HD
ENDBRANCH   6  24
BRANCH   8  26
ATOM     26  O   UNL     1      11.255  19.407  23.540  1.00  0.00    -0.508 OA
ATOM     27  H   UNL     1      10.914  20.222  23.043  1.00  0.00     0.293 HD
ENDBRANCH   8  26
TORSDOF 6
ENDMDL
MODEL 4
REMARK VINA RESULT:    -6.638      1.189      6.924
REMARK INTER + INTRA:          -7.939
REMARK INTER:                  -8.424
REMARK INTRA:                   0.485
REMARK UNBOUND:                 0.251
REMARK SMILES COc1cc(-c2oc3cc(O)cc(O)c3c(=O)c2O)ccc1O
REMARK SMILES IDX 6 1 18 2 16 3 17 4 15 5 13 6 12 7 10 8 9 9 8 10 7 11 5 12
REMARK SMILES IDX 3 13 22 14 4 15 21 16 20 17 2 18 1 19 23 20 19 22 14 24
REMARK SMILES IDX 11 26
REMARK H PARENT 23 21 19 23 14 25 11 27
REMARK Flexibility Score: inf
ROOT
ATOM      1  C   UNL     1       9.262  12.100  24.128  1.00  0.00     0.180 A 
ATOM      2  C   UNL     1       8.968  13.326  24.749  1.00  0.00     0.208 A 
ATOM      3  C   UNL     1       9.099  14.513  24.009  1.00  0.00     0.238 A 
ATOM      4  O   UNL     1       8.887  15.611  24.586  1.00  0.00    -0.285 OA
ATOM      5  C   UNL     1       9.504  14.457  22.654  1.00  0.00     0.111 A 
ATOM      6  C   UNL     1       9.630  15.593  21.799  1.00  0.00     0.134 A 
ATOM      7  C   UNL     1      10.165  15.434  20.514  1.00  0.00     0.093 A 
ATOM      8  C   UNL     1      10.517  14.170  20.032  1.00  0.00     0.123 A 
ATOM      9  C   UNL     1      10.341  13.049  20.839  1.00  0.00     0.094 A 
ATOM     10  C   UNL     1       9.845  13.180  22.137  1.00  0.00     0.146 A 
ATOM     11  O   UNL     1       9.703  12.086  22.875  1.00  0.00    -0.452 OA
ENDROOT
BRANCH   1  12
ATOM     12  C   UNL     1       9.125  10.806  24.835  1.00  0.00     0.025 A 
ATOM     13  C   UNL     1       8.555   9.573  26.869  1.00  0.00     0.161 A 
ATOM     14  C   UNL     1       8.910   8.375  26.234  1.00  0.00     0.157 A 
ATOM     15  C   UNL     1       8.672  10.789  26.165  1.00  0.00     0.062 A 
ATOM     16  C   UNL     1       9.381   8.391  24.916  1.00  0.00     0.051 A 
ATOM     17  C   UNL     1       9.495   9.598  24.223  1.00  0.00     0.016 A 
BRANCH  13  18
ATOM     18  O   UNL     1       8.093   9.518  28.194  1.00  0.00    -0.493 OA
ATOM     19  C   UNL     1       8.484  10.421  29.222  1.00  0.00     0.278 C 
ENDBRANCH  13  18
BRANCH  14  20
ATOM     20  O   UNL     1       8.795   7.169  26.925  1.00  0.00    -0.504 OA
ATOM     21  H   UNL     1       9.595   6.568  27.079  1.00  0.00     0.293 HD
ENDBRANCH  14  20
ENDBRANCH   1  12
BRANCH   2  22
ATOM     22  O   UNL     1       8.591  13.360  26.094  1.00  0.00    -0.502 OA
ATOM     23  H   UNL     1       8.333  12.526  26.608  1.00  0.00     0.293 HD
ENDBRANCH   2  22
BRANCH   6  24
ATOM     24  O   UNL     1       9.222  16.883  22.150  1.00  0.00    -0.507 OA
ATOM     25  H   UNL     1       8.590  17.101  22.905  1.00  0.00     0.293 HD
ENDBRANCH   6  24
BRANCH   8  26
ATOM     26  O   UNL     1      11.034  14.020  18.748  1.00  0.00    -0.508 OA
ATOM     27  H   UNL     1      11.289  14.820  18.181  1.00  0.00     0.293 HD
ENDBRANCH   8  26
TORSDOF 6
ENDMDL
MODEL 5
REMARK VINA RESULT:    -6.432      1.814      7.235
REMARK INTER + INTRA:          -7.685
REMARK INTER:                  -7.894
REMARK INTRA:                   0.209
REMARK UNBOUND:                 0.251
REMARK SMILES COc1cc(-c2oc3cc(O)cc(O)c3c(=O)c2O)ccc1O
REMARK SMILES IDX 6 1 18 2 16 3 17 4 15 5 13 6 12 7 10 8 9 9 8 10 7 11 5 12
REMARK SMILES IDX 3 13 22 14 4 15 21 16 20 17 2 18 1 19 23 20 19 22 14 24
REMARK SMILES IDX 11 26
REMARK H PARENT 23 21 19 23 14 25 11 27
REMARK Flexibility Score: inf
ROOT
ATOM      1  C   UNL     1       9.616  13.286  23.947  1.00  0.00     0.180 A 
ATOM      2  C   UNL     1       9.611  13.439  22.550  1.00  0.00     0.208 A 
ATOM      3  C   UNL     1       9.811  14.718  22.005  1.00  0.00     0.238 A 
ATOM      4  O   UNL     1       9.751  14.857  20.755  1.00  0.00    -0.285 OA
ATOM      5  C   UNL     1      10.030  15.823  22.862  1.00  0.00     0.111 A 
ATOM      6  C   UNL     1      10.283  17.155  22.416  1.00  0.00     0.134 A 
ATOM      7  C   UNL     1      10.355  18.194  23.353  1.00  0.00     0.093 A 
ATOM      8  C   UNL     1      10.248  17.938  24.722  1.00  0.00     0.123 A 
ATOM      9  C   UNL     1      10.060  16.632  25.169  1.00  0.00     0.094 A 
ATOM     10  C   UNL     1       9.948  15.580  24.257  1.00  0.00     0.146 A 
ATOM     11  O   UNL     1       9.759  14.353  24.726  1.00  0.00    -0.452 OA
ENDROOT
BRANCH   1  12
ATOM     12  C   UNL     1       9.437  11.967  24.596  1.00  0.00     0.025 A 
ATOM     13  C   UNL     1       8.777  10.663  26.557  1.00  0.00     0.161 A 
ATOM     14  C   UNL     1       9.138   9.486  25.887  1.00  0.00     0.157 A 
ATOM     15  C   UNL     1       8.936  11.904  25.907  1.00  0.00     0.062 A 
ATOM     16  C   UNL     1       9.657   9.547  24.589  1.00  0.00     0.051 A 
ATOM     17  C   UNL     1       9.812  10.779  23.949  1.00  0.00     0.016 A 
BRANCH  13  18
ATOM     18  O   UNL     1       8.267  10.561  27.862  1.00  0.00    -0.493 OA
ATOM     19  C   UNL     1       9.047  10.699  29.044  1.00  0.00     0.278 C 
ENDBRANCH  13  18
BRANCH  14  20
ATOM     20  O   UNL     1       8.982   8.255  26.524  1.00  0.00    -0.504 OA
ATOM     21  H   UNL     1       8.486   7.489  26.085  1.00  0.00     0.293 HD
ENDBRANCH  14  20
ENDBRANCH   1  12
BRANCH   2  22
ATOM     22  O   UNL     1       9.371  12.338  21.724  1.00  0.00    -0.502 OA
ATOM     23  H   UNL     1       9.758  12.264  20.790  1.00  0.00     0.293 HD
ENDBRANCH   2  22
BRANCH   6  24
ATOM     24  O   UNL     1      10.497  17.504  21.079  1.00  0.00    -0.507 OA
ATOM     25  H   UNL     1      11.045  16.966  20.426  1.00  0.00     0.293 HD
ENDBRANCH   6  24
BRANCH   8  26
ATOM     26  O   UNL     1      10.336  18.975  25.648  1.00  0.00    -0.508 OA
ATOM     27  H   UNL     1      11.141  19.591  25.679  1.00  0.00     0.293 HD
ENDBRANCH   8  26
TORSDOF 6
ENDMDL
MODEL 6
REMARK VINA RESULT:    -6.398      1.420      7.062
REMARK INTER + INTRA:          -7.643
REMARK INTER:                  -7.836
REMARK INTRA:                   0.193
REMARK UNBOUND:                 0.251
REMARK SMILES COc1cc(-c2oc3cc(O)cc(O)c3c(=O)c2O)ccc1O
REMARK SMILES IDX 6 1 18 2 16 3 17 4 15 5 13 6 12 7 10 8 9 9 8 10 7 11 5 12
REMARK SMILES IDX 3 13 22 14 4 15 21 16 20 17 2 18 1 19 23 20 19 22 14 24
REMARK SMILES IDX 11 26
REMARK H PARENT 23 21 19 23 14 25 11 27
REMARK Flexibility Score: inf
ROOT
ATOM      1  C   UNL     1       9.435  13.849  24.553  1.00  0.00     0.180 A 
ATOM      2  C   UNL     1       9.584  15.224  24.803  1.00  0.00     0.208 A 
ATOM      3  C   UNL     1       9.939  16.074  23.743  1.00  0.00     0.238 A 
ATOM      4  O   UNL     1      10.125  17.295  23.984  1.00  0.00    -0.285 OA
ATOM      5  C   UNL     1      10.123  15.542  22.444  1.00  0.00     0.111 A 
ATOM      6  C   UNL     1      10.444  16.317  21.289  1.00  0.00     0.134 A 
ATOM      7  C   UNL     1      10.731  15.669  20.081  1.00  0.00     0.093 A 
ATOM      8  C   UNL     1      10.645  14.278  19.971  1.00  0.00     0.123 A 
ATOM      9  C   UNL     1      10.274  13.519  21.078  1.00  0.00     0.094 A 
ATOM     10  C   UNL     1      10.017  14.134  22.306  1.00  0.00     0.146 A 
ATOM     11  O   UNL     1       9.677  13.371  23.338  1.00  0.00    -0.452 OA
ENDROOT
BRANCH   1  12
ATOM     12  C   UNL     1       9.039  12.894  25.613  1.00  0.00     0.025 A 
ATOM     13  C   UNL     1       9.018  10.607  26.479  1.00  0.00     0.161 A 
ATOM     14  C   UNL     1       8.256  11.035  27.574  1.00  0.00     0.157 A 
ATOM     15  C   UNL     1       9.401  11.542  25.495  1.00  0.00     0.062 A 
ATOM     16  C   UNL     1       7.876  12.378  27.683  1.00  0.00     0.051 A 
ATOM     17  C   UNL     1       8.258  13.301  26.707  1.00  0.00     0.016 A 
BRANCH  13  18
ATOM     18  O   UNL     1       9.373   9.250  26.400  1.00  0.00    -0.493 OA
ATOM     19  C   UNL     1       9.057   8.396  25.307  1.00  0.00     0.278 C 
ENDBRANCH  13  18
BRANCH  14  20
ATOM     20  O   UNL     1       7.875  10.116  28.550  1.00  0.00    -0.504 OA
ATOM     21  H   UNL     1       8.221  10.177  29.500  1.00  0.00     0.293 HD
ENDBRANCH  14  20
ENDBRANCH   1  12
BRANCH   2  22
ATOM     22  O   UNL     1       9.420  15.725  26.097  1.00  0.00    -0.502 OA
ATOM     23  H   UNL     1       9.144  16.683  26.279  1.00  0.00     0.293 HD
ENDBRANCH   2  22
BRANCH   6  24
ATOM     24  O   UNL     1      10.466  17.714  21.269  1.00  0.00    -0.507 OA
ATOM     25  H   UNL     1      11.103  18.287  21.800  1.00  0.00     0.293 HD
ENDBRANCH   6  24
BRANCH   8  26
ATOM     26  O   UNL     1      10.917  13.644  18.762  1.00  0.00    -0.508 OA
ATOM     27  H   UNL     1      10.617  14.036  17.877  1.00  0.00     0.293 HD
ENDBRANCH   8  26
TORSDOF 6
ENDMDL
MODEL 7
REMARK VINA RESULT:    -6.367      2.187      3.915
REMARK INTER + INTRA:          -7.605
REMARK INTER:                  -7.543
REMARK INTRA:                  -0.062
REMARK UNBOUND:                 0.251
REMARK SMILES COc1cc(-c2oc3cc(O)cc(O)c3c(=O)c2O)ccc1O
REMARK SMILES IDX 6 1 18 2 16 3 17 4 15 5 13 6 12 7 10 8 9 9 8 10 7 11 5 12
REMARK SMILES IDX 3 13 22 14 4 15 21 16 20 17 2 18 1 19 23 20 19 22 14 24
REMARK SMILES IDX 11 26
REMARK H PARENT 23 21 19 23 14 25 11 27
REMARK Flexibility Score: inf
ROOT
ATOM      1  C   UNL     1       9.992  14.888  23.491  1.00  0.00     0.180 A 
ATOM      2  C   UNL     1      10.583  13.958  22.617  1.00  0.00     0.208 A 
ATOM      3  C   UNL     1      10.495  12.590  22.920  1.00  0.00     0.238 A 
ATOM      4  O   UNL     1      11.071  11.766  22.163  1.00  0.00    -0.285 OA
ATOM      5  C   UNL     1       9.805  12.168  24.081  1.00  0.00     0.111 A 
ATOM      6  C   UNL     1       9.620  10.804  24.463  1.00  0.00     0.134 A 
ATOM      7  C   UNL     1       9.033  10.507  25.699  1.00  0.00     0.093 A 
ATOM      8  C   UNL     1       8.568  11.523  26.539  1.00  0.00     0.123 A 
ATOM      9  C   UNL     1       8.690  12.853  26.147  1.00  0.00     0.094 A 
ATOM     10  C   UNL     1       9.303  13.183  24.936  1.00  0.00     0.146 A 
ATOM     11  O   UNL     1       9.408  14.465  24.606  1.00  0.00    -0.452 OA
ENDROOT
BRANCH   1  12
ATOM     12  C   UNL     1      10.022  16.345  23.229  1.00  0.00     0.025 A 
ATOM     13  C   UNL     1      10.340  18.624  24.059  1.00  0.00     0.161 A 
ATOM     14  C   UNL     1      10.029  19.123  22.787  1.00  0.00     0.157 A 
ATOM     15  C   UNL     1      10.327  17.231  24.276  1.00  0.00     0.062 A 
ATOM     16  C   UNL     1       9.704  18.245  21.747  1.00  0.00     0.051 A 
ATOM     17  C   UNL     1       9.694  16.866  21.966  1.00  0.00     0.016 A 
BRANCH  13  18
ATOM     18  O   UNL     1      10.653  19.537  25.079  1.00  0.00    -0.493 OA
ATOM     19  C   UNL     1       9.904  19.693  26.279  1.00  0.00     0.278 C 
ENDBRANCH  13  18
BRANCH  14  20
ATOM     20  O   UNL     1      10.041  20.500  22.566  1.00  0.00    -0.504 OA
ATOM     21  H   UNL     1       9.190  21.049  22.589  1.00  0.00     0.293 HD
ENDBRANCH  14  20
ENDBRANCH   1  12
BRANCH   2  22
ATOM     22  O   UNL     1      11.278  14.399  21.489  1.00  0.00    -0.502 OA
ATOM     23  H   UNL     1      11.089  14.042  20.560  1.00  0.00     0.293 HD
ENDBRANCH   2  22
BRANCH   6  24
ATOM     24  O   UNL     1       9.965   9.715  23.657  1.00  0.00    -0.507 OA
ATOM     25  H   UNL     1      10.626   8.998  23.913  1.00  0.00     0.293 HD
ENDBRANCH   6  24
BRANCH   8  26
ATOM     26  O   UNL     1       7.972  11.218  27.760  1.00  0.00    -0.508 OA
ATOM     27  H   UNL     1       7.202  11.765  28.126  1.00  0.00     0.293 HD
ENDBRANCH   8  26
TORSDOF 6
ENDMDL
MODEL 8
REMARK VINA RESULT:    -6.096      1.185      2.185
REMARK INTER + INTRA:          -7.270
REMARK INTER:                  -7.217
REMARK INTRA:                  -0.053
REMARK UNBOUND:                 0.251
REMARK SMILES COc1cc(-c2oc3cc(O)cc(O)c3c(=O)c2O)ccc1O
REMARK SMILES IDX 6 1 18 2 16 3 17 4 15 5 13 6 12 7 10 8 9 9 8 10 7 11 5 12
REMARK SMILES IDX 3 13 22 14 4 15 21 16 20 17 2 18 1 19 23 20 19 22 14 24
REMARK SMILES IDX 11 26
REMARK H PARENT 23 21 19 23 14 25 11 27
REMARK Flexibility Score: inf
ROOT
ATOM      1  C   UNL     1       9.515  13.597  24.648  1.00  0.00     0.180 A 
ATOM      2  C   UNL     1       8.869  13.858  25.869  1.00  0.00     0.208 A 
ATOM      3  C   UNL     1       8.506  12.779  26.691  1.00  0.00     0.238 A 
ATOM      4  O   UNL     1       7.880  13.015  27.756  1.00  0.00    -0.285 OA
ATOM      5  C   UNL     1       8.808  11.455  26.290  1.00  0.00     0.111 A 
ATOM      6  C   UNL     1       8.522  10.290  27.064  1.00  0.00     0.134 A 
ATOM      7  C   UNL     1       8.747   9.022  26.511  1.00  0.00     0.093 A 
ATOM      8  C   UNL     1       9.307   8.880  25.239  1.00  0.00     0.123 A 
ATOM      9  C   UNL     1       9.645  10.012  24.502  1.00  0.00     0.094 A 
ATOM     10  C   UNL     1       9.399  11.290  25.011  1.00  0.00     0.146 A 
ATOM     11  O   UNL     1       9.726  12.341  24.270  1.00  0.00    -0.452 OA
ENDROOT
BRANCH   1  12
ATOM     12  C   UNL     1       9.951  14.682  23.739  1.00  0.00     0.025 A 
ATOM     13  C   UNL     1      10.109  15.587  21.472  1.00  0.00     0.161 A 
ATOM     14  C   UNL     1      10.813  16.692  21.970  1.00  0.00     0.157 A 
ATOM     15  C   UNL     1       9.686  14.579  22.363  1.00  0.00     0.062 A 
ATOM     16  C   UNL     1      11.097  16.787  23.337  1.00  0.00     0.051 A 
ATOM     17  C   UNL     1      10.675  15.787  24.216  1.00  0.00     0.016 A 
BRANCH  13  18
ATOM     18  O   UNL     1       9.851  15.523  20.094  1.00  0.00    -0.493 OA
ATOM     19  C   UNL     1      10.701  14.892  19.143  1.00  0.00     0.278 C 
ENDBRANCH  13  18
BRANCH  14  20
ATOM     20  O   UNL     1      11.233  17.692  21.094  1.00  0.00    -0.504 OA
ATOM     21  H   UNL     1      11.043  17.642  20.100  1.00  0.00     0.293 HD
ENDBRANCH  14  20
ENDBRANCH   1  12
BRANCH   2  22
ATOM     22  O   UNL     1       8.561  15.171  26.234  1.00  0.00    -0.502 OA
ATOM     23  H   UNL     1       8.761  15.963  25.636  1.00  0.00     0.293 HD
ENDBRANCH   2  22
BRANCH   6  24
ATOM     24  O   UNL     1       8.047  10.323  28.378  1.00  0.00    -0.507 OA
ATOM     25  H   UNL     1       7.143   9.988  28.671  1.00  0.00     0.293 HD
ENDBRANCH   6  24
BRANCH   8  26
ATOM     26  O   UNL     1       9.542   7.616  24.704  1.00  0.00    -0.508 OA
ATOM     27  H   UNL     1      10.482   7.269  24.556  1.00  0.00     0.293 HD
ENDBRANCH   8  26
TORSDOF 6
ENDMDL
MODEL 9
REMARK VINA RESULT:    -6.062      3.577      6.719
REMARK INTER + INTRA:          -7.228
REMARK INTER:                  -6.837
REMARK INTRA:                  -0.391
REMARK UNBOUND:                 0.251
REMARK SMILES COc1cc(-c2oc3cc(O)cc(O)c3c(=O)c2O)ccc1O
REMARK SMILES IDX 6 1 18 2 16 3 17 4 15 5 13 6 12 7 10 8 9 9 8 10 7 11 5 12
REMARK SMILES IDX 3 13 22 14 4 15 21 16 20 17 2 18 1 19 23 20 19 22 14 24
REMARK SMILES IDX 11 26
REMARK H PARENT 23 21 19 23 14 25 11 27
REMARK Flexibility Score: inf
ROOT
ATOM      1  C   UNL     1       9.294  16.694  23.996  1.00  0.00     0.180 A 
ATOM      2  C   UNL     1       8.851  15.410  24.356  1.00  0.00     0.208 A 
ATOM      3  C   UNL     1       9.041  14.347  23.458  1.00  0.00     0.238 A 
ATOM      4  O   UNL     1       8.594  13.211  23.763  1.00  0.00    -0.285 OA
ATOM      5  C   UNL     1       9.687  14.578  22.220  1.00  0.00     0.111 A 
ATOM      6  C   UNL     1       9.968  13.567  21.252  1.00  0.00     0.134 A 
ATOM      7  C   UNL     1      10.494  13.932  20.006  1.00  0.00     0.093 A 
ATOM      8  C   UNL     1      10.809  15.263  19.719  1.00  0.00     0.123 A 
ATOM      9  C   UNL     1      10.593  16.247  20.679  1.00  0.00     0.094 A 
ATOM     10  C   UNL     1      10.036  15.920  21.918  1.00  0.00     0.146 A 
ATOM     11  O   UNL     1       9.838  16.891  22.800  1.00  0.00    -0.452 OA
ENDROOT
BRANCH   1  12
ATOM     12  C   UNL     1       9.151  17.859  24.899  1.00  0.00     0.025 A 
ATOM     13  C   UNL     1      10.029  19.214  26.736  1.00  0.00     0.161 A 
ATOM     14  C   UNL     1       8.889  20.026  26.673  1.00  0.00     0.157 A 
ATOM     15  C   UNL     1      10.151  18.125  25.849  1.00  0.00     0.062 A 
ATOM     16  C   UNL     1       7.880  19.751  25.741  1.00  0.00     0.051 A 
ATOM     17  C   UNL     1       8.006  18.672  24.864  1.00  0.00     0.016 A 
BRANCH  13  18
ATOM     18  O   UNL     1      11.015  19.517  27.689  1.00  0.00    -0.493 OA
ATOM     19  C   UNL     1      11.119  18.896  28.965  1.00  0.00     0.278 C 
ENDBRANCH  13  18
BRANCH  14  20
ATOM     20  O   UNL     1       8.762  21.106  27.547  1.00  0.00    -0.504 OA
ATOM     21  H   UNL     1       8.030  21.796  27.434  1.00  0.00     0.293 HD
ENDBRANCH  14  20
ENDBRANCH   1  12
BRANCH   2  22
ATOM     22  O   UNL     1       8.196  15.209  25.574  1.00  0.00    -0.502 OA
ATOM     23  H   UNL     1       8.087  14.291  25.988  1.00  0.00     0.293 HD
ENDBRANCH   2  22
BRANCH   6  24
ATOM     24  O   UNL     1       9.778  12.200  21.474  1.00  0.00    -0.507 OA
ATOM     25  H   UNL     1       9.162  11.811  22.171  1.00  0.00     0.293 HD
ENDBRANCH   6  24
BRANCH   8  26
ATOM     26  O   UNL     1      11.346  15.614  18.483  1.00  0.00    -0.508 OA
ATOM     27  H   UNL     1      11.208  15.037  17.661  1.00  0.00     0.293 HD
ENDBRANCH   8  26
TORSDOF 6
ENDMDL
