MODEL 1
REMARK VINA RESULT:    -3.511      0.000      0.000
REMARK INTER + INTRA:          -4.162
REMARK INTER:                  -4.127
REMARK INTRA:                  -0.035
REMARK UNBOUND:                -0.035
REMARK SMILES O=C([O-])CCC(=O)[O-]
REMARK SMILES IDX 4 1 2 2 1 3 3 4 5 5 6 6 7 7 8 8
REMARK H PARENT
REMARK Flexibility Score: inf
ROOT
ATOM      1  C   UNL     1    -117.222 -35.190 -56.809  1.00  0.00     0.059 C 
ENDROOT
BRANCH   1   2
ATOM      2  C   UNL     1    -115.840 -35.586 -57.223  1.00  0.00     0.042 C 
ATOM      3  O   UNL     1    -115.069 -36.149 -56.401  1.00  0.00    -0.550 OA
ATOM      4  O   UNL     1    -115.384 -35.288 -58.501  1.00  0.00    -0.550 OA
ENDBRANCH   1   2
BRANCH   1   5
ATOM      5  C   UNL     1    -118.003 -36.408 -56.316  1.00  0.00     0.059 C 
BRANCH   5   6
ATOM      6  C   UNL     1    -119.472 -36.130 -56.332  1.00  0.00     0.042 C 
ATOM      7  O   UNL     1    -120.272 -36.912 -55.755  1.00  0.00    -0.550 OA
ATOM      8  O   UNL     1    -119.964 -35.032 -57.028  1.00  0.00    -0.550 OA
ENDBRANCH   5   6
ENDBRANCH   1   5
TORSDOF 3
ENDMDL
MODEL 2
REMARK VINA RESULT:    -3.488      0.133      4.243
REMARK INTER + INTRA:          -4.134
REMARK INTER:                  -4.100
REMARK INTRA:                  -0.034
REMARK UNBOUND:                -0.035
REMARK SMILES O=C([O-])CCC(=O)[O-]
REMARK SMILES IDX 4 1 2 2 1 3 3 4 5 5 6 6 7 7 8 8
REMARK H PARENT
REMARK Flexibility Score: inf
ROOT
ATOM      1  C   UNL     1    -117.881 -36.381 -56.375  1.00  0.00     0.059 C 
ENDROOT
BRANCH   1   2
ATOM      2  C   UNL     1    -119.353 -36.119 -56.335  1.00  0.00     0.042 C 
ATOM      3  O   UNL     1    -120.128 -36.939 -55.776  1.00  0.00    -0.550 OA
ATOM      4  O   UNL     1    -119.876 -34.993 -56.959  1.00  0.00    -0.550 OA
ENDBRANCH   1   2
BRANCH   1   5
ATOM      5  C   UNL     1    -117.129 -35.139 -56.853  1.00  0.00     0.059 C 
BRANCH   5   6
ATOM      6  C   UNL     1    -115.748 -35.502 -57.300  1.00  0.00     0.042 C 
ATOM      7  O   UNL     1    -115.385 -35.275 -58.484  1.00  0.00    -0.550 OA
ATOM      8  O   UNL     1    -114.878 -36.137 -56.422  1.00  0.00    -0.550 OA
ENDBRANCH   5   6
ENDBRANCH   1   5
TORSDOF 3
ENDMDL
MODEL 3
REMARK VINA RESULT:    -3.377     11.258     12.029
REMARK INTER + INTRA:          -4.004
REMARK INTER:                  -3.908
REMARK INTRA:                  -0.096
REMARK UNBOUND:                -0.035
REMARK SMILES O=C([O-])CCC(=O)[O-]
REMARK SMILES IDX 4 1 2 2 1 3 3 4 5 5 6 6 7 7 8 8
REMARK H PARENT
REMARK Flexibility Score: inf
ROOT
ATOM      1  C   UNL     1    -113.396 -41.764 -64.685  1.00  0.00     0.059 C 
ENDROOT
BRANCH   1   2
ATOM      2  C   UNL     1    -112.326 -42.768 -64.392  1.00  0.00     0.042 C 
ATOM      3  O   UNL     1    -112.333 -43.403 -63.305  1.00  0.00    -0.550 OA
ATOM      4  O   UNL     1    -111.292 -42.967 -65.299  1.00  0.00    -0.550 OA
ENDBRANCH   1   2
BRANCH   1   5
ATOM      5  C   UNL     1    -112.953 -40.821 -65.805  1.00  0.00     0.059 C 
BRANCH   5   6
ATOM      6  C   UNL     1    -113.707 -41.112 -67.064  1.00  0.00     0.042 C 
ATOM      7  O   UNL     1    -114.611 -41.989 -67.073  1.00  0.00    -0.550 OA
ATOM      8  O   UNL     1    -113.378 -40.450 -68.240  1.00  0.00    -0.550 OA
ENDBRANCH   5   6
ENDBRANCH   1   5
TORSDOF 3
ENDMDL
MODEL 4
REMARK VINA RESULT:    -3.357     11.300     12.192
REMARK INTER + INTRA:          -3.980
REMARK INTER:                  -3.886
REMARK INTRA:                  -0.094
REMARK UNBOUND:                -0.035
REMARK SMILES O=C([O-])CCC(=O)[O-]
REMARK SMILES IDX 4 1 2 2 1 3 3 4 5 5 6 6 7 7 8 8
REMARK H PARENT
REMARK Flexibility Score: inf
ROOT
ATOM      1  C   UNL     1    -112.959 -40.843 -65.762  1.00  0.00     0.059 C 
ENDROOT
BRANCH   1   2
ATOM      2  C   UNL     1    -113.674 -41.150 -67.039  1.00  0.00     0.042 C 
ATOM      3  O   UNL     1    -114.500 -42.099 -67.091  1.00  0.00    -0.550 OA
ATOM      4  O   UNL     1    -113.392 -40.421 -68.188  1.00  0.00    -0.550 OA
ENDBRANCH   1   2
BRANCH   1   5
ATOM      5  C   UNL     1    -113.376 -41.823 -64.666  1.00  0.00     0.059 C 
BRANCH   5   6
ATOM      6  C   UNL     1    -112.275 -42.796 -64.387  1.00  0.00     0.042 C 
ATOM      7  O   UNL     1    -112.254 -43.436 -63.302  1.00  0.00    -0.550 OA
ATOM      8  O   UNL     1    -111.244 -42.961 -65.303  1.00  0.00    -0.550 OA
ENDBRANCH   5   6
ENDBRANCH   1   5
TORSDOF 3
ENDMDL
MODEL 5
REMARK VINA RESULT:    -3.351     11.277     12.083
REMARK INTER + INTRA:          -3.973
REMARK INTER:                  -3.876
REMARK INTRA:                  -0.097
REMARK UNBOUND:                -0.035
REMARK SMILES O=C([O-])CCC(=O)[O-]
REMARK SMILES IDX 4 1 2 2 1 3 3 4 5 5 6 6 7 7 8 8
REMARK H PARENT
REMARK Flexibility Score: inf
ROOT
ATOM      1  C   UNL     1    -113.399 -41.812 -64.730  1.00  0.00     0.059 C 
ENDROOT
BRANCH   1   2
ATOM      2  C   UNL     1    -112.282 -42.753 -64.408  1.00  0.00     0.042 C 
ATOM      3  O   UNL     1    -111.376 -42.976 -65.254  1.00  0.00    -0.550 OA
ATOM      4  O   UNL     1    -112.268 -43.425 -63.192  1.00  0.00    -0.550 OA
ENDBRANCH   1   2
BRANCH   1   5
ATOM      5  C   UNL     1    -112.964 -40.813 -65.803  1.00  0.00     0.059 C 
BRANCH   5   6
ATOM      6  C   UNL     1    -113.680 -41.081 -67.089  1.00  0.00     0.042 C 
ATOM      7  O   UNL     1    -114.526 -42.011 -67.161  1.00  0.00    -0.550 OA
ATOM      8  O   UNL     1    -113.378 -40.336 -68.222  1.00  0.00    -0.550 OA
ENDBRANCH   5   6
ENDBRANCH   1   5
TORSDOF 3
ENDMDL
MODEL 6
REMARK VINA RESULT:    -3.349     11.329     12.268
REMARK INTER + INTRA:          -3.972
REMARK INTER:                  -3.890
REMARK INTRA:                  -0.081
REMARK UNBOUND:                -0.035
REMARK SMILES O=C([O-])CCC(=O)[O-]
REMARK SMILES IDX 4 1 2 2 1 3 3 4 5 5 6 6 7 7 8 8
REMARK H PARENT
REMARK Flexibility Score: inf
ROOT
ATOM      1  C   UNL     1    -112.974 -40.816 -65.782  1.00  0.00     0.059 C 
ENDROOT
BRANCH   1   2
ATOM      2  C   UNL     1    -113.640 -41.121 -67.086  1.00  0.00     0.042 C 
ATOM      3  O   UNL     1    -113.383 -40.429 -68.107  1.00  0.00    -0.550 OA
ATOM      4  O   UNL     1    -114.583 -42.138 -67.164  1.00  0.00    -0.550 OA
ENDBRANCH   1   2
BRANCH   1   5
ATOM      5  C   UNL     1    -113.386 -41.835 -64.719  1.00  0.00     0.059 C 
BRANCH   5   6
ATOM      6  C   UNL     1    -112.261 -42.779 -64.436  1.00  0.00     0.042 C 
ATOM      7  O   UNL     1    -111.355 -42.961 -65.291  1.00  0.00    -0.550 OA
ATOM      8  O   UNL     1    -112.238 -43.497 -63.247  1.00  0.00    -0.550 OA
ENDBRANCH   5   6
ENDBRANCH   1   5
TORSDOF 3
ENDMDL
MODEL 7
REMARK VINA RESULT:    -3.291      1.542      2.113
REMARK INTER + INTRA:          -3.903
REMARK INTER:                  -3.867
REMARK INTRA:                  -0.036
REMARK UNBOUND:                -0.035
REMARK SMILES O=C([O-])CCC(=O)[O-]
REMARK SMILES IDX 4 1 2 2 1 3 3 4 5 5 6 6 7 7 8 8
REMARK H PARENT
REMARK Flexibility Score: inf
ROOT
ATOM      1  C   UNL     1    -118.620 -36.605 -56.087  1.00  0.00     0.059 C 
ENDROOT
BRANCH   1   2
ATOM      2  C   UNL     1    -117.282 -36.102 -56.526  1.00  0.00     0.042 C 
ATOM      3  O   UNL     1    -116.267 -36.843 -56.443  1.00  0.00    -0.550 OA
ATOM      4  O   UNL     1    -117.145 -34.796 -56.981  1.00  0.00    -0.550 OA
ENDBRANCH   1   2
BRANCH   1   5
ATOM      5  C   UNL     1    -119.714 -35.598 -56.443  1.00  0.00     0.059 C 
BRANCH   5   6
ATOM      6  C   UNL     1    -121.060 -36.130 -56.064  1.00  0.00     0.042 C 
ATOM      7  O   UNL     1    -122.030 -35.344 -55.904  1.00  0.00    -0.550 OA
ATOM      8  O   UNL     1    -121.231 -37.490 -55.837  1.00  0.00    -0.550 OA
ENDBRANCH   5   6
ENDBRANCH   1   5
TORSDOF 3
ENDMDL
MODEL 8
REMARK VINA RESULT:    -3.221      4.130      4.592
REMARK INTER + INTRA:          -3.821
REMARK INTER:                  -3.661
REMARK INTRA:                  -0.160
REMARK UNBOUND:                -0.035
REMARK SMILES O=C([O-])CCC(=O)[O-]
REMARK SMILES IDX 4 1 2 2 1 3 3 4 5 5 6 6 7 7 8 8
REMARK H PARENT
REMARK Flexibility Score: inf
ROOT
ATOM      1  C   UNL     1    -120.177 -35.168 -56.819  1.00  0.00     0.059 C 
ENDROOT
BRANCH   1   2
ATOM      2  C   UNL     1    -121.184 -34.239 -56.221  1.00  0.00     0.042 C 
ATOM      3  O   UNL     1    -122.060 -33.700 -56.948  1.00  0.00    -0.550 OA
ATOM      4  O   UNL     1    -121.126 -33.927 -54.868  1.00  0.00    -0.550 OA
ENDBRANCH   1   2
BRANCH   1   5
ATOM      5  C   UNL     1    -120.254 -36.542 -56.153  1.00  0.00     0.059 C 
BRANCH   5   6
ATOM      6  C   UNL     1    -121.630 -37.114 -56.290  1.00  0.00     0.042 C 
ATOM      7  O   UNL     1    -122.247 -37.531 -55.275  1.00  0.00    -0.550 OA
ATOM      8  O   UNL     1    -122.212 -37.232 -57.547  1.00  0.00    -0.550 OA
ENDBRANCH   5   6
ENDBRANCH   1   5
TORSDOF 3
ENDMDL
MODEL 9
REMARK VINA RESULT:    -3.160      2.822      3.936
REMARK INTER + INTRA:          -3.749
REMARK INTER:                  -3.634
REMARK INTRA:                  -0.116
REMARK UNBOUND:                -0.035
REMARK SMILES O=C([O-])CCC(=O)[O-]
REMARK SMILES IDX 4 1 2 2 1 3 3 4 5 5 6 6 7 7 8 8
REMARK H PARENT
REMARK Flexibility Score: inf
ROOT
ATOM      1  C   UNL     1    -119.883 -35.078 -56.763  1.00  0.00     0.059 C 
ENDROOT
BRANCH   1   2
ATOM      2  C   UNL     1    -119.693 -36.446 -56.190  1.00  0.00     0.042 C 
ATOM      3  O   UNL     1    -120.692 -37.148 -55.879  1.00  0.00    -0.550 OA
ATOM      4  O   UNL     1    -118.413 -36.929 -55.953  1.00  0.00    -0.550 OA
ENDBRANCH   1   2
BRANCH   1   5
ATOM      5  C   UNL     1    -121.227 -34.495 -56.324  1.00  0.00     0.059 C 
BRANCH   5   6
ATOM      6  C   UNL     1    -122.158 -34.387 -57.491  1.00  0.00     0.042 C 
ATOM      7  O   UNL     1    -122.808 -35.393 -57.878  1.00  0.00    -0.550 OA
ATOM      8  O   UNL     1    -122.270 -33.187 -58.181  1.00  0.00    -0.550 OA
ENDBRANCH   5   6
ENDBRANCH   1   5
TORSDOF 3
ENDMDL
