MODEL 1
REMARK VINA RESULT:    -5.775      0.000      0.000
REMARK INTER + INTRA:         -10.686
REMARK INTER:                  -9.996
REMARK INTRA:                  -0.691
REMARK UNBOUND:                -0.691
REMARK SMILES CCCCCCCCCCCCCCO
REMARK SMILES IDX 8 1 7 2 6 3 5 4 4 5 3 6 2 7 1 8 9 9 10 10 11 11 12 12 13 13
REMARK SMILES IDX 14 14 15 15
REMARK H PARENT 15 16
REMARK Flexibility Score: inf
ROOT
ATOM      1  C   UNL     1     -10.682  -2.005  -9.987  1.00  0.00     0.000 C 
ENDROOT
BRANCH   1   2
ATOM      2  C   UNL     1     -10.551  -2.178  -8.460  1.00  0.00    -0.000 C 
BRANCH   2   3
ATOM      3  C   UNL     1     -10.303  -3.624  -7.989  1.00  0.00    -0.000 C 
BRANCH   3   4
ATOM      4  C   UNL     1     -11.308  -4.621  -8.588  1.00  0.00    -0.000 C 
BRANCH   4   5
ATOM      5  C   UNL     1     -11.607  -5.758  -7.605  1.00  0.00    -0.000 C 
BRANCH   5   6
ATOM      6  C   UNL     1     -11.031  -5.443  -6.216  1.00  0.00    -0.000 C 
BRANCH   6   7
ATOM      7  C   UNL     1     -11.927  -5.953  -5.077  1.00  0.00    -0.003 C 
ATOM      8  C   UNL     1     -12.042  -7.477  -5.050  1.00  0.00     0.004 C 
ENDBRANCH   6   7
ENDBRANCH   5   6
ENDBRANCH   4   5
ENDBRANCH   3   4
ENDBRANCH   2   3
ENDBRANCH   1   2
BRANCH   1   9
ATOM      9  C   UNL     1     -11.295  -0.668 -10.441  1.00  0.00     0.000 C 
BRANCH   9  10
ATOM     10  C   UNL     1     -12.830  -0.676 -10.410  1.00  0.00     0.000 C 
BRANCH  10  11
ATOM     11  C   UNL     1     -13.395   0.607  -9.795  1.00  0.00     0.000 C 
BRANCH  11  12
ATOM     12  C   UNL     1     -12.302   1.541  -9.258  1.00  0.00     0.002 C 
BRANCH  12  13
ATOM     13  C   UNL     1     -12.773   3.005  -9.179  1.00  0.00     0.028 C 
BRANCH  13  14
ATOM     14  C   UNL     1     -11.996   3.810  -8.123  1.00  0.00     0.156 C 
BRANCH  14  15
ATOM     15  O   UNL     1     -10.680   3.327  -8.036  1.00  0.00    -0.396 OA
ATOM     16  H   UNL     1     -10.699   2.387  -8.367  1.00  0.00     0.210 HD
ENDBRANCH  14  15
ENDBRANCH  13  14
ENDBRANCH  12  13
ENDBRANCH  11  12
ENDBRANCH  10  11
ENDBRANCH   9  10
ENDBRANCH   1   9
TORSDOF 13
ENDMDL
MODEL 2
REMARK VINA RESULT:    -5.654      1.121      1.716
REMARK INTER + INTRA:         -10.476
REMARK INTER:                  -9.785
REMARK INTRA:                  -0.691
REMARK UNBOUND:                -0.691
REMARK SMILES CCCCCCCCCCCCCCO
REMARK SMILES IDX 8 1 7 2 6 3 5 4 4 5 3 6 2 7 1 8 9 9 10 10 11 11 12 12 13 13
REMARK SMILES IDX 14 14 15 15
REMARK H PARENT 15 16
REMARK Flexibility Score: inf
ROOT
ATOM      1  C   UNL     1     -11.734  -0.277  -9.724  1.00  0.00     0.000 C 
ENDROOT
BRANCH   1   2
ATOM      2  C   UNL     1     -10.756  -1.453  -9.922  1.00  0.00    -0.000 C 
BRANCH   2   3
ATOM      3  C   UNL     1     -11.334  -2.842  -9.585  1.00  0.00    -0.000 C 
BRANCH   3   4
ATOM      4  C   UNL     1     -10.271  -3.950  -9.624  1.00  0.00    -0.000 C 
BRANCH   4   5
ATOM      5  C   UNL     1      -9.585  -4.104  -8.262  1.00  0.00    -0.000 C 
BRANCH   5   6
ATOM      6  C   UNL     1     -10.623  -4.340  -7.154  1.00  0.00    -0.000 C 
BRANCH   6   7
ATOM      7  C   UNL     1     -10.758  -5.823  -6.779  1.00  0.00    -0.003 C 
ATOM      8  C   UNL     1     -12.206  -6.240  -6.518  1.00  0.00     0.004 C 
ENDBRANCH   6   7
ENDBRANCH   5   6
ENDBRANCH   4   5
ENDBRANCH   3   4
ENDBRANCH   2   3
ENDBRANCH   1   2
BRANCH   1   9
ATOM      9  C   UNL     1     -13.070  -0.408 -10.476  1.00  0.00     0.000 C 
BRANCH   9  10
ATOM     10  C   UNL     1     -14.263   0.127  -9.670  1.00  0.00     0.000 C 
BRANCH  10  11
ATOM     11  C   UNL     1     -14.547   1.599  -9.983  1.00  0.00     0.000 C 
BRANCH  11  12
ATOM     12  C   UNL     1     -14.008   2.552  -8.908  1.00  0.00     0.002 C 
BRANCH  12  13
ATOM     13  C   UNL     1     -12.662   3.183  -9.311  1.00  0.00     0.028 C 
BRANCH  13  14
ATOM     14  C   UNL     1     -11.967   3.875  -8.126  1.00  0.00     0.156 C 
BRANCH  14  15
ATOM     15  O   UNL     1     -10.624   3.466  -8.062  1.00  0.00    -0.396 OA
ATOM     16  H   UNL     1     -10.325   3.617  -7.123  1.00  0.00     0.210 HD
ENDBRANCH  14  15
ENDBRANCH  13  14
ENDBRANCH  12  13
ENDBRANCH  11  12
ENDBRANCH  10  11
ENDBRANCH   9  10
ENDBRANCH   1   9
TORSDOF 13
ENDMDL
MODEL 3
REMARK VINA RESULT:    -5.356      3.032      7.681
REMARK INTER + INTRA:          -9.960
REMARK INTER:                  -9.278
REMARK INTRA:                  -0.682
REMARK UNBOUND:                -0.691
REMARK SMILES CCCCCCCCCCCCCCO
REMARK SMILES IDX 8 1 7 2 6 3 5 4 4 5 3 6 2 7 1 8 9 9 10 10 11 11 12 12 13 13
REMARK SMILES IDX 14 14 15 15
REMARK H PARENT 15 16
REMARK Flexibility Score: inf
ROOT
ATOM      1  C   UNL     1     -10.976  -1.261  -9.189  1.00  0.00     0.000 C 
ENDROOT
BRANCH   1   2
ATOM      2  C   UNL     1     -11.738  -0.193 -10.001  1.00  0.00    -0.000 C 
BRANCH   2   3
ATOM      3  C   UNL     1     -13.183  -0.576 -10.381  1.00  0.00    -0.000 C 
BRANCH   3   4
ATOM      4  C   UNL     1     -14.204   0.499  -9.977  1.00  0.00    -0.000 C 
BRANCH   4   5
ATOM      5  C   UNL     1     -13.507   1.817  -9.624  1.00  0.00    -0.000 C 
BRANCH   5   6
ATOM      6  C   UNL     1     -14.454   2.743  -8.847  1.00  0.00    -0.000 C 
BRANCH   6   7
ATOM      7  C   UNL     1     -13.722   3.935  -8.212  1.00  0.00    -0.003 C 
ATOM      8  C   UNL     1     -12.204   3.848  -8.362  1.00  0.00     0.004 C 
ENDBRANCH   6   7
ENDBRANCH   5   6
ENDBRANCH   4   5
ENDBRANCH   3   4
ENDBRANCH   2   3
ENDBRANCH   1   2
BRANCH   1   9
ATOM      9  C   UNL     1     -10.395  -2.418 -10.020  1.00  0.00     0.000 C 
BRANCH   9  10
ATOM     10  C   UNL     1     -10.576  -3.786  -9.344  1.00  0.00     0.000 C 
BRANCH  10  11
ATOM     11  C   UNL     1     -10.606  -3.667  -7.818  1.00  0.00     0.000 C 
BRANCH  11  12
ATOM     12  C   UNL     1     -10.685  -5.029  -7.116  1.00  0.00     0.002 C 
BRANCH  12  13
ATOM     13  C   UNL     1     -11.866  -5.879  -7.621  1.00  0.00     0.028 C 
BRANCH  13  14
ATOM     14  C   UNL     1     -11.398  -7.149  -8.351  1.00  0.00     0.156 C 
BRANCH  14  15
ATOM     15  O   UNL     1     -11.776  -7.084  -9.702  1.00  0.00    -0.396 OA
ATOM     16  H   UNL     1     -10.933  -7.049 -10.232  1.00  0.00     0.210 HD
ENDBRANCH  14  15
ENDBRANCH  13  14
ENDBRANCH  12  13
ENDBRANCH  11  12
ENDBRANCH  10  11
ENDBRANCH   9  10
ENDBRANCH   1   9
TORSDOF 13
ENDMDL
MODEL 4
REMARK VINA RESULT:    -5.320      1.427      1.550
REMARK INTER + INTRA:          -9.899
REMARK INTER:                  -9.342
REMARK INTRA:                  -0.557
REMARK UNBOUND:                -0.691
REMARK SMILES CCCCCCCCCCCCCCO
REMARK SMILES IDX 8 1 7 2 6 3 5 4 4 5 3 6 2 7 1 8 9 9 10 10 11 11 12 12 13 13
REMARK SMILES IDX 14 14 15 15
REMARK H PARENT 15 16
REMARK Flexibility Score: inf
ROOT
ATOM      1  C   UNL     1     -11.039  -1.455  -9.245  1.00  0.00     0.000 C 
ENDROOT
BRANCH   1   2
ATOM      2  C   UNL     1     -10.690  -2.856  -9.790  1.00  0.00    -0.000 C 
BRANCH   2   3
ATOM      3  C   UNL     1     -10.363  -3.909  -8.713  1.00  0.00    -0.000 C 
BRANCH   3   4
ATOM      4  C   UNL     1     -11.403  -5.038  -8.653  1.00  0.00    -0.000 C 
BRANCH   4   5
ATOM      5  C   UNL     1     -10.724  -6.411  -8.630  1.00  0.00    -0.000 C 
BRANCH   5   6
ATOM      6  C   UNL     1     -10.725  -6.995  -7.209  1.00  0.00    -0.000 C 
BRANCH   6   7
ATOM      7  C   UNL     1     -12.013  -6.668  -6.439  1.00  0.00    -0.003 C 
ATOM      8  C   UNL     1     -11.744  -6.023  -5.080  1.00  0.00     0.004 C 
ENDBRANCH   6   7
ENDBRANCH   5   6
ENDBRANCH   4   5
ENDBRANCH   3   4
ENDBRANCH   2   3
ENDBRANCH   1   2
BRANCH   1   9
ATOM      9  C   UNL     1     -11.709  -0.511 -10.259  1.00  0.00     0.000 C 
BRANCH   9  10
ATOM     10  C   UNL     1     -13.194  -0.835 -10.483  1.00  0.00     0.000 C 
BRANCH  10  11
ATOM     11  C   UNL     1     -14.092   0.364 -10.166  1.00  0.00     0.000 C 
BRANCH  11  12
ATOM     12  C   UNL     1     -13.328   1.527  -9.520  1.00  0.00     0.002 C 
BRANCH  12  13
ATOM     13  C   UNL     1     -14.273   2.605  -8.958  1.00  0.00     0.028 C 
BRANCH  13  14
ATOM     14  C   UNL     1     -13.509   3.837  -8.444  1.00  0.00     0.156 C 
BRANCH  14  15
ATOM     15  O   UNL     1     -14.280   4.499  -7.474  1.00  0.00    -0.396 OA
ATOM     16  H   UNL     1     -14.031   5.463  -7.521  1.00  0.00     0.210 HD
ENDBRANCH  14  15
ENDBRANCH  13  14
ENDBRANCH  12  13
ENDBRANCH  11  12
ENDBRANCH  10  11
ENDBRANCH   9  10
ENDBRANCH   1   9
TORSDOF 13
ENDMDL
MODEL 5
REMARK VINA RESULT:    -4.918      3.182      7.394
REMARK INTER + INTRA:          -9.203
REMARK INTER:                  -8.441
REMARK INTRA:                  -0.762
REMARK UNBOUND:                -0.691
REMARK SMILES CCCCCCCCCCCCCCO
REMARK SMILES IDX 8 1 7 2 6 3 5 4 4 5 3 6 2 7 1 8 9 9 10 10 11 11 12 12 13 13
REMARK SMILES IDX 14 14 15 15
REMARK H PARENT 15 16
REMARK Flexibility Score: inf
ROOT
ATOM      1  C   UNL     1      -9.743  -3.546  -8.460  1.00  0.00     0.000 C 
ENDROOT
BRANCH   1   2
ATOM      2  C   UNL     1     -10.821  -3.145  -9.489  1.00  0.00    -0.000 C 
BRANCH   2   3
ATOM      3  C   UNL     1     -10.617  -1.761 -10.136  1.00  0.00    -0.000 C 
BRANCH   3   4
ATOM      4  C   UNL     1     -11.135  -0.614  -9.254  1.00  0.00    -0.000 C 
BRANCH   4   5
ATOM      5  C   UNL     1     -12.248   0.165  -9.962  1.00  0.00    -0.000 C 
BRANCH   5   6
ATOM      6  C   UNL     1     -13.374  -0.779 -10.410  1.00  0.00    -0.000 C 
BRANCH   6   7
ATOM      7  C   UNL     1     -14.738  -0.077 -10.484  1.00  0.00    -0.003 C 
ATOM      8  C   UNL     1     -14.793   1.202  -9.648  1.00  0.00     0.004 C 
ENDBRANCH   6   7
ENDBRANCH   5   6
ENDBRANCH   4   5
ENDBRANCH   3   4
ENDBRANCH   2   3
ENDBRANCH   1   2
BRANCH   1   9
ATOM      9  C   UNL     1      -9.997  -4.881  -7.739  1.00  0.00     0.000 C 
BRANCH   9  10
ATOM     10  C   UNL     1     -10.886  -4.726  -6.495  1.00  0.00     0.000 C 
BRANCH  10  11
ATOM     11  C   UNL     1     -11.252  -6.082  -5.884  1.00  0.00     0.000 C 
BRANCH  11  12
ATOM     12  C   UNL     1     -11.887  -7.041  -6.900  1.00  0.00     0.002 C 
BRANCH  12  13
ATOM     13  C   UNL     1     -13.276  -6.564  -7.363  1.00  0.00     0.028 C 
BRANCH  13  14
ATOM     14  C   UNL     1     -13.497  -6.793  -8.868  1.00  0.00     0.156 C 
BRANCH  14  15
ATOM     15  O   UNL     1     -12.256  -6.916  -9.514  1.00  0.00    -0.396 OA
ATOM     16  H   UNL     1     -12.121  -7.888  -9.689  1.00  0.00     0.210 HD
ENDBRANCH  14  15
ENDBRANCH  13  14
ENDBRANCH  12  13
ENDBRANCH  11  12
ENDBRANCH  10  11
ENDBRANCH   9  10
ENDBRANCH   1   9
TORSDOF 13
ENDMDL
MODEL 6
REMARK VINA RESULT:    -4.904      2.628      7.744
REMARK INTER + INTRA:          -9.178
REMARK INTER:                  -8.639
REMARK INTRA:                  -0.539
REMARK UNBOUND:                -0.691
REMARK SMILES CCCCCCCCCCCCCCO
REMARK SMILES IDX 8 1 7 2 6 3 5 4 4 5 3 6 2 7 1 8 9 9 10 10 11 11 12 12 13 13
REMARK SMILES IDX 14 14 15 15
REMARK H PARENT 15 16
REMARK Flexibility Score: inf
ROOT
ATOM      1  C   UNL     1     -11.135  -3.263  -9.653  1.00  0.00     0.000 C 
ENDROOT
BRANCH   1   2
ATOM      2  C   UNL     1     -10.664  -1.941  -9.013  1.00  0.00    -0.000 C 
BRANCH   2   3
ATOM      3  C   UNL     1     -11.112  -0.665  -9.753  1.00  0.00    -0.000 C 
BRANCH   3   4
ATOM      4  C   UNL     1     -12.510  -0.801 -10.374  1.00  0.00    -0.000 C 
BRANCH   4   5
ATOM      5  C   UNL     1     -13.392   0.399 -10.013  1.00  0.00    -0.000 C 
BRANCH   5   6
ATOM      6  C   UNL     1     -12.580   1.464  -9.260  1.00  0.00    -0.000 C 
BRANCH   6   7
ATOM      7  C   UNL     1     -13.297   2.822  -9.204  1.00  0.00    -0.003 C 
ATOM      8  C   UNL     1     -12.372   3.965  -8.789  1.00  0.00     0.004 C 
ENDBRANCH   6   7
ENDBRANCH   5   6
ENDBRANCH   4   5
ENDBRANCH   3   4
ENDBRANCH   2   3
ENDBRANCH   1   2
BRANCH   1   9
ATOM      9  C   UNL     1     -11.318  -4.433  -8.671  1.00  0.00     0.000 C 
BRANCH   9  10
ATOM     10  C   UNL     1     -10.295  -5.558  -8.888  1.00  0.00     0.000 C 
BRANCH  10  11
ATOM     11  C   UNL     1     -10.967  -6.932  -8.959  1.00  0.00     0.000 C 
BRANCH  11  12
ATOM     12  C   UNL     1     -10.969  -7.666  -7.611  1.00  0.00     0.002 C 
BRANCH  12  13
ATOM     13  C   UNL     1     -12.064  -7.142  -6.663  1.00  0.00     0.028 C 
BRANCH  13  14
ATOM     14  C   UNL     1     -11.500  -6.735  -5.292  1.00  0.00     0.156 C 
BRANCH  14  15
ATOM     15  O   UNL     1     -10.689  -5.596  -5.434  1.00  0.00    -0.396 OA
ATOM     16  H   UNL     1      -9.761  -5.924  -5.588  1.00  0.00     0.210 HD
ENDBRANCH  14  15
ENDBRANCH  13  14
ENDBRANCH  12  13
ENDBRANCH  11  12
ENDBRANCH  10  11
ENDBRANCH   9  10
ENDBRANCH   1   9
TORSDOF 13
ENDMDL
MODEL 7
REMARK VINA RESULT:    -4.860      1.334      2.885
REMARK INTER + INTRA:          -9.103
REMARK INTER:                  -8.193
REMARK INTRA:                  -0.909
REMARK UNBOUND:                -0.691
REMARK SMILES CCCCCCCCCCCCCCO
REMARK SMILES IDX 8 1 7 2 6 3 5 4 4 5 3 6 2 7 1 8 9 9 10 10 11 11 12 12 13 13
REMARK SMILES IDX 14 14 15 15
REMARK H PARENT 15 16
REMARK Flexibility Score: inf
ROOT
ATOM      1  C   UNL     1      -9.567  -4.433  -8.022  1.00  0.00     0.000 C 
ENDROOT
BRANCH   1   2
ATOM      2  C   UNL     1      -9.977  -5.540  -9.015  1.00  0.00    -0.000 C 
BRANCH   2   3
ATOM      3  C   UNL     1     -11.231  -6.340  -8.613  1.00  0.00    -0.000 C 
BRANCH   3   4
ATOM      4  C   UNL     1     -10.906  -7.787  -8.212  1.00  0.00    -0.000 C 
BRANCH   4   5
ATOM      5  C   UNL     1     -11.292  -8.053  -6.753  1.00  0.00    -0.000 C 
BRANCH   5   6
ATOM      6  C   UNL     1     -10.947  -6.845  -5.869  1.00  0.00    -0.000 C 
BRANCH   6   7
ATOM      7  C   UNL     1     -12.194  -6.174  -5.275  1.00  0.00    -0.003 C 
ATOM      8  C   UNL     1     -13.479  -6.951  -5.560  1.00  0.00     0.004 C 
ENDBRANCH   6   7
ENDBRANCH   5   6
ENDBRANCH   4   5
ENDBRANCH   3   4
ENDBRANCH   2   3
ENDBRANCH   1   2
BRANCH   1   9
ATOM      9  C   UNL     1     -10.641  -3.362  -7.762  1.00  0.00     0.000 C 
BRANCH   9  10
ATOM     10  C   UNL     1     -10.339  -2.032  -8.470  1.00  0.00     0.000 C 
BRANCH  10  11
ATOM     11  C   UNL     1     -10.780  -2.054  -9.936  1.00  0.00     0.000 C 
BRANCH  11  12
ATOM     12  C   UNL     1     -11.270  -0.687 -10.432  1.00  0.00     0.002 C 
BRANCH  12  13
ATOM     13  C   UNL     1     -12.598  -0.270  -9.774  1.00  0.00     0.028 C 
BRANCH  13  14
ATOM     14  C   UNL     1     -12.606   1.215  -9.370  1.00  0.00     0.156 C 
BRANCH  14  15
ATOM     15  O   UNL     1     -11.402   1.532  -8.719  1.00  0.00    -0.396 OA
ATOM     16  H   UNL     1     -10.843   0.708  -8.737  1.00  0.00     0.210 HD
ENDBRANCH  14  15
ENDBRANCH  13  14
ENDBRANCH  12  13
ENDBRANCH  11  12
ENDBRANCH  10  11
ENDBRANCH   9  10
ENDBRANCH   1   9
TORSDOF 13
ENDMDL
MODEL 8
REMARK VINA RESULT:    -4.657     15.779     17.519
REMARK INTER + INTRA:          -8.750
REMARK INTER:                  -7.195
REMARK INTRA:                  -1.555
REMARK UNBOUND:                -0.691
REMARK SMILES CCCCCCCCCCCCCCO
REMARK SMILES IDX 8 1 7 2 6 3 5 4 4 5 3 6 2 7 1 8 9 9 10 10 11 11 12 12 13 13
REMARK SMILES IDX 14 14 15 15
REMARK H PARENT 15 16
REMARK Flexibility Score: inf
ROOT
ATOM      1  C   UNL     1      -9.812   5.792   8.004  1.00  0.00     0.000 C 
ENDROOT
BRANCH   1   2
ATOM      2  C   UNL     1     -10.662   4.625   8.547  1.00  0.00    -0.000 C 
BRANCH   2   3
ATOM      3  C   UNL     1     -11.112   3.601   7.486  1.00  0.00    -0.000 C 
BRANCH   3   4
ATOM      4  C   UNL     1     -12.525   3.882   6.954  1.00  0.00    -0.000 C 
BRANCH   4   5
ATOM      5  C   UNL     1     -12.476   4.417   5.518  1.00  0.00    -0.000 C 
BRANCH   5   6
ATOM      6  C   UNL     1     -13.191   5.773   5.417  1.00  0.00    -0.000 C 
BRANCH   6   7
ATOM      7  C   UNL     1     -13.380   6.443   6.786  1.00  0.00    -0.003 C 
ATOM      8  C   UNL     1     -12.803   7.858   6.838  1.00  0.00     0.004 C 
ENDBRANCH   6   7
ENDBRANCH   5   6
ENDBRANCH   4   5
ENDBRANCH   3   4
ENDBRANCH   2   3
ENDBRANCH   1   2
BRANCH   1   9
ATOM      9  C   UNL     1      -9.248   5.581   6.587  1.00  0.00     0.000 C 
BRANCH   9  10
ATOM     10  C   UNL     1      -9.558   6.753   5.643  1.00  0.00     0.000 C 
BRANCH  10  11
ATOM     11  C   UNL     1      -8.856   8.040   6.083  1.00  0.00     0.000 C 
BRANCH  11  12
ATOM     12  C   UNL     1      -8.118   8.739   4.933  1.00  0.00     0.002 C 
BRANCH  12  13
ATOM     13  C   UNL     1      -7.079   9.756   5.440  1.00  0.00     0.028 C 
BRANCH  13  14
ATOM     14  C   UNL     1      -7.733  11.046   5.963  1.00  0.00     0.156 C 
BRANCH  14  15
ATOM     15  O   UNL     1      -8.325  11.741   4.894  1.00  0.00    -0.396 OA
ATOM     16  H   UNL     1      -8.397  12.693   5.180  1.00  0.00     0.210 HD
ENDBRANCH  14  15
ENDBRANCH  13  14
ENDBRANCH  12  13
ENDBRANCH  11  12
ENDBRANCH  10  11
ENDBRANCH   9  10
ENDBRANCH   1   9
TORSDOF 13
ENDMDL
MODEL 9
REMARK VINA RESULT:    -4.565     15.342     17.428
REMARK INTER + INTRA:          -8.592
REMARK INTER:                  -6.902
REMARK INTRA:                  -1.690
REMARK UNBOUND:                -0.691
REMARK SMILES CCCCCCCCCCCCCCO
REMARK SMILES IDX 8 1 7 2 6 3 5 4 4 5 3 6 2 7 1 8 9 9 10 10 11 11 12 12 13 13
REMARK SMILES IDX 14 14 15 15
REMARK H PARENT 15 16
REMARK Flexibility Score: inf
ROOT
ATOM      1  C   UNL     1     -11.392   3.433   6.826  1.00  0.00     0.000 C 
ENDROOT
BRANCH   1   2
ATOM      2  C   UNL     1     -12.655   4.124   6.272  1.00  0.00    -0.000 C 
BRANCH   2   3
ATOM      3  C   UNL     1     -12.456   4.861   4.933  1.00  0.00    -0.000 C 
BRANCH   3   4
ATOM      4  C   UNL     1     -13.673   5.713   4.541  1.00  0.00    -0.000 C 
BRANCH   4   5
ATOM      5  C   UNL     1     -14.130   6.591   5.711  1.00  0.00    -0.000 C 
BRANCH   5   6
ATOM      6  C   UNL     1     -13.107   7.702   5.989  1.00  0.00    -0.000 C 
BRANCH   6   7
ATOM      7  C   UNL     1     -12.801   7.860   7.487  1.00  0.00    -0.003 C 
ATOM      8  C   UNL     1     -13.655   6.946   8.366  1.00  0.00     0.004 C 
ENDBRANCH   6   7
ENDBRANCH   5   6
ENDBRANCH   4   5
ENDBRANCH   3   4
ENDBRANCH   2   3
ENDBRANCH   1   2
BRANCH   1   9
ATOM      9  C   UNL     1     -10.949   3.907   8.222  1.00  0.00     0.000 C 
BRANCH   9  10
ATOM     10  C   UNL     1     -10.285   5.292   8.197  1.00  0.00     0.000 C 
BRANCH  10  11
ATOM     11  C   UNL     1      -9.514   5.530   6.895  1.00  0.00     0.000 C 
BRANCH  11  12
ATOM     12  C   UNL     1      -8.865   6.919   6.833  1.00  0.00     0.002 C 
BRANCH  12  13
ATOM     13  C   UNL     1      -9.380   7.751   5.643  1.00  0.00     0.028 C 
BRANCH  13  14
ATOM     14  C   UNL     1      -8.653   9.101   5.519  1.00  0.00     0.156 C 
BRANCH  14  15
ATOM     15  O   UNL     1      -7.751   9.054   4.443  1.00  0.00    -0.396 OA
ATOM     16  H   UNL     1      -8.299   8.945   3.618  1.00  0.00     0.210 HD
ENDBRANCH  14  15
ENDBRANCH  13  14
ENDBRANCH  12  13
ENDBRANCH  11  12
ENDBRANCH  10  11
ENDBRANCH   9  10
ENDBRANCH   1   9
TORSDOF 13
ENDMDL
