MODEL 1
REMARK VINA RESULT:    -4.526      0.000      0.000
REMARK INTER + INTRA:          -6.266
REMARK INTER:                  -6.378
REMARK INTRA:                   0.112
REMARK UNBOUND:                 0.112
REMARK SMILES CC1=CCC(=C(C)C)C(=O)CC(C)=CCC1
REMARK SMILES IDX 12 1 14 2 13 3 15 4 16 5 2 6 1 7 3 8 11 10 9 11 10 12 5 13
REMARK SMILES IDX 6 14 7 15 8 16 4 17
REMARK H PARENT
REMARK Flexibility Score: 60.00
ROOT
ATOM      1  C   UNL     1       2.364  -9.353   8.620  1.00  0.00    -0.070 C 
ATOM      2  C   UNL     1       1.974 -10.106   9.672  1.00  0.00    -0.027 C 
ATOM      3  C   UNL     1       3.649  -9.725   7.923  1.00  0.00     0.039 C 
ENDROOT
BRANCH   2   4
ATOM      4  C   UNL     1       0.774  -9.836  10.554  1.00  0.00     0.032 C 
BRANCH   4   5
ATOM      5  C   UNL     1       1.015  -8.809  11.680  1.00  0.00     0.034 C 
BRANCH   5   6
ATOM      6  C   UNL     1      -0.083  -7.764  11.780  1.00  0.00    -0.077 C 
ATOM      7  C   UNL     1      -1.434  -8.212  12.278  1.00  0.00     0.039 C 
ATOM      8  C   UNL     1       0.052  -6.474  11.387  1.00  0.00    -0.023 CG0
ATOM      9  G   UNL     1       1.311  -5.801  10.876  1.00  0.00     0.000 G0
ENDBRANCH   5   6
ENDBRANCH   4   5
ENDBRANCH   2   4
BRANCH   1  10
ATOM     10  C   UNL     1       1.626  -8.109   8.167  1.00  0.00     0.111 C 
BRANCH  10  11
ATOM     11  C   UNL     1       2.235  -6.860   8.747  1.00  0.00     0.163 C 
ATOM     12  O   UNL     1       3.491  -6.757   8.747  1.00  0.00    -0.294 OA
BRANCH  11  13
ATOM     13  C   UNL     1       1.411  -5.781   9.368  1.00  0.00    -0.002 C 
ATOM     14  C   UNL     1       0.856  -4.794   8.601  1.00  0.00    -0.069 C 
ATOM     15  C   UNL     1       0.922  -4.845   7.090  1.00  0.00     0.039 C 
ATOM     16  C   UNL     1       0.153  -3.603   9.213  1.00  0.00     0.039 C 
BRANCH  13  17
ATOM     17  C   UNL     1       1.301  -5.776  10.884  1.00  0.00     0.066 CG0
ATOM     18  G   UNL     1       0.046  -6.474  11.372  1.00  0.00     0.000 G0
ENDBRANCH  13  17
ENDBRANCH  11  13
ENDBRANCH  10  11
ENDBRANCH   1  10
TORSDOF 0
ENDMDL
MODEL 2
REMARK VINA RESULT:    -4.394      7.678     10.341
REMARK INTER + INTRA:          -6.081
REMARK INTER:                  -6.527
REMARK INTRA:                   0.446
REMARK UNBOUND:                 0.112
REMARK SMILES CC1=CCC(=C(C)C)C(=O)CC(C)=CCC1
REMARK SMILES IDX 12 1 14 2 13 3 15 4 16 5 2 6 1 7 3 8 11 10 9 11 10 12 5 13
REMARK SMILES IDX 6 14 7 15 8 16 4 17
REMARK H PARENT
REMARK Flexibility Score: 60.00
ROOT
ATOM      1  C   UNL     1      -6.737  -6.139  11.633  1.00  0.00    -0.070 C 
ATOM      2  C   UNL     1      -6.145  -6.936  10.717  1.00  0.00    -0.027 C 
ATOM      3  C   UNL     1      -5.885  -5.104  12.326  1.00  0.00     0.039 C 
ENDROOT
BRANCH   2   4
ATOM      4  C   UNL     1      -6.804  -8.088   9.992  1.00  0.00     0.032 C 
BRANCH   4   5
ATOM      5  C   UNL     1      -6.248  -9.483  10.349  1.00  0.00     0.034 C 
BRANCH   5   6
ATOM      6  C   UNL     1      -6.034  -9.677  11.839  1.00  0.00    -0.077 C 
ATOM      7  C   UNL     1      -4.615  -9.825  12.331  1.00  0.00     0.039 C 
ATOM      8  C   UNL     1      -7.034  -9.794  12.746  1.00  0.00    -0.023 CG0
ATOM      9  G   UNL     1      -8.522  -9.661  12.488  1.00  0.00     0.000 G0
ENDBRANCH   5   6
ENDBRANCH   4   5
ENDBRANCH   2   4
BRANCH   1  10
ATOM     10  C   UNL     1      -8.183  -6.295  12.062  1.00  0.00     0.111 C 
BRANCH  10  11
ATOM     11  C   UNL     1      -8.314  -7.202  13.256  1.00  0.00     0.163 C 
ATOM     12  O   UNL     1      -7.672  -6.906  14.300  1.00  0.00    -0.294 OA
BRANCH  11  13
ATOM     13  C   UNL     1      -9.122  -8.457  13.224  1.00  0.00    -0.002 C 
ATOM     14  C   UNL     1     -10.311  -8.543  13.895  1.00  0.00    -0.069 C 
ATOM     15  C   UNL     1     -10.925  -7.330  14.558  1.00  0.00     0.039 C 
ATOM     16  C   UNL     1     -11.072  -9.844  14.013  1.00  0.00     0.039 C 
BRANCH  13  17
ATOM     17  C   UNL     1      -8.521  -9.652  12.500  1.00  0.00     0.066 CG0
ATOM     18  G   UNL     1      -7.032  -9.788  12.752  1.00  0.00     0.000 G0
ENDBRANCH  13  17
ENDBRANCH  11  13
ENDBRANCH  10  11
ENDBRANCH   1  10
TORSDOF 0
ENDMDL
MODEL 3
REMARK VINA RESULT:    -4.240      8.748     10.662
REMARK INTER + INTRA:          -5.862
REMARK INTER:                  -6.005
REMARK INTRA:                   0.142
REMARK UNBOUND:                 0.112
REMARK SMILES CC1=CCC(=C(C)C)C(=O)CC(C)=CCC1
REMARK SMILES IDX 12 1 14 2 13 3 15 4 16 5 2 6 1 7 3 8 11 10 9 11 10 12 5 13
REMARK SMILES IDX 6 14 7 15 8 16 4 17
REMARK H PARENT
REMARK Flexibility Score: 60.00
ROOT
ATOM      1  C   UNL     1      -7.531  -5.981   1.861  1.00  0.00    -0.070 C 
ATOM      2  C   UNL     1      -6.987  -7.166   1.507  1.00  0.00    -0.027 C 
ATOM      3  C   UNL     1      -8.825  -5.573   1.202  1.00  0.00     0.039 C 
ENDROOT
BRANCH   2   4
ATOM      4  C   UNL     1      -5.655  -7.703   1.982  1.00  0.00     0.032 C 
BRANCH   4   5
ATOM      5  C   UNL     1      -4.422  -7.076   1.296  1.00  0.00     0.034 C 
BRANCH   5   6
ATOM      6  C   UNL     1      -3.366  -6.607   2.282  1.00  0.00    -0.077 C 
ATOM      7  C   UNL     1      -2.680  -7.652   3.125  1.00  0.00     0.039 C 
ATOM      8  C   UNL     1      -3.049  -5.308   2.501  1.00  0.00    -0.023 CG0
ATOM      9  G   UNL     1      -3.590  -4.097   1.764  1.00  0.00     0.000 G0
ENDBRANCH   5   6
ENDBRANCH   4   5
ENDBRANCH   2   4
BRANCH   1  10
ATOM     10  C   UNL     1      -6.861  -5.009   2.812  1.00  0.00     0.111 C 
BRANCH  10  11
ATOM     11  C   UNL     1      -6.135  -3.918   2.071  1.00  0.00     0.163 C 
ATOM     12  O   UNL     1      -6.683  -3.429   1.047  1.00  0.00    -0.294 OA
BRANCH  11  13
ATOM     13  C   UNL     1      -4.776  -3.446   2.471  1.00  0.00    -0.002 C 
ATOM     14  C   UNL     1      -4.625  -2.424   3.367  1.00  0.00    -0.069 C 
ATOM     15  C   UNL     1      -5.814  -1.845   4.102  1.00  0.00     0.039 C 
ATOM     16  C   UNL     1      -3.273  -1.818   3.671  1.00  0.00     0.039 C 
BRANCH  13  17
ATOM     17  C   UNL     1      -3.585  -4.080   1.769  1.00  0.00     0.066 CG0
ATOM     18  G   UNL     1      -3.059  -5.293   2.512  1.00  0.00     0.000 G0
ENDBRANCH  13  17
ENDBRANCH  11  13
ENDBRANCH  10  11
ENDBRANCH   1  10
TORSDOF 0
ENDMDL
MODEL 4
REMARK VINA RESULT:    -3.723     12.441     14.937
REMARK INTER + INTRA:          -5.135
REMARK INTER:                  -5.271
REMARK INTRA:                   0.136
REMARK UNBOUND:                 0.112
REMARK SMILES CC1=CCC(=C(C)C)C(=O)CC(C)=CCC1
REMARK SMILES IDX 12 1 14 2 13 3 15 4 16 5 2 6 1 7 3 8 11 10 9 11 10 12 5 13
REMARK SMILES IDX 6 14 7 15 8 16 4 17
REMARK H PARENT
REMARK Flexibility Score: 60.00
ROOT
ATOM      1  C   UNL     1      -1.917   5.343  19.022  1.00  0.00    -0.070 C 
ATOM      2  C   UNL     1      -1.010   6.299  18.721  1.00  0.00    -0.027 C 
ATOM      3  C   UNL     1      -3.079   5.724  19.905  1.00  0.00     0.039 C 
ENDROOT
BRANCH   2   4
ATOM      4  C   UNL     1       0.265   6.089  17.935  1.00  0.00     0.032 C 
BRANCH   4   5
ATOM      5  C   UNL     1       1.415   5.433  18.728  1.00  0.00     0.034 C 
BRANCH   5   6
ATOM      6  C   UNL     1       2.028   4.241  18.015  1.00  0.00    -0.077 C 
ATOM      7  C   UNL     1       2.751   4.497  16.716  1.00  0.00     0.039 C 
ATOM      8  C   UNL     1       1.910   2.957  18.432  1.00  0.00    -0.023 CG0
ATOM      9  G   UNL     1       1.250   2.467  19.706  1.00  0.00     0.000 G0
ENDBRANCH   5   6
ENDBRANCH   4   5
ENDBRANCH   2   4
BRANCH   1  10
ATOM     10  C   UNL     1      -1.774   3.896  18.593  1.00  0.00     0.111 C 
BRANCH  10  11
ATOM     11  C   UNL     1      -1.245   3.035  19.710  1.00  0.00     0.163 C 
ATOM     12  O   UNL     1      -1.683   3.238  20.875  1.00  0.00    -0.294 OA
BRANCH  11  13
ATOM     13  C   UNL     1      -0.187   2.004  19.495  1.00  0.00    -0.002 C 
ATOM     14  C   UNL     1      -0.520   0.709  19.206  1.00  0.00    -0.069 C 
ATOM     15  C   UNL     1      -1.955   0.310  18.940  1.00  0.00     0.039 C 
ATOM     16  C   UNL     1       0.517  -0.389  19.140  1.00  0.00     0.039 C 
BRANCH  13  17
ATOM     17  C   UNL     1       1.256   2.434  19.705  1.00  0.00     0.066 CG0
ATOM     18  G   UNL     1       1.894   2.950  18.429  1.00  0.00     0.000 G0
ENDBRANCH  13  17
ENDBRANCH  11  13
ENDBRANCH  10  11
ENDBRANCH   1  10
TORSDOF 0
ENDMDL
MODEL 5
REMARK VINA RESULT:    -3.717      7.117      9.415
REMARK INTER + INTRA:          -5.126
REMARK INTER:                  -5.498
REMARK INTRA:                   0.373
REMARK UNBOUND:                 0.112
REMARK SMILES CC1=CCC(=C(C)C)C(=O)CC(C)=CCC1
REMARK SMILES IDX 12 1 14 2 13 3 15 4 16 5 2 6 1 7 3 8 11 10 9 11 10 12 5 13
REMARK SMILES IDX 6 14 7 15 8 16 4 17
REMARK H PARENT
REMARK Flexibility Score: 60.00
ROOT
ATOM      1  C   UNL     1      -5.061  -7.765  11.443  1.00  0.00    -0.070 C 
ATOM      2  C   UNL     1      -4.646  -6.488  11.591  1.00  0.00    -0.027 C 
ATOM      3  C   UNL     1      -4.290  -8.845  12.160  1.00  0.00     0.039 C 
ENDROOT
BRANCH   2   4
ATOM      4  C   UNL     1      -5.226  -5.284  10.882  1.00  0.00     0.032 C 
BRANCH   4   5
ATOM      5  C   UNL     1      -6.766  -5.192  10.912  1.00  0.00     0.034 C 
BRANCH   5   6
ATOM      6  C   UNL     1      -7.323  -4.966  12.307  1.00  0.00    -0.077 C 
ATOM      7  C   UNL     1      -6.847  -3.750  13.062  1.00  0.00     0.039 C 
ATOM      8  C   UNL     1      -8.164  -5.818  12.941  1.00  0.00    -0.023 CG0
ATOM      9  G   UNL     1      -8.783  -7.082  12.376  1.00  0.00     0.000 G0
ENDBRANCH   5   6
ENDBRANCH   4   5
ENDBRANCH   2   4
BRANCH   1  10
ATOM     10  C   UNL     1      -6.197  -8.170  10.525  1.00  0.00     0.111 C 
BRANCH  10  11
ATOM     11  C   UNL     1      -7.295  -8.876  11.277  1.00  0.00     0.163 C 
ATOM     12  O   UNL     1      -7.739  -9.957  10.803  1.00  0.00    -0.294 OA
BRANCH  11  13
ATOM     13  C   UNL     1      -7.907  -8.313  12.516  1.00  0.00    -0.002 C 
ATOM     14  C   UNL     1      -7.746  -8.937  13.722  1.00  0.00    -0.069 C 
ATOM     15  C   UNL     1      -6.819 -10.123  13.874  1.00  0.00     0.039 C 
ATOM     16  C   UNL     1      -8.482  -8.483  14.964  1.00  0.00     0.039 C 
BRANCH  13  17
ATOM     17  C   UNL     1      -8.788  -7.083  12.360  1.00  0.00     0.066 CG0
ATOM     18  G   UNL     1      -8.144  -5.837  12.936  1.00  0.00     0.000 G0
ENDBRANCH  13  17
ENDBRANCH  11  13
ENDBRANCH  10  11
ENDBRANCH   1  10
TORSDOF 0
ENDMDL
MODEL 6
REMARK VINA RESULT:    -3.662      7.501     10.203
REMARK INTER + INTRA:          -5.049
REMARK INTER:                  -5.494
REMARK INTRA:                   0.445
REMARK UNBOUND:                 0.112
REMARK SMILES CC1=CCC(=C(C)C)C(=O)CC(C)=CCC1
REMARK SMILES IDX 12 1 14 2 13 3 15 4 16 5 2 6 1 7 3 8 11 10 9 11 10 12 5 13
REMARK SMILES IDX 6 14 7 15 8 16 4 17
REMARK H PARENT
REMARK Flexibility Score: 60.00
ROOT
ATOM      1  C   UNL     1      -6.068  -4.080   2.211  1.00  0.00    -0.070 C 
ATOM      2  C   UNL     1      -5.949  -2.854   2.766  1.00  0.00    -0.027 C 
ATOM      3  C   UNL     1      -7.063  -4.256   1.091  1.00  0.00     0.039 C 
ENDROOT
BRANCH   2   4
ATOM      4  C   UNL     1      -5.082  -2.504   3.955  1.00  0.00     0.032 C 
BRANCH   4   5
ATOM      5  C   UNL     1      -3.969  -1.475   3.666  1.00  0.00     0.034 C 
BRANCH   5   6
ATOM      6  C   UNL     1      -3.122  -1.836   2.458  1.00  0.00    -0.077 C 
ATOM      7  C   UNL     1      -3.181  -0.920   1.262  1.00  0.00     0.039 C 
ATOM      8  C   UNL     1      -2.373  -2.961   2.359  1.00  0.00    -0.023 CG0
ATOM      9  G   UNL     1      -2.150  -4.009   3.432  1.00  0.00     0.000 G0
ENDBRANCH   5   6
ENDBRANCH   4   5
ENDBRANCH   2   4
BRANCH   1  10
ATOM     10  C   UNL     1      -5.322  -5.299   2.718  1.00  0.00     0.111 C 
BRANCH  10  11
ATOM     11  C   UNL     1      -3.935  -5.383   2.139  1.00  0.00     0.163 C 
ATOM     12  O   UNL     1      -3.820  -5.515   0.890  1.00  0.00    -0.294 OA
BRANCH  11  13
ATOM     13  C   UNL     1      -2.709  -5.377   2.991  1.00  0.00    -0.002 C 
ATOM     14  C   UNL     1      -2.163  -6.547   3.441  1.00  0.00    -0.069 C 
ATOM     15  C   UNL     1      -2.682  -7.887   2.967  1.00  0.00     0.039 C 
ATOM     16  C   UNL     1      -1.021  -6.570   4.432  1.00  0.00     0.039 C 
BRANCH  13  17
ATOM     17  C   UNL     1      -2.160  -4.022   3.409  1.00  0.00     0.066 CG0
ATOM     18  G   UNL     1      -2.390  -2.957   2.354  1.00  0.00     0.000 G0
ENDBRANCH  13  17
ENDBRANCH  11  13
ENDBRANCH  10  11
ENDBRANCH   1  10
TORSDOF 0
ENDMDL
MODEL 7
REMARK VINA RESULT:    -3.630      1.698      4.185
REMARK INTER + INTRA:          -5.004
REMARK INTER:                  -5.412
REMARK INTRA:                   0.408
REMARK UNBOUND:                 0.112
REMARK SMILES CC1=CCC(=C(C)C)C(=O)CC(C)=CCC1
REMARK SMILES IDX 12 1 14 2 13 3 15 4 16 5 2 6 1 7 3 8 11 10 9 11 10 12 5 13
REMARK SMILES IDX 6 14 7 15 8 16 4 17
REMARK H PARENT
REMARK Flexibility Score: 60.00
ROOT
ATOM      1  C   UNL     1       1.898  -7.287   8.759  1.00  0.00    -0.070 C 
ATOM      2  C   UNL     1       1.219  -6.366   8.041  1.00  0.00    -0.027 C 
ATOM      3  C   UNL     1       3.399  -7.330   8.614  1.00  0.00     0.039 C 
ENDROOT
BRANCH   2   4
ATOM      4  C   UNL     1      -0.286  -6.230   7.977  1.00  0.00     0.032 C 
BRANCH   4   5
ATOM      5  C   UNL     1      -0.839  -4.891   8.507  1.00  0.00     0.034 C 
BRANCH   5   6
ATOM      6  C   UNL     1      -0.296  -4.520   9.875  1.00  0.00    -0.077 C 
ATOM      7  C   UNL     1       0.561  -3.283   9.978  1.00  0.00     0.039 C 
ATOM      8  C   UNL     1      -0.473  -5.262  10.995  1.00  0.00    -0.023 CG0
ATOM      9  G   UNL     1      -1.304  -6.523  11.134  1.00  0.00     0.000 G0
ENDBRANCH   5   6
ENDBRANCH   4   5
ENDBRANCH   2   4
BRANCH   1  10
ATOM     10  C   UNL     1       1.222  -8.331   9.625  1.00  0.00     0.111 C 
BRANCH  10  11
ATOM     11  C   UNL     1       0.935  -7.806  11.007  1.00  0.00     0.163 C 
ATOM     12  O   UNL     1       1.912  -7.475  11.731  1.00  0.00    -0.294 OA
BRANCH  11  13
ATOM     13  C   UNL     1      -0.449  -7.723  11.561  1.00  0.00    -0.002 C 
ATOM     14  C   UNL     1      -0.956  -8.733  12.331  1.00  0.00    -0.069 C 
ATOM     15  C   UNL     1      -0.089  -9.888  12.779  1.00  0.00     0.039 C 
ATOM     16  C   UNL     1      -2.402  -8.754  12.773  1.00  0.00     0.039 C 
BRANCH  13  17
ATOM     17  C   UNL     1      -1.290  -6.524  11.152  1.00  0.00     0.066 CG0
ATOM     18  G   UNL     1      -0.461  -5.264  10.999  1.00  0.00     0.000 G0
ENDBRANCH  13  17
ENDBRANCH  11  13
ENDBRANCH  10  11
ENDBRANCH   1  10
TORSDOF 0
ENDMDL
MODEL 8
REMARK VINA RESULT:    -3.625      7.815     10.877
REMARK INTER + INTRA:          -4.997
REMARK INTER:                  -5.807
REMARK INTRA:                   0.811
REMARK UNBOUND:                 0.112
REMARK SMILES CC1=CCC(=C(C)C)C(=O)CC(C)=CCC1
REMARK SMILES IDX 12 1 14 2 13 3 15 4 16 5 2 6 1 7 3 8 11 10 9 11 10 12 5 13
REMARK SMILES IDX 6 14 7 15 8 16 4 17
REMARK H PARENT
REMARK Flexibility Score: 60.00
ROOT
ATOM      1  C   UNL     1       3.715   3.190  14.147  1.00  0.00    -0.070 C 
ATOM      2  C   UNL     1       4.080   4.001  13.130  1.00  0.00    -0.027 C 
ATOM      3  C   UNL     1       3.517   3.810  15.508  1.00  0.00     0.039 C 
ENDROOT
BRANCH   2   4
ATOM      4  C   UNL     1       4.418   3.556  11.724  1.00  0.00     0.032 C 
BRANCH   4   5
ATOM      5  C   UNL     1       3.504   4.134  10.623  1.00  0.00     0.034 C 
BRANCH   5   6
ATOM      6  C   UNL     1       2.028   4.056  10.972  1.00  0.00    -0.077 C 
ATOM      7  C   UNL     1       1.253   5.348  11.034  1.00  0.00     0.039 C 
ATOM      8  C   UNL     1       1.379   2.911  11.298  1.00  0.00    -0.023 CG0
ATOM      9  G   UNL     1       1.945   1.504  11.286  1.00  0.00     0.000 G0
ENDBRANCH   5   6
ENDBRANCH   4   5
ENDBRANCH   2   4
BRANCH   1  10
ATOM     10  C   UNL     1       3.587   1.686  14.008  1.00  0.00     0.111 C 
BRANCH  10  11
ATOM     11  C   UNL     1       2.149   1.262  13.861  1.00  0.00     0.163 C 
ATOM     12  O   UNL     1       1.409   1.309  14.880  1.00  0.00    -0.294 OA
BRANCH  11  13
ATOM     13  C   UNL     1       1.596   0.737  12.577  1.00  0.00    -0.002 C 
ATOM     14  C   UNL     1       0.879  -0.427  12.549  1.00  0.00    -0.069 C 
ATOM     15  C   UNL     1       0.486  -1.137  13.825  1.00  0.00     0.039 C 
ATOM     16  C   UNL     1       0.442  -1.067  11.250  1.00  0.00     0.039 C 
BRANCH  13  17
ATOM     17  C   UNL     1       1.947   1.495  11.307  1.00  0.00     0.066 CG0
ATOM     18  G   UNL     1       1.378   2.901  11.301  1.00  0.00     0.000 G0
ENDBRANCH  13  17
ENDBRANCH  11  13
ENDBRANCH  10  11
ENDBRANCH   1  10
TORSDOF 0
ENDMDL
MODEL 9
REMARK VINA RESULT:    -3.615      1.786      4.086
REMARK INTER + INTRA:          -4.982
REMARK INTER:                  -6.214
REMARK INTRA:                   1.232
REMARK UNBOUND:                 0.112
REMARK SMILES CC1=CCC(=C(C)C)C(=O)CC(C)=CCC1
REMARK SMILES IDX 12 1 14 2 13 3 15 4 16 5 2 6 1 7 3 8 11 10 9 11 10 12 5 13
REMARK SMILES IDX 6 14 7 15 8 16 4 17
REMARK H PARENT
REMARK Flexibility Score: 60.00
ROOT
ATOM      1  C   UNL     1       2.320  -8.416   9.651  1.00  0.00    -0.070 C 
ATOM      2  C   UNL     1       2.532  -7.431   8.751  1.00  0.00    -0.027 C 
ATOM      3  C   UNL     1       2.343  -9.841   9.157  1.00  0.00     0.039 C 
ENDROOT
BRANCH   2   4
ATOM      4  C   UNL     1       2.453  -5.947   9.031  1.00  0.00     0.032 C 
BRANCH   4   5
ATOM      5  C   UNL     1       1.387  -5.188   8.213  1.00  0.00     0.034 C 
BRANCH   5   6
ATOM      6  C   UNL     1       0.065  -5.929   8.121  1.00  0.00    -0.077 C 
ATOM      7  C   UNL     1      -0.499  -6.189   6.747  1.00  0.00     0.039 C 
ATOM      8  C   UNL     1      -0.672  -6.312   9.192  1.00  0.00    -0.023 CG0
ATOM      9  G   UNL     1      -0.300  -6.173  10.655  1.00  0.00     0.000 G0
ENDBRANCH   5   6
ENDBRANCH   4   5
ENDBRANCH   2   4
BRANCH   1  10
ATOM     10  C   UNL     1       1.972  -8.155  11.103  1.00  0.00     0.111 C 
BRANCH  10  11
ATOM     11  C   UNL     1       0.535  -8.496  11.400  1.00  0.00     0.163 C 
ATOM     12  O   UNL     1       0.234  -9.709  11.560  1.00  0.00    -0.294 OA
BRANCH  11  13
ATOM     13  C   UNL     1      -0.540  -7.461  11.450  1.00  0.00    -0.002 C 
ATOM     14  C   UNL     1      -1.718  -7.707  12.098  1.00  0.00    -0.069 C 
ATOM     15  C   UNL     1      -1.915  -8.963  12.917  1.00  0.00     0.039 C 
ATOM     16  C   UNL     1      -2.884  -6.746  12.033  1.00  0.00     0.039 C 
BRANCH  13  17
ATOM     17  C   UNL     1      -0.303  -6.175  10.673  1.00  0.00     0.066 CG0
ATOM     18  G   UNL     1      -0.672  -6.313   9.209  1.00  0.00     0.000 G0
ENDBRANCH  13  17
ENDBRANCH  11  13
ENDBRANCH  10  11
ENDBRANCH   1  10
TORSDOF 0
ENDMDL
