MODEL 1
REMARK VINA RESULT:     1.087      0.000      0.000
REMARK INTER + INTRA:           1.087
REMARK INTER:                   1.087
REMARK INTRA:                   0.000
REMARK UNBOUND:                 0.000
REMARK SMILES O=c1ccc2ccccc2o1
REMARK SMILES IDX 7 1 8 2 9 3 10 4 5 5 6 6 4 7 3 8 2 9 1 10 11 11
REMARK H PARENT
REMARK Flexibility Score: inf
ROOT
ATOM      1  C   UNL     1      -6.488  -3.000  19.317  1.00  0.00     0.001 A 
ATOM      2  C   UNL     1      -6.129  -3.034  20.669  1.00  0.00     0.004 A 
ATOM      3  C   UNL     1      -6.612  -4.051  21.499  1.00  0.00     0.048 A 
ATOM      4  C   UNL     1      -7.457  -5.039  20.980  1.00  0.00     0.138 A 
ATOM      5  C   UNL     1      -7.821  -5.003  19.614  1.00  0.00     0.018 A 
ATOM      6  C   UNL     1      -7.332  -3.981  18.787  1.00  0.00     0.012 A 
ATOM      7  C   UNL     1      -8.666  -6.002  19.124  1.00  0.00     0.019 A 
ATOM      8  C   UNL     1      -9.124  -6.997  19.988  1.00  0.00     0.094 A 
ATOM      9  C   UNL     1      -8.722  -6.968  21.328  1.00  0.00     0.336 A 
ATOM     10  O   UNL     1      -9.125  -7.857  22.124  1.00  0.00    -0.246 OA
ATOM     11  O   UNL     1      -7.916  -6.006  21.770  1.00  0.00    -0.423 OA
ENDROOT
TORSDOF 0
ENDMDL
MODEL 2
REMARK VINA RESULT:     3.115      1.531      3.813
REMARK INTER + INTRA:           3.115
REMARK INTER:                   3.115
REMARK INTRA:                   0.000
REMARK UNBOUND:                 0.000
REMARK SMILES O=c1ccc2ccccc2o1
REMARK SMILES IDX 7 1 8 2 9 3 10 4 5 5 6 6 4 7 3 8 2 9 1 10 11 11
REMARK H PARENT
REMARK Flexibility Score: inf
ROOT
ATOM      1  C   UNL     1      -9.125  -7.393  19.996  1.00  0.00     0.001 A 
ATOM      2  C   UNL     1      -9.058  -7.172  21.375  1.00  0.00     0.004 A 
ATOM      3  C   UNL     1      -8.386  -6.051  21.876  1.00  0.00     0.048 A 
ATOM      4  C   UNL     1      -7.777  -5.148  20.998  1.00  0.00     0.138 A 
ATOM      5  C   UNL     1      -7.843  -5.373  19.604  1.00  0.00     0.018 A 
ATOM      6  C   UNL     1      -8.520  -6.498  19.108  1.00  0.00     0.012 A 
ATOM      7  C   UNL     1      -7.226  -4.454  18.751  1.00  0.00     0.019 A 
ATOM      8  C   UNL     1      -6.566  -3.352  19.294  1.00  0.00     0.094 A 
ATOM      9  C   UNL     1      -6.542  -3.194  20.684  1.00  0.00     0.336 A 
ATOM     10  O   UNL     1      -5.952  -2.205  21.193  1.00  0.00    -0.246 OA
ATOM     11  O   UNL     1      -7.138  -4.083  21.474  1.00  0.00    -0.423 OA
ENDROOT
TORSDOF 0
ENDMDL
MODEL 3
REMARK VINA RESULT:     3.387      1.982      4.347
REMARK INTER + INTRA:           3.387
REMARK INTER:                   3.387
REMARK INTRA:                   0.000
REMARK UNBOUND:                 0.000
REMARK SMILES O=c1ccc2ccccc2o1
REMARK SMILES IDX 7 1 8 2 9 3 10 4 5 5 6 6 4 7 3 8 2 9 1 10 11 11
REMARK H PARENT
REMARK Flexibility Score: inf
ROOT
ATOM      1  C   UNL     1      -9.097  -7.171  20.911  1.00  0.00     0.001 A 
ATOM      2  C   UNL     1      -9.125  -7.028  19.521  1.00  0.00     0.004 A 
ATOM      3  C   UNL     1      -8.433  -5.978  18.907  1.00  0.00     0.048 A 
ATOM      4  C   UNL     1      -7.712  -5.065  19.685  1.00  0.00     0.138 A 
ATOM      5  C   UNL     1      -7.684  -5.209  21.091  1.00  0.00     0.018 A 
ATOM      6  C   UNL     1      -8.379  -6.266  21.699  1.00  0.00     0.012 A 
ATOM      7  C   UNL     1      -6.955  -4.283  21.842  1.00  0.00     0.019 A 
ATOM      8  C   UNL     1      -6.281  -3.251  21.189  1.00  0.00     0.094 A 
ATOM      9  C   UNL     1      -6.353  -3.171  19.794  1.00  0.00     0.336 A 
ATOM     10  O   UNL     1      -5.751  -2.247  19.186  1.00  0.00    -0.246 OA
ATOM     11  O   UNL     1      -7.054  -4.066  19.102  1.00  0.00    -0.423 OA
ENDROOT
TORSDOF 0
ENDMDL
