MODEL 1
REMARK VINA RESULT:    -5.318      0.000      0.000
REMARK INTER + INTRA:          -5.629
REMARK INTER:                  -5.629
REMARK INTRA:                   0.000
REMARK UNBOUND:                 0.000
REMARK SMILES O=c1ccc2cc(O)c(O)cc2o1
REMARK SMILES IDX 4 1 3 2 2 3 1 4 13 5 12 6 11 7 9 8 7 9 6 10 5 11 8 12 10 14
REMARK H PARENT 8 13 10 15
REMARK Flexibility Score: inf
ROOT
ATOM      1  C   UNL     1      -8.686   4.806   1.718  1.00  0.00     0.019 A 
ATOM      2  C   UNL     1      -8.025   5.150   2.896  1.00  0.00     0.094 A 
ATOM      3  C   UNL     1      -6.844   5.895   2.818  1.00  0.00     0.336 A 
ATOM      4  O   UNL     1      -6.232   6.216   3.871  1.00  0.00    -0.246 OA
ATOM      5  O   UNL     1      -6.360   6.270   1.636  1.00  0.00    -0.423 OA
ATOM      6  C   UNL     1      -6.959   5.963   0.489  1.00  0.00     0.142 A 
ATOM      7  C   UNL     1      -6.405   6.384  -0.724  1.00  0.00     0.098 A 
ATOM      8  C   UNL     1      -7.033   6.063  -1.937  1.00  0.00     0.161 A 
ATOM      9  C   UNL     1      -8.220   5.318  -1.937  1.00  0.00     0.158 A 
ATOM     10  C   UNL     1      -8.781   4.892  -0.723  1.00  0.00     0.062 A 
ATOM     11  C   UNL     1      -8.155   5.213   0.490  1.00  0.00     0.022 A 
ENDROOT
BRANCH   9  12
ATOM     12  O   UNL     1      -8.837   5.003  -3.146  1.00  0.00    -0.504 OA
ATOM     13  H   UNL     1      -8.303   4.698  -3.951  1.00  0.00     0.293 HD
ENDBRANCH   9  12
BRANCH   8  14
ATOM     14  O   UNL     1      -6.482   6.482  -3.146  1.00  0.00    -0.504 OA
ATOM     15  H   UNL     1      -5.828   5.902  -3.661  1.00  0.00     0.293 HD
ENDBRANCH   8  14
TORSDOF 2
ENDMDL
MODEL 2
REMARK VINA RESULT:    -5.284      1.144      4.675
REMARK INTER + INTRA:          -5.592
REMARK INTER:                  -5.592
REMARK INTRA:                   0.000
REMARK UNBOUND:                 0.000
REMARK SMILES O=c1ccc2cc(O)c(O)cc2o1
REMARK SMILES IDX 4 1 3 2 2 3 1 4 13 5 12 6 11 7 9 8 7 9 6 10 5 11 8 12 10 14
REMARK H PARENT 8 13 10 15
REMARK Flexibility Score: inf
ROOT
ATOM      1  C   UNL     1      -8.947   4.730   0.075  1.00  0.00     0.019 A 
ATOM      2  C   UNL     1      -8.510   5.119  -1.190  1.00  0.00     0.094 A 
ATOM      3  C   UNL     1      -7.389   5.949  -1.295  1.00  0.00     0.336 A 
ATOM      4  O   UNL     1      -6.979   6.310  -2.429  1.00  0.00    -0.246 OA
ATOM      5  O   UNL     1      -6.750   6.359  -0.202  1.00  0.00    -0.423 OA
ATOM      6  C   UNL     1      -7.133   6.011   1.024  1.00  0.00     0.142 A 
ATOM      7  C   UNL     1      -6.423   6.474   2.136  1.00  0.00     0.098 A 
ATOM      8  C   UNL     1      -6.823   6.110   3.430  1.00  0.00     0.161 A 
ATOM      9  C   UNL     1      -7.938   5.281   3.613  1.00  0.00     0.158 A 
ATOM     10  C   UNL     1      -8.655   4.815   2.501  1.00  0.00     0.062 A 
ATOM     11  C   UNL     1      -8.256   5.177   1.207  1.00  0.00     0.022 A 
ENDROOT
BRANCH   9  12
ATOM     12  O   UNL     1      -8.330   4.925   4.902  1.00  0.00    -0.504 OA
ATOM     13  H   UNL     1      -8.384   3.956   5.192  1.00  0.00     0.293 HD
ENDBRANCH   9  12
BRANCH   8  14
ATOM     14  O   UNL     1      -6.116   6.570   4.540  1.00  0.00    -0.504 OA
ATOM     15  H   UNL     1      -6.566   6.700   5.439  1.00  0.00     0.293 HD
ENDBRANCH   8  14
TORSDOF 2
ENDMDL
MODEL 3
REMARK VINA RESULT:    -5.082      1.258      5.129
REMARK INTER + INTRA:          -5.379
REMARK INTER:                  -5.379
REMARK INTRA:                   0.000
REMARK UNBOUND:                 0.000
REMARK SMILES O=c1ccc2cc(O)c(O)cc2o1
REMARK SMILES IDX 4 1 3 2 2 3 1 4 13 5 12 6 11 7 9 8 7 9 6 10 5 11 8 12 10 14
REMARK H PARENT 8 13 10 15
REMARK Flexibility Score: inf
ROOT
ATOM      1  C   UNL     1      -6.306   6.239  -0.383  1.00  0.00     0.019 A 
ATOM      2  C   UNL     1      -7.039   5.939  -1.529  1.00  0.00     0.094 A 
ATOM      3  C   UNL     1      -8.297   5.342  -1.393  1.00  0.00     0.336 A 
ATOM      4  O   UNL     1      -8.974   5.063  -2.417  1.00  0.00    -0.246 OA
ATOM      5  O   UNL     1      -8.784   5.067  -0.186  1.00  0.00    -0.423 OA
ATOM      6  C   UNL     1      -8.118   5.338   0.934  1.00  0.00     0.142 A 
ATOM      7  C   UNL     1      -8.681   5.026   2.175  1.00  0.00     0.098 A 
ATOM      8  C   UNL     1      -7.982   5.309   3.358  1.00  0.00     0.161 A 
ATOM      9  C   UNL     1      -6.715   5.907   3.299  1.00  0.00     0.158 A 
ATOM     10  C   UNL     1      -6.146   6.221   2.056  1.00  0.00     0.062 A 
ATOM     11  C   UNL     1      -6.843   5.939   0.873  1.00  0.00     0.022 A 
ENDROOT
BRANCH   9  12
ATOM     12  O   UNL     1      -6.028   6.184   4.479  1.00  0.00    -0.504 OA
ATOM     13  H   UNL     1      -5.413   5.503   4.908  1.00  0.00     0.293 HD
ENDBRANCH   9  12
BRANCH   8  14
ATOM     14  O   UNL     1      -8.541   4.999   4.597  1.00  0.00    -0.504 OA
ATOM     15  H   UNL     1      -9.377   5.463   4.933  1.00  0.00     0.293 HD
ENDBRANCH   8  14
TORSDOF 2
ENDMDL
MODEL 4
REMARK VINA RESULT:    -4.986      2.239      3.606
REMARK INTER + INTRA:          -5.278
REMARK INTER:                  -5.278
REMARK INTRA:                   0.000
REMARK UNBOUND:                 0.000
REMARK SMILES O=c1ccc2cc(O)c(O)cc2o1
REMARK SMILES IDX 4 1 3 2 2 3 1 4 13 5 12 6 11 7 9 8 7 9 6 10 5 11 8 12 10 14
REMARK H PARENT 8 13 10 15
REMARK Flexibility Score: inf
ROOT
ATOM      1  C   UNL     1      -6.667   6.330  -0.666  1.00  0.00     0.019 A 
ATOM      2  C   UNL     1      -7.255   5.479   0.268  1.00  0.00     0.094 A 
ATOM      3  C   UNL     1      -8.351   4.700  -0.118  1.00  0.00     0.336 A 
ATOM      4  O   UNL     1      -8.895   3.925   0.711  1.00  0.00    -0.246 OA
ATOM      5  O   UNL     1      -8.823   4.772  -1.360  1.00  0.00    -0.423 OA
ATOM      6  C   UNL     1      -8.292   5.570  -2.283  1.00  0.00     0.142 A 
ATOM      7  C   UNL     1      -8.831   5.604  -3.573  1.00  0.00     0.098 A 
ATOM      8  C   UNL     1      -8.275   6.444  -4.549  1.00  0.00     0.161 A 
ATOM      9  C   UNL     1      -7.175   7.253  -4.233  1.00  0.00     0.158 A 
ATOM     10  C   UNL     1      -6.631   7.224  -2.941  1.00  0.00     0.062 A 
ATOM     11  C   UNL     1      -7.185   6.385  -1.964  1.00  0.00     0.022 A 
ENDROOT
BRANCH   9  12
ATOM     12  O   UNL     1      -6.629   8.085  -5.208  1.00  0.00    -0.504 OA
ATOM     13  H   UNL     1      -5.848   8.698  -5.007  1.00  0.00     0.293 HD
ENDBRANCH   9  12
BRANCH   8  14
ATOM     14  O   UNL     1      -8.811   6.479  -5.835  1.00  0.00    -0.504 OA
ATOM     15  H   UNL     1      -8.218   6.512  -6.657  1.00  0.00     0.293 HD
ENDBRANCH   8  14
TORSDOF 2
ENDMDL
MODEL 5
REMARK VINA RESULT:    -4.953      1.716      2.532
REMARK INTER + INTRA:          -5.242
REMARK INTER:                  -5.242
REMARK INTRA:                   0.000
REMARK UNBOUND:                 0.000
REMARK SMILES O=c1ccc2cc(O)c(O)cc2o1
REMARK SMILES IDX 4 1 3 2 2 3 1 4 13 5 12 6 11 7 9 8 7 9 6 10 5 11 8 12 10 14
REMARK H PARENT 8 13 10 15
REMARK Flexibility Score: inf
ROOT
ATOM      1  C   UNL     1      -8.672   4.894  -0.971  1.00  0.00     0.019 A 
ATOM      2  C   UNL     1      -8.035   4.974   0.266  1.00  0.00     0.094 A 
ATOM      3  C   UNL     1      -6.927   5.817   0.404  1.00  0.00     0.336 A 
ATOM      4  O   UNL     1      -6.338   5.903   1.514  1.00  0.00    -0.246 OA
ATOM      5  O   UNL     1      -6.489   6.530  -0.631  1.00  0.00    -0.423 OA
ATOM      6  C   UNL     1      -7.068   6.483  -1.828  1.00  0.00     0.142 A 
ATOM      7  C   UNL     1      -6.564   7.254  -2.880  1.00  0.00     0.098 A 
ATOM      8  C   UNL     1      -7.170   7.207  -4.143  1.00  0.00     0.161 A 
ATOM      9  C   UNL     1      -8.285   6.385  -4.357  1.00  0.00     0.158 A 
ATOM     10  C   UNL     1      -8.795   5.608  -3.306  1.00  0.00     0.062 A 
ATOM     11  C   UNL     1      -8.191   5.654  -2.042  1.00  0.00     0.022 A 
ENDROOT
BRANCH   9  12
ATOM     12  O   UNL     1      -8.881   6.344  -5.616  1.00  0.00    -0.504 OA
ATOM     13  H   UNL     1      -9.839   6.641  -5.760  1.00  0.00     0.293 HD
ENDBRANCH   9  12
BRANCH   8  14
ATOM     14  O   UNL     1      -6.669   7.976  -5.193  1.00  0.00    -0.504 OA
ATOM     15  H   UNL     1      -7.152   8.804  -5.522  1.00  0.00     0.293 HD
ENDBRANCH   8  14
TORSDOF 2
ENDMDL
MODEL 6
REMARK VINA RESULT:    -4.854      1.095      2.234
REMARK INTER + INTRA:          -5.138
REMARK INTER:                  -5.138
REMARK INTRA:                   0.000
REMARK UNBOUND:                 0.000
REMARK SMILES O=c1ccc2cc(O)c(O)cc2o1
REMARK SMILES IDX 4 1 3 2 2 3 1 4 13 5 12 6 11 7 9 8 7 9 6 10 5 11 8 12 10 14
REMARK H PARENT 8 13 10 15
REMARK Flexibility Score: inf
ROOT
ATOM      1  C   UNL     1      -6.051   6.191   1.767  1.00  0.00     0.019 A 
ATOM      2  C   UNL     1      -6.545   5.870   3.030  1.00  0.00     0.094 A 
ATOM      3  C   UNL     1      -7.822   5.308   3.136  1.00  0.00     0.336 A 
ATOM      4  O   UNL     1      -8.286   5.011   4.268  1.00  0.00    -0.246 OA
ATOM      5  O   UNL     1      -8.552   5.084   2.046  1.00  0.00    -0.423 OA
ATOM      6  C   UNL     1      -8.118   5.375   0.822  1.00  0.00     0.142 A 
ATOM      7  C   UNL     1      -8.929   5.118  -0.287  1.00  0.00     0.098 A 
ATOM      8  C   UNL     1      -8.477   5.423  -1.579  1.00  0.00     0.161 A 
ATOM      9  C   UNL     1      -7.207   5.988  -1.762  1.00  0.00     0.158 A 
ATOM     10  C   UNL     1      -6.389   6.250  -0.653  1.00  0.00     0.062 A 
ATOM     11  C   UNL     1      -6.840   5.945   0.639  1.00  0.00     0.022 A 
ENDROOT
BRANCH   9  12
ATOM     12  O   UNL     1      -6.765   6.290  -3.049  1.00  0.00    -0.504 OA
ATOM     13  H   UNL     1      -5.894   6.781  -3.210  1.00  0.00     0.293 HD
ENDBRANCH   9  12
BRANCH   8  14
ATOM     14  O   UNL     1      -9.284   5.167  -2.686  1.00  0.00    -0.504 OA
ATOM     15  H   UNL     1     -10.214   4.777  -2.586  1.00  0.00     0.293 HD
ENDBRANCH   8  14
TORSDOF 2
ENDMDL
MODEL 7
REMARK VINA RESULT:    -4.723      2.116      2.486
REMARK INTER + INTRA:          -4.999
REMARK INTER:                  -4.999
REMARK INTRA:                   0.000
REMARK UNBOUND:                 0.000
REMARK SMILES O=c1ccc2cc(O)c(O)cc2o1
REMARK SMILES IDX 4 1 3 2 2 3 1 4 13 5 12 6 11 7 9 8 7 9 6 10 5 11 8 12 10 14
REMARK H PARENT 8 13 10 15
REMARK Flexibility Score: inf
ROOT
ATOM      1  C   UNL     1      -8.704   4.385  -0.341  1.00  0.00     0.019 A 
ATOM      2  C   UNL     1      -8.867   4.735   0.998  1.00  0.00     0.094 A 
ATOM      3  C   UNL     1      -8.992   6.086   1.336  1.00  0.00     0.336 A 
ATOM      4  O   UNL     1      -9.140   6.422   2.540  1.00  0.00    -0.246 OA
ATOM      5  O   UNL     1      -8.956   7.023   0.391  1.00  0.00    -0.423 OA
ATOM      6  C   UNL     1      -8.802   6.733  -0.898  1.00  0.00     0.142 A 
ATOM      7  C   UNL     1      -8.771   7.759  -1.847  1.00  0.00     0.098 A 
ATOM      8  C   UNL     1      -8.609   7.459  -3.208  1.00  0.00     0.161 A 
ATOM      9  C   UNL     1      -8.477   6.126  -3.621  1.00  0.00     0.158 A 
ATOM     10  C   UNL     1      -8.507   5.091  -2.673  1.00  0.00     0.062 A 
ATOM     11  C   UNL     1      -8.669   5.390  -1.313  1.00  0.00     0.022 A 
ENDROOT
BRANCH   9  12
ATOM     12  O   UNL     1      -8.316   5.836  -4.974  1.00  0.00    -0.504 OA
ATOM     13  H   UNL     1      -7.397   5.755  -5.394  1.00  0.00     0.293 HD
ENDBRANCH   9  12
BRANCH   8  14
ATOM     14  O   UNL     1      -8.577   8.480  -4.155  1.00  0.00    -0.504 OA
ATOM     15  H   UNL     1      -8.403   9.444  -3.891  1.00  0.00     0.293 HD
ENDBRANCH   8  14
TORSDOF 2
ENDMDL
MODEL 8
REMARK VINA RESULT:    -4.502      1.616      5.309
REMARK INTER + INTRA:          -4.765
REMARK INTER:                  -4.765
REMARK INTRA:                   0.000
REMARK UNBOUND:                 0.000
REMARK SMILES O=c1ccc2cc(O)c(O)cc2o1
REMARK SMILES IDX 4 1 3 2 2 3 1 4 13 5 12 6 11 7 9 8 7 9 6 10 5 11 8 12 10 14
REMARK H PARENT 8 13 10 15
REMARK Flexibility Score: inf
ROOT
ATOM      1  C   UNL     1      -6.737   7.355  -2.760  1.00  0.00     0.019 A 
ATOM      2  C   UNL     1      -7.299   7.261  -4.032  1.00  0.00     0.094 A 
ATOM      3  C   UNL     1      -8.349   6.362  -4.245  1.00  0.00     0.336 A 
ATOM      4  O   UNL     1      -8.869   6.263  -5.387  1.00  0.00    -0.246 OA
ATOM      5  O   UNL     1      -8.803   5.608  -3.247  1.00  0.00    -0.423 OA
ATOM      6  C   UNL     1      -8.297   5.666  -2.018  1.00  0.00     0.142 A 
ATOM      7  C   UNL     1      -8.814   4.850  -1.008  1.00  0.00     0.098 A 
ATOM      8  C   UNL     1      -8.283   4.907   0.289  1.00  0.00     0.161 A 
ATOM      9  C   UNL     1      -7.229   5.785   0.577  1.00  0.00     0.158 A 
ATOM     10  C   UNL     1      -6.704   6.606  -0.433  1.00  0.00     0.062 A 
ATOM     11  C   UNL     1      -7.235   6.550  -1.729  1.00  0.00     0.022 A 
ENDROOT
BRANCH   9  12
ATOM     12  O   UNL     1      -6.706   5.835   1.867  1.00  0.00    -0.504 OA
ATOM     13  H   UNL     1      -7.114   6.425   2.583  1.00  0.00     0.293 HD
ENDBRANCH   9  12
BRANCH   8  14
ATOM     14  O   UNL     1      -8.798   4.094   1.296  1.00  0.00    -0.504 OA
ATOM     15  H   UNL     1      -8.208   3.454   1.816  1.00  0.00     0.293 HD
ENDBRANCH   8  14
TORSDOF 2
ENDMDL
MODEL 9
REMARK VINA RESULT:    -4.488      1.801      4.881
REMARK INTER + INTRA:          -4.750
REMARK INTER:                  -4.750
REMARK INTRA:                   0.000
REMARK UNBOUND:                 0.000
REMARK SMILES O=c1ccc2cc(O)c(O)cc2o1
REMARK SMILES IDX 4 1 3 2 2 3 1 4 13 5 12 6 11 7 9 8 7 9 6 10 5 11 8 12 10 14
REMARK H PARENT 8 13 10 15
REMARK Flexibility Score: inf
ROOT
ATOM      1  C   UNL     1      -9.307   5.517  -2.790  1.00  0.00     0.019 A 
ATOM      2  C   UNL     1      -9.186   6.320  -3.923  1.00  0.00     0.094 A 
ATOM      3  C   UNL     1      -8.448   7.505  -3.838  1.00  0.00     0.336 A 
ATOM      4  O   UNL     1      -8.327   8.244  -4.851  1.00  0.00    -0.246 OA
ATOM      5  O   UNL     1      -7.870   7.858  -2.693  1.00  0.00    -0.423 OA
ATOM      6  C   UNL     1      -7.959   7.121  -1.589  1.00  0.00     0.142 A 
ATOM      7  C   UNL     1      -7.331   7.542  -0.413  1.00  0.00     0.098 A 
ATOM      8  C   UNL     1      -7.422   6.768   0.753  1.00  0.00     0.161 A 
ATOM      9  C   UNL     1      -8.146   5.568   0.744  1.00  0.00     0.158 A 
ATOM     10  C   UNL     1      -8.780   5.141  -0.433  1.00  0.00     0.062 A 
ATOM     11  C   UNL     1      -8.689   5.912  -1.599  1.00  0.00     0.022 A 
ENDROOT
BRANCH   9  12
ATOM     12  O   UNL     1      -8.234   4.806   1.907  1.00  0.00    -0.504 OA
ATOM     13  H   UNL     1      -7.892   3.853   1.944  1.00  0.00     0.293 HD
ENDBRANCH   9  12
BRANCH   8  14
ATOM     14  O   UNL     1      -6.797   7.187   1.926  1.00  0.00    -0.504 OA
ATOM     15  H   UNL     1      -6.843   8.150   2.238  1.00  0.00     0.293 HD
ENDBRANCH   8  14
TORSDOF 2
ENDMDL
