MODEL 1
REMARK VINA RESULT:    -3.612      0.000      0.000
REMARK INTER + INTRA:          -4.645
REMARK INTER:                  -4.456
REMARK INTRA:                  -0.189
REMARK UNBOUND:                -0.189
REMARK SMILES CCCCCC(=O)[O-]
REMARK SMILES IDX 4 1 5 2 6 3 7 4 8 5 3 6 2 7 1 8
REMARK H PARENT
REMARK Flexibility Score: inf
ROOT
ATOM      1  C   UNL     1      56.352  22.900  48.512  1.00  0.00     0.006 C 
ENDROOT
BRANCH   1   2
ATOM      2  C   UNL     1      55.841  23.981  47.552  1.00  0.00     0.053 C 
BRANCH   2   3
ATOM      3  C   UNL     1      54.347  24.056  47.599  1.00  0.00     0.041 C 
ATOM      4  O   UNL     1      53.713  23.498  48.534  1.00  0.00    -0.550 OA
ATOM      5  O   UNL     1      53.656  24.785  46.639  1.00  0.00    -0.550 OA
ENDBRANCH   2   3
ENDBRANCH   1   2
BRANCH   1   6
ATOM      6  C   UNL     1      56.752  21.606  47.785  1.00  0.00     0.000 C 
BRANCH   6   7
ATOM      7  C   UNL     1      56.394  20.345  48.584  1.00  0.00    -0.003 C 
ATOM      8  C   UNL     1      55.620  20.699  49.852  1.00  0.00     0.004 C 
ENDBRANCH   6   7
ENDBRANCH   1   6
TORSDOF 4
ENDMDL
MODEL 2
REMARK VINA RESULT:    -3.401      2.463      3.809
REMARK INTER + INTRA:          -4.386
REMARK INTER:                  -4.193
REMARK INTRA:                  -0.193
REMARK UNBOUND:                -0.189
REMARK SMILES CCCCCC(=O)[O-]
REMARK SMILES IDX 4 1 5 2 6 3 7 4 8 5 3 6 2 7 1 8
REMARK H PARENT
REMARK Flexibility Score: inf
ROOT
ATOM      1  C   UNL     1      56.303  22.929  48.561  1.00  0.00     0.006 C 
ENDROOT
BRANCH   1   2
ATOM      2  C   UNL     1      56.665  21.587  47.912  1.00  0.00     0.053 C 
BRANCH   2   3
ATOM      3  C   UNL     1      56.171  20.452  48.752  1.00  0.00     0.041 C 
ATOM      4  O   UNL     1      55.781  20.659  49.932  1.00  0.00    -0.550 OA
ATOM      5  O   UNL     1      56.091  19.173  48.216  1.00  0.00    -0.550 OA
ENDBRANCH   2   3
ENDBRANCH   1   2
BRANCH   1   6
ATOM      6  C   UNL     1      55.620  23.894  47.580  1.00  0.00     0.000 C 
BRANCH   6   7
ATOM      7  C   UNL     1      54.100  23.968  47.786  1.00  0.00    -0.003 C 
ATOM      8  C   UNL     1      53.715  23.536  49.199  1.00  0.00     0.004 C 
ENDBRANCH   6   7
ENDBRANCH   1   6
TORSDOF 4
ENDMDL
MODEL 3
REMARK VINA RESULT:    -3.325      3.175      4.247
REMARK INTER + INTRA:          -4.291
REMARK INTER:                  -4.161
REMARK INTRA:                  -0.130
REMARK UNBOUND:                -0.189
REMARK SMILES CCCCCC(=O)[O-]
REMARK SMILES IDX 4 1 5 2 6 3 7 4 8 5 3 6 2 7 1 8
REMARK H PARENT
REMARK Flexibility Score: inf
ROOT
ATOM      1  C   UNL     1      55.687  20.650  49.679  1.00  0.00     0.006 C 
ENDROOT
BRANCH   1   2
ATOM      2  C   UNL     1      54.961  21.742  50.475  1.00  0.00     0.053 C 
BRANCH   2   3
ATOM      3  C   UNL     1      55.196  21.562  51.942  1.00  0.00     0.041 C 
ATOM      4  O   UNL     1      56.370  21.489  52.392  1.00  0.00    -0.550 OA
ATOM      5  O   UNL     1      54.120  21.526  52.820  1.00  0.00    -0.550 OA
ENDBRANCH   2   3
ENDBRANCH   1   2
BRANCH   1   6
ATOM      6  C   UNL     1      56.411  21.204  48.442  1.00  0.00     0.000 C 
BRANCH   6   7
ATOM      7  C   UNL     1      56.112  22.691  48.199  1.00  0.00    -0.003 C 
ATOM      8  C   UNL     1      57.142  23.312  47.259  1.00  0.00     0.004 C 
ENDBRANCH   6   7
ENDBRANCH   1   6
TORSDOF 4
ENDMDL
MODEL 4
REMARK VINA RESULT:    -3.315      2.392      2.723
REMARK INTER + INTRA:          -4.279
REMARK INTER:                  -4.171
REMARK INTRA:                  -0.108
REMARK UNBOUND:                -0.189
REMARK SMILES CCCCCC(=O)[O-]
REMARK SMILES IDX 4 1 5 2 6 3 7 4 8 5 3 6 2 7 1 8
REMARK H PARENT
REMARK Flexibility Score: inf
ROOT
ATOM      1  C   UNL     1      56.442  22.455  48.035  1.00  0.00     0.006 C 
ENDROOT
BRANCH   1   2
ATOM      2  C   UNL     1      56.162  23.838  47.435  1.00  0.00     0.053 C 
BRANCH   2   3
ATOM      3  C   UNL     1      57.429  24.629  47.333  1.00  0.00     0.041 C 
ATOM      4  O   UNL     1      57.953  25.121  48.368  1.00  0.00    -0.550 OA
ATOM      5  O   UNL     1      58.058  24.780  46.105  1.00  0.00    -0.550 OA
ENDBRANCH   2   3
ENDBRANCH   1   2
BRANCH   1   6
ATOM      6  C   UNL     1      55.647  22.198  49.324  1.00  0.00     0.000 C 
BRANCH   6   7
ATOM      7  C   UNL     1      55.618  20.713  49.714  1.00  0.00    -0.003 C 
ATOM      8  C   UNL     1      56.391  19.865  48.707  1.00  0.00     0.004 C 
ENDBRANCH   6   7
ENDBRANCH   1   6
TORSDOF 4
ENDMDL
MODEL 5
REMARK VINA RESULT:    -3.283      1.164      1.858
REMARK INTER + INTRA:          -4.240
REMARK INTER:                  -4.139
REMARK INTRA:                  -0.101
REMARK UNBOUND:                -0.189
REMARK SMILES CCCCCC(=O)[O-]
REMARK SMILES IDX 4 1 5 2 6 3 7 4 8 5 3 6 2 7 1 8
REMARK H PARENT
REMARK Flexibility Score: inf
ROOT
ATOM      1  C   UNL     1      55.618  22.871  48.994  1.00  0.00     0.006 C 
ENDROOT
BRANCH   1   2
ATOM      2  C   UNL     1      54.326  23.481  48.436  1.00  0.00     0.053 C 
BRANCH   2   3
ATOM      3  C   UNL     1      54.630  24.381  47.280  1.00  0.00     0.041 C 
ATOM      4  O   UNL     1      53.694  24.858  46.584  1.00  0.00    -0.550 OA
ATOM      5  O   UNL     1      55.943  24.737  47.003  1.00  0.00    -0.550 OA
ENDBRANCH   2   3
ENDBRANCH   1   2
BRANCH   1   6
ATOM      6  C   UNL     1      55.356  21.872  50.132  1.00  0.00     0.000 C 
BRANCH   6   7
ATOM      7  C   UNL     1      55.524  20.412  49.686  1.00  0.00    -0.003 C 
ATOM      8  C   UNL     1      56.486  20.305  48.505  1.00  0.00     0.004 C 
ENDBRANCH   6   7
ENDBRANCH   1   6
TORSDOF 4
ENDMDL
MODEL 6
REMARK VINA RESULT:    -3.242      2.188      2.661
REMARK INTER + INTRA:          -4.189
REMARK INTER:                  -4.075
REMARK INTRA:                  -0.114
REMARK UNBOUND:                -0.189
REMARK SMILES CCCCCC(=O)[O-]
REMARK SMILES IDX 4 1 5 2 6 3 7 4 8 5 3 6 2 7 1 8
REMARK H PARENT
REMARK Flexibility Score: inf
ROOT
ATOM      1  C   UNL     1      56.413  21.393  48.250  1.00  0.00     0.006 C 
ENDROOT
BRANCH   1   2
ATOM      2  C   UNL     1      55.864  22.823  48.307  1.00  0.00     0.053 C 
BRANCH   2   3
ATOM      3  C   UNL     1      56.920  23.804  47.904  1.00  0.00     0.041 C 
ATOM      4  O   UNL     1      57.256  24.732  48.687  1.00  0.00    -0.550 OA
ATOM      5  O   UNL     1      57.570  23.665  46.684  1.00  0.00    -0.550 OA
ENDBRANCH   2   3
ENDBRANCH   1   2
BRANCH   1   6
ATOM      6  C   UNL     1      55.972  20.542  49.451  1.00  0.00     0.000 C 
BRANCH   6   7
ATOM      7  C   UNL     1      55.046  21.307  50.408  1.00  0.00    -0.003 C 
ATOM      8  C   UNL     1      55.719  21.532  51.761  1.00  0.00     0.004 C 
ENDBRANCH   6   7
ENDBRANCH   1   6
TORSDOF 4
ENDMDL
MODEL 7
REMARK VINA RESULT:    -3.240      3.693      4.763
REMARK INTER + INTRA:          -4.187
REMARK INTER:                  -4.072
REMARK INTRA:                  -0.115
REMARK UNBOUND:                -0.189
REMARK SMILES CCCCCC(=O)[O-]
REMARK SMILES IDX 4 1 5 2 6 3 7 4 8 5 3 6 2 7 1 8
REMARK H PARENT
REMARK Flexibility Score: inf
ROOT
ATOM      1  C   UNL     1      55.060  21.079  50.556  1.00  0.00     0.006 C 
ENDROOT
BRANCH   1   2
ATOM      2  C   UNL     1      54.516  21.769  51.813  1.00  0.00     0.053 C 
BRANCH   2   3
ATOM      3  C   UNL     1      55.422  21.523  52.978  1.00  0.00     0.041 C 
ATOM      4  O   UNL     1      56.671  21.486  52.813  1.00  0.00    -0.550 OA
ATOM      5  O   UNL     1      54.893  21.386  54.254  1.00  0.00    -0.550 OA
ENDBRANCH   2   3
ENDBRANCH   1   2
BRANCH   1   6
ATOM      6  C   UNL     1      55.471  22.078  49.464  1.00  0.00     0.000 C 
BRANCH   6   7
ATOM      7  C   UNL     1      56.344  21.437  48.375  1.00  0.00    -0.003 C 
ATOM      8  C   UNL     1      56.427  19.923  48.557  1.00  0.00     0.004 C 
ENDBRANCH   6   7
ENDBRANCH   1   6
TORSDOF 4
ENDMDL
MODEL 8
REMARK VINA RESULT:    -3.189      2.025      2.431
REMARK INTER + INTRA:          -4.124
REMARK INTER:                  -3.970
REMARK INTRA:                  -0.153
REMARK UNBOUND:                -0.189
REMARK SMILES CCCCCC(=O)[O-]
REMARK SMILES IDX 4 1 5 2 6 3 7 4 8 5 3 6 2 7 1 8
REMARK H PARENT
REMARK Flexibility Score: inf
ROOT
ATOM      1  C   UNL     1      55.881  22.725  48.178  1.00  0.00     0.006 C 
ENDROOT
BRANCH   1   2
ATOM      2  C   UNL     1      56.763  23.959  48.404  1.00  0.00     0.053 C 
BRANCH   2   3
ATOM      3  C   UNL     1      56.533  24.521  49.772  1.00  0.00     0.041 C 
ATOM      4  O   UNL     1      57.511  24.860  50.490  1.00  0.00    -0.550 OA
ATOM      5  O   UNL     1      55.239  24.720  50.234  1.00  0.00    -0.550 OA
ENDBRANCH   2   3
ENDBRANCH   1   2
BRANCH   1   6
ATOM      6  C   UNL     1      56.699  21.468  47.842  1.00  0.00     0.000 C 
BRANCH   6   7
ATOM      7  C   UNL     1      56.338  20.272  48.736  1.00  0.00    -0.003 C 
ATOM      8  C   UNL     1      55.559  20.723  49.969  1.00  0.00     0.004 C 
ENDBRANCH   6   7
ENDBRANCH   1   6
TORSDOF 4
ENDMDL
MODEL 9
REMARK VINA RESULT:    -3.171      1.567      2.343
REMARK INTER + INTRA:          -4.101
REMARK INTER:                  -3.904
REMARK INTRA:                  -0.197
REMARK UNBOUND:                -0.189
REMARK SMILES CCCCCC(=O)[O-]
REMARK SMILES IDX 4 1 5 2 6 3 7 4 8 5 3 6 2 7 1 8
REMARK H PARENT
REMARK Flexibility Score: inf
ROOT
ATOM      1  C   UNL     1      55.329  23.993  47.618  1.00  0.00     0.006 C 
ENDROOT
BRANCH   1   2
ATOM      2  C   UNL     1      53.956  23.608  48.184  1.00  0.00     0.053 C 
BRANCH   2   3
ATOM      3  C   UNL     1      53.888  23.919  49.646  1.00  0.00     0.041 C 
ATOM      4  O   UNL     1      53.684  25.100  50.033  1.00  0.00    -0.550 OA
ATOM      5  O   UNL     1      53.998  22.898  50.581  1.00  0.00    -0.550 OA
ENDBRANCH   2   3
ENDBRANCH   1   2
BRANCH   1   6
ATOM      6  C   UNL     1      56.482  23.251  48.309  1.00  0.00     0.000 C 
BRANCH   6   7
ATOM      7  C   UNL     1      56.756  21.874  47.685  1.00  0.00    -0.003 C 
ATOM      8  C   UNL     1      56.330  20.750  48.626  1.00  0.00     0.004 C 
ENDBRANCH   6   7
ENDBRANCH   1   6
TORSDOF 4
ENDMDL
