MODEL 1
REMARK VINA RESULT:    -3.318      0.000      0.000
REMARK INTER + INTRA:          -8.037
REMARK INTER:                  -6.228
REMARK INTRA:                  -1.809
REMARK UNBOUND:                -1.809
REMARK SMILES O=C([O-])CCCCCCCCCCCCCCC(=O)[O-]
REMARK SMILES IDX 10 1 9 2 8 3 7 4 6 5 5 6 4 7 2 8 1 9 3 10 11 11 12 12 13 13
REMARK SMILES IDX 14 14 15 15 16 16 17 17 18 18 19 19 20 20
REMARK H PARENT
REMARK Flexibility Score: inf
ROOT
ATOM      1  C   UNL     1       2.569  24.063   9.642  1.00  0.00     0.000 C 
ENDROOT
BRANCH   1   2
ATOM      2  C   UNL     1       4.048  24.243  10.023  1.00  0.00     0.000 C 
BRANCH   2   3
ATOM      3  C   UNL     1       4.864  24.934   8.920  1.00  0.00     0.000 C 
BRANCH   3   4
ATOM      4  C   UNL     1       4.803  24.137   7.611  1.00  0.00     0.000 C 
BRANCH   4   5
ATOM      5  C   UNL     1       4.314  25.018   6.452  1.00  0.00     0.000 C 
BRANCH   5   6
ATOM      6  C   UNL     1       2.920  24.612   5.940  1.00  0.00     0.006 C 
BRANCH   6   7
ATOM      7  C   UNL     1       1.896  25.759   5.921  1.00  0.00     0.053 C 
BRANCH   7   8
ATOM      8  C   UNL     1       0.674  25.433   6.723  1.00  0.00     0.041 C 
ATOM      9  O   UNL     1      -0.002  26.355   7.250  1.00  0.00    -0.550 OA
ATOM     10  O   UNL     1       0.262  24.114   6.859  1.00  0.00    -0.550 OA
ENDBRANCH   7   8
ENDBRANCH   6   7
ENDBRANCH   5   6
ENDBRANCH   4   5
ENDBRANCH   3   4
ENDBRANCH   2   3
ENDBRANCH   1   2
BRANCH   1  11
ATOM     11  C   UNL     1       1.643  25.028  10.399  1.00  0.00     0.000 C 
BRANCH  11  12
ATOM     12  C   UNL     1       0.171  24.582  10.379  1.00  0.00     0.000 C 
BRANCH  12  13
ATOM     13  C   UNL     1      -0.562  24.804  11.719  1.00  0.00     0.000 C 
BRANCH  13  14
ATOM     14  C   UNL     1       0.191  24.167  12.902  1.00  0.00     0.000 C 
BRANCH  14  15
ATOM     15  C   UNL     1       0.138  25.028  14.173  1.00  0.00     0.000 C 
BRANCH  15  16
ATOM     16  C   UNL     1       1.512  25.167  14.853  1.00  0.00     0.006 C 
BRANCH  16  17
ATOM     17  C   UNL     1       2.616  24.428  14.086  1.00  0.00     0.053 C 
BRANCH  17  18
ATOM     18  C   UNL     1       3.650  25.370  13.550  1.00  0.00     0.041 C 
ATOM     19  O   UNL     1       4.846  24.994  13.426  1.00  0.00    -0.550 OA
ATOM     20  O   UNL     1       3.300  26.672  13.217  1.00  0.00    -0.550 OA
ENDBRANCH  17  18
ENDBRANCH  16  17
ENDBRANCH  15  16
ENDBRANCH  14  15
ENDBRANCH  13  14
ENDBRANCH  12  13
ENDBRANCH  11  12
ENDBRANCH   1  11
TORSDOF 15
ENDMDL
MODEL 2
REMARK VINA RESULT:    -3.275      0.960      7.016
REMARK INTER + INTRA:          -7.956
REMARK INTER:                  -6.288
REMARK INTRA:                  -1.668
REMARK UNBOUND:                -1.809
REMARK SMILES O=C([O-])CCCCCCCCCCCCCCC(=O)[O-]
REMARK SMILES IDX 10 1 9 2 8 3 7 4 6 5 5 6 4 7 2 8 1 9 3 10 11 11 12 12 13 13
REMARK SMILES IDX 14 14 15 15 16 16 17 17 18 18 19 19 20 20
REMARK H PARENT
REMARK Flexibility Score: inf
ROOT
ATOM      1  C   UNL     1       3.707  25.086  10.149  1.00  0.00     0.000 C 
ENDROOT
BRANCH   1   2
ATOM      2  C   UNL     1       2.468  24.224  10.444  1.00  0.00     0.000 C 
BRANCH   2   3
ATOM      3  C   UNL     1       1.158  25.022  10.365  1.00  0.00     0.000 C 
BRANCH   3   4
ATOM      4  C   UNL     1       0.177  24.576  11.457  1.00  0.00     0.000 C 
BRANCH   4   5
ATOM      5  C   UNL     1       0.921  24.205  12.748  1.00  0.00     0.000 C 
BRANCH   5   6
ATOM      6  C   UNL     1       0.963  25.359  13.766  1.00  0.00     0.006 C 
BRANCH   6   7
ATOM      7  C   UNL     1       2.264  25.434  14.582  1.00  0.00     0.053 C 
BRANCH   7   8
ATOM      8  C   UNL     1       3.433  25.838  13.737  1.00  0.00     0.041 C 
ATOM      9  O   UNL     1       3.418  26.933  13.117  1.00  0.00    -0.550 OA
ATOM     10  O   UNL     1       4.553  25.021  13.663  1.00  0.00    -0.550 OA
ENDBRANCH   7   8
ENDBRANCH   6   7
ENDBRANCH   5   6
ENDBRANCH   4   5
ENDBRANCH   3   4
ENDBRANCH   2   3
ENDBRANCH   1   2
BRANCH   1  11
ATOM     11  C   UNL     1       4.692  24.396   9.192  1.00  0.00     0.000 C 
BRANCH  11  12
ATOM     12  C   UNL     1       4.965  25.218   7.920  1.00  0.00     0.000 C 
BRANCH  12  13
ATOM     13  C   UNL     1       4.578  24.487   6.617  1.00  0.00     0.000 C 
BRANCH  13  14
ATOM     14  C   UNL     1       3.093  24.080   6.601  1.00  0.00     0.000 C 
BRANCH  14  15
ATOM     15  C   UNL     1       2.426  24.320   5.238  1.00  0.00     0.000 C 
BRANCH  15  16
ATOM     16  C   UNL     1       1.170  25.203   5.340  1.00  0.00     0.006 C 
BRANCH  16  17
ATOM     17  C   UNL     1       1.066  25.908   6.698  1.00  0.00     0.053 C 
BRANCH  17  18
ATOM     18  C   UNL     1      -0.353  26.242   7.046  1.00  0.00     0.041 C 
ATOM     19  O   UNL     1      -1.021  25.471   7.786  1.00  0.00    -0.550 OA
ATOM     20  O   UNL     1      -0.947  27.386   6.529  1.00  0.00    -0.550 OA
ENDBRANCH  17  18
ENDBRANCH  16  17
ENDBRANCH  15  16
ENDBRANCH  14  15
ENDBRANCH  13  14
ENDBRANCH  12  13
ENDBRANCH  11  12
ENDBRANCH   1  11
TORSDOF 15
ENDMDL
MODEL 3
REMARK VINA RESULT:    -3.144      1.900      6.787
REMARK INTER + INTRA:          -7.709
REMARK INTER:                  -6.435
REMARK INTRA:                  -1.274
REMARK UNBOUND:                -1.809
REMARK SMILES O=C([O-])CCCCCCCCCCCCCCC(=O)[O-]
REMARK SMILES IDX 10 1 9 2 8 3 7 4 6 5 5 6 4 7 2 8 1 9 3 10 11 11 12 12 13 13
REMARK SMILES IDX 14 14 15 15 16 16 17 17 18 18 19 19 20 20
REMARK H PARENT
REMARK Flexibility Score: inf
ROOT
ATOM      1  C   UNL     1       0.465  24.270  10.740  1.00  0.00     0.000 C 
ENDROOT
BRANCH   1   2
ATOM      2  C   UNL     1      -0.400  24.822  11.886  1.00  0.00     0.000 C 
BRANCH   2   3
ATOM      3  C   UNL     1      -0.453  23.879  13.096  1.00  0.00     0.000 C 
BRANCH   3   4
ATOM      4  C   UNL     1      -0.665  24.665  14.396  1.00  0.00     0.000 C 
BRANCH   4   5
ATOM      5  C   UNL     1       0.418  24.323  15.430  1.00  0.00     0.000 C 
BRANCH   5   6
ATOM      6  C   UNL     1       1.838  24.335  14.835  1.00  0.00     0.006 C 
BRANCH   6   7
ATOM      7  C   UNL     1       2.451  25.738  14.692  1.00  0.00     0.053 C 
BRANCH   7   8
ATOM      8  C   UNL     1       3.419  25.814  13.552  1.00  0.00     0.041 C 
ATOM      9  O   UNL     1       3.056  26.287  12.443  1.00  0.00    -0.550 OA
ATOM     10  O   UNL     1       4.731  25.394  13.725  1.00  0.00    -0.550 OA
ENDBRANCH   7   8
ENDBRANCH   6   7
ENDBRANCH   5   6
ENDBRANCH   4   5
ENDBRANCH   3   4
ENDBRANCH   2   3
ENDBRANCH   1   2
BRANCH   1  11
ATOM     11  C   UNL     1       0.965  25.373   9.794  1.00  0.00     0.000 C 
BRANCH  11  12
ATOM     12  C   UNL     1       0.318  25.303   8.400  1.00  0.00     0.000 C 
BRANCH  12  13
ATOM     13  C   UNL     1       1.067  26.125   7.329  1.00  0.00     0.000 C 
BRANCH  13  14
ATOM     14  C   UNL     1       1.160  25.376   5.987  1.00  0.00     0.000 C 
BRANCH  14  15
ATOM     15  C   UNL     1       2.309  24.357   5.952  1.00  0.00     0.000 C 
BRANCH  15  16
ATOM     16  C   UNL     1       3.674  24.993   6.269  1.00  0.00     0.006 C 
BRANCH  16  17
ATOM     17  C   UNL     1       4.497  24.144   7.247  1.00  0.00     0.053 C 
BRANCH  17  18
ATOM     18  C   UNL     1       4.993  24.953   8.406  1.00  0.00     0.041 C 
ATOM     19  O   UNL     1       5.885  25.826   8.233  1.00  0.00    -0.550 OA
ATOM     20  O   UNL     1       4.494  24.723   9.682  1.00  0.00    -0.550 OA
ENDBRANCH  17  18
ENDBRANCH  16  17
ENDBRANCH  15  16
ENDBRANCH  14  15
ENDBRANCH  13  14
ENDBRANCH  12  13
ENDBRANCH  11  12
ENDBRANCH   1  11
TORSDOF 15
ENDMDL
MODEL 4
REMARK VINA RESULT:    -3.124      1.805      2.950
REMARK INTER + INTRA:          -7.672
REMARK INTER:                  -6.335
REMARK INTRA:                  -1.337
REMARK UNBOUND:                -1.809
REMARK SMILES O=C([O-])CCCCCCCCCCCCCCC(=O)[O-]
REMARK SMILES IDX 10 1 9 2 8 3 7 4 6 5 5 6 4 7 2 8 1 9 3 10 11 11 12 12 13 13
REMARK SMILES IDX 14 14 15 15 16 16 17 17 18 18 19 19 20 20
REMARK H PARENT
REMARK Flexibility Score: inf
ROOT
ATOM      1  C   UNL     1       1.209  25.461   9.969  1.00  0.00     0.000 C 
ENDROOT
BRANCH   1   2
ATOM      2  C   UNL     1       0.520  25.914   8.671  1.00  0.00     0.000 C 
BRANCH   2   3
ATOM      3  C   UNL     1       0.593  24.855   7.561  1.00  0.00     0.000 C 
BRANCH   3   4
ATOM      4  C   UNL     1       0.734  25.513   6.183  1.00  0.00     0.000 C 
BRANCH   4   5
ATOM      5  C   UNL     1       2.203  25.540   5.733  1.00  0.00     0.000 C 
BRANCH   5   6
ATOM      6  C   UNL     1       3.095  24.585   6.546  1.00  0.00     0.006 C 
BRANCH   6   7
ATOM      7  C   UNL     1       4.569  25.015   6.628  1.00  0.00     0.053 C 
BRANCH   7   8
ATOM      8  C   UNL     1       5.048  25.108   8.044  1.00  0.00     0.041 C 
ATOM      9  O   UNL     1       6.030  25.840   8.334  1.00  0.00    -0.550 OA
ATOM     10  O   UNL     1       4.387  24.415   9.049  1.00  0.00    -0.550 OA
ENDBRANCH   7   8
ENDBRANCH   6   7
ENDBRANCH   5   6
ENDBRANCH   4   5
ENDBRANCH   3   4
ENDBRANCH   2   3
ENDBRANCH   1   2
BRANCH   1  11
ATOM     11  C   UNL     1       0.541  24.223  10.590  1.00  0.00     0.000 C 
BRANCH  11  12
ATOM     12  C   UNL     1      -0.901  24.491  11.054  1.00  0.00     0.000 C 
BRANCH  12  13
ATOM     13  C   UNL     1      -1.125  24.234  12.559  1.00  0.00     0.000 C 
BRANCH  13  14
ATOM     14  C   UNL     1      -0.379  25.255  13.438  1.00  0.00     0.000 C 
BRANCH  14  15
ATOM     15  C   UNL     1       0.026  24.680  14.804  1.00  0.00     0.000 C 
BRANCH  15  16
ATOM     16  C   UNL     1       1.455  25.078  15.215  1.00  0.00     0.006 C 
BRANCH  16  17
ATOM     17  C   UNL     1       2.517  24.447  14.306  1.00  0.00     0.053 C 
BRANCH  17  18
ATOM     18  C   UNL     1       3.407  25.481  13.686  1.00  0.00     0.041 C 
ATOM     19  O   UNL     1       2.912  26.524  13.183  1.00  0.00    -0.550 OA
ATOM     20  O   UNL     1       4.781  25.278  13.638  1.00  0.00    -0.550 OA
ENDBRANCH  17  18
ENDBRANCH  16  17
ENDBRANCH  15  16
ENDBRANCH  14  15
ENDBRANCH  13  14
ENDBRANCH  12  13
ENDBRANCH  11  12
ENDBRANCH   1  11
TORSDOF 15
ENDMDL
MODEL 5
REMARK VINA RESULT:    -2.862      2.117      6.985
REMARK INTER + INTRA:          -7.180
REMARK INTER:                  -5.923
REMARK INTRA:                  -1.257
REMARK UNBOUND:                -1.809
REMARK SMILES O=C([O-])CCCCCCCCCCCCCCC(=O)[O-]
REMARK SMILES IDX 10 1 9 2 8 3 7 4 6 5 5 6 4 7 2 8 1 9 3 10 11 11 12 12 13 13
REMARK SMILES IDX 14 14 15 15 16 16 17 17 18 18 19 19 20 20
REMARK H PARENT
REMARK Flexibility Score: inf
ROOT
ATOM      1  C   UNL     1       5.017  24.208   9.969  1.00  0.00     0.000 C 
ENDROOT
BRANCH   1   2
ATOM      2  C   UNL     1       4.218  23.881  11.241  1.00  0.00     0.000 C 
BRANCH   2   3
ATOM      3  C   UNL     1       2.874  24.621  11.304  1.00  0.00     0.000 C 
BRANCH   3   4
ATOM      4  C   UNL     1       2.931  25.776  12.312  1.00  0.00     0.000 C 
BRANCH   4   5
ATOM      5  C   UNL     1       3.629  25.342  13.610  1.00  0.00     0.000 C 
BRANCH   5   6
ATOM      6  C   UNL     1       2.730  24.477  14.511  1.00  0.00     0.006 C 
BRANCH   6   7
ATOM      7  C   UNL     1       1.682  25.273  15.307  1.00  0.00     0.053 C 
BRANCH   7   8
ATOM      8  C   UNL     1       0.315  24.673  15.191  1.00  0.00     0.041 C 
ATOM      9  O   UNL     1      -0.092  24.231  14.084  1.00  0.00    -0.550 OA
ATOM     10  O   UNL     1      -0.498  24.571  16.312  1.00  0.00    -0.550 OA
ENDBRANCH   7   8
ENDBRANCH   6   7
ENDBRANCH   5   6
ENDBRANCH   4   5
ENDBRANCH   3   4
ENDBRANCH   2   3
ENDBRANCH   1   2
BRANCH   1  11
ATOM     11  C   UNL     1       4.116  24.643   8.802  1.00  0.00     0.000 C 
BRANCH  11  12
ATOM     12  C   UNL     1       4.845  24.627   7.447  1.00  0.00     0.000 C 
BRANCH  12  13
ATOM     13  C   UNL     1       3.967  25.098   6.267  1.00  0.00     0.000 C 
BRANCH  13  14
ATOM     14  C   UNL     1       3.007  23.996   5.784  1.00  0.00     0.000 C 
BRANCH  14  15
ATOM     15  C   UNL     1       1.771  24.558   5.064  1.00  0.00     0.000 C 
BRANCH  15  16
ATOM     16  C   UNL     1       0.456  24.206   5.782  1.00  0.00     0.006 C 
BRANCH  16  17
ATOM     17  C   UNL     1       0.570  24.349   7.305  1.00  0.00     0.053 C 
BRANCH  17  18
ATOM     18  C   UNL     1       0.423  25.773   7.744  1.00  0.00     0.041 C 
ATOM     19  O   UNL     1       1.038  26.188   8.763  1.00  0.00    -0.550 OA
ATOM     20  O   UNL     1      -0.416  26.634   7.048  1.00  0.00    -0.550 OA
ENDBRANCH  17  18
ENDBRANCH  16  17
ENDBRANCH  15  16
ENDBRANCH  14  15
ENDBRANCH  13  14
ENDBRANCH  12  13
ENDBRANCH  11  12
ENDBRANCH   1  11
TORSDOF 15
ENDMDL
MODEL 6
REMARK VINA RESULT:    -2.816      1.587      2.547
REMARK INTER + INTRA:          -7.095
REMARK INTER:                  -5.584
REMARK INTRA:                  -1.511
REMARK UNBOUND:                -1.809
REMARK SMILES O=C([O-])CCCCCCCCCCCCCCC(=O)[O-]
REMARK SMILES IDX 10 1 9 2 8 3 7 4 6 5 5 6 4 7 2 8 1 9 3 10 11 11 12 12 13 13
REMARK SMILES IDX 14 14 15 15 16 16 17 17 18 18 19 19 20 20
REMARK H PARENT
REMARK Flexibility Score: inf
ROOT
ATOM      1  C   UNL     1       5.058  24.464   9.901  1.00  0.00     0.000 C 
ENDROOT
BRANCH   1   2
ATOM      2  C   UNL     1       5.101  24.966   8.449  1.00  0.00     0.000 C 
BRANCH   2   3
ATOM      3  C   UNL     1       4.136  24.205   7.529  1.00  0.00     0.000 C 
BRANCH   3   4
ATOM      4  C   UNL     1       3.988  24.916   6.178  1.00  0.00     0.000 C 
BRANCH   4   5
ATOM      5  C   UNL     1       2.529  25.320   5.924  1.00  0.00     0.000 C 
BRANCH   5   6
ATOM      6  C   UNL     1       1.530  24.523   6.782  1.00  0.00     0.006 C 
BRANCH   6   7
ATOM      7  C   UNL     1       0.124  24.406   6.170  1.00  0.00     0.053 C 
BRANCH   7   8
ATOM      8  C   UNL     1      -0.357  25.712   5.617  1.00  0.00     0.041 C 
ATOM      9  O   UNL     1      -0.603  26.676   6.390  1.00  0.00    -0.550 OA
ATOM     10  O   UNL     1      -0.501  25.876   4.246  1.00  0.00    -0.550 OA
ENDBRANCH   7   8
ENDBRANCH   6   7
ENDBRANCH   5   6
ENDBRANCH   4   5
ENDBRANCH   3   4
ENDBRANCH   2   3
ENDBRANCH   1   2
BRANCH   1  11
ATOM     11  C   UNL     1       3.632  24.130  10.368  1.00  0.00     0.000 C 
BRANCH  11  12
ATOM     12  C   UNL     1       2.836  25.376  10.794  1.00  0.00     0.000 C 
BRANCH  12  13
ATOM     13  C   UNL     1       1.422  25.447  10.179  1.00  0.00     0.000 C 
BRANCH  13  14
ATOM     14  C   UNL     1       0.583  24.199  10.509  1.00  0.00     0.000 C 
BRANCH  14  15
ATOM     15  C   UNL     1      -0.551  24.491  11.503  1.00  0.00     0.000 C 
BRANCH  15  16
ATOM     16  C   UNL     1      -0.167  24.159  12.956  1.00  0.00     0.006 C 
BRANCH  16  17
ATOM     17  C   UNL     1       0.343  25.389  13.717  1.00  0.00     0.053 C 
BRANCH  17  18
ATOM     18  C   UNL     1       1.068  25.008  14.971  1.00  0.00     0.041 C 
ATOM     19  O   UNL     1       2.195  25.510  15.228  1.00  0.00    -0.550 OA
ATOM     20  O   UNL     1       0.515  24.077  15.840  1.00  0.00    -0.550 OA
ENDBRANCH  17  18
ENDBRANCH  16  17
ENDBRANCH  15  16
ENDBRANCH  14  15
ENDBRANCH  13  14
ENDBRANCH  12  13
ENDBRANCH  11  12
ENDBRANCH   1  11
TORSDOF 15
ENDMDL
MODEL 7
REMARK VINA RESULT:    -2.763      1.674      7.442
REMARK INTER + INTRA:          -6.994
REMARK INTER:                  -5.569
REMARK INTRA:                  -1.425
REMARK UNBOUND:                -1.809
REMARK SMILES O=C([O-])CCCCCCCCCCCCCCC(=O)[O-]
REMARK SMILES IDX 10 1 9 2 8 3 7 4 6 5 5 6 4 7 2 8 1 9 3 10 11 11 12 12 13 13
REMARK SMILES IDX 14 14 15 15 16 16 17 17 18 18 19 19 20 20
REMARK H PARENT
REMARK Flexibility Score: inf
ROOT
ATOM      1  C   UNL     1       4.327  24.734  10.071  1.00  0.00     0.000 C 
ENDROOT
BRANCH   1   2
ATOM      2  C   UNL     1       2.932  25.358  10.245  1.00  0.00     0.000 C 
BRANCH   2   3
ATOM      3  C   UNL     1       1.805  24.318  10.168  1.00  0.00     0.000 C 
BRANCH   3   4
ATOM      4  C   UNL     1       0.430  24.999  10.152  1.00  0.00     0.000 C 
BRANCH   4   5
ATOM      5  C   UNL     1      -0.452  24.488  11.300  1.00  0.00     0.000 C 
BRANCH   5   6
ATOM      6  C   UNL     1       0.352  24.165  12.573  1.00  0.00     0.006 C 
BRANCH   6   7
ATOM      7  C   UNL     1       0.545  25.361  13.519  1.00  0.00     0.053 C 
BRANCH   7   8
ATOM      8  C   UNL     1       1.788  25.230  14.344  1.00  0.00     0.041 C 
ATOM      9  O   UNL     1       1.901  24.289  15.174  1.00  0.00    -0.550 OA
ATOM     10  O   UNL     1       2.834  26.125  14.173  1.00  0.00    -0.550 OA
ENDBRANCH   7   8
ENDBRANCH   6   7
ENDBRANCH   5   6
ENDBRANCH   4   5
ENDBRANCH   3   4
ENDBRANCH   2   3
ENDBRANCH   1   2
BRANCH   1  11
ATOM     11  C   UNL     1       4.488  24.015   8.722  1.00  0.00     0.000 C 
BRANCH  11  12
ATOM     12  C   UNL     1       4.600  24.987   7.535  1.00  0.00     0.000 C 
BRANCH  12  13
ATOM     13  C   UNL     1       4.273  24.339   6.173  1.00  0.00     0.000 C 
BRANCH  13  14
ATOM     14  C   UNL     1       2.828  24.625   5.727  1.00  0.00     0.000 C 
BRANCH  14  15
ATOM     15  C   UNL     1       2.091  25.583   6.677  1.00  0.00     0.000 C 
BRANCH  15  16
ATOM     16  C   UNL     1       0.675  25.931   6.186  1.00  0.00     0.006 C 
BRANCH  16  17
ATOM     17  C   UNL     1      -0.032  24.726   5.552  1.00  0.00     0.053 C 
BRANCH  17  18
ATOM     18  C   UNL     1      -0.773  25.106   4.306  1.00  0.00     0.041 C 
ATOM     19  O   UNL     1      -1.054  24.230   3.445  1.00  0.00    -0.550 OA
ATOM     20  O   UNL     1      -1.125  26.431   4.081  1.00  0.00    -0.550 OA
ENDBRANCH  17  18
ENDBRANCH  16  17
ENDBRANCH  15  16
ENDBRANCH  14  15
ENDBRANCH  13  14
ENDBRANCH  12  13
ENDBRANCH  11  12
ENDBRANCH   1  11
TORSDOF 15
ENDMDL
MODEL 8
REMARK VINA RESULT:    -2.761      1.722      2.530
REMARK INTER + INTRA:          -6.991
REMARK INTER:                  -5.411
REMARK INTRA:                  -1.579
REMARK UNBOUND:                -1.809
REMARK SMILES O=C([O-])CCCCCCCCCCCCCCC(=O)[O-]
REMARK SMILES IDX 10 1 9 2 8 3 7 4 6 5 5 6 4 7 2 8 1 9 3 10 11 11 12 12 13 13
REMARK SMILES IDX 14 14 15 15 16 16 17 17 18 18 19 19 20 20
REMARK H PARENT
REMARK Flexibility Score: inf
ROOT
ATOM      1  C   UNL     1       4.404  24.836   8.795  1.00  0.00     0.000 C 
ENDROOT
BRANCH   1   2
ATOM      2  C   UNL     1       3.607  24.198   7.645  1.00  0.00     0.000 C 
BRANCH   2   3
ATOM      3  C   UNL     1       3.284  25.196   6.524  1.00  0.00     0.000 C 
BRANCH   3   4
ATOM      4  C   UNL     1       1.833  25.683   6.623  1.00  0.00     0.000 C 
BRANCH   4   5
ATOM      5  C   UNL     1       0.882  24.522   6.950  1.00  0.00     0.000 C 
BRANCH   5   6
ATOM      6  C   UNL     1      -0.408  24.552   6.112  1.00  0.00     0.006 C 
BRANCH   6   7
ATOM      7  C   UNL     1      -0.417  25.620   5.006  1.00  0.00     0.053 C 
BRANCH   7   8
ATOM      8  C   UNL     1      -0.243  25.020   3.645  1.00  0.00     0.041 C 
ATOM      9  O   UNL     1       0.697  25.402   2.899  1.00  0.00    -0.550 OA
ATOM     10  O   UNL     1      -1.098  24.016   3.213  1.00  0.00    -0.550 OA
ENDBRANCH   7   8
ENDBRANCH   6   7
ENDBRANCH   5   6
ENDBRANCH   4   5
ENDBRANCH   3   4
ENDBRANCH   2   3
ENDBRANCH   1   2
BRANCH   1  11
ATOM     11  C   UNL     1       3.798  24.532  10.174  1.00  0.00     0.000 C 
BRANCH  11  12
ATOM     12  C   UNL     1       2.318  24.940  10.280  1.00  0.00     0.000 C 
BRANCH  12  13
ATOM     13  C   UNL     1       1.455  23.936  11.073  1.00  0.00     0.000 C 
BRANCH  13  14
ATOM     14  C   UNL     1       0.437  24.643  11.987  1.00  0.00     0.000 C 
BRANCH  14  15
ATOM     15  C   UNL     1       0.391  24.043  13.401  1.00  0.00     0.000 C 
BRANCH  15  16
ATOM     16  C   UNL     1       1.790  23.875  14.019  1.00  0.00     0.006 C 
BRANCH  16  17
ATOM     17  C   UNL     1       2.354  25.201  14.547  1.00  0.00     0.053 C 
BRANCH  17  18
ATOM     18  C   UNL     1       3.530  25.666  13.743  1.00  0.00     0.041 C 
ATOM     19  O   UNL     1       4.595  24.993  13.731  1.00  0.00    -0.550 OA
ATOM     20  O   UNL     1       3.461  26.858  13.033  1.00  0.00    -0.550 OA
ENDBRANCH  17  18
ENDBRANCH  16  17
ENDBRANCH  15  16
ENDBRANCH  14  15
ENDBRANCH  13  14
ENDBRANCH  12  13
ENDBRANCH  11  12
ENDBRANCH   1  11
TORSDOF 15
ENDMDL
MODEL 9
REMARK VINA RESULT:    -2.753      2.331      7.627
REMARK INTER + INTRA:          -6.977
REMARK INTER:                  -5.771
REMARK INTRA:                  -1.206
REMARK UNBOUND:                -1.809
REMARK SMILES O=C([O-])CCCCCCCCCCCCCCC(=O)[O-]
REMARK SMILES IDX 10 1 9 2 8 3 7 4 6 5 5 6 4 7 2 8 1 9 3 10 11 11 12 12 13 13
REMARK SMILES IDX 14 14 15 15 16 16 17 17 18 18 19 19 20 20
REMARK H PARENT
REMARK Flexibility Score: inf
ROOT
ATOM      1  C   UNL     1       2.387  24.385  10.037  1.00  0.00     0.000 C 
ENDROOT
BRANCH   1   2
ATOM      2  C   UNL     1       2.321  24.459  11.572  1.00  0.00     0.000 C 
BRANCH   2   3
ATOM      3  C   UNL     1       3.709  24.578  12.219  1.00  0.00     0.000 C 
BRANCH   3   4
ATOM      4  C   UNL     1       3.689  25.579  13.381  1.00  0.00     0.000 C 
BRANCH   4   5
ATOM      5  C   UNL     1       2.250  25.876  13.828  1.00  0.00     0.000 C 
BRANCH   5   6
ATOM      6  C   UNL     1       1.947  25.362  15.247  1.00  0.00     0.006 C 
BRANCH   6   7
ATOM      7  C   UNL     1       1.123  24.064  15.285  1.00  0.00     0.053 C 
BRANCH   7   8
ATOM      8  C   UNL     1      -0.345  24.336  15.410  1.00  0.00     0.041 C 
ATOM      9  O   UNL     1      -1.077  24.342  14.386  1.00  0.00    -0.550 OA
ATOM     10  O   UNL     1      -0.909  24.547  16.661  1.00  0.00    -0.550 OA
ENDBRANCH   7   8
ENDBRANCH   6   7
ENDBRANCH   5   6
ENDBRANCH   4   5
ENDBRANCH   3   4
ENDBRANCH   2   3
ENDBRANCH   1   2
BRANCH   1  11
ATOM     11  C   UNL     1       3.666  25.020   9.469  1.00  0.00     0.000 C 
BRANCH  11  12
ATOM     12  C   UNL     1       4.562  24.006   8.737  1.00  0.00     0.000 C 
BRANCH  12  13
ATOM     13  C   UNL     1       4.456  24.085   7.199  1.00  0.00     0.000 C 
BRANCH  13  14
ATOM     14  C   UNL     1       3.688  25.337   6.735  1.00  0.00     0.000 C 
BRANCH  14  15
ATOM     15  C   UNL     1       2.449  24.997   5.893  1.00  0.00     0.000 C 
BRANCH  15  16
ATOM     16  C   UNL     1       1.138  25.134   6.686  1.00  0.00     0.006 C 
BRANCH  16  17
ATOM     17  C   UNL     1      -0.026  24.392   6.015  1.00  0.00     0.053 C 
BRANCH  17  18
ATOM     18  C   UNL     1      -0.677  25.220   4.950  1.00  0.00     0.041 C 
ATOM     19  O   UNL     1      -0.795  24.769   3.780  1.00  0.00    -0.550 OA
ATOM     20  O   UNL     1      -1.125  26.503   5.242  1.00  0.00    -0.550 OA
ENDBRANCH  17  18
ENDBRANCH  16  17
ENDBRANCH  15  16
ENDBRANCH  14  15
ENDBRANCH  13  14
ENDBRANCH  12  13
ENDBRANCH  11  12
ENDBRANCH   1  11
TORSDOF 15
ENDMDL
