MODEL 1
REMARK VINA RESULT:    -4.753      0.000      0.000
REMARK INTER + INTRA:          -6.727
REMARK INTER:                  -6.420
REMARK INTRA:                  -0.306
REMARK UNBOUND:                -0.306
REMARK SMILES CCCCCCCC(=O)[O-]
REMARK SMILES IDX 5 1 6 2 7 3 8 4 9 5 10 6 4 7 3 8 2 9 1 10
REMARK H PARENT
REMARK Flexibility Score: inf
ROOT
ATOM      1  C   UNL     1     -15.628  30.750   1.254  1.00  0.00     0.000 C 
ENDROOT
BRANCH   1   2
ATOM      2  C   UNL     1     -16.211  29.336   1.421  1.00  0.00     0.006 C 
BRANCH   2   3
ATOM      3  C   UNL     1     -16.102  28.509   0.134  1.00  0.00     0.053 C 
BRANCH   3   4
ATOM      4  C   UNL     1     -17.450  28.121  -0.394  1.00  0.00     0.041 C 
ATOM      5  O   UNL     1     -17.844  26.929  -0.306  1.00  0.00    -0.550 OA
ATOM      6  O   UNL     1     -18.254  29.070  -1.013  1.00  0.00    -0.550 OA
ENDBRANCH   3   4
ENDBRANCH   2   3
ENDBRANCH   1   2
BRANCH   1   7
ATOM      7  C   UNL     1     -16.711  31.842   1.260  1.00  0.00     0.000 C 
BRANCH   7   8
ATOM      8  C   UNL     1     -16.209  33.177   0.691  1.00  0.00    -0.000 C 
BRANCH   8   9
ATOM      9  C   UNL     1     -16.962  33.543  -0.593  1.00  0.00    -0.003 C 
ATOM     10  C   UNL     1     -17.984  32.471  -0.958  1.00  0.00     0.004 C 
ENDBRANCH   8   9
ENDBRANCH   7   8
ENDBRANCH   1   7
TORSDOF 6
ENDMDL
MODEL 2
REMARK VINA RESULT:    -4.588      1.511      3.761
REMARK INTER + INTRA:          -6.503
REMARK INTER:                  -6.208
REMARK INTRA:                  -0.295
REMARK UNBOUND:                -0.306
REMARK SMILES CCCCCCCC(=O)[O-]
REMARK SMILES IDX 5 1 6 2 7 3 8 4 9 5 10 6 4 7 3 8 2 9 1 10
REMARK H PARENT
REMARK Flexibility Score: inf
ROOT
ATOM      1  C   UNL     1     -16.481  33.293   0.598  1.00  0.00     0.000 C 
ENDROOT
BRANCH   1   2
ATOM      2  C   UNL     1     -16.930  33.038  -0.851  1.00  0.00     0.006 C 
BRANCH   2   3
ATOM      3  C   UNL     1     -18.280  32.313  -0.921  1.00  0.00     0.053 C 
BRANCH   3   4
ATOM      4  C   UNL     1     -18.210  31.089  -1.782  1.00  0.00     0.041 C 
ATOM      5  O   UNL     1     -18.224  31.195  -3.036  1.00  0.00    -0.550 OA
ATOM      6  O   UNL     1     -18.165  29.829  -1.197  1.00  0.00    -0.550 OA
ENDBRANCH   3   4
ENDBRANCH   2   3
ENDBRANCH   1   2
BRANCH   1   7
ATOM      7  C   UNL     1     -16.711  32.077   1.511  1.00  0.00     0.000 C 
BRANCH   7   8
ATOM      8  C   UNL     1     -15.736  30.926   1.221  1.00  0.00    -0.000 C 
BRANCH   8   9
ATOM      9  C   UNL     1     -15.664  29.958   2.407  1.00  0.00    -0.003 C 
ATOM     10  C   UNL     1     -16.223  28.588   2.036  1.00  0.00     0.004 C 
ENDBRANCH   8   9
ENDBRANCH   7   8
ENDBRANCH   1   7
TORSDOF 6
ENDMDL
MODEL 3
REMARK VINA RESULT:    -4.516      2.436      5.018
REMARK INTER + INTRA:          -6.407
REMARK INTER:                  -6.116
REMARK INTRA:                  -0.292
REMARK UNBOUND:                -0.306
REMARK SMILES CCCCCCCC(=O)[O-]
REMARK SMILES IDX 5 1 6 2 7 3 8 4 9 5 10 6 4 7 3 8 2 9 1 10
REMARK H PARENT
REMARK Flexibility Score: inf
ROOT
ATOM      1  C   UNL     1     -16.246  29.002   1.487  1.00  0.00     0.000 C 
ENDROOT
BRANCH   1   2
ATOM      2  C   UNL     1     -15.452  30.316   1.584  1.00  0.00     0.006 C 
BRANCH   2   3
ATOM      3  C   UNL     1     -16.317  31.479   2.087  1.00  0.00     0.053 C 
BRANCH   3   4
ATOM      4  C   UNL     1     -16.663  32.431   0.983  1.00  0.00     0.041 C 
ATOM      5  O   UNL     1     -17.537  32.121   0.131  1.00  0.00    -0.550 OA
ATOM      6  O   UNL     1     -15.995  33.645   0.875  1.00  0.00    -0.550 OA
ENDBRANCH   3   4
ENDBRANCH   2   3
ENDBRANCH   1   2
BRANCH   1   7
ATOM      7  C   UNL     1     -16.609  28.635   0.039  1.00  0.00     0.000 C 
BRANCH   7   8
ATOM      8  C   UNL     1     -16.536  27.124  -0.225  1.00  0.00    -0.000 C 
BRANCH   8   9
ATOM      9  C   UNL     1     -16.842  26.329   1.050  1.00  0.00    -0.003 C 
ATOM     10  C   UNL     1     -18.116  25.506   0.895  1.00  0.00     0.004 C 
ENDBRANCH   8   9
ENDBRANCH   7   8
ENDBRANCH   1   7
TORSDOF 6
ENDMDL
MODEL 4
REMARK VINA RESULT:    -4.363      3.591      6.539
REMARK INTER + INTRA:          -6.200
REMARK INTER:                  -5.995
REMARK INTRA:                  -0.205
REMARK UNBOUND:                -0.306
REMARK SMILES CCCCCCCC(=O)[O-]
REMARK SMILES IDX 5 1 6 2 7 3 8 4 9 5 10 6 4 7 3 8 2 9 1 10
REMARK H PARENT
REMARK Flexibility Score: inf
ROOT
ATOM      1  C   UNL     1     -18.004  25.573   1.123  1.00  0.00     0.000 C 
ENDROOT
BRANCH   1   2
ATOM      2  C   UNL     1     -16.891  26.623   1.287  1.00  0.00     0.006 C 
BRANCH   2   3
ATOM      3  C   UNL     1     -16.486  27.252  -0.052  1.00  0.00     0.053 C 
BRANCH   3   4
ATOM      4  C   UNL     1     -16.969  28.666  -0.169  1.00  0.00     0.041 C 
ATOM      5  O   UNL     1     -16.379  29.589   0.450  1.00  0.00    -0.550 OA
ATOM      6  O   UNL     1     -18.092  28.957  -0.934  1.00  0.00    -0.550 OA
ENDBRANCH   3   4
ENDBRANCH   2   3
ENDBRANCH   1   2
BRANCH   1   7
ATOM      7  C   UNL     1     -18.016  24.937  -0.277  1.00  0.00     0.000 C 
BRANCH   7   8
ATOM      8  C   UNL     1     -18.797  23.615  -0.320  1.00  0.00    -0.000 C 
BRANCH   8   9
ATOM      9  C   UNL     1     -19.030  23.163  -1.765  1.00  0.00    -0.003 C 
ATOM     10  C   UNL     1     -20.232  22.228  -1.864  1.00  0.00     0.004 C 
ENDBRANCH   8   9
ENDBRANCH   7   8
ENDBRANCH   1   7
TORSDOF 6
ENDMDL
MODEL 5
REMARK VINA RESULT:    -4.334      2.732      4.407
REMARK INTER + INTRA:          -6.160
REMARK INTER:                  -5.911
REMARK INTRA:                  -0.249
REMARK UNBOUND:                -0.306
REMARK SMILES CCCCCCCC(=O)[O-]
REMARK SMILES IDX 5 1 6 2 7 3 8 4 9 5 10 6 4 7 3 8 2 9 1 10
REMARK H PARENT
REMARK Flexibility Score: inf
ROOT
ATOM      1  C   UNL     1     -17.416  27.166  -0.283  1.00  0.00     0.000 C 
ENDROOT
BRANCH   1   2
ATOM      2  C   UNL     1     -17.432  25.864   0.536  1.00  0.00     0.006 C 
BRANCH   2   3
ATOM      3  C   UNL     1     -18.119  24.716  -0.215  1.00  0.00     0.053 C 
BRANCH   3   4
ATOM      4  C   UNL     1     -19.332  24.224   0.514  1.00  0.00     0.041 C 
ATOM      5  O   UNL     1     -19.343  23.072   1.020  1.00  0.00    -0.550 OA
ATOM      6  O   UNL     1     -20.464  25.025   0.601  1.00  0.00    -0.550 OA
ENDBRANCH   3   4
ENDBRANCH   2   3
ENDBRANCH   1   2
BRANCH   1   7
ATOM      7  C   UNL     1     -16.437  28.209   0.280  1.00  0.00     0.000 C 
BRANCH   7   8
ATOM      8  C   UNL     1     -16.316  28.142   1.810  1.00  0.00    -0.000 C 
BRANCH   8   9
ATOM      9  C   UNL     1     -15.931  29.507   2.390  1.00  0.00    -0.003 C 
ATOM     10  C   UNL     1     -15.796  30.556   1.290  1.00  0.00     0.004 C 
ENDBRANCH   8   9
ENDBRANCH   7   8
ENDBRANCH   1   7
TORSDOF 6
ENDMDL
MODEL 6
REMARK VINA RESULT:    -4.292      3.169      5.779
REMARK INTER + INTRA:          -6.103
REMARK INTER:                  -5.888
REMARK INTRA:                  -0.216
REMARK UNBOUND:                -0.306
REMARK SMILES CCCCCCCC(=O)[O-]
REMARK SMILES IDX 5 1 6 2 7 3 8 4 9 5 10 6 4 7 3 8 2 9 1 10
REMARK H PARENT
REMARK Flexibility Score: inf
ROOT
ATOM      1  C   UNL     1     -16.706  27.384  -0.219  1.00  0.00     0.000 C 
ENDROOT
BRANCH   1   2
ATOM      2  C   UNL     1     -16.284  28.805   0.194  1.00  0.00     0.006 C 
BRANCH   2   3
ATOM      3  C   UNL     1     -16.152  28.951   1.715  1.00  0.00     0.053 C 
BRANCH   3   4
ATOM      4  C   UNL     1     -15.502  30.247   2.094  1.00  0.00     0.041 C 
ATOM      5  O   UNL     1     -14.883  30.349   3.186  1.00  0.00    -0.550 OA
ATOM      6  O   UNL     1     -15.610  31.351   1.258  1.00  0.00    -0.550 OA
ENDBRANCH   3   4
ENDBRANCH   2   3
ENDBRANCH   1   2
BRANCH   1   7
ATOM      7  C   UNL     1     -16.804  26.424   0.978  1.00  0.00     0.000 C 
BRANCH   7   8
ATOM      8  C   UNL     1     -18.075  25.563   0.944  1.00  0.00    -0.000 C 
BRANCH   8   9
ATOM      9  C   UNL     1     -18.073  24.631  -0.273  1.00  0.00    -0.003 C 
ATOM     10  C   UNL     1     -19.302  23.728  -0.279  1.00  0.00     0.004 C 
ENDBRANCH   8   9
ENDBRANCH   7   8
ENDBRANCH   1   7
TORSDOF 6
ENDMDL
MODEL 7
REMARK VINA RESULT:    -4.270      4.316      6.401
REMARK INTER + INTRA:          -6.074
REMARK INTER:                  -5.859
REMARK INTRA:                  -0.215
REMARK UNBOUND:                -0.306
REMARK SMILES CCCCCCCC(=O)[O-]
REMARK SMILES IDX 5 1 6 2 7 3 8 4 9 5 10 6 4 7 3 8 2 9 1 10
REMARK H PARENT
REMARK Flexibility Score: inf
ROOT
ATOM      1  C   UNL     1     -18.721  24.966   0.882  1.00  0.00     0.000 C 
ENDROOT
BRANCH   1   2
ATOM      2  C   UNL     1     -19.643  24.023   0.089  1.00  0.00     0.006 C 
BRANCH   2   3
ATOM      3  C   UNL     1     -18.958  23.463  -1.164  1.00  0.00     0.053 C 
BRANCH   3   4
ATOM      4  C   UNL     1     -19.796  22.416  -1.833  1.00  0.00     0.041 C 
ATOM      5  O   UNL     1     -21.052  22.498  -1.807  1.00  0.00    -0.550 OA
ATOM      6  O   UNL     1     -19.190  21.331  -2.455  1.00  0.00    -0.550 OA
ENDBRANCH   3   4
ENDBRANCH   2   3
ENDBRANCH   1   2
BRANCH   1   7
ATOM      7  C   UNL     1     -17.584  25.543   0.023  1.00  0.00     0.000 C 
BRANCH   7   8
ATOM      8  C   UNL     1     -16.380  25.997   0.861  1.00  0.00    -0.000 C 
BRANCH   8   9
ATOM      9  C   UNL     1     -16.539  27.455   1.305  1.00  0.00    -0.003 C 
ATOM     10  C   UNL     1     -16.481  28.404   0.112  1.00  0.00     0.004 C 
ENDBRANCH   8   9
ENDBRANCH   7   8
ENDBRANCH   1   7
TORSDOF 6
ENDMDL
MODEL 8
REMARK VINA RESULT:    -4.242      2.357      3.756
REMARK INTER + INTRA:          -6.036
REMARK INTER:                  -5.813
REMARK INTRA:                  -0.223
REMARK UNBOUND:                -0.306
REMARK SMILES CCCCCCCC(=O)[O-]
REMARK SMILES IDX 5 1 6 2 7 3 8 4 9 5 10 6 4 7 3 8 2 9 1 10
REMARK H PARENT
REMARK Flexibility Score: inf
ROOT
ATOM      1  C   UNL     1     -16.521  27.445   1.439  1.00  0.00     0.000 C 
ENDROOT
BRANCH   1   2
ATOM      2  C   UNL     1     -16.805  25.941   1.291  1.00  0.00     0.006 C 
BRANCH   2   3
ATOM      3  C   UNL     1     -17.561  25.619  -0.005  1.00  0.00     0.053 C 
BRANCH   3   4
ATOM      4  C   UNL     1     -18.670  24.638   0.229  1.00  0.00     0.041 C 
ATOM      5  O   UNL     1     -19.728  25.005   0.803  1.00  0.00    -0.550 OA
ATOM      6  O   UNL     1     -18.519  23.312  -0.157  1.00  0.00    -0.550 OA
ENDBRANCH   3   4
ENDBRANCH   2   3
ENDBRANCH   1   2
BRANCH   1   7
ATOM      7  C   UNL     1     -16.243  28.131   0.091  1.00  0.00     0.000 C 
BRANCH   7   8
ATOM      8  C   UNL     1     -16.654  29.611   0.084  1.00  0.00    -0.000 C 
BRANCH   8   9
ATOM      9  C   UNL     1     -15.920  30.389   1.181  1.00  0.00    -0.003 C 
ATOM     10  C   UNL     1     -16.312  31.863   1.169  1.00  0.00     0.004 C 
ENDBRANCH   8   9
ENDBRANCH   7   8
ENDBRANCH   1   7
TORSDOF 6
ENDMDL
MODEL 9
REMARK VINA RESULT:    -4.194      3.398      5.114
REMARK INTER + INTRA:          -5.971
REMARK INTER:                  -5.561
REMARK INTRA:                  -0.410
REMARK UNBOUND:                -0.306
REMARK SMILES CCCCCCCC(=O)[O-]
REMARK SMILES IDX 5 1 6 2 7 3 8 4 9 5 10 6 4 7 3 8 2 9 1 10
REMARK H PARENT
REMARK Flexibility Score: inf
ROOT
ATOM      1  C   UNL     1     -16.425  29.864   0.519  1.00  0.00     0.000 C 
ENDROOT
BRANCH   1   2
ATOM      2  C   UNL     1     -15.562  30.178   1.754  1.00  0.00     0.006 C 
BRANCH   2   3
ATOM      3  C   UNL     1     -15.988  29.362   2.981  1.00  0.00     0.053 C 
BRANCH   3   4
ATOM      4  C   UNL     1     -16.448  30.243   4.102  1.00  0.00     0.041 C 
ATOM      5  O   UNL     1     -17.343  29.846   4.893  1.00  0.00    -0.550 OA
ATOM      6  O   UNL     1     -15.912  31.517   4.251  1.00  0.00    -0.550 OA
ENDBRANCH   3   4
ENDBRANCH   2   3
ENDBRANCH   1   2
BRANCH   1   7
ATOM      7  C   UNL     1     -16.177  28.451  -0.032  1.00  0.00     0.000 C 
BRANCH   7   8
ATOM      8  C   UNL     1     -17.480  27.672  -0.270  1.00  0.00    -0.000 C 
BRANCH   8   9
ATOM      9  C   UNL     1     -17.403  26.273   0.351  1.00  0.00    -0.003 C 
ATOM     10  C   UNL     1     -16.127  26.102   1.171  1.00  0.00     0.004 C 
ENDBRANCH   8   9
ENDBRANCH   7   8
ENDBRANCH   1   7
TORSDOF 6
ENDMDL
