MODEL 1
REMARK VINA RESULT:    -6.878      0.000      0.000
REMARK INTER + INTRA:          -7.499
REMARK INTER:                  -7.482
REMARK INTRA:                  -0.017
REMARK UNBOUND:                -0.017
REMARK SMILES CC1(C)CC[C@]2(C(=O)[O-])CC[C@@]3(C)C(=CC[C@H]4[C@@]5(C)CC[C@H](O)C(C)(C)[C@H]5CC[C@]43C)[C@@H]2C1
REMARK SMILES IDX 6 1 5 2 10 3 32 4 4 5 11 6 14 7 33 8 2 9 12 10 15 11 1 12
REMARK SMILES IDX 3 13 13 14 30 15 16 16 17 17 29 18 31 19 18 20 28 21 27 22
REMARK SMILES IDX 20 23 19 24 24 25 21 26 22 27 25 28 26 29 7 30 8 31 9 32
REMARK SMILES IDX 23 33
REMARK H PARENT 23 34
REMARK Flexibility Score: inf
ROOT
ATOM      1  C   UNL     1     -21.420  -5.218  -6.719  1.00  0.00     0.017 C 
ATOM      2  C   UNL     1     -19.948  -5.405  -6.236  1.00  0.00     0.014 C 
ATOM      3  C   UNL     1     -22.251  -4.482  -5.652  1.00  0.00     0.014 C 
ATOM      4  C   UNL     1     -22.049  -6.615  -7.027  1.00  0.00     0.028 C 
ATOM      5  C   UNL     1     -19.071  -6.125  -7.273  1.00  0.00     0.007 C 
ATOM      6  C   UNL     1     -22.420  -5.275  -4.357  1.00  0.00     0.013 C 
ATOM      7  C   UNL     1     -22.401  -7.418  -5.747  1.00  0.00    -0.064 C 
ATOM      8  C   UNL     1     -21.155  -7.352  -8.082  1.00  0.00     0.015 C 
ATOM      9  C   UNL     1     -19.650  -7.498  -7.705  1.00  0.00    -0.035 C 
ATOM     10  C   UNL     1     -23.041  -6.708  -4.536  1.00  0.00    -0.006 C 
ATOM     11  C   UNL     1     -22.588  -8.750  -5.840  1.00  0.00    -0.027 C 
ATOM     12  C   UNL     1     -18.880  -7.981  -8.955  1.00  0.00     0.011 C 
ATOM     13  C   UNL     1     -19.436  -8.553  -6.598  1.00  0.00     0.011 C 
ATOM     14  C   UNL     1     -24.545  -6.512  -4.910  1.00  0.00     0.017 C 
ATOM     15  C   UNL     1     -22.893  -7.574  -3.172  1.00  0.00    -0.020 C 
ATOM     16  C   UNL     1     -22.661  -9.652  -4.654  1.00  0.00     0.032 C 
ATOM     17  C   UNL     1     -23.349  -9.069  -3.388  1.00  0.00     0.006 C 
ATOM     18  C   UNL     1     -21.402  -7.594  -2.687  1.00  0.00     0.008 C 
ATOM     19  C   UNL     1     -23.786  -6.903  -2.073  1.00  0.00     0.012 C 
ATOM     20  C   UNL     1     -23.214 -10.026  -2.081  1.00  0.00    -0.025 C 
ATOM     21  C   UNL     1     -20.921  -8.861  -1.933  1.00  0.00     0.005 C 
ATOM     22  C   UNL     1     -22.031  -9.565  -1.112  1.00  0.00     0.003 C 
ATOM     23  C   UNL     1     -23.009 -11.522  -2.520  1.00  0.00     0.010 C 
ATOM     24  C   UNL     1     -24.579  -9.967  -1.320  1.00  0.00     0.012 C 
ATOM     25  C   UNL     1     -21.494 -10.652  -0.061  1.00  0.00    -0.006 C 
ATOM     26  C   UNL     1     -22.672 -12.493  -1.393  1.00  0.00     0.033 C 
ATOM     27  C   UNL     1     -21.378 -12.065  -0.701  1.00  0.00     0.120 C 
ATOM     28  C   UNL     1     -20.088 -10.277   0.488  1.00  0.00     0.014 C 
ATOM     29  C   UNL     1     -22.417 -10.699   1.196  1.00  0.00     0.014 C 
ENDROOT
BRANCH   1  30
ATOM     30  C   UNL     1     -21.460  -4.320  -7.956  1.00  0.00     0.048 C 
ATOM     31  O   UNL     1     -20.654  -3.360  -8.082  1.00  0.00    -0.550 OA
ATOM     32  O   UNL     1     -22.474  -4.464  -8.896  1.00  0.00    -0.550 OA
ENDBRANCH   1  30
BRANCH  27  33
ATOM     33  O   UNL     1     -21.036 -13.019   0.275  1.00  0.00    -0.393 OA
ATOM     34  H   UNL     1     -21.741 -13.719   0.258  1.00  0.00     0.210 HD
ENDBRANCH  27  33
TORSDOF 2
ENDMDL
MODEL 2
REMARK VINA RESULT:    -6.715      1.931      8.239
REMARK INTER + INTRA:          -7.321
REMARK INTER:                  -7.302
REMARK INTRA:                  -0.019
REMARK UNBOUND:                -0.017
REMARK SMILES CC1(C)CC[C@]2(C(=O)[O-])CC[C@@]3(C)C(=CC[C@H]4[C@@]5(C)CC[C@H](O)C(C)(C)[C@H]5CC[C@]43C)[C@@H]2C1
REMARK SMILES IDX 6 1 5 2 10 3 32 4 4 5 11 6 14 7 33 8 2 9 12 10 15 11 1 12
REMARK SMILES IDX 3 13 13 14 30 15 16 16 17 17 29 18 31 19 18 20 28 21 27 22
REMARK SMILES IDX 20 23 19 24 24 25 21 26 22 27 25 28 26 29 7 30 8 31 9 32
REMARK SMILES IDX 23 33
REMARK H PARENT 23 34
REMARK Flexibility Score: inf
ROOT
ATOM      1  C   UNL     1     -20.643  -9.209  -3.105  1.00  0.00     0.017 C 
ATOM      2  C   UNL     1     -20.132  -7.891  -2.443  1.00  0.00     0.014 C 
ATOM      3  C   UNL     1     -19.607  -9.751  -4.107  1.00  0.00     0.014 C 
ATOM      4  C   UNL     1     -22.002  -8.936  -3.827  1.00  0.00     0.028 C 
ATOM      5  C   UNL     1     -21.127  -7.315  -1.423  1.00  0.00     0.007 C 
ATOM      6  C   UNL     1     -19.384  -8.835  -5.309  1.00  0.00     0.013 C 
ATOM      7  C   UNL     1     -21.838  -8.144  -5.151  1.00  0.00    -0.064 C 
ATOM      8  C   UNL     1     -23.017  -8.345  -2.789  1.00  0.00     0.015 C 
ATOM      9  C   UNL     1     -22.536  -7.076  -2.024  1.00  0.00    -0.035 C 
ATOM     10  C   UNL     1     -20.684  -8.480  -6.118  1.00  0.00    -0.006 C 
ATOM     11  C   UNL     1     -22.910  -7.518  -5.676  1.00  0.00    -0.027 C 
ATOM     12  C   UNL     1     -23.521  -6.805  -0.864  1.00  0.00     0.011 C 
ATOM     13  C   UNL     1     -22.539  -5.825  -2.930  1.00  0.00     0.011 C 
ATOM     14  C   UNL     1     -21.126  -9.777  -6.868  1.00  0.00     0.017 C 
ATOM     15  C   UNL     1     -20.398  -7.275  -7.167  1.00  0.00    -0.020 C 
ATOM     16  C   UNL     1     -22.815  -6.518  -6.780  1.00  0.00     0.032 C 
ATOM     17  C   UNL     1     -21.728  -6.786  -7.859  1.00  0.00     0.006 C 
ATOM     18  C   UNL     1     -19.758  -6.043  -6.437  1.00  0.00     0.008 C 
ATOM     19  C   UNL     1     -19.402  -7.807  -8.254  1.00  0.00     0.012 C 
ATOM     20  C   UNL     1     -21.549  -5.562  -8.913  1.00  0.00    -0.025 C 
ATOM     21  C   UNL     1     -20.082  -4.639  -7.006  1.00  0.00     0.005 C 
ATOM     22  C   UNL     1     -20.316  -4.617  -8.538  1.00  0.00     0.003 C 
ATOM     23  C   UNL     1     -22.874  -4.721  -9.003  1.00  0.00     0.010 C 
ATOM     24  C   UNL     1     -21.324  -6.195 -10.325  1.00  0.00     0.012 C 
ATOM     25  C   UNL     1     -20.305  -3.153  -9.194  1.00  0.00    -0.006 C 
ATOM     26  C   UNL     1     -22.774  -3.428  -9.806  1.00  0.00     0.033 C 
ATOM     27  C   UNL     1     -21.720  -2.508  -9.191  1.00  0.00     0.120 C 
ATOM     28  C   UNL     1     -19.355  -2.187  -8.429  1.00  0.00     0.014 C 
ATOM     29  C   UNL     1     -19.736  -3.209 -10.645  1.00  0.00     0.014 C 
ENDROOT
BRANCH   1  30
ATOM     30  C   UNL     1     -20.800 -10.304  -2.049  1.00  0.00     0.048 C 
ATOM     31  O   UNL     1     -20.021 -10.362  -1.061  1.00  0.00    -0.550 OA
ATOM     32  O   UNL     1     -21.716 -11.333  -2.235  1.00  0.00    -0.550 OA
ENDBRANCH   1  30
BRANCH  27  33
ATOM     33  O   UNL     1     -21.704  -1.287  -9.891  1.00  0.00    -0.393 OA
ATOM     34  H   UNL     1     -22.583  -0.852  -9.737  1.00  0.00     0.210 HD
ENDBRANCH  27  33
TORSDOF 2
ENDMDL
MODEL 3
REMARK VINA RESULT:    -6.577      1.846      7.731
REMARK INTER + INTRA:          -7.171
REMARK INTER:                  -7.151
REMARK INTRA:                  -0.020
REMARK UNBOUND:                -0.017
REMARK SMILES CC1(C)CC[C@]2(C(=O)[O-])CC[C@@]3(C)C(=CC[C@H]4[C@@]5(C)CC[C@H](O)C(C)(C)[C@H]5CC[C@]43C)[C@@H]2C1
REMARK SMILES IDX 6 1 5 2 10 3 32 4 4 5 11 6 14 7 33 8 2 9 12 10 15 11 1 12
REMARK SMILES IDX 3 13 13 14 30 15 16 16 17 17 29 18 31 19 18 20 28 21 27 22
REMARK SMILES IDX 20 23 19 24 24 25 21 26 22 27 25 28 26 29 7 30 8 31 9 32
REMARK SMILES IDX 23 33
REMARK H PARENT 23 34
REMARK Flexibility Score: inf
ROOT
ATOM      1  C   UNL     1     -22.807  -8.971  -0.821  1.00  0.00     0.017 C 
ATOM      2  C   UNL     1     -21.569  -9.774  -1.328  1.00  0.00     0.014 C 
ATOM      3  C   UNL     1     -24.046  -9.284  -1.682  1.00  0.00     0.014 C 
ATOM      4  C   UNL     1     -22.491  -7.441  -0.866  1.00  0.00     0.028 C 
ATOM      5  C   UNL     1     -20.307  -9.505  -0.493  1.00  0.00     0.007 C 
ATOM      6  C   UNL     1     -23.913  -8.820  -3.131  1.00  0.00     0.013 C 
ATOM      7  C   UNL     1     -22.500  -6.860  -2.304  1.00  0.00    -0.064 C 
ATOM      8  C   UNL     1     -21.202  -7.166  -0.017  1.00  0.00     0.015 C 
ATOM      9  C   UNL     1     -19.946  -7.999  -0.410  1.00  0.00    -0.035 C 
ATOM     10  C   UNL     1     -23.588  -7.293  -3.309  1.00  0.00    -0.006 C 
ATOM     11  C   UNL     1     -21.890  -5.681  -2.538  1.00  0.00    -0.027 C 
ATOM     12  C   UNL     1     -18.875  -7.814   0.688  1.00  0.00     0.011 C 
ATOM     13  C   UNL     1     -19.328  -7.512  -1.740  1.00  0.00     0.011 C 
ATOM     14  C   UNL     1     -24.872  -6.500  -2.907  1.00  0.00     0.017 C 
ATOM     15  C   UNL     1     -23.166  -6.969  -4.842  1.00  0.00    -0.020 C 
ATOM     16  C   UNL     1     -21.603  -5.165  -3.908  1.00  0.00     0.032 C 
ATOM     17  C   UNL     1     -22.665  -5.481  -4.998  1.00  0.00     0.006 C 
ATOM     18  C   UNL     1     -22.006  -7.915  -5.310  1.00  0.00     0.008 C 
ATOM     19  C   UNL     1     -24.422  -7.201  -5.749  1.00  0.00     0.012 C 
ATOM     20  C   UNL     1     -22.195  -5.065  -6.498  1.00  0.00    -0.025 C 
ATOM     21  C   UNL     1     -21.005  -7.345  -6.346  1.00  0.00     0.005 C 
ATOM     22  C   UNL     1     -21.624  -6.311  -7.320  1.00  0.00     0.003 C 
ATOM     23  C   UNL     1     -21.125  -3.915  -6.435  1.00  0.00     0.010 C 
ATOM     24  C   UNL     1     -23.445  -4.474  -7.228  1.00  0.00     0.012 C 
ATOM     25  C   UNL     1     -20.718  -5.974  -8.601  1.00  0.00    -0.006 C 
ATOM     26  C   UNL     1     -20.457  -3.571  -7.762  1.00  0.00     0.033 C 
ATOM     27  C   UNL     1     -19.740  -4.798  -8.323  1.00  0.00     0.120 C 
ATOM     28  C   UNL     1     -19.860  -7.197  -9.035  1.00  0.00     0.014 C 
ATOM     29  C   UNL     1     -21.616  -5.655  -9.836  1.00  0.00     0.014 C 
ENDROOT
BRANCH   1  30
ATOM     30  C   UNL     1     -23.176  -9.408   0.597  1.00  0.00     0.048 C 
ATOM     31  O   UNL     1     -23.023 -10.604   0.963  1.00  0.00    -0.550 OA
ATOM     32  O   UNL     1     -23.815  -8.526   1.460  1.00  0.00    -0.550 OA
ENDBRANCH   1  30
BRANCH  27  33
ATOM     33  O   UNL     1     -19.057  -4.439  -9.500  1.00  0.00    -0.393 OA
ATOM     34  H   UNL     1     -18.781  -5.282  -9.945  1.00  0.00     0.210 HD
ENDBRANCH  27  33
TORSDOF 2
ENDMDL
MODEL 4
REMARK VINA RESULT:    -6.163      1.598      3.849
REMARK INTER + INTRA:          -6.721
REMARK INTER:                  -6.709
REMARK INTRA:                  -0.011
REMARK UNBOUND:                -0.017
REMARK SMILES CC1(C)CC[C@]2(C(=O)[O-])CC[C@@]3(C)C(=CC[C@H]4[C@@]5(C)CC[C@H](O)C(C)(C)[C@H]5CC[C@]43C)[C@@H]2C1
REMARK SMILES IDX 6 1 5 2 10 3 32 4 4 5 11 6 14 7 33 8 2 9 12 10 15 11 1 12
REMARK SMILES IDX 3 13 13 14 30 15 16 16 17 17 29 18 31 19 18 20 28 21 27 22
REMARK SMILES IDX 20 23 19 24 24 25 21 26 22 27 25 28 26 29 7 30 8 31 9 32
REMARK SMILES IDX 23 33
REMARK H PARENT 23 34
REMARK Flexibility Score: inf
ROOT
ATOM      1  C   UNL     1     -21.005  -6.128  -7.948  1.00  0.00     0.017 C 
ATOM      2  C   UNL     1     -22.518  -5.897  -7.640  1.00  0.00     0.014 C 
ATOM      3  C   UNL     1     -20.790  -7.502  -8.610  1.00  0.00     0.014 C 
ATOM      4  C   UNL     1     -20.184  -6.032  -6.622  1.00  0.00     0.028 C 
ATOM      5  C   UNL     1     -22.788  -4.531  -6.989  1.00  0.00     0.007 C 
ATOM      6  C   UNL     1     -21.133  -8.678  -7.697  1.00  0.00     0.013 C 
ATOM      7  C   UNL     1     -20.355  -7.275  -5.709  1.00  0.00    -0.064 C 
ATOM      8  C   UNL     1     -20.461  -4.641  -5.954  1.00  0.00     0.015 C 
ATOM      9  C   UNL     1     -21.960  -4.303  -5.698  1.00  0.00    -0.035 C 
ATOM     10  C   UNL     1     -20.371  -8.691  -6.322  1.00  0.00    -0.006 C 
ATOM     11  C   UNL     1     -20.029  -7.180  -4.405  1.00  0.00    -0.027 C 
ATOM     12  C   UNL     1     -22.063  -2.812  -5.309  1.00  0.00     0.011 C 
ATOM     13  C   UNL     1     -22.540  -5.125  -4.525  1.00  0.00     0.011 C 
ATOM     14  C   UNL     1     -18.878  -9.035  -6.628  1.00  0.00     0.017 C 
ATOM     15  C   UNL     1     -21.021  -9.784  -5.314  1.00  0.00    -0.020 C 
ATOM     16  C   UNL     1     -20.400  -8.209  -3.391  1.00  0.00     0.032 C 
ATOM     17  C   UNL     1     -20.387  -9.687  -3.874  1.00  0.00     0.006 C 
ATOM     18  C   UNL     1     -22.567  -9.559  -5.173  1.00  0.00     0.008 C 
ATOM     19  C   UNL     1     -20.758 -11.209  -5.912  1.00  0.00     0.012 C 
ATOM     20  C   UNL     1     -20.991 -10.729  -2.782  1.00  0.00    -0.025 C 
ATOM     21  C   UNL     1     -23.213  -9.931  -3.814  1.00  0.00     0.005 C 
ATOM     22  C   UNL     1     -22.514 -11.106  -3.084  1.00  0.00     0.003 C 
ATOM     23  C   UNL     1     -20.851 -10.140  -1.330  1.00  0.00     0.010 C 
ATOM     24  C   UNL     1     -20.105 -12.016  -2.829  1.00  0.00     0.012 C 
ATOM     25  C   UNL     1     -23.356 -11.732  -1.869  1.00  0.00    -0.006 C 
ATOM     26  C   UNL     1     -21.558 -10.930  -0.234  1.00  0.00     0.033 C 
ATOM     27  C   UNL     1     -23.056 -11.009  -0.526  1.00  0.00     0.120 C 
ATOM     28  C   UNL     1     -24.888 -11.629  -2.119  1.00  0.00     0.014 C 
ATOM     29  C   UNL     1     -23.072 -13.260  -1.739  1.00  0.00     0.014 C 
ENDROOT
BRANCH   1  30
ATOM     30  C   UNL     1     -20.510  -5.103  -8.968  1.00  0.00     0.048 C 
ATOM     31  O   UNL     1     -21.238  -4.754  -9.936  1.00  0.00    -0.550 OA
ATOM     32  O   UNL     1     -19.200  -4.642  -8.923  1.00  0.00    -0.550 OA
ENDBRANCH   1  30
BRANCH  27  33
ATOM     33  O   UNL     1     -23.703 -11.663   0.539  1.00  0.00    -0.393 OA
ATOM     34  H   UNL     1     -24.388 -11.037   0.892  1.00  0.00     0.210 HD
ENDBRANCH  27  33
TORSDOF 2
ENDMDL
MODEL 5
REMARK VINA RESULT:    -6.149      2.436      7.786
REMARK INTER + INTRA:          -6.706
REMARK INTER:                  -6.686
REMARK INTRA:                  -0.020
REMARK UNBOUND:                -0.017
REMARK SMILES CC1(C)CC[C@]2(C(=O)[O-])CC[C@@]3(C)C(=CC[C@H]4[C@@]5(C)CC[C@H](O)C(C)(C)[C@H]5CC[C@]43C)[C@@H]2C1
REMARK SMILES IDX 6 1 5 2 10 3 32 4 4 5 11 6 14 7 33 8 2 9 12 10 15 11 1 12
REMARK SMILES IDX 3 13 13 14 30 15 16 16 17 17 29 18 31 19 18 20 28 21 27 22
REMARK SMILES IDX 20 23 19 24 24 25 21 26 22 27 25 28 26 29 7 30 8 31 9 32
REMARK SMILES IDX 23 33
REMARK H PARENT 23 34
REMARK Flexibility Score: inf
ROOT
ATOM      1  C   UNL     1     -21.366 -12.633  -3.481  1.00  0.00     0.017 C 
ATOM      2  C   UNL     1     -22.799 -12.540  -4.094  1.00  0.00     0.014 C 
ATOM      3  C   UNL     1     -21.216 -11.654  -2.302  1.00  0.00     0.014 C 
ATOM      4  C   UNL     1     -20.306 -12.317  -4.585  1.00  0.00     0.028 C 
ATOM      5  C   UNL     1     -23.005 -13.509  -5.269  1.00  0.00     0.007 C 
ATOM      6  C   UNL     1     -21.311 -10.186  -2.713  1.00  0.00     0.013 C 
ATOM      7  C   UNL     1     -20.230 -10.810  -4.942  1.00  0.00    -0.064 C 
ATOM      8  C   UNL     1     -20.517 -13.302  -5.786  1.00  0.00     0.015 C 
ATOM      9  C   UNL     1     -21.951 -13.328  -6.393  1.00  0.00    -0.035 C 
ATOM     10  C   UNL     1     -20.294  -9.745  -3.827  1.00  0.00    -0.006 C 
ATOM     11  C   UNL     1     -19.659 -10.440  -6.105  1.00  0.00    -0.027 C 
ATOM     12  C   UNL     1     -22.052 -14.533  -7.354  1.00  0.00     0.011 C 
ATOM     13  C   UNL     1     -22.247 -12.056  -7.218  1.00  0.00     0.011 C 
ATOM     14  C   UNL     1     -18.876  -9.731  -3.174  1.00  0.00     0.017 C 
ATOM     15  C   UNL     1     -20.677  -8.278  -4.407  1.00  0.00    -0.020 C 
ATOM     16  C   UNL     1     -19.771  -9.064  -6.671  1.00  0.00     0.032 C 
ATOM     17  C   UNL     1     -19.777  -7.896  -5.645  1.00  0.00     0.006 C 
ATOM     18  C   UNL     1     -22.174  -8.238  -4.873  1.00  0.00     0.008 C 
ATOM     19  C   UNL     1     -20.464  -7.233  -3.258  1.00  0.00     0.012 C 
ATOM     20  C   UNL     1     -20.101  -6.450  -6.314  1.00  0.00    -0.025 C 
ATOM     21  C   UNL     1     -22.520  -7.298  -6.056  1.00  0.00     0.005 C 
ATOM     22  C   UNL     1     -21.632  -6.031  -6.136  1.00  0.00     0.003 C 
ATOM     23  C   UNL     1     -19.708  -6.453  -7.837  1.00  0.00     0.010 C 
ATOM     24  C   UNL     1     -19.176  -5.399  -5.616  1.00  0.00     0.012 C 
ATOM     25  C   UNL     1     -22.185  -4.890  -7.119  1.00  0.00    -0.006 C 
ATOM     26  C   UNL     1     -20.144  -5.224  -8.626  1.00  0.00     0.033 C 
ATOM     27  C   UNL     1     -21.665  -5.077  -8.572  1.00  0.00     0.120 C 
ATOM     28  C   UNL     1     -23.740  -4.888  -7.181  1.00  0.00     0.014 C 
ATOM     29  C   UNL     1     -21.803  -3.475  -6.583  1.00  0.00     0.014 C 
ENDROOT
BRANCH   1  30
ATOM     30  C   UNL     1     -21.135 -14.023  -2.888  1.00  0.00     0.048 C 
ATOM     31  O   UNL     1     -22.072 -14.646  -2.322  1.00  0.00    -0.550 OA
ATOM     32  O   UNL     1     -19.855 -14.563  -2.841  1.00  0.00    -0.550 OA
ENDBRANCH   1  30
BRANCH  27  33
ATOM     33  O   UNL     1     -22.055  -3.991  -9.377  1.00  0.00    -0.393 OA
ATOM     34  H   UNL     1     -22.632  -3.407  -8.818  1.00  0.00     0.210 HD
ENDBRANCH  27  33
TORSDOF 2
ENDMDL
MODEL 6
REMARK VINA RESULT:    -5.944      1.809      7.934
REMARK INTER + INTRA:          -6.482
REMARK INTER:                  -6.466
REMARK INTRA:                  -0.017
REMARK UNBOUND:                -0.017
REMARK SMILES CC1(C)CC[C@]2(C(=O)[O-])CC[C@@]3(C)C(=CC[C@H]4[C@@]5(C)CC[C@H](O)C(C)(C)[C@H]5CC[C@]43C)[C@@H]2C1
REMARK SMILES IDX 6 1 5 2 10 3 32 4 4 5 11 6 14 7 33 8 2 9 12 10 15 11 1 12
REMARK SMILES IDX 3 13 13 14 30 15 16 16 17 17 29 18 31 19 18 20 28 21 27 22
REMARK SMILES IDX 20 23 19 24 24 25 21 26 22 27 25 28 26 29 7 30 8 31 9 32
REMARK SMILES IDX 23 33
REMARK H PARENT 23 34
REMARK Flexibility Score: inf
ROOT
ATOM      1  C   UNL     1     -21.851  -8.396   0.207  1.00  0.00     0.017 C 
ATOM      2  C   UNL     1     -23.211  -7.636   0.122  1.00  0.00     0.014 C 
ATOM      3  C   UNL     1     -20.679  -7.401   0.308  1.00  0.00     0.014 C 
ATOM      4  C   UNL     1     -21.682  -9.305  -1.053  1.00  0.00     0.028 C 
ATOM      5  C   UNL     1     -24.416  -8.586   0.033  1.00  0.00     0.007 C 
ATOM      6  C   UNL     1     -20.505  -6.537  -0.940  1.00  0.00     0.013 C 
ATOM      7  C   UNL     1     -21.340  -8.505  -2.338  1.00  0.00    -0.064 C 
ATOM      8  C   UNL     1     -22.912 -10.272  -1.148  1.00  0.00     0.015 C 
ATOM      9  C   UNL     1     -24.310  -9.586  -1.148  1.00  0.00    -0.035 C 
ATOM     10  C   UNL     1     -20.331  -7.339  -2.280  1.00  0.00    -0.006 C 
ATOM     11  C   UNL     1     -21.535  -9.082  -3.540  1.00  0.00    -0.027 C 
ATOM     12  C   UNL     1     -25.388 -10.677  -0.960  1.00  0.00     0.011 C 
ATOM     13  C   UNL     1     -24.602  -8.879  -2.490  1.00  0.00     0.011 C 
ATOM     14  C   UNL     1     -18.919  -8.005  -2.236  1.00  0.00     0.017 C 
ATOM     15  C   UNL     1     -20.465  -6.354  -3.563  1.00  0.00    -0.020 C 
ATOM     16  C   UNL     1     -21.501  -8.328  -4.827  1.00  0.00     0.032 C 
ATOM     17  C   UNL     1     -20.471  -7.166  -4.915  1.00  0.00     0.006 C 
ATOM     18  C   UNL     1     -21.798  -5.530  -3.493  1.00  0.00     0.008 C 
ATOM     19  C   UNL     1     -19.246  -5.368  -3.544  1.00  0.00     0.012 C 
ATOM     20  C   UNL     1     -20.626  -6.266  -6.260  1.00  0.00    -0.025 C 
ATOM     21  C   UNL     1     -22.460  -5.144  -4.840  1.00  0.00     0.005 C 
ATOM     22  C   UNL     1     -21.454  -4.925  -5.998  1.00  0.00     0.003 C 
ATOM     23  C   UNL     1     -21.297  -7.109  -7.405  1.00  0.00     0.010 C 
ATOM     24  C   UNL     1     -19.183  -5.914  -6.751  1.00  0.00     0.012 C 
ATOM     25  C   UNL     1     -22.070  -4.196  -7.288  1.00  0.00    -0.006 C 
ATOM     26  C   UNL     1     -21.680  -6.324  -8.655  1.00  0.00     0.033 C 
ATOM     27  C   UNL     1     -22.669  -5.215  -8.297  1.00  0.00     0.120 C 
ATOM     28  C   UNL     1     -23.205  -3.205  -6.901  1.00  0.00     0.014 C 
ATOM     29  C   UNL     1     -20.987  -3.314  -7.985  1.00  0.00     0.014 C 
ENDROOT
BRANCH   1  30
ATOM     30  C   UNL     1     -21.789  -9.228   1.488  1.00  0.00     0.048 C 
ATOM     31  O   UNL     1     -22.300  -8.802   2.558  1.00  0.00    -0.550 OA
ATOM     32  O   UNL     1     -21.049 -10.404   1.528  1.00  0.00    -0.550 OA
ENDBRANCH   1  30
BRANCH  27  33
ATOM     33  O   UNL     1     -23.078  -4.560  -9.473  1.00  0.00    -0.393 OA
ATOM     34  H   UNL     1     -22.562  -3.713  -9.529  1.00  0.00     0.210 HD
ENDBRANCH  27  33
TORSDOF 2
ENDMDL
MODEL 7
REMARK VINA RESULT:    -5.935      1.786      7.628
REMARK INTER + INTRA:          -6.472
REMARK INTER:                  -6.454
REMARK INTRA:                  -0.018
REMARK UNBOUND:                -0.017
REMARK SMILES CC1(C)CC[C@]2(C(=O)[O-])CC[C@@]3(C)C(=CC[C@H]4[C@@]5(C)CC[C@H](O)C(C)(C)[C@H]5CC[C@]43C)[C@@H]2C1
REMARK SMILES IDX 6 1 5 2 10 3 32 4 4 5 11 6 14 7 33 8 2 9 12 10 15 11 1 12
REMARK SMILES IDX 3 13 13 14 30 15 16 16 17 17 29 18 31 19 18 20 28 21 27 22
REMARK SMILES IDX 20 23 19 24 24 25 21 26 22 27 25 28 26 29 7 30 8 31 9 32
REMARK SMILES IDX 23 33
REMARK H PARENT 23 34
REMARK Flexibility Score: inf
ROOT
ATOM      1  C   UNL     1     -22.498 -11.064  -2.472  1.00  0.00     0.017 C 
ATOM      2  C   UNL     1     -22.615 -11.734  -3.877  1.00  0.00     0.014 C 
ATOM      3  C   UNL     1     -23.697 -10.134  -2.213  1.00  0.00     0.014 C 
ATOM      4  C   UNL     1     -21.161 -10.259  -2.389  1.00  0.00     0.028 C 
ATOM      5  C   UNL     1     -21.446 -12.685  -4.179  1.00  0.00     0.007 C 
ATOM      6  C   UNL     1     -23.751  -8.932  -3.155  1.00  0.00     0.013 C 
ATOM      7  C   UNL     1     -21.197  -8.935  -3.196  1.00  0.00    -0.064 C 
ATOM      8  C   UNL     1     -19.967 -11.226  -2.701  1.00  0.00     0.015 C 
ATOM      9  C   UNL     1     -20.061 -11.999  -4.050  1.00  0.00    -0.035 C 
ATOM     10  C   UNL     1     -22.456  -8.043  -3.166  1.00  0.00    -0.006 C 
ATOM     11  C   UNL     1     -20.035  -8.338  -3.527  1.00  0.00    -0.027 C 
ATOM     12  C   UNL     1     -18.972 -13.094  -4.061  1.00  0.00     0.011 C 
ATOM     13  C   UNL     1     -19.795 -11.075  -5.259  1.00  0.00     0.011 C 
ATOM     14  C   UNL     1     -22.405  -7.288  -1.800  1.00  0.00     0.017 C 
ATOM     15  C   UNL     1     -22.488  -6.994  -4.404  1.00  0.00    -0.020 C 
ATOM     16  C   UNL     1     -19.939  -7.226  -4.518  1.00  0.00     0.032 C 
ATOM     17  C   UNL     1     -21.122  -6.217  -4.536  1.00  0.00     0.006 C 
ATOM     18  C   UNL     1     -22.747  -7.741  -5.758  1.00  0.00     0.008 C 
ATOM     19  C   UNL     1     -23.651  -5.975  -4.144  1.00  0.00     0.012 C 
ATOM     20  C   UNL     1     -21.047  -5.157  -5.766  1.00  0.00    -0.025 C 
ATOM     21  C   UNL     1     -22.111  -7.132  -7.034  1.00  0.00     0.005 C 
ATOM     22  C   UNL     1     -21.973  -5.589  -6.995  1.00  0.00     0.003 C 
ATOM     23  C   UNL     1     -19.558  -4.976  -6.241  1.00  0.00     0.010 C 
ATOM     24  C   UNL     1     -21.511  -3.770  -5.212  1.00  0.00     0.012 C 
ATOM     25  C   UNL     1     -21.650  -4.912  -8.413  1.00  0.00    -0.006 C 
ATOM     26  C   UNL     1     -19.374  -4.161  -7.516  1.00  0.00     0.033 C 
ATOM     27  C   UNL     1     -20.120  -4.821  -8.675  1.00  0.00     0.120 C 
ATOM     28  C   UNL     1     -22.273  -5.717  -9.590  1.00  0.00     0.014 C 
ATOM     29  C   UNL     1     -22.301  -3.497  -8.504  1.00  0.00     0.014 C 
ENDROOT
BRANCH   1  30
ATOM     30  C   UNL     1     -22.562 -12.126  -1.373  1.00  0.00     0.048 C 
ATOM     31  O   UNL     1     -23.237 -13.177  -1.532  1.00  0.00    -0.550 OA
ATOM     32  O   UNL     1     -21.989 -11.885  -0.130  1.00  0.00    -0.550 OA
ENDBRANCH   1  30
BRANCH  27  33
ATOM     33  O   UNL     1     -19.866  -4.105  -9.859  1.00  0.00    -0.393 OA
ATOM     34  H   UNL     1     -19.369  -3.284  -9.602  1.00  0.00     0.210 HD
ENDBRANCH  27  33
TORSDOF 2
ENDMDL
MODEL 8
REMARK VINA RESULT:    -5.841      1.741      7.687
REMARK INTER + INTRA:          -6.370
REMARK INTER:                  -6.353
REMARK INTRA:                  -0.017
REMARK UNBOUND:                -0.017
REMARK SMILES CC1(C)CC[C@]2(C(=O)[O-])CC[C@@]3(C)C(=CC[C@H]4[C@@]5(C)CC[C@H](O)C(C)(C)[C@H]5CC[C@]43C)[C@@H]2C1
REMARK SMILES IDX 6 1 5 2 10 3 32 4 4 5 11 6 14 7 33 8 2 9 12 10 15 11 1 12
REMARK SMILES IDX 3 13 13 14 30 15 16 16 17 17 29 18 31 19 18 20 28 21 27 22
REMARK SMILES IDX 20 23 19 24 24 25 21 26 22 27 25 28 26 29 7 30 8 31 9 32
REMARK SMILES IDX 23 33
REMARK H PARENT 23 34
REMARK Flexibility Score: inf
ROOT
ATOM      1  C   UNL     1     -24.118 -11.925  -1.346  1.00  0.00     0.017 C 
ATOM      2  C   UNL     1     -24.808 -12.094  -2.736  1.00  0.00     0.014 C 
ATOM      3  C   UNL     1     -24.751 -10.758  -0.565  1.00  0.00     0.014 C 
ATOM      4  C   UNL     1     -22.589 -11.674  -1.550  1.00  0.00     0.028 C 
ATOM      5  C   UNL     1     -24.220 -13.257  -3.551  1.00  0.00     0.007 C 
ATOM      6  C   UNL     1     -24.528  -9.396  -1.219  1.00  0.00     0.013 C 
ATOM      7  C   UNL     1     -22.271 -10.244  -2.062  1.00  0.00    -0.064 C 
ATOM      8  C   UNL     1     -21.988 -12.857  -2.385  1.00  0.00     0.015 C 
ATOM      9  C   UNL     1     -22.686 -13.141  -3.748  1.00  0.00    -0.035 C 
ATOM     10  C   UNL     1     -23.023  -9.028  -1.483  1.00  0.00    -0.006 C 
ATOM     11  C   UNL     1     -21.074 -10.004  -2.634  1.00  0.00    -0.027 C 
ATOM     12  C   UNL     1     -22.161 -14.489  -4.292  1.00  0.00     0.011 C 
ATOM     13  C   UNL     1     -22.350 -12.061  -4.800  1.00  0.00     0.011 C 
ATOM     14  C   UNL     1     -22.368  -8.749  -0.093  1.00  0.00     0.017 C 
ATOM     15  C   UNL     1     -22.909  -7.726  -2.446  1.00  0.00    -0.020 C 
ATOM     16  C   UNL     1     -20.765  -8.759  -3.396  1.00  0.00     0.032 C 
ATOM     17  C   UNL     1     -21.414  -7.450  -2.866  1.00  0.00     0.006 C 
ATOM     18  C   UNL     1     -23.744  -7.931  -3.758  1.00  0.00     0.008 C 
ATOM     19  C   UNL     1     -23.474  -6.493  -1.661  1.00  0.00     0.012 C 
ATOM     20  C   UNL     1     -21.199  -6.176  -3.853  1.00  0.00    -0.025 C 
ATOM     21  C   UNL     1     -23.222  -7.240  -5.043  1.00  0.00     0.005 C 
ATOM     22  C   UNL     1     -22.471  -5.910  -4.783  1.00  0.00     0.003 C 
ATOM     23  C   UNL     1     -19.912  -6.381  -4.734  1.00  0.00     0.010 C 
ATOM     24  C   UNL     1     -20.929  -4.929  -2.949  1.00  0.00     0.012 C 
ATOM     25  C   UNL     1     -22.232  -5.012  -6.091  1.00  0.00    -0.006 C 
ATOM     26  C   UNL     1     -19.708  -5.352  -5.840  1.00  0.00     0.033 C 
ATOM     27  C   UNL     1     -20.896  -5.370  -6.801  1.00  0.00     0.120 C 
ATOM     28  C   UNL     1     -23.373  -5.196  -7.131  1.00  0.00     0.014 C 
ATOM     29  C   UNL     1     -22.262  -3.495  -5.725  1.00  0.00     0.014 C 
ENDROOT
BRANCH   1  30
ATOM     30  C   UNL     1     -24.354 -13.166  -0.485  1.00  0.00     0.048 C 
ATOM     31  O   UNL     1     -25.415 -13.835  -0.596  1.00  0.00    -0.550 OA
ATOM     32  O   UNL     1     -23.463 -13.497   0.530  1.00  0.00    -0.550 OA
ENDBRANCH   1  30
BRANCH  27  33
ATOM     33  O   UNL     1     -20.649  -4.480  -7.862  1.00  0.00    -0.393 OA
ATOM     34  H   UNL     1     -21.361  -4.628  -8.538  1.00  0.00     0.210 HD
ENDBRANCH  27  33
TORSDOF 2
ENDMDL
MODEL 9
REMARK VINA RESULT:    -5.747      1.953      4.021
REMARK INTER + INTRA:          -6.268
REMARK INTER:                  -6.251
REMARK INTRA:                  -0.017
REMARK UNBOUND:                -0.017
REMARK SMILES CC1(C)CC[C@]2(C(=O)[O-])CC[C@@]3(C)C(=CC[C@H]4[C@@]5(C)CC[C@H](O)C(C)(C)[C@H]5CC[C@]43C)[C@@H]2C1
REMARK SMILES IDX 6 1 5 2 10 3 32 4 4 5 11 6 14 7 33 8 2 9 12 10 15 11 1 12
REMARK SMILES IDX 3 13 13 14 30 15 16 16 17 17 29 18 31 19 18 20 28 21 27 22
REMARK SMILES IDX 20 23 19 24 24 25 21 26 22 27 25 28 26 29 7 30 8 31 9 32
REMARK SMILES IDX 23 33
REMARK H PARENT 23 34
REMARK Flexibility Score: inf
ROOT
ATOM      1  C   UNL     1     -21.172  -7.343  -6.760  1.00  0.00     0.017 C 
ATOM      2  C   UNL     1     -22.648  -6.840  -6.714  1.00  0.00     0.014 C 
ATOM      3  C   UNL     1     -21.125  -8.878  -6.874  1.00  0.00     0.014 C 
ATOM      4  C   UNL     1     -20.421  -6.873  -5.473  1.00  0.00     0.028 C 
ATOM      5  C   UNL     1     -22.750  -5.310  -6.613  1.00  0.00     0.007 C 
ATOM      6  C   UNL     1     -21.688  -9.597  -5.649  1.00  0.00     0.013 C 
ATOM      7  C   UNL     1     -20.824  -7.674  -4.207  1.00  0.00    -0.064 C 
ATOM      8  C   UNL     1     -20.527  -5.313  -5.365  1.00  0.00     0.015 C 
ATOM      9  C   UNL     1     -21.971  -4.731  -5.403  1.00  0.00    -0.035 C 
ATOM     10  C   UNL     1     -21.014  -9.203  -4.285  1.00  0.00    -0.006 C 
ATOM     11  C   UNL     1     -20.561  -7.155  -2.991  1.00  0.00    -0.027 C 
ATOM     12  C   UNL     1     -21.875  -3.199  -5.572  1.00  0.00     0.011 C 
ATOM     13  C   UNL     1     -22.731  -5.000  -4.085  1.00  0.00     0.011 C 
ATOM     14  C   UNL     1     -19.574  -9.808  -4.292  1.00  0.00     0.017 C 
ATOM     15  C   UNL     1     -21.874  -9.775  -3.032  1.00  0.00    -0.020 C 
ATOM     16  C   UNL     1     -21.136  -7.698  -1.726  1.00  0.00     0.032 C 
ATOM     17  C   UNL     1     -21.314  -9.241  -1.658  1.00  0.00     0.006 C 
ATOM     18  C   UNL     1     -23.375  -9.334  -3.142  1.00  0.00     0.008 C 
ATOM     19  C   UNL     1     -21.791 -11.340  -3.064  1.00  0.00     0.012 C 
ATOM     20  C   UNL     1     -22.126  -9.740  -0.341  1.00  0.00    -0.025 C 
ATOM     21  C   UNL     1     -24.144  -9.112  -1.815  1.00  0.00     0.005 C 
ATOM     22  C   UNL     1     -23.668 -10.018  -0.651  1.00  0.00     0.003 C 
ATOM     23  C   UNL     1     -21.982  -8.689   0.819  1.00  0.00     0.010 C 
ATOM     24  C   UNL     1     -21.438 -11.053   0.157  1.00  0.00     0.012 C 
ATOM     25  C   UNL     1     -24.660 -10.061   0.610  1.00  0.00    -0.006 C 
ATOM     26  C   UNL     1     -22.858  -8.941   2.041  1.00  0.00     0.033 C 
ATOM     27  C   UNL     1     -24.333  -8.943   1.640  1.00  0.00     0.120 C 
ATOM     28  C   UNL     1     -26.144  -9.875   0.181  1.00  0.00     0.014 C 
ATOM     29  C   UNL     1     -24.612 -11.462   1.295  1.00  0.00     0.014 C 
ENDROOT
BRANCH   1  30
ATOM     30  C   UNL     1     -20.475  -6.820  -8.016  1.00  0.00     0.048 C 
ATOM     31  O   UNL     1     -21.108  -6.690  -9.097  1.00  0.00    -0.550 OA
ATOM     32  O   UNL     1     -19.100  -6.610  -8.022  1.00  0.00    -0.550 OA
ENDBRANCH   1  30
BRANCH  27  33
ATOM     33  O   UNL     1     -25.127  -9.088   2.792  1.00  0.00    -0.393 OA
ATOM     34  H   UNL     1     -26.021  -9.399   2.491  1.00  0.00     0.210 HD
ENDBRANCH  27  33
TORSDOF 2
ENDMDL
