MODEL 1
REMARK VINA RESULT:    -2.699      0.000      0.000
REMARK INTER + INTRA:          -3.249
REMARK INTER:                  -2.857
REMARK INTRA:                  -0.392
REMARK UNBOUND:                -0.392
REMARK SMILES CC1=CC[C@H]2[C@@H]3[C@@H](C(C)C)CC[C@@]2(C)[C@H]13
REMARK SMILES IDX 1 1 2 2 3 3 4 4 5 5 6 6 15 7 13 8 12 9 11 10 7 11 14 12 8 13
REMARK SMILES IDX 9 14 10 15
REMARK H PARENT
REMARK Flexibility Score: inf
ROOT
ATOM      1  C   UNL     1     167.764 170.795 140.479  1.00  0.00     0.039 C 
ATOM      2  C   UNL     1     167.964 171.805 139.389  1.00  0.00    -0.073 C 
ATOM      3  C   UNL     1     168.195 171.420 138.107  1.00  0.00    -0.027 C 
ATOM      4  C   UNL     1     168.409 172.497 137.038  1.00  0.00     0.031 C 
ATOM      5  C   UNL     1     168.276 173.923 137.667  1.00  0.00     0.003 C 
ATOM      6  C   UNL     1     167.007 173.924 138.550  1.00  0.00     0.004 C 
ATOM      7  C   UNL     1     167.894 173.310 139.662  1.00  0.00     0.024 C 
ATOM      8  C   UNL     1     169.080 174.040 138.986  1.00  0.00    -0.022 C 
ATOM      9  C   UNL     1     169.124 175.537 139.423  1.00  0.00     0.008 C 
ATOM     10  C   UNL     1     167.710 176.121 139.686  1.00  0.00     0.005 C 
ATOM     11  C   UNL     1     166.597 175.393 138.868  1.00  0.00    -0.005 C 
ATOM     12  C   UNL     1     170.488 173.402 139.056  1.00  0.00     0.012 C 
ENDROOT
BRANCH  11  13
ATOM     13  C   UNL     1     165.173 175.489 139.495  1.00  0.00    -0.014 C 
ATOM     14  C   UNL     1     164.412 174.152 139.537  1.00  0.00     0.007 C 
ATOM     15  C   UNL     1     165.211 176.125 140.891  1.00  0.00     0.007 C 
ENDBRANCH  11  13
TORSDOF 1
ENDMDL
MODEL 2
REMARK VINA RESULT:    -2.698     13.403     16.678
REMARK INTER + INTRA:          -3.248
REMARK INTER:                  -2.859
REMARK INTRA:                  -0.389
REMARK UNBOUND:                -0.392
REMARK SMILES CC1=CC[C@H]2[C@@H]3[C@@H](C(C)C)CC[C@@]2(C)[C@H]13
REMARK SMILES IDX 1 1 2 2 3 3 4 4 5 5 6 6 15 7 13 8 12 9 11 10 7 11 14 12 8 13
REMARK SMILES IDX 9 14 10 15
REMARK H PARENT
REMARK Flexibility Score: inf
ROOT
ATOM      1  C   UNL     1     164.209 161.208 140.444  1.00  0.00     0.039 C 
ATOM      2  C   UNL     1     164.000 160.188 139.365  1.00  0.00    -0.073 C 
ATOM      3  C   UNL     1     163.750 160.559 138.084  1.00  0.00    -0.027 C 
ATOM      4  C   UNL     1     163.527 159.472 137.028  1.00  0.00     0.031 C 
ATOM      5  C   UNL     1     163.675 158.053 137.668  1.00  0.00     0.003 C 
ATOM      6  C   UNL     1     164.955 158.065 138.534  1.00  0.00     0.004 C 
ATOM      7  C   UNL     1     164.079 158.686 139.652  1.00  0.00     0.024 C 
ATOM      8  C   UNL     1     162.889 157.944 138.998  1.00  0.00    -0.022 C 
ATOM      9  C   UNL     1     162.857 156.451 139.449  1.00  0.00     0.008 C 
ATOM     10  C   UNL     1     164.277 155.875 139.699  1.00  0.00     0.005 C 
ATOM     11  C   UNL     1     165.375 156.601 138.860  1.00  0.00    -0.005 C 
ATOM     12  C   UNL     1     161.479 158.577 139.081  1.00  0.00     0.012 C 
ENDROOT
BRANCH  11  13
ATOM     13  C   UNL     1     166.808 156.517 139.469  1.00  0.00    -0.014 C 
ATOM     14  C   UNL     1     167.558 157.861 139.504  1.00  0.00     0.007 C 
ATOM     15  C   UNL     1     166.793 155.879 140.865  1.00  0.00     0.007 C 
ENDBRANCH  11  13
TORSDOF 1
ENDMDL
MODEL 3
REMARK VINA RESULT:    -2.548      1.591      4.747
REMARK INTER + INTRA:          -3.090
REMARK INTER:                  -2.791
REMARK INTRA:                  -0.299
REMARK UNBOUND:                -0.392
REMARK SMILES CC1=CC[C@H]2[C@@H]3[C@@H](C(C)C)CC[C@@]2(C)[C@H]13
REMARK SMILES IDX 1 1 2 2 3 3 4 4 5 5 6 6 15 7 13 8 12 9 11 10 7 11 14 12 8 13
REMARK SMILES IDX 9 14 10 15
REMARK H PARENT
REMARK Flexibility Score: inf
ROOT
ATOM      1  C   UNL     1     167.883 173.448 141.840  1.00  0.00     0.039 C 
ATOM      2  C   UNL     1     167.935 173.877 140.404  1.00  0.00    -0.073 C 
ATOM      3  C   UNL     1     167.631 175.149 140.038  1.00  0.00    -0.027 C 
ATOM      4  C   UNL     1     167.684 175.525 138.555  1.00  0.00     0.031 C 
ATOM      5  C   UNL     1     168.141 174.299 137.698  1.00  0.00     0.003 C 
ATOM      6  C   UNL     1     169.368 173.673 138.400  1.00  0.00     0.004 C 
ATOM      7  C   UNL     1     168.351 172.913 139.291  1.00  0.00     0.024 C 
ATOM      8  C   UNL     1     167.375 173.012 138.093  1.00  0.00    -0.022 C 
ATOM      9  C   UNL     1     167.678 171.898 137.044  1.00  0.00     0.008 C 
ATOM     10  C   UNL     1     169.187 171.539 136.977  1.00  0.00     0.005 C 
ATOM     11  C   UNL     1     170.106 172.724 137.409  1.00  0.00    -0.005 C 
ATOM     12  C   UNL     1     165.856 173.109 138.374  1.00  0.00     0.012 C 
ENDROOT
BRANCH  11  13
ATOM     13  C   UNL     1     171.507 172.291 137.936  1.00  0.00    -0.014 C 
ATOM     14  C   UNL     1     172.621 172.331 136.875  1.00  0.00     0.007 C 
ATOM     15  C   UNL     1     171.921 173.100 139.174  1.00  0.00     0.007 C 
ENDBRANCH  11  13
TORSDOF 1
ENDMDL
MODEL 4
REMARK VINA RESULT:    -2.547     14.360     15.851
REMARK INTER + INTRA:          -3.088
REMARK INTER:                  -2.796
REMARK INTRA:                  -0.292
REMARK UNBOUND:                -0.392
REMARK SMILES CC1=CC[C@H]2[C@@H]3[C@@H](C(C)C)CC[C@@]2(C)[C@H]13
REMARK SMILES IDX 1 1 2 2 3 3 4 4 5 5 6 6 15 7 13 8 12 9 11 10 7 11 14 12 8 13
REMARK SMILES IDX 9 14 10 15
REMARK H PARENT
REMARK Flexibility Score: inf
ROOT
ATOM      1  C   UNL     1     164.083 158.498 141.824  1.00  0.00     0.039 C 
ATOM      2  C   UNL     1     164.046 158.115 140.375  1.00  0.00    -0.073 C 
ATOM      3  C   UNL     1     164.368 156.859 139.970  1.00  0.00    -0.027 C 
ATOM      4  C   UNL     1     164.330 156.531 138.475  1.00  0.00     0.031 C 
ATOM      5  C   UNL     1     163.863 157.779 137.655  1.00  0.00     0.003 C 
ATOM      6  C   UNL     1     162.624 158.366 138.368  1.00  0.00     0.004 C 
ATOM      7  C   UNL     1     163.625 159.110 139.290  1.00  0.00     0.024 C 
ATOM      8  C   UNL     1     164.611 159.061 138.097  1.00  0.00    -0.022 C 
ATOM      9  C   UNL     1     164.301 160.205 137.082  1.00  0.00     0.008 C 
ATOM     10  C   UNL     1     162.788 160.547 137.016  1.00  0.00     0.005 C 
ATOM     11  C   UNL     1     161.881 159.337 137.403  1.00  0.00    -0.005 C 
ATOM     12  C   UNL     1     166.129 158.974 138.385  1.00  0.00     0.012 C 
ENDROOT
BRANCH  11  13
ATOM     13  C   UNL     1     160.471 159.736 137.934  1.00  0.00    -0.014 C 
ATOM     14  C   UNL     1     159.356 159.671 136.875  1.00  0.00     0.007 C 
ATOM     15  C   UNL     1     160.079 158.916 139.171  1.00  0.00     0.007 C 
ENDBRANCH  11  13
TORSDOF 1
ENDMDL
MODEL 5
REMARK VINA RESULT:    -2.467     13.830     16.514
REMARK INTER + INTRA:          -3.003
REMARK INTER:                  -2.580
REMARK INTRA:                  -0.423
REMARK UNBOUND:                -0.392
REMARK SMILES CC1=CC[C@H]2[C@@H]3[C@@H](C(C)C)CC[C@@]2(C)[C@H]13
REMARK SMILES IDX 1 1 2 2 3 3 4 4 5 5 6 6 15 7 13 8 12 9 11 10 7 11 14 12 8 13
REMARK SMILES IDX 9 14 10 15
REMARK H PARENT
REMARK Flexibility Score: inf
ROOT
ATOM      1  C   UNL     1     167.466 160.274 139.825  1.00  0.00     0.039 C 
ATOM      2  C   UNL     1     166.773 159.065 140.379  1.00  0.00    -0.073 C 
ATOM      3  C   UNL     1     166.956 158.677 141.667  1.00  0.00    -0.027 C 
ATOM      4  C   UNL     1     166.235 157.423 142.172  1.00  0.00     0.031 C 
ATOM      5  C   UNL     1     165.342 156.815 141.041  1.00  0.00     0.003 C 
ATOM      6  C   UNL     1     164.552 157.977 140.397  1.00  0.00     0.004 C 
ATOM      7  C   UNL     1     165.812 158.228 139.529  1.00  0.00     0.024 C 
ATOM      8  C   UNL     1     166.112 156.719 139.700  1.00  0.00    -0.022 C 
ATOM      9  C   UNL     1     165.271 155.875 138.692  1.00  0.00     0.008 C 
ATOM     10  C   UNL     1     163.888 156.513 138.391  1.00  0.00     0.005 C 
ATOM     11  C   UNL     1     163.369 157.402 139.564  1.00  0.00    -0.005 C 
ATOM     12  C   UNL     1     167.585 156.247 139.722  1.00  0.00     0.012 C 
ENDROOT
BRANCH  11  13
ATOM     13  C   UNL     1     162.356 158.506 139.133  1.00  0.00    -0.014 C 
ATOM     14  C   UNL     1     162.345 159.744 140.048  1.00  0.00     0.007 C 
ATOM     15  C   UNL     1     162.564 158.926 137.671  1.00  0.00     0.007 C 
ENDBRANCH  11  13
TORSDOF 1
ENDMDL
MODEL 6
REMARK VINA RESULT:    -2.449      1.602      4.247
REMARK INTER + INTRA:          -2.984
REMARK INTER:                  -2.566
REMARK INTRA:                  -0.418
REMARK UNBOUND:                -0.392
REMARK SMILES CC1=CC[C@H]2[C@@H]3[C@@H](C(C)C)CC[C@@]2(C)[C@H]13
REMARK SMILES IDX 1 1 2 2 3 3 4 4 5 5 6 6 15 7 13 8 12 9 11 10 7 11 14 12 8 13
REMARK SMILES IDX 9 14 10 15
REMARK H PARENT
REMARK Flexibility Score: inf
ROOT
ATOM      1  C   UNL     1     164.840 171.585 140.176  1.00  0.00     0.039 C 
ATOM      2  C   UNL     1     165.446 172.885 140.612  1.00  0.00    -0.073 C 
ATOM      3  C   UNL     1     165.247 173.371 141.864  1.00  0.00    -0.027 C 
ATOM      4  C   UNL     1     165.877 174.714 142.246  1.00  0.00     0.031 C 
ATOM      5  C   UNL     1     166.711 175.284 141.052  1.00  0.00     0.003 C 
ATOM      6  C   UNL     1     167.580 174.130 140.499  1.00  0.00     0.004 C 
ATOM      7  C   UNL     1     166.333 173.712 139.677  1.00  0.00     0.024 C 
ATOM      8  C   UNL     1     165.924 175.205 139.720  1.00  0.00    -0.022 C 
ATOM      9  C   UNL     1     166.690 176.016 138.629  1.00  0.00     0.008 C 
ATOM     10  C   UNL     1     168.114 175.457 138.362  1.00  0.00     0.005 C 
ATOM     11  C   UNL     1     168.709 174.715 139.600  1.00  0.00    -0.005 C 
ATOM     12  C   UNL     1     164.420 175.567 139.724  1.00  0.00     0.012 C 
ENDROOT
BRANCH  11  13
ATOM     13  C   UNL     1     169.797 173.655 139.251  1.00  0.00    -0.014 C 
ATOM     14  C   UNL     1     169.951 172.540 140.301  1.00  0.00     0.007 C 
ATOM     15  C   UNL     1     169.570 173.048 137.859  1.00  0.00     0.007 C 
ENDBRANCH  11  13
TORSDOF 1
ENDMDL
MODEL 7
REMARK VINA RESULT:    -2.339      1.536      2.668
REMARK INTER + INTRA:          -2.868
REMARK INTER:                  -2.446
REMARK INTRA:                  -0.422
REMARK UNBOUND:                -0.392
REMARK SMILES CC1=CC[C@H]2[C@@H]3[C@@H](C(C)C)CC[C@@]2(C)[C@H]13
REMARK SMILES IDX 1 1 2 2 3 3 4 4 5 5 6 6 15 7 13 8 12 9 11 10 7 11 14 12 8 13
REMARK SMILES IDX 9 14 10 15
REMARK H PARENT
REMARK Flexibility Score: inf
ROOT
ATOM      1  C   UNL     1     166.510 172.384 137.337  1.00  0.00     0.039 C 
ATOM      2  C   UNL     1     167.072 173.470 138.205  1.00  0.00    -0.073 C 
ATOM      3  C   UNL     1     168.005 174.336 137.734  1.00  0.00    -0.027 C 
ATOM      4  C   UNL     1     168.556 175.414 138.672  1.00  0.00     0.031 C 
ATOM      5  C   UNL     1     167.865 175.322 140.073  1.00  0.00     0.003 C 
ATOM      6  C   UNL     1     166.345 175.184 139.832  1.00  0.00     0.004 C 
ATOM      7  C   UNL     1     166.607 173.666 139.651  1.00  0.00     0.024 C 
ATOM      8  C   UNL     1     167.822 173.863 140.590  1.00  0.00    -0.022 C 
ATOM      9  C   UNL     1     167.367 173.866 142.082  1.00  0.00     0.008 C 
ATOM     10  C   UNL     1     165.949 174.469 142.270  1.00  0.00     0.005 C 
ATOM     11  C   UNL     1     165.579 175.495 141.153  1.00  0.00    -0.005 C 
ATOM     12  C   UNL     1     169.069 172.968 140.394  1.00  0.00     0.012 C 
ENDROOT
BRANCH  11  13
ATOM     13  C   UNL     1     164.048 175.670 140.922  1.00  0.00    -0.014 C 
ATOM     14  C   UNL     1     163.671 176.123 139.501  1.00  0.00     0.007 C 
ATOM     15  C   UNL     1     163.270 174.401 141.301  1.00  0.00     0.007 C 
ENDBRANCH  11  13
TORSDOF 1
ENDMDL
MODEL 8
REMARK VINA RESULT:    -2.298     12.321     15.198
REMARK INTER + INTRA:          -2.825
REMARK INTER:                  -2.405
REMARK INTRA:                  -0.419
REMARK UNBOUND:                -0.392
REMARK SMILES CC1=CC[C@H]2[C@@H]3[C@@H](C(C)C)CC[C@@]2(C)[C@H]13
REMARK SMILES IDX 1 1 2 2 3 3 4 4 5 5 6 6 15 7 13 8 12 9 11 10 7 11 14 12 8 13
REMARK SMILES IDX 9 14 10 15
REMARK H PARENT
REMARK Flexibility Score: inf
ROOT
ATOM      1  C   UNL     1     166.157 160.783 141.141  1.00  0.00     0.039 C 
ATOM      2  C   UNL     1     166.020 160.573 139.663  1.00  0.00    -0.073 C 
ATOM      3  C   UNL     1     167.017 160.917 138.807  1.00  0.00    -0.027 C 
ATOM      4  C   UNL     1     166.813 160.695 137.305  1.00  0.00     0.031 C 
ATOM      5  C   UNL     1     165.418 160.040 137.036  1.00  0.00     0.003 C 
ATOM      6  C   UNL     1     165.250 158.875 138.039  1.00  0.00     0.004 C 
ATOM      7  C   UNL     1     164.765 159.943 139.053  1.00  0.00     0.024 C 
ATOM      8  C   UNL     1     164.292 160.756 137.823  1.00  0.00    -0.022 C 
ATOM      9  C   UNL     1     162.910 160.236 137.320  1.00  0.00     0.008 C 
ATOM     10  C   UNL     1     162.733 158.709 137.540  1.00  0.00     0.005 C 
ATOM     11  C   UNL     1     164.094 157.945 137.566  1.00  0.00    -0.005 C 
ATOM     12  C   UNL     1     164.307 162.301 137.899  1.00  0.00     0.012 C 
ENDROOT
BRANCH  11  13
ATOM     13  C   UNL     1     164.059 156.598 138.350  1.00  0.00    -0.014 C 
ATOM     14  C   UNL     1     165.424 156.158 138.909  1.00  0.00     0.007 C 
ATOM     15  C   UNL     1     163.008 156.622 139.469  1.00  0.00     0.007 C 
ENDBRANCH  11  13
TORSDOF 1
ENDMDL
MODEL 9
REMARK VINA RESULT:    -2.222     13.305     16.200
REMARK INTER + INTRA:          -2.744
REMARK INTER:                  -2.317
REMARK INTRA:                  -0.427
REMARK UNBOUND:                -0.392
REMARK SMILES CC1=CC[C@H]2[C@@H]3[C@@H](C(C)C)CC[C@@]2(C)[C@H]13
REMARK SMILES IDX 1 1 2 2 3 3 4 4 5 5 6 6 15 7 13 8 12 9 11 10 7 11 14 12 8 13
REMARK SMILES IDX 9 14 10 15
REMARK H PARENT
REMARK Flexibility Score: inf
ROOT
ATOM      1  C   UNL     1     162.508 159.791 141.158  1.00  0.00     0.039 C 
ATOM      2  C   UNL     1     163.187 159.153 139.983  1.00  0.00    -0.073 C 
ATOM      3  C   UNL     1     162.693 159.288 138.726  1.00  0.00    -0.027 C 
ATOM      4  C   UNL     1     163.420 158.599 137.567  1.00  0.00     0.031 C 
ATOM      5  C   UNL     1     164.692 157.853 138.088  1.00  0.00     0.003 C 
ATOM      6  C   UNL     1     165.444 158.821 139.030  1.00  0.00     0.004 C 
ATOM      7  C   UNL     1     164.475 158.341 140.142  1.00  0.00     0.024 C 
ATOM      8  C   UNL     1     164.381 157.013 139.352  1.00  0.00    -0.022 C 
ATOM      9  C   UNL     1     165.605 156.099 139.667  1.00  0.00     0.008 C 
ATOM     10  C   UNL     1     166.896 156.911 139.955  1.00  0.00     0.005 C 
ATOM     11  C   UNL     1     166.897 158.305 139.254  1.00  0.00    -0.005 C 
ATOM     12  C   UNL     1     163.061 156.207 139.401  1.00  0.00     0.012 C 
ENDROOT
BRANCH  11  13
ATOM     13  C   UNL     1     167.804 159.370 139.941  1.00  0.00    -0.014 C 
ATOM     14  C   UNL     1     167.277 160.812 139.835  1.00  0.00     0.007 C 
ATOM     15  C   UNL     1     168.085 159.012 141.407  1.00  0.00     0.007 C 
ENDBRANCH  11  13
TORSDOF 1
ENDMDL
