MODEL 1
REMARK VINA RESULT:    -2.774      0.000      0.000
REMARK INTER + INTRA:          -2.774
REMARK INTER:                  -2.774
REMARK INTRA:                   0.000
REMARK UNBOUND:                 0.000
REMARK SMILES CC(=O)[O-]
REMARK SMILES IDX 1 1 2 2 3 3 4 4
REMARK H PARENT
REMARK Flexibility Score: inf
ROOT
ATOM      1  C   UNL     1      17.888  -7.275  20.720  1.00  0.00     0.063 C 
ATOM      2  C   UNL     1      18.517  -7.895  21.921  1.00  0.00     0.038 C 
ATOM      3  O   UNL     1      17.843  -8.068  22.969  1.00  0.00    -0.550 OA
ATOM      4  O   UNL     1      19.834  -8.333  21.868  1.00  0.00    -0.550 OA
ENDROOT
TORSDOF 0
ENDMDL
MODEL 2
REMARK VINA RESULT:    -2.540      1.372      2.092
REMARK INTER + INTRA:          -2.540
REMARK INTER:                  -2.540
REMARK INTRA:                   0.000
REMARK UNBOUND:                 0.000
REMARK SMILES CC(=O)[O-]
REMARK SMILES IDX 1 1 2 2 3 3 4 4
REMARK H PARENT
REMARK Flexibility Score: inf
ROOT
ATOM      1  C   UNL     1      17.851  -7.863  23.160  1.00  0.00     0.063 C 
ATOM      2  C   UNL     1      18.512  -7.908  21.825  1.00  0.00     0.038 C 
ATOM      3  O   UNL     1      19.692  -8.331  21.718  1.00  0.00    -0.550 OA
ATOM      4  O   UNL     1      17.808  -7.534  20.687  1.00  0.00    -0.550 OA
ENDROOT
TORSDOF 0
ENDMDL
MODEL 3
REMARK VINA RESULT:    -2.498      1.739      1.810
REMARK INTER + INTRA:          -2.498
REMARK INTER:                  -2.498
REMARK INTRA:                   0.000
REMARK UNBOUND:                 0.000
REMARK SMILES CC(=O)[O-]
REMARK SMILES IDX 1 1 2 2 3 3 4 4
REMARK H PARENT
REMARK Flexibility Score: inf
ROOT
ATOM      1  C   UNL     1      17.938  -7.892  22.783  1.00  0.00     0.063 C 
ATOM      2  C   UNL     1      19.402  -7.822  23.058  1.00  0.00     0.038 C 
ATOM      3  O   UNL     1      19.833  -7.127  24.014  1.00  0.00    -0.550 OA
ATOM      4  O   UNL     1      20.290  -8.568  22.293  1.00  0.00    -0.550 OA
ENDROOT
TORSDOF 0
ENDMDL
MODEL 4
REMARK VINA RESULT:    -2.485     25.352     25.717
REMARK INTER + INTRA:          -2.485
REMARK INTER:                  -2.485
REMARK INTRA:                   0.000
REMARK UNBOUND:                 0.000
REMARK SMILES CC(=O)[O-]
REMARK SMILES IDX 1 1 2 2 3 3 4 4
REMARK H PARENT
REMARK Flexibility Score: inf
ROOT
ATOM      1  C   UNL     1       8.503   9.136   4.098  1.00  0.00     0.063 C 
ATOM      2  C   UNL     1       8.357   9.148   5.582  1.00  0.00     0.038 C 
ATOM      3  O   UNL     1       7.697   8.245   6.159  1.00  0.00    -0.550 OA
ATOM      4  O   UNL     1       8.994  10.124   6.336  1.00  0.00    -0.550 OA
ENDROOT
TORSDOF 0
ENDMDL
MODEL 5
REMARK VINA RESULT:    -2.431      1.390      2.510
REMARK INTER + INTRA:          -2.431
REMARK INTER:                  -2.431
REMARK INTRA:                   0.000
REMARK UNBOUND:                 0.000
REMARK SMILES CC(=O)[O-]
REMARK SMILES IDX 1 1 2 2 3 3 4 4
REMARK H PARENT
REMARK Flexibility Score: inf
ROOT
ATOM      1  C   UNL     1      20.421  -8.199  23.364  1.00  0.00     0.063 C 
ATOM      2  C   UNL     1      19.126  -8.084  22.633  1.00  0.00     0.038 C 
ATOM      3  O   UNL     1      19.106  -8.114  21.375  1.00  0.00    -0.550 OA
ATOM      4  O   UNL     1      17.934  -8.000  23.339  1.00  0.00    -0.550 OA
ENDROOT
TORSDOF 0
ENDMDL
MODEL 6
REMARK VINA RESULT:    -2.330     25.458     25.880
REMARK INTER + INTRA:          -2.330
REMARK INTER:                  -2.330
REMARK INTRA:                   0.000
REMARK UNBOUND:                 0.000
REMARK SMILES CC(=O)[O-]
REMARK SMILES IDX 1 1 2 2 3 3 4 4
REMARK H PARENT
REMARK Flexibility Score: inf
ROOT
ATOM      1  C   UNL     1       8.874   8.761   6.570  1.00  0.00     0.063 C 
ATOM      2  C   UNL     1       8.530   9.017   5.142  1.00  0.00     0.038 C 
ATOM      3  O   UNL     1       8.888   8.205   4.250  1.00  0.00    -0.550 OA
ATOM      4  O   UNL     1       7.765  10.125   4.799  1.00  0.00    -0.550 OA
ENDROOT
TORSDOF 0
ENDMDL
MODEL 7
REMARK VINA RESULT:    -1.857     21.131     21.415
REMARK INTER + INTRA:          -1.857
REMARK INTER:                  -1.857
REMARK INTRA:                   0.000
REMARK UNBOUND:                 0.000
REMARK SMILES CC(=O)[O-]
REMARK SMILES IDX 1 1 2 2 3 3 4 4
REMARK H PARENT
REMARK Flexibility Score: inf
ROOT
ATOM      1  C   UNL     1       3.281   6.409  22.701  1.00  0.00     0.063 C 
ATOM      2  C   UNL     1       3.687   7.435  21.698  1.00  0.00     0.038 C 
ATOM      3  O   UNL     1       4.651   8.207  21.938  1.00  0.00    -0.550 OA
ATOM      4  O   UNL     1       3.037   7.504  20.472  1.00  0.00    -0.550 OA
ENDROOT
TORSDOF 0
ENDMDL
MODEL 8
REMARK VINA RESULT:    -1.773     18.099     18.154
REMARK INTER + INTRA:          -1.773
REMARK INTER:                  -1.773
REMARK INTRA:                   0.000
REMARK UNBOUND:                 0.000
REMARK SMILES CC(=O)[O-]
REMARK SMILES IDX 1 1 2 2 3 3 4 4
REMARK H PARENT
REMARK Flexibility Score: inf
ROOT
ATOM      1  C   UNL     1      13.372   9.370  20.384  1.00  0.00     0.063 C 
ATOM      2  C   UNL     1      13.158   9.362  21.860  1.00  0.00     0.038 C 
ATOM      3  O   UNL     1      14.062   9.775  22.631  1.00  0.00    -0.550 OA
ATOM      4  O   UNL     1      11.940   8.950  22.383  1.00  0.00    -0.550 OA
ENDROOT
TORSDOF 0
ENDMDL
MODEL 9
REMARK VINA RESULT:    -1.710     17.697     18.049
REMARK INTER + INTRA:          -1.710
REMARK INTER:                  -1.710
REMARK INTRA:                   0.000
REMARK UNBOUND:                 0.000
REMARK SMILES CC(=O)[O-]
REMARK SMILES IDX 1 1 2 2 3 3 4 4
REMARK H PARENT
REMARK Flexibility Score: inf
ROOT
ATOM      1  C   UNL     1       7.250 -10.125   8.661  1.00  0.00     0.063 C 
ATOM      2  C   UNL     1       7.742  -9.162   7.635  1.00  0.00     0.038 C 
ATOM      3  O   UNL     1       8.834  -9.370   7.045  1.00  0.00    -0.550 OA
ATOM      4  O   UNL     1       6.971  -8.060   7.288  1.00  0.00    -0.550 OA
ENDROOT
TORSDOF 0
ENDMDL
