MODEL 1
REMARK VINA RESULT:     5.534      0.000      0.000
REMARK INTER + INTRA:           9.504
REMARK INTER:                   7.960
REMARK INTRA:                   1.543
REMARK UNBOUND:                 1.543
REMARK SMILES O=c1c(O[C@@H]2O[C@H](CO)[C@@H](O)[C@@H](O)[C@H]2O)c(-c2ccc(O)cc2)oc2cc(O)cc(O)c12
REMARK SMILES IDX 4 1 3 2 16 3 24 4 2 5 25 6 1 7 32 8 26 9 30 10 27 11 29 12
REMARK SMILES IDX 17 13 18 14 19 15 20 16 23 17 22 18 21 19 31 21 28 23 5 25
REMARK SMILES IDX 14 26 6 27 12 28 7 29 10 30 15 31 13 33 8 35 9 36 11 38
REMARK H PARENT 21 20 31 22 28 24 15 32 13 34 9 37 11 39
REMARK Flexibility Score: inf
ROOT
ATOM      1  O   UNL     1      13.992 -10.242  29.513  1.00  0.00    -0.454 OA
ENDROOT
BRANCH   1   2
ATOM      2  C   UNL     1      14.503 -11.370  28.830  1.00  0.00     0.214 A 
ATOM      3  C   UNL     1      14.919 -11.201  27.494  1.00  0.00     0.180 A 
ATOM      4  O   UNL     1      15.312 -12.241  26.768  1.00  0.00    -0.452 OA
ATOM      5  C   UNL     1      14.598 -12.670  29.389  1.00  0.00     0.239 A 
ATOM      6  C   UNL     1      15.376 -13.476  27.243  1.00  0.00     0.146 A 
ATOM      7  O   UNL     1      14.312 -12.869  30.599  1.00  0.00    -0.285 OA
ATOM      8  C   UNL     1      15.031 -13.748  28.586  1.00  0.00     0.111 A 
ATOM      9  C   UNL     1      15.801 -14.506  26.400  1.00  0.00     0.094 A 
ATOM     10  C   UNL     1      15.129 -15.079  29.064  1.00  0.00     0.134 A 
ATOM     11  C   UNL     1      15.893 -15.817  26.876  1.00  0.00     0.123 A 
ATOM     12  C   UNL     1      15.560 -16.099  28.203  1.00  0.00     0.093 A 
BRANCH   3  13
ATOM     13  C   UNL     1      14.929  -9.875  26.856  1.00  0.00     0.021 A 
ATOM     14  C   UNL     1      16.149  -9.242  26.576  1.00  0.00     0.016 A 
ATOM     15  C   UNL     1      16.162  -7.970  25.994  1.00  0.00     0.047 A 
ATOM     16  C   UNL     1      14.960  -7.315  25.707  1.00  0.00     0.115 A 
ATOM     17  C   UNL     1      13.725  -9.207  26.590  1.00  0.00     0.016 A 
ATOM     18  C   UNL     1      13.740  -7.935  26.011  1.00  0.00     0.047 A 
BRANCH  16  19
ATOM     19  O   UNL     1      14.987  -6.050  25.124  1.00  0.00    -0.508 OA
ATOM     20  H   UNL     1      14.808  -5.918  24.136  1.00  0.00     0.293 HD
ENDBRANCH  16  19
ENDBRANCH   3  13
BRANCH  10  21
ATOM     21  O   UNL     1      14.800 -15.397  30.383  1.00  0.00    -0.507 OA
ATOM     22  H   UNL     1      15.366 -15.086  31.163  1.00  0.00     0.293 HD
ENDBRANCH  10  21
BRANCH  11  23
ATOM     23  O   UNL     1      16.318 -16.848  26.041  1.00  0.00    -0.508 OA
ATOM     24  H   UNL     1      15.925 -16.976  25.115  1.00  0.00     0.293 HD
ENDBRANCH  11  23
ENDBRANCH   1   2
BRANCH   1  25
ATOM     25  C   UNL     1      12.728  -9.598  29.304  1.00  0.00     0.339 C 
ATOM     26  C   UNL     1      11.840 -10.404  28.328  1.00  0.00     0.214 C 
ATOM     27  O   UNL     1      12.087  -9.322  30.544  1.00  0.00    -0.332 OA
ATOM     28  C   UNL     1      11.293 -11.667  29.001  1.00  0.00     0.180 C 
ATOM     29  C   UNL     1      11.586 -10.462  31.232  1.00  0.00     0.179 C 
ATOM     30  C   UNL     1      10.652 -11.342  30.362  1.00  0.00     0.177 C 
BRANCH  26  31
ATOM     31  O   UNL     1      10.781  -9.603  27.864  1.00  0.00    -0.384 OA
ATOM     32  H   UNL     1      10.142  -9.507  28.617  1.00  0.00     0.211 HD
ENDBRANCH  26  31
BRANCH  28  33
ATOM     33  O   UNL     1      10.361 -12.290  28.153  1.00  0.00    -0.387 OA
ATOM     34  H   UNL     1       9.828 -12.909  28.718  1.00  0.00     0.211 HD
ENDBRANCH  28  33
BRANCH  29  35
ATOM     35  C   UNL     1      12.692 -11.277  31.929  1.00  0.00     0.191 C 
BRANCH  35  36
ATOM     36  O   UNL     1      13.615 -10.430  32.558  1.00  0.00    -0.394 OA
ATOM     37  H   UNL     1      13.701  -9.627  31.981  1.00  0.00     0.210 HD
ENDBRANCH  35  36
ENDBRANCH  29  35
BRANCH  30  38
ATOM     38  O   UNL     1       9.385 -10.745  30.197  1.00  0.00    -0.387 OA
ATOM     39  H   UNL     1       9.323 -10.388  29.274  1.00  0.00     0.211 HD
ENDBRANCH  30  38
ENDBRANCH   1  25
TORSDOF 11
ENDMDL
MODEL 2
REMARK VINA RESULT:     6.386      1.071      2.234
REMARK INTER + INTRA:          10.730
REMARK INTER:                   8.569
REMARK INTRA:                   2.161
REMARK UNBOUND:                 1.543
REMARK SMILES O=c1c(O[C@@H]2O[C@H](CO)[C@@H](O)[C@@H](O)[C@H]2O)c(-c2ccc(O)cc2)oc2cc(O)cc(O)c12
REMARK SMILES IDX 4 1 3 2 16 3 24 4 2 5 25 6 1 7 32 8 26 9 30 10 27 11 29 12
REMARK SMILES IDX 17 13 18 14 19 15 20 16 23 17 22 18 21 19 31 21 28 23 5 25
REMARK SMILES IDX 14 26 6 27 12 28 7 29 10 30 15 31 13 33 8 35 9 36 11 38
REMARK H PARENT 21 20 31 22 28 24 15 32 13 34 9 37 11 39
REMARK Flexibility Score: inf
ROOT
ATOM      1  O   UNL     1      14.250 -10.938  29.863  1.00  0.00    -0.454 OA
ENDROOT
BRANCH   1   2
ATOM      2  C   UNL     1      14.695 -11.982  29.019  1.00  0.00     0.214 A 
ATOM      3  C   UNL     1      14.924 -11.682  27.661  1.00  0.00     0.180 A 
ATOM      4  O   UNL     1      15.244 -12.639  26.799  1.00  0.00    -0.452 OA
ATOM      5  C   UNL     1      14.898 -13.321  29.440  1.00  0.00     0.239 A 
ATOM      6  C   UNL     1      15.404 -13.908  27.146  1.00  0.00     0.146 A 
ATOM      7  O   UNL     1      14.782 -13.635  30.654  1.00  0.00    -0.285 OA
ATOM      8  C   UNL     1      15.249 -14.308  28.492  1.00  0.00     0.111 A 
ATOM      9  C   UNL     1      15.740 -14.844  26.164  1.00  0.00     0.094 A 
ATOM     10  C   UNL     1      15.446 -15.671  28.830  1.00  0.00     0.134 A 
ATOM     11  C   UNL     1      15.930 -16.186  26.503  1.00  0.00     0.123 A 
ATOM     12  C   UNL     1      15.784 -16.595  27.831  1.00  0.00     0.093 A 
BRANCH   3  13
ATOM     13  C   UNL     1      14.814 -10.306  27.151  1.00  0.00     0.021 A 
ATOM     14  C   UNL     1      13.633  -9.578  27.351  1.00  0.00     0.016 A 
ATOM     15  C   UNL     1      13.514  -8.279  26.845  1.00  0.00     0.047 A 
ATOM     16  C   UNL     1      14.565  -7.708  26.118  1.00  0.00     0.115 A 
ATOM     17  C   UNL     1      15.857  -9.742  26.403  1.00  0.00     0.016 A 
ATOM     18  C   UNL     1      15.736  -8.445  25.895  1.00  0.00     0.047 A 
BRANCH  16  19
ATOM     19  O   UNL     1      14.435  -6.413  25.623  1.00  0.00    -0.508 OA
ATOM     20  H   UNL     1      13.666  -6.152  25.018  1.00  0.00     0.293 HD
ENDBRANCH  16  19
ENDBRANCH   3  13
BRANCH  10  21
ATOM     21  O   UNL     1      15.304 -16.114  30.146  1.00  0.00    -0.507 OA
ATOM     22  H   UNL     1      14.452 -16.556  30.471  1.00  0.00     0.293 HD
ENDBRANCH  10  21
BRANCH  11  23
ATOM     23  O   UNL     1      16.267 -17.124  25.529  1.00  0.00    -0.508 OA
ATOM     24  H   UNL     1      15.556 -17.610  24.993  1.00  0.00     0.293 HD
ENDBRANCH  11  23
ENDBRANCH   1   2
BRANCH   1  25
ATOM     25  C   UNL     1      13.280 -11.026  30.915  1.00  0.00     0.339 C 
ATOM     26  C   UNL     1      12.585  -9.665  31.156  1.00  0.00     0.214 C 
ATOM     27  O   UNL     1      12.363 -12.086  30.676  1.00  0.00    -0.332 OA
ATOM     28  C   UNL     1      11.600  -9.347  30.026  1.00  0.00     0.180 C 
ATOM     29  C   UNL     1      11.443 -11.860  29.614  1.00  0.00     0.179 C 
ATOM     30  C   UNL     1      10.657 -10.532  29.757  1.00  0.00     0.177 C 
BRANCH  26  31
ATOM     31  O   UNL     1      11.918  -9.675  32.393  1.00  0.00    -0.384 OA
ATOM     32  H   UNL     1      12.553 -10.044  33.060  1.00  0.00     0.211 HD
ENDBRANCH  26  31
BRANCH  28  33
ATOM     33  O   UNL     1      10.865  -8.194  30.349  1.00  0.00    -0.387 OA
ATOM     34  H   UNL     1      11.480  -7.422  30.247  1.00  0.00     0.211 HD
ENDBRANCH  28  33
BRANCH  29  35
ATOM     35  C   UNL     1      12.079 -12.030  28.222  1.00  0.00     0.191 C 
BRANCH  35  36
ATOM     36  O   UNL     1      11.723 -13.262  27.655  1.00  0.00    -0.394 OA
ATOM     37  H   UNL     1      12.348 -13.416  26.899  1.00  0.00     0.210 HD
ENDBRANCH  35  36
ENDBRANCH  29  35
BRANCH  30  38
ATOM     38  O   UNL     1       9.661 -10.624  30.749  1.00  0.00    -0.387 OA
ATOM     39  H   UNL     1       9.706  -9.812  31.317  1.00  0.00     0.211 HD
ENDBRANCH  30  38
ENDBRANCH   1  25
TORSDOF 11
ENDMDL
MODEL 3
REMARK VINA RESULT:     8.178      1.698      5.551
REMARK INTER + INTRA:          13.306
REMARK INTER:                  14.065
REMARK INTRA:                  -0.759
REMARK UNBOUND:                 1.543
REMARK SMILES O=c1c(O[C@@H]2O[C@H](CO)[C@@H](O)[C@@H](O)[C@H]2O)c(-c2ccc(O)cc2)oc2cc(O)cc(O)c12
REMARK SMILES IDX 4 1 3 2 16 3 24 4 2 5 25 6 1 7 32 8 26 9 30 10 27 11 29 12
REMARK SMILES IDX 17 13 18 14 19 15 20 16 23 17 22 18 21 19 31 21 28 23 5 25
REMARK SMILES IDX 14 26 6 27 12 28 7 29 10 30 15 31 13 33 8 35 9 36 11 38
REMARK H PARENT 21 20 31 22 28 24 15 32 13 34 9 37 11 39
REMARK Flexibility Score: inf
ROOT
ATOM      1  O   UNL     1      14.029 -10.159  28.992  1.00  0.00    -0.454 OA
ENDROOT
BRANCH   1   2
ATOM      2  C   UNL     1      14.252  -9.801  27.641  1.00  0.00     0.214 A 
ATOM      3  C   UNL     1      14.612 -10.820  26.738  1.00  0.00     0.180 A 
ATOM      4  O   UNL     1      14.933 -10.533  25.482  1.00  0.00    -0.452 OA
ATOM      5  C   UNL     1      14.165  -8.478  27.140  1.00  0.00     0.239 A 
ATOM      6  C   UNL     1      14.902  -9.305  24.987  1.00  0.00     0.146 A 
ATOM      7  O   UNL     1      13.776  -7.536  27.879  1.00  0.00    -0.285 OA
ATOM      8  C   UNL     1      14.504  -8.215  25.794  1.00  0.00     0.111 A 
ATOM      9  C   UNL     1      15.259  -9.102  23.651  1.00  0.00     0.094 A 
ATOM     10  C   UNL     1      14.466  -6.917  25.225  1.00  0.00     0.134 A 
ATOM     11  C   UNL     1      15.222  -7.820  23.096  1.00  0.00     0.123 A 
ATOM     12  C   UNL     1      14.826  -6.735  23.881  1.00  0.00     0.093 A 
BRANCH   3  13
ATOM     13  C   UNL     1      14.652 -12.232  27.151  1.00  0.00     0.021 A 
ATOM     14  C   UNL     1      15.874 -12.827  27.497  1.00  0.00     0.016 A 
ATOM     15  C   UNL     1      15.919 -14.176  27.864  1.00  0.00     0.047 A 
ATOM     16  C   UNL     1      14.750 -14.944  27.870  1.00  0.00     0.115 A 
ATOM     17  C   UNL     1      13.484 -13.009  27.135  1.00  0.00     0.016 A 
ATOM     18  C   UNL     1      13.532 -14.358  27.500  1.00  0.00     0.047 A 
BRANCH  16  19
ATOM     19  O   UNL     1      14.808 -16.285  28.242  1.00  0.00    -0.508 OA
ATOM     20  H   UNL     1      13.992 -16.882  28.199  1.00  0.00     0.293 HD
ENDBRANCH  16  19
ENDBRANCH   3  13
BRANCH  10  21
ATOM     21  O   UNL     1      14.079  -5.810  25.981  1.00  0.00    -0.507 OA
ATOM     22  H   UNL     1      13.190  -5.780  26.466  1.00  0.00     0.293 HD
ENDBRANCH  10  21
BRANCH  11  23
ATOM     23  O   UNL     1      15.575  -7.612  21.765  1.00  0.00    -0.508 OA
ATOM     24  H   UNL     1      14.910  -7.751  21.012  1.00  0.00     0.293 HD
ENDBRANCH  11  23
ENDBRANCH   1   2
BRANCH   1  25
ATOM     25  C   UNL     1      12.845  -9.931  29.767  1.00  0.00     0.339 C 
ATOM     26  C   UNL     1      11.580 -10.419  29.023  1.00  0.00     0.214 C 
ATOM     27  O   UNL     1      12.975 -10.488  31.070  1.00  0.00    -0.332 OA
ATOM     28  C   UNL     1      11.504 -11.949  29.018  1.00  0.00     0.180 C 
ATOM     29  C   UNL     1      12.943 -11.910  31.125  1.00  0.00     0.179 C 
ATOM     30  C   UNL     1      11.699 -12.522  30.432  1.00  0.00     0.177 C 
BRANCH  26  31
ATOM     31  O   UNL     1      10.429  -9.877  29.619  1.00  0.00    -0.384 OA
ATOM     32  H   UNL     1       9.945 -10.630  30.048  1.00  0.00     0.211 HD
ENDBRANCH  26  31
BRANCH  28  33
ATOM     33  O   UNL     1      10.270 -12.361  28.484  1.00  0.00    -0.387 OA
ATOM     34  H   UNL     1      10.362 -12.338  27.497  1.00  0.00     0.211 HD
ENDBRANCH  28  33
BRANCH  29  35
ATOM     35  C   UNL     1      14.262 -12.557  30.662  1.00  0.00     0.191 C 
BRANCH  35  36
ATOM     36  O   UNL     1      14.385 -13.859  31.169  1.00  0.00    -0.394 OA
ATOM     37  H   UNL     1      13.662 -14.395  30.750  1.00  0.00     0.210 HD
ENDBRANCH  35  36
ENDBRANCH  29  35
BRANCH  30  38
ATOM     38  O   UNL     1      10.538 -12.355  31.213  1.00  0.00    -0.387 OA
ATOM     39  H   UNL     1      10.770 -12.526  32.163  1.00  0.00     0.211 HD
ENDBRANCH  30  38
ENDBRANCH   1  25
TORSDOF 11
ENDMDL
