MODEL 1
REMARK VINA RESULT:    -4.256      0.000      0.000
REMARK INTER + INTRA:         -15.589
REMARK INTER:                 -11.097
REMARK INTRA:                  -4.492
REMARK UNBOUND:                -4.492
REMARK SMILES CCCCCCCCCCCCCCCCCCCCCCCCCCCCCO
REMARK SMILES IDX 16 1 15 2 14 3 13 4 12 5 11 6 10 7 9 8 8 9 7 10 6 11 5 12
REMARK SMILES IDX 4 13 3 14 2 15 1 16 17 17 18 18 19 19 20 20 21 21 22 22
REMARK SMILES IDX 23 23 24 24 25 25 26 26 27 27 28 28 29 29 30 30
REMARK H PARENT 30 31
REMARK Flexibility Score: inf
ROOT
ATOM      1  C   UNL     1     115.481 114.755 119.051  1.00  0.00     0.000 C 
ENDROOT
BRANCH   1   2
ATOM      2  C   UNL     1     114.315 114.848 118.051  1.00  0.00     0.000 C 
BRANCH   2   3
ATOM      3  C   UNL     1     113.287 115.927 118.455  1.00  0.00     0.000 C 
BRANCH   3   4
ATOM      4  C   UNL     1     113.056 116.027 119.972  1.00  0.00     0.000 C 
BRANCH   4   5
ATOM      5  C   UNL     1     113.167 117.467 120.501  1.00  0.00     0.000 C 
BRANCH   5   6
ATOM      6  C   UNL     1     113.191 118.516 119.368  1.00  0.00     0.000 C 
BRANCH   6   7
ATOM      7  C   UNL     1     114.301 119.575 119.515  1.00  0.00     0.000 C 
BRANCH   7   8
ATOM      8  C   UNL     1     115.169 119.790 118.265  1.00  0.00    -0.000 C 
BRANCH   8   9
ATOM      9  C   UNL     1     116.149 118.630 118.013  1.00  0.00    -0.000 C 
BRANCH   9  10
ATOM     10  C   UNL     1     115.841 117.865 116.715  1.00  0.00    -0.000 C 
BRANCH  10  11
ATOM     11  C   UNL     1     117.065 117.212 116.045  1.00  0.00    -0.000 C 
BRANCH  11  12
ATOM     12  C   UNL     1     116.740 115.887 115.316  1.00  0.00    -0.000 C 
BRANCH  12  13
ATOM     13  C   UNL     1     116.270 116.093 113.865  1.00  0.00    -0.000 C 
BRANCH  13  14
ATOM     14  C   UNL     1     116.925 117.322 113.214  1.00  0.00    -0.000 C 
BRANCH  14  15
ATOM     15  C   UNL     1     116.625 117.421 111.710  1.00  0.00    -0.003 C 
ATOM     16  C   UNL     1     115.133 117.313 111.393  1.00  0.00     0.004 C 
ENDBRANCH  14  15
ENDBRANCH  13  14
ENDBRANCH  12  13
ENDBRANCH  11  12
ENDBRANCH  10  11
ENDBRANCH   9  10
ENDBRANCH   8   9
ENDBRANCH   7   8
ENDBRANCH   6   7
ENDBRANCH   5   6
ENDBRANCH   4   5
ENDBRANCH   3   4
ENDBRANCH   2   3
ENDBRANCH   1   2
BRANCH   1  17
ATOM     17  C   UNL     1     116.476 113.636 118.701  1.00  0.00     0.000 C 
BRANCH  17  18
ATOM     18  C   UNL     1     117.781 114.179 118.094  1.00  0.00     0.000 C 
BRANCH  18  19
ATOM     19  C   UNL     1     118.843 113.086 117.888  1.00  0.00     0.000 C 
BRANCH  19  20
ATOM     20  C   UNL     1     120.263 113.561 118.231  1.00  0.00     0.000 C 
BRANCH  20  21
ATOM     21  C   UNL     1     120.751 112.937 119.546  1.00  0.00     0.000 C 
BRANCH  21  22
ATOM     22  C   UNL     1     120.626 113.892 120.747  1.00  0.00     0.000 C 
BRANCH  22  23
ATOM     23  C   UNL     1     120.715 115.391 120.397  1.00  0.00     0.000 C 
BRANCH  23  24
ATOM     24  C   UNL     1     119.480 116.229 120.782  1.00  0.00     0.000 C 
BRANCH  24  25
ATOM     25  C   UNL     1     118.949 117.161 119.678  1.00  0.00     0.000 C 
BRANCH  25  26
ATOM     26  C   UNL     1     119.849 117.185 118.432  1.00  0.00     0.000 C 
BRANCH  26  27
ATOM     27  C   UNL     1     119.923 118.577 117.780  1.00  0.00     0.002 C 
BRANCH  27  28
ATOM     28  C   UNL     1     120.289 119.704 118.769  1.00  0.00     0.028 C 
BRANCH  28  29
ATOM     29  C   UNL     1     120.264 121.088 118.107  1.00  0.00     0.156 C 
BRANCH  29  30
ATOM     30  O   UNL     1     121.476 121.756 118.336  1.00  0.00    -0.396 OA
ATOM     31  H   UNL     1     121.331 122.350 119.117  1.00  0.00     0.210 HD
ENDBRANCH  29  30
ENDBRANCH  28  29
ENDBRANCH  27  28
ENDBRANCH  26  27
ENDBRANCH  25  26
ENDBRANCH  24  25
ENDBRANCH  23  24
ENDBRANCH  22  23
ENDBRANCH  21  22
ENDBRANCH  20  21
ENDBRANCH  19  20
ENDBRANCH  18  19
ENDBRANCH  17  18
ENDBRANCH   1  17
TORSDOF 28
ENDMDL
MODEL 2
REMARK VINA RESULT:    -4.214      2.657      4.484
REMARK INTER + INTRA:         -15.480
REMARK INTER:                 -11.366
REMARK INTRA:                  -4.114
REMARK UNBOUND:                -4.492
REMARK SMILES CCCCCCCCCCCCCCCCCCCCCCCCCCCCCO
REMARK SMILES IDX 16 1 15 2 14 3 13 4 12 5 11 6 10 7 9 8 8 9 7 10 6 11 5 12
REMARK SMILES IDX 4 13 3 14 2 15 1 16 17 17 18 18 19 19 20 20 21 21 22 22
REMARK SMILES IDX 23 23 24 24 25 25 26 26 27 27 28 28 29 29 30 30
REMARK H PARENT 30 31
REMARK Flexibility Score: inf
ROOT
ATOM      1  C   UNL     1     113.936 114.483 117.801  1.00  0.00     0.000 C 
ENDROOT
BRANCH   1   2
ATOM      2  C   UNL     1     113.387 115.869 118.181  1.00  0.00     0.000 C 
BRANCH   2   3
ATOM      3  C   UNL     1     113.448 116.122 119.703  1.00  0.00     0.000 C 
BRANCH   3   4
ATOM      4  C   UNL     1     112.960 117.520 120.119  1.00  0.00     0.000 C 
BRANCH   4   5
ATOM      5  C   UNL     1     113.316 118.609 119.091  1.00  0.00     0.000 C 
BRANCH   5   6
ATOM      6  C   UNL     1     114.244 119.696 119.675  1.00  0.00     0.000 C 
BRANCH   6   7
ATOM      7  C   UNL     1     115.678 119.666 119.112  1.00  0.00     0.000 C 
BRANCH   7   8
ATOM      8  C   UNL     1     115.969 118.525 118.124  1.00  0.00    -0.000 C 
BRANCH   8   9
ATOM      9  C   UNL     1     117.474 118.256 117.950  1.00  0.00    -0.000 C 
BRANCH   9  10
ATOM     10  C   UNL     1     117.772 117.271 116.806  1.00  0.00    -0.000 C 
BRANCH  10  11
ATOM     11  C   UNL     1     116.566 116.427 116.351  1.00  0.00    -0.000 C 
BRANCH  11  12
ATOM     12  C   UNL     1     116.073 116.768 114.926  1.00  0.00    -0.000 C 
BRANCH  12  13
ATOM     13  C   UNL     1     117.030 116.285 113.821  1.00  0.00    -0.000 C 
BRANCH  13  14
ATOM     14  C   UNL     1     116.283 115.932 112.524  1.00  0.00    -0.000 C 
BRANCH  14  15
ATOM     15  C   UNL     1     116.688 116.833 111.348  1.00  0.00    -0.003 C 
ATOM     16  C   UNL     1     117.697 117.911 111.746  1.00  0.00     0.004 C 
ENDBRANCH  14  15
ENDBRANCH  13  14
ENDBRANCH  12  13
ENDBRANCH  11  12
ENDBRANCH  10  11
ENDBRANCH   9  10
ENDBRANCH   8   9
ENDBRANCH   7   8
ENDBRANCH   6   7
ENDBRANCH   5   6
ENDBRANCH   4   5
ENDBRANCH   3   4
ENDBRANCH   2   3
ENDBRANCH   1   2
BRANCH   1  17
ATOM     17  C   UNL     1     112.829 113.498 117.390  1.00  0.00     0.000 C 
BRANCH  17  18
ATOM     18  C   UNL     1     112.827 112.223 118.252  1.00  0.00     0.000 C 
BRANCH  18  19
ATOM     19  C   UNL     1     112.129 112.421 119.607  1.00  0.00     0.000 C 
BRANCH  19  20
ATOM     20  C   UNL     1     113.118 112.559 120.774  1.00  0.00     0.000 C 
BRANCH  20  21
ATOM     21  C   UNL     1     114.055 111.344 120.849  1.00  0.00     0.000 C 
BRANCH  21  22
ATOM     22  C   UNL     1     115.517 111.730 121.142  1.00  0.00     0.000 C 
BRANCH  22  23
ATOM     23  C   UNL     1     115.845 113.224 120.949  1.00  0.00     0.000 C 
BRANCH  23  24
ATOM     24  C   UNL     1     116.659 113.558 119.683  1.00  0.00     0.000 C 
BRANCH  24  25
ATOM     25  C   UNL     1     117.389 114.913 119.711  1.00  0.00     0.000 C 
BRANCH  25  26
ATOM     26  C   UNL     1     118.765 114.864 119.026  1.00  0.00     0.000 C 
BRANCH  26  27
ATOM     27  C   UNL     1     118.917 113.656 118.085  1.00  0.00     0.002 C 
BRANCH  27  28
ATOM     28  C   UNL     1     120.210 112.847 118.322  1.00  0.00     0.028 C 
BRANCH  28  29
ATOM     29  C   UNL     1     120.274 112.256 119.737  1.00  0.00     0.156 C 
BRANCH  29  30
ATOM     30  O   UNL     1     120.581 110.889 119.677  1.00  0.00    -0.396 OA
ATOM     31  H   UNL     1     119.740 110.418 119.441  1.00  0.00     0.210 HD
ENDBRANCH  29  30
ENDBRANCH  28  29
ENDBRANCH  27  28
ENDBRANCH  26  27
ENDBRANCH  25  26
ENDBRANCH  24  25
ENDBRANCH  23  24
ENDBRANCH  22  23
ENDBRANCH  21  22
ENDBRANCH  20  21
ENDBRANCH  19  20
ENDBRANCH  18  19
ENDBRANCH  17  18
ENDBRANCH   1  17
TORSDOF 28
ENDMDL
MODEL 3
REMARK VINA RESULT:    -4.178      2.342      6.181
REMARK INTER + INTRA:         -15.387
REMARK INTER:                 -10.676
REMARK INTRA:                  -4.711
REMARK UNBOUND:                -4.492
REMARK SMILES CCCCCCCCCCCCCCCCCCCCCCCCCCCCCO
REMARK SMILES IDX 16 1 15 2 14 3 13 4 12 5 11 6 10 7 9 8 8 9 7 10 6 11 5 12
REMARK SMILES IDX 4 13 3 14 2 15 1 16 17 17 18 18 19 19 20 20 21 21 22 22
REMARK SMILES IDX 23 23 24 24 25 25 26 26 27 27 28 28 29 29 30 30
REMARK H PARENT 30 31
REMARK Flexibility Score: inf
ROOT
ATOM      1  C   UNL     1     115.065 118.086 119.808  1.00  0.00     0.000 C 
ENDROOT
BRANCH   1   2
ATOM      2  C   UNL     1     114.638 116.624 119.589  1.00  0.00     0.000 C 
BRANCH   2   3
ATOM      3  C   UNL     1     113.315 116.516 118.800  1.00  0.00     0.000 C 
BRANCH   3   4
ATOM      4  C   UNL     1     113.218 115.257 117.921  1.00  0.00     0.000 C 
BRANCH   4   5
ATOM      5  C   UNL     1     114.355 114.254 118.185  1.00  0.00     0.000 C 
BRANCH   5   6
ATOM      6  C   UNL     1     113.834 112.830 118.480  1.00  0.00     0.000 C 
BRANCH   6   7
ATOM      7  C   UNL     1     113.360 112.623 119.931  1.00  0.00     0.000 C 
BRANCH   7   8
ATOM      8  C   UNL     1     114.337 113.108 121.013  1.00  0.00    -0.000 C 
BRANCH   8   9
ATOM      9  C   UNL     1     115.757 112.542 120.831  1.00  0.00    -0.000 C 
BRANCH   9  10
ATOM     10  C   UNL     1     116.846 113.622 120.956  1.00  0.00    -0.000 C 
BRANCH  10  11
ATOM     11  C   UNL     1     118.070 113.412 120.043  1.00  0.00    -0.000 C 
BRANCH  11  12
ATOM     12  C   UNL     1     117.708 113.258 118.548  1.00  0.00    -0.000 C 
BRANCH  12  13
ATOM     13  C   UNL     1     118.940 113.238 117.624  1.00  0.00    -0.000 C 
BRANCH  13  14
ATOM     14  C   UNL     1     120.253 113.398 118.408  1.00  0.00    -0.000 C 
BRANCH  14  15
ATOM     15  C   UNL     1     120.945 112.053 118.677  1.00  0.00    -0.003 C 
ATOM     16  C   UNL     1     122.435 112.203 118.989  1.00  0.00     0.004 C 
ENDBRANCH  14  15
ENDBRANCH  13  14
ENDBRANCH  12  13
ENDBRANCH  11  12
ENDBRANCH  10  11
ENDBRANCH   9  10
ENDBRANCH   8   9
ENDBRANCH   7   8
ENDBRANCH   6   7
ENDBRANCH   5   6
ENDBRANCH   4   5
ENDBRANCH   3   4
ENDBRANCH   2   3
ENDBRANCH   1   2
BRANCH   1  17
ATOM     17  C   UNL     1     115.077 118.903 118.505  1.00  0.00     0.000 C 
BRANCH  17  18
ATOM     18  C   UNL     1     116.221 119.931 118.467  1.00  0.00     0.000 C 
BRANCH  18  19
ATOM     19  C   UNL     1     116.894 120.125 119.836  1.00  0.00     0.000 C 
BRANCH  19  20
ATOM     20  C   UNL     1     118.428 120.098 119.756  1.00  0.00     0.000 C 
BRANCH  20  21
ATOM     21  C   UNL     1     118.981 118.749 120.238  1.00  0.00     0.000 C 
BRANCH  21  22
ATOM     22  C   UNL     1     119.604 117.915 119.103  1.00  0.00     0.000 C 
BRANCH  22  23
ATOM     23  C   UNL     1     118.681 116.832 118.511  1.00  0.00     0.000 C 
BRANCH  23  24
ATOM     24  C   UNL     1     118.048 117.182 117.150  1.00  0.00     0.000 C 
BRANCH  24  25
ATOM     25  C   UNL     1     116.919 116.241 116.689  1.00  0.00     0.000 C 
BRANCH  25  26
ATOM     26  C   UNL     1     116.184 116.757 115.442  1.00  0.00     0.000 C 
BRANCH  26  27
ATOM     27  C   UNL     1     116.918 116.411 114.134  1.00  0.00     0.002 C 
BRANCH  27  28
ATOM     28  C   UNL     1     116.317 117.096 112.888  1.00  0.00     0.028 C 
BRANCH  28  29
ATOM     29  C   UNL     1     117.398 117.581 111.914  1.00  0.00     0.156 C 
BRANCH  29  30
ATOM     30  O   UNL     1     118.036 116.486 111.313  1.00  0.00    -0.396 OA
ATOM     31  H   UNL     1     118.712 116.160 111.962  1.00  0.00     0.210 HD
ENDBRANCH  29  30
ENDBRANCH  28  29
ENDBRANCH  27  28
ENDBRANCH  26  27
ENDBRANCH  25  26
ENDBRANCH  24  25
ENDBRANCH  23  24
ENDBRANCH  22  23
ENDBRANCH  21  22
ENDBRANCH  20  21
ENDBRANCH  19  20
ENDBRANCH  18  19
ENDBRANCH  17  18
ENDBRANCH   1  17
TORSDOF 28
ENDMDL
MODEL 4
REMARK VINA RESULT:    -4.164      2.647      6.082
REMARK INTER + INTRA:         -15.350
REMARK INTER:                 -10.216
REMARK INTRA:                  -5.133
REMARK UNBOUND:                -4.492
REMARK SMILES CCCCCCCCCCCCCCCCCCCCCCCCCCCCCO
REMARK SMILES IDX 16 1 15 2 14 3 13 4 12 5 11 6 10 7 9 8 8 9 7 10 6 11 5 12
REMARK SMILES IDX 4 13 3 14 2 15 1 16 17 17 18 18 19 19 20 20 21 21 22 22
REMARK SMILES IDX 23 23 24 24 25 25 26 26 27 27 28 28 29 29 30 30
REMARK H PARENT 30 31
REMARK Flexibility Score: inf
ROOT
ATOM      1  C   UNL     1     116.380 119.926 121.176  1.00  0.00     0.000 C 
ENDROOT
BRANCH   1   2
ATOM      2  C   UNL     1     115.830 119.117 119.988  1.00  0.00     0.000 C 
BRANCH   2   3
ATOM      3  C   UNL     1     116.100 119.811 118.636  1.00  0.00     0.000 C 
BRANCH   3   4
ATOM      4  C   UNL     1     114.857 119.920 117.737  1.00  0.00     0.000 C 
BRANCH   4   5
ATOM      5  C   UNL     1     113.596 119.320 118.382  1.00  0.00     0.000 C 
BRANCH   5   6
ATOM      6  C   UNL     1     112.487 120.370 118.609  1.00  0.00     0.000 C 
BRANCH   6   7
ATOM      7  C   UNL     1     111.755 120.231 119.958  1.00  0.00     0.000 C 
BRANCH   7   8
ATOM      8  C   UNL     1     112.663 120.242 121.197  1.00  0.00    -0.000 C 
BRANCH   8   9
ATOM      9  C   UNL     1     112.596 118.928 121.997  1.00  0.00    -0.000 C 
BRANCH   9  10
ATOM     10  C   UNL     1     111.507 117.973 121.479  1.00  0.00    -0.000 C 
BRANCH  10  11
ATOM     11  C   UNL     1     112.036 116.754 120.699  1.00  0.00    -0.000 C 
BRANCH  11  12
ATOM     12  C   UNL     1     113.477 116.350 121.083  1.00  0.00    -0.000 C 
BRANCH  12  13
ATOM     13  C   UNL     1     114.350 115.985 119.868  1.00  0.00    -0.000 C 
BRANCH  13  14
ATOM     14  C   UNL     1     113.512 115.788 118.593  1.00  0.00    -0.000 C 
BRANCH  14  15
ATOM     15  C   UNL     1     113.752 114.420 117.938  1.00  0.00    -0.003 C 
ATOM     16  C   UNL     1     114.614 113.493 118.796  1.00  0.00     0.004 C 
ENDBRANCH  14  15
ENDBRANCH  13  14
ENDBRANCH  12  13
ENDBRANCH  11  12
ENDBRANCH  10  11
ENDBRANCH   9  10
ENDBRANCH   8   9
ENDBRANCH   7   8
ENDBRANCH   6   7
ENDBRANCH   5   6
ENDBRANCH   4   5
ENDBRANCH   3   4
ENDBRANCH   2   3
ENDBRANCH   1   2
BRANCH   1  17
ATOM     17  C   UNL     1     117.187 121.158 120.732  1.00  0.00     0.000 C 
BRANCH  17  18
ATOM     18  C   UNL     1     118.685 121.028 121.061  1.00  0.00     0.000 C 
BRANCH  18  19
ATOM     19  C   UNL     1     119.543 120.733 119.820  1.00  0.00     0.000 C 
BRANCH  19  20
ATOM     20  C   UNL     1     119.776 119.230 119.600  1.00  0.00     0.000 C 
BRANCH  20  21
ATOM     21  C   UNL     1     119.589 118.855 118.122  1.00  0.00     0.000 C 
BRANCH  21  22
ATOM     22  C   UNL     1     119.422 117.340 117.904  1.00  0.00     0.000 C 
BRANCH  22  23
ATOM     23  C   UNL     1     118.147 116.731 118.522  1.00  0.00     0.000 C 
BRANCH  23  24
ATOM     24  C   UNL     1     117.151 116.130 117.511  1.00  0.00     0.000 C 
BRANCH  24  25
ATOM     25  C   UNL     1     116.789 117.042 116.325  1.00  0.00     0.000 C 
BRANCH  25  26
ATOM     26  C   UNL     1     116.484 116.258 115.038  1.00  0.00     0.000 C 
BRANCH  26  27
ATOM     27  C   UNL     1     116.840 117.044 113.765  1.00  0.00     0.002 C 
BRANCH  27  28
ATOM     28  C   UNL     1     116.035 116.605 112.523  1.00  0.00     0.028 C 
BRANCH  28  29
ATOM     29  C   UNL     1     116.809 116.835 111.218  1.00  0.00     0.156 C 
BRANCH  29  30
ATOM     30  O   UNL     1     118.139 116.418 111.363  1.00  0.00    -0.396 OA
ATOM     31  H   UNL     1     118.150 115.439 111.202  1.00  0.00     0.210 HD
ENDBRANCH  29  30
ENDBRANCH  28  29
ENDBRANCH  27  28
ENDBRANCH  26  27
ENDBRANCH  25  26
ENDBRANCH  24  25
ENDBRANCH  23  24
ENDBRANCH  22  23
ENDBRANCH  21  22
ENDBRANCH  20  21
ENDBRANCH  19  20
ENDBRANCH  18  19
ENDBRANCH  17  18
ENDBRANCH   1  17
TORSDOF 28
ENDMDL
MODEL 5
REMARK VINA RESULT:    -4.124      2.990      6.834
REMARK INTER + INTRA:         -15.244
REMARK INTER:                 -11.336
REMARK INTRA:                  -3.909
REMARK UNBOUND:                -4.492
REMARK SMILES CCCCCCCCCCCCCCCCCCCCCCCCCCCCCO
REMARK SMILES IDX 16 1 15 2 14 3 13 4 12 5 11 6 10 7 9 8 8 9 7 10 6 11 5 12
REMARK SMILES IDX 4 13 3 14 2 15 1 16 17 17 18 18 19 19 20 20 21 21 22 22
REMARK SMILES IDX 23 23 24 24 25 25 26 26 27 27 28 28 29 29 30 30
REMARK H PARENT 30 31
REMARK Flexibility Score: inf
ROOT
ATOM      1  C   UNL     1     119.263 113.718 118.678  1.00  0.00     0.000 C 
ENDROOT
BRANCH   1   2
ATOM      2  C   UNL     1     119.990 114.985 119.159  1.00  0.00     0.000 C 
BRANCH   2   3
ATOM      3  C   UNL     1     119.186 116.268 118.857  1.00  0.00     0.000 C 
BRANCH   3   4
ATOM      4  C   UNL     1     120.009 117.366 118.163  1.00  0.00     0.000 C 
BRANCH   4   5
ATOM      5  C   UNL     1     119.472 118.781 118.438  1.00  0.00     0.000 C 
BRANCH   5   6
ATOM      6  C   UNL     1     118.603 118.849 119.712  1.00  0.00     0.000 C 
BRANCH   6   7
ATOM      7  C   UNL     1     117.528 119.954 119.683  1.00  0.00     0.000 C 
BRANCH   7   8
ATOM      8  C   UNL     1     116.212 119.604 120.394  1.00  0.00    -0.000 C 
BRANCH   8   9
ATOM      9  C   UNL     1     114.996 120.330 119.791  1.00  0.00    -0.000 C 
BRANCH   9  10
ATOM     10  C   UNL     1     113.677 119.576 120.028  1.00  0.00    -0.000 C 
BRANCH  10  11
ATOM     11  C   UNL     1     112.850 119.306 118.756  1.00  0.00    -0.000 C 
BRANCH  11  12
ATOM     12  C   UNL     1     112.532 120.581 117.942  1.00  0.00    -0.000 C 
BRANCH  12  13
ATOM     13  C   UNL     1     111.048 120.988 118.006  1.00  0.00    -0.000 C 
BRANCH  13  14
ATOM     14  C   UNL     1     110.533 121.066 119.453  1.00  0.00    -0.000 C 
BRANCH  14  15
ATOM     15  C   UNL     1     109.050 121.458 119.529  1.00  0.00    -0.003 C 
ATOM     16  C   UNL     1     108.812 122.941 119.242  1.00  0.00     0.004 C 
ENDBRANCH  14  15
ENDBRANCH  13  14
ENDBRANCH  12  13
ENDBRANCH  11  12
ENDBRANCH  10  11
ENDBRANCH   9  10
ENDBRANCH   8   9
ENDBRANCH   7   8
ENDBRANCH   6   7
ENDBRANCH   5   6
ENDBRANCH   4   5
ENDBRANCH   3   4
ENDBRANCH   2   3
ENDBRANCH   1   2
BRANCH   1  17
ATOM     17  C   UNL     1     117.955 114.031 117.934  1.00  0.00     0.000 C 
BRANCH  17  18
ATOM     18  C   UNL     1     116.736 113.339 118.570  1.00  0.00     0.000 C 
BRANCH  18  19
ATOM     19  C   UNL     1     115.784 114.327 119.263  1.00  0.00     0.000 C 
BRANCH  19  20
ATOM     20  C   UNL     1     114.432 114.456 118.545  1.00  0.00     0.000 C 
BRANCH  20  21
ATOM     21  C   UNL     1     114.305 115.819 117.849  1.00  0.00     0.000 C 
BRANCH  21  22
ATOM     22  C   UNL     1     115.463 116.776 118.187  1.00  0.00     0.000 C 
BRANCH  22  23
ATOM     23  C   UNL     1     115.898 117.702 117.033  1.00  0.00     0.000 C 
BRANCH  23  24
ATOM     24  C   UNL     1     117.019 117.146 116.133  1.00  0.00     0.000 C 
BRANCH  24  25
ATOM     25  C   UNL     1     116.552 116.206 115.007  1.00  0.00     0.000 C 
BRANCH  25  26
ATOM     26  C   UNL     1     117.042 116.648 113.618  1.00  0.00     0.000 C 
BRANCH  26  27
ATOM     27  C   UNL     1     115.924 117.276 112.766  1.00  0.00     0.002 C 
BRANCH  27  28
ATOM     28  C   UNL     1     115.636 116.503 111.461  1.00  0.00     0.028 C 
BRANCH  28  29
ATOM     29  C   UNL     1     115.325 115.023 111.719  1.00  0.00     0.156 C 
BRANCH  29  30
ATOM     30  O   UNL     1     116.336 114.215 111.180  1.00  0.00    -0.396 OA
ATOM     31  H   UNL     1     116.994 114.059 111.906  1.00  0.00     0.210 HD
ENDBRANCH  29  30
ENDBRANCH  28  29
ENDBRANCH  27  28
ENDBRANCH  26  27
ENDBRANCH  25  26
ENDBRANCH  24  25
ENDBRANCH  23  24
ENDBRANCH  22  23
ENDBRANCH  21  22
ENDBRANCH  20  21
ENDBRANCH  19  20
ENDBRANCH  18  19
ENDBRANCH  17  18
ENDBRANCH   1  17
TORSDOF 28
ENDMDL
MODEL 6
REMARK VINA RESULT:    -4.102      2.428      7.085
REMARK INTER + INTRA:         -15.190
REMARK INTER:                 -10.413
REMARK INTRA:                  -4.777
REMARK UNBOUND:                -4.492
REMARK SMILES CCCCCCCCCCCCCCCCCCCCCCCCCCCCCO
REMARK SMILES IDX 16 1 15 2 14 3 13 4 12 5 11 6 10 7 9 8 8 9 7 10 6 11 5 12
REMARK SMILES IDX 4 13 3 14 2 15 1 16 17 17 18 18 19 19 20 20 21 21 22 22
REMARK SMILES IDX 23 23 24 24 25 25 26 26 27 27 28 28 29 29 30 30
REMARK H PARENT 30 31
REMARK Flexibility Score: inf
ROOT
ATOM      1  C   UNL     1     117.111 120.630 120.616  1.00  0.00     0.000 C 
ENDROOT
BRANCH   1   2
ATOM      2  C   UNL     1     118.615 120.363 120.805  1.00  0.00     0.000 C 
BRANCH   2   3
ATOM      3  C   UNL     1     119.436 120.746 119.555  1.00  0.00     0.000 C 
BRANCH   3   4
ATOM      4  C   UNL     1     120.165 119.558 118.905  1.00  0.00     0.000 C 
BRANCH   4   5
ATOM      5  C   UNL     1     119.242 118.696 118.027  1.00  0.00     0.000 C 
BRANCH   5   6
ATOM      6  C   UNL     1     119.572 117.190 118.118  1.00  0.00     0.000 C 
BRANCH   6   7
ATOM      7  C   UNL     1     119.060 116.511 119.402  1.00  0.00     0.000 C 
BRANCH   7   8
ATOM      8  C   UNL     1     119.282 114.992 119.471  1.00  0.00    -0.000 C 
BRANCH   8   9
ATOM      9  C   UNL     1     118.719 114.251 118.244  1.00  0.00    -0.000 C 
BRANCH   9  10
ATOM     10  C   UNL     1     117.626 113.233 118.617  1.00  0.00    -0.000 C 
BRANCH  10  11
ATOM     11  C   UNL     1     116.673 113.692 119.737  1.00  0.00    -0.000 C 
BRANCH  11  12
ATOM     12  C   UNL     1     115.801 112.553 120.314  1.00  0.00    -0.000 C 
BRANCH  12  13
ATOM     13  C   UNL     1     114.438 113.038 120.840  1.00  0.00    -0.000 C 
BRANCH  13  14
ATOM     14  C   UNL     1     113.286 112.126 120.388  1.00  0.00    -0.000 C 
BRANCH  14  15
ATOM     15  C   UNL     1     112.460 112.742 119.249  1.00  0.00    -0.003 C 
ATOM     16  C   UNL     1     112.966 112.340 117.863  1.00  0.00     0.004 C 
ENDBRANCH  14  15
ENDBRANCH  13  14
ENDBRANCH  12  13
ENDBRANCH  11  12
ENDBRANCH  10  11
ENDBRANCH   9  10
ENDBRANCH   8   9
ENDBRANCH   7   8
ENDBRANCH   6   7
ENDBRANCH   5   6
ENDBRANCH   4   5
ENDBRANCH   3   4
ENDBRANCH   2   3
ENDBRANCH   1   2
BRANCH   1  17
ATOM     17  C   UNL     1     116.330 119.368 120.213  1.00  0.00     0.000 C 
BRANCH  17  18
ATOM     18  C   UNL     1     115.500 119.573 118.934  1.00  0.00     0.000 C 
BRANCH  18  19
ATOM     19  C   UNL     1     114.095 118.956 119.030  1.00  0.00     0.000 C 
BRANCH  19  20
ATOM     20  C   UNL     1     113.939 118.011 120.231  1.00  0.00     0.000 C 
BRANCH  20  21
ATOM     21  C   UNL     1     114.015 116.542 119.790  1.00  0.00     0.000 C 
BRANCH  21  22
ATOM     22  C   UNL     1     113.595 116.332 118.324  1.00  0.00     0.000 C 
BRANCH  22  23
ATOM     23  C   UNL     1     114.624 115.581 117.455  1.00  0.00     0.000 C 
BRANCH  23  24
ATOM     24  C   UNL     1     115.994 116.274 117.314  1.00  0.00     0.000 C 
BRANCH  24  25
ATOM     25  C   UNL     1     116.126 117.228 116.113  1.00  0.00     0.000 C 
BRANCH  25  26
ATOM     26  C   UNL     1     117.082 116.699 115.032  1.00  0.00     0.000 C 
BRANCH  26  27
ATOM     27  C   UNL     1     116.340 116.156 113.798  1.00  0.00     0.002 C 
BRANCH  27  28
ATOM     28  C   UNL     1     116.216 117.183 112.651  1.00  0.00     0.028 C 
BRANCH  28  29
ATOM     29  C   UNL     1     116.950 116.728 111.383  1.00  0.00     0.156 C 
BRANCH  29  30
ATOM     30  O   UNL     1     117.967 115.819 111.711  1.00  0.00    -0.396 OA
ATOM     31  H   UNL     1     117.929 115.093 111.034  1.00  0.00     0.210 HD
ENDBRANCH  29  30
ENDBRANCH  28  29
ENDBRANCH  27  28
ENDBRANCH  26  27
ENDBRANCH  25  26
ENDBRANCH  24  25
ENDBRANCH  23  24
ENDBRANCH  22  23
ENDBRANCH  21  22
ENDBRANCH  20  21
ENDBRANCH  19  20
ENDBRANCH  18  19
ENDBRANCH  17  18
ENDBRANCH   1  17
TORSDOF 28
ENDMDL
MODEL 7
REMARK VINA RESULT:    -4.068      2.634      7.050
REMARK INTER + INTRA:         -15.099
REMARK INTER:                 -11.044
REMARK INTRA:                  -4.055
REMARK UNBOUND:                -4.492
REMARK SMILES CCCCCCCCCCCCCCCCCCCCCCCCCCCCCO
REMARK SMILES IDX 16 1 15 2 14 3 13 4 12 5 11 6 10 7 9 8 8 9 7 10 6 11 5 12
REMARK SMILES IDX 4 13 3 14 2 15 1 16 17 17 18 18 19 19 20 20 21 21 22 22
REMARK SMILES IDX 23 23 24 24 25 25 26 26 27 27 28 28 29 29 30 30
REMARK H PARENT 30 31
REMARK Flexibility Score: inf
ROOT
ATOM      1  C   UNL     1     118.869 120.354 119.066  1.00  0.00     0.000 C 
ENDROOT
BRANCH   1   2
ATOM      2  C   UNL     1     119.926 119.252 118.871  1.00  0.00     0.000 C 
BRANCH   2   3
ATOM      3  C   UNL     1     119.452 118.159 117.890  1.00  0.00     0.000 C 
BRANCH   3   4
ATOM      4  C   UNL     1     120.053 116.771 118.172  1.00  0.00     0.000 C 
BRANCH   4   5
ATOM      5  C   UNL     1     120.010 116.391 119.662  1.00  0.00     0.000 C 
BRANCH   5   6
ATOM      6  C   UNL     1     119.742 114.886 119.883  1.00  0.00     0.000 C 
BRANCH   6   7
ATOM      7  C   UNL     1     119.836 114.036 118.601  1.00  0.00     0.000 C 
BRANCH   7   8
ATOM      8  C   UNL     1     118.495 113.507 118.068  1.00  0.00    -0.000 C 
BRANCH   8   9
ATOM      9  C   UNL     1     117.286 114.055 118.848  1.00  0.00    -0.000 C 
BRANCH   9  10
ATOM     10  C   UNL     1     116.631 115.263 118.154  1.00  0.00    -0.000 C 
BRANCH  10  11
ATOM     11  C   UNL     1     117.005 115.435 116.670  1.00  0.00    -0.000 C 
BRANCH  11  12
ATOM     12  C   UNL     1     116.437 116.724 116.032  1.00  0.00    -0.000 C 
BRANCH  12  13
ATOM     13  C   UNL     1     116.998 117.004 114.626  1.00  0.00    -0.000 C 
BRANCH  13  14
ATOM     14  C   UNL     1     116.276 116.185 113.543  1.00  0.00    -0.000 C 
BRANCH  14  15
ATOM     15  C   UNL     1     116.989 116.251 112.183  1.00  0.00    -0.003 C 
ATOM     16  C   UNL     1     117.387 117.674 111.789  1.00  0.00     0.004 C 
ENDBRANCH  14  15
ENDBRANCH  13  14
ENDBRANCH  12  13
ENDBRANCH  11  12
ENDBRANCH  10  11
ENDBRANCH   9  10
ENDBRANCH   8   9
ENDBRANCH   7   8
ENDBRANCH   6   7
ENDBRANCH   5   6
ENDBRANCH   4   5
ENDBRANCH   3   4
ENDBRANCH   2   3
ENDBRANCH   1   2
BRANCH   1  17
ATOM     17  C   UNL     1     118.018 120.144 120.330  1.00  0.00     0.000 C 
BRANCH  17  18
ATOM     18  C   UNL     1     116.537 119.882 120.004  1.00  0.00     0.000 C 
BRANCH  18  19
ATOM     19  C   UNL     1     116.243 119.921 118.495  1.00  0.00     0.000 C 
BRANCH  19  20
ATOM     20  C   UNL     1     114.971 119.147 118.115  1.00  0.00     0.000 C 
BRANCH  20  21
ATOM     21  C   UNL     1     113.869 120.102 117.632  1.00  0.00     0.000 C 
BRANCH  21  22
ATOM     22  C   UNL     1     112.624 120.089 118.538  1.00  0.00     0.000 C 
BRANCH  22  23
ATOM     23  C   UNL     1     112.876 119.612 119.982  1.00  0.00     0.000 C 
BRANCH  23  24
ATOM     24  C   UNL     1     111.737 118.783 120.607  1.00  0.00     0.000 C 
BRANCH  24  25
ATOM     25  C   UNL     1     112.116 117.348 121.014  1.00  0.00     0.000 C 
BRANCH  25  26
ATOM     26  C   UNL     1     113.430 116.873 120.373  1.00  0.00     0.000 C 
BRANCH  26  27
ATOM     27  C   UNL     1     113.330 115.447 119.802  1.00  0.00     0.002 C 
BRANCH  27  28
ATOM     28  C   UNL     1     113.205 115.405 118.264  1.00  0.00     0.028 C 
BRANCH  28  29
ATOM     29  C   UNL     1     113.202 113.970 117.721  1.00  0.00     0.156 C 
BRANCH  29  30
ATOM     30  O   UNL     1     112.074 113.278 118.186  1.00  0.00    -0.396 OA
ATOM     31  H   UNL     1     111.947 113.546 119.134  1.00  0.00     0.210 HD
ENDBRANCH  29  30
ENDBRANCH  28  29
ENDBRANCH  27  28
ENDBRANCH  26  27
ENDBRANCH  25  26
ENDBRANCH  24  25
ENDBRANCH  23  24
ENDBRANCH  22  23
ENDBRANCH  21  22
ENDBRANCH  20  21
ENDBRANCH  19  20
ENDBRANCH  18  19
ENDBRANCH  17  18
ENDBRANCH   1  17
TORSDOF 28
ENDMDL
MODEL 8
REMARK VINA RESULT:    -4.059      2.617      5.010
REMARK INTER + INTRA:         -15.077
REMARK INTER:                 -10.022
REMARK INTRA:                  -5.054
REMARK UNBOUND:                -4.492
REMARK SMILES CCCCCCCCCCCCCCCCCCCCCCCCCCCCCO
REMARK SMILES IDX 16 1 15 2 14 3 13 4 12 5 11 6 10 7 9 8 8 9 7 10 6 11 5 12
REMARK SMILES IDX 4 13 3 14 2 15 1 16 17 17 18 18 19 19 20 20 21 21 22 22
REMARK SMILES IDX 23 23 24 24 25 25 26 26 27 27 28 28 29 29 30 30
REMARK H PARENT 30 31
REMARK Flexibility Score: inf
ROOT
ATOM      1  C   UNL     1     120.349 116.588 119.654  1.00  0.00     0.000 C 
ENDROOT
BRANCH   1   2
ATOM      2  C   UNL     1     119.558 116.958 118.387  1.00  0.00     0.000 C 
BRANCH   2   3
ATOM      3  C   UNL     1     120.002 118.315 117.799  1.00  0.00     0.000 C 
BRANCH   3   4
ATOM      4  C   UNL     1     119.719 119.512 118.723  1.00  0.00     0.000 C 
BRANCH   4   5
ATOM      5  C   UNL     1     118.242 119.943 118.710  1.00  0.00     0.000 C 
BRANCH   5   6
ATOM      6  C   UNL     1     117.626 119.995 120.125  1.00  0.00     0.000 C 
BRANCH   6   7
ATOM      7  C   UNL     1     116.524 118.946 120.370  1.00  0.00     0.000 C 
BRANCH   7   8
ATOM      8  C   UNL     1     116.287 117.965 119.210  1.00  0.00    -0.000 C 
BRANCH   8   9
ATOM      9  C   UNL     1     115.359 118.539 118.124  1.00  0.00    -0.000 C 
BRANCH   9  10
ATOM     10  C   UNL     1     115.573 117.877 116.752  1.00  0.00    -0.000 C 
BRANCH  10  11
ATOM     11  C   UNL     1     116.642 116.767 116.731  1.00  0.00    -0.000 C 
BRANCH  11  12
ATOM     12  C   UNL     1     117.022 116.300 115.307  1.00  0.00    -0.000 C 
BRANCH  12  13
ATOM     13  C   UNL     1     116.195 116.981 114.203  1.00  0.00    -0.000 C 
BRANCH  13  14
ATOM     14  C   UNL     1     116.993 117.141 112.898  1.00  0.00    -0.000 C 
BRANCH  14  15
ATOM     15  C   UNL     1     117.380 115.790 112.276  1.00  0.00    -0.003 C 
ATOM     16  C   UNL     1     116.239 115.154 111.481  1.00  0.00     0.004 C 
ENDBRANCH  14  15
ENDBRANCH  13  14
ENDBRANCH  12  13
ENDBRANCH  11  12
ENDBRANCH  10  11
ENDBRANCH   9  10
ENDBRANCH   8   9
ENDBRANCH   7   8
ENDBRANCH   6   7
ENDBRANCH   5   6
ENDBRANCH   4   5
ENDBRANCH   3   4
ENDBRANCH   2   3
ENDBRANCH   1   2
BRANCH   1  17
ATOM     17  C   UNL     1     119.451 116.448 120.894  1.00  0.00     0.000 C 
BRANCH  17  18
ATOM     18  C   UNL     1     120.067 115.533 121.966  1.00  0.00     0.000 C 
BRANCH  18  19
ATOM     19  C   UNL     1     119.850 114.040 121.671  1.00  0.00     0.000 C 
BRANCH  19  20
ATOM     20  C   UNL     1     121.161 113.290 121.386  1.00  0.00     0.000 C 
BRANCH  20  21
ATOM     21  C   UNL     1     121.380 113.118 119.876  1.00  0.00     0.000 C 
BRANCH  21  22
ATOM     22  C   UNL     1     120.176 112.475 119.163  1.00  0.00     0.000 C 
BRANCH  22  23
ATOM     23  C   UNL     1     119.753 113.167 117.852  1.00  0.00     0.000 C 
BRANCH  23  24
ATOM     24  C   UNL     1     118.262 113.550 117.764  1.00  0.00     0.000 C 
BRANCH  24  25
ATOM     25  C   UNL     1     117.420 113.198 119.004  1.00  0.00     0.000 C 
BRANCH  25  26
ATOM     26  C   UNL     1     116.676 114.411 119.585  1.00  0.00     0.000 C 
BRANCH  26  27
ATOM     27  C   UNL     1     115.159 114.177 119.699  1.00  0.00     0.002 C 
BRANCH  27  28
ATOM     28  C   UNL     1     114.361 114.693 118.483  1.00  0.00     0.028 C 
BRANCH  28  29
ATOM     29  C   UNL     1     113.201 113.761 118.111  1.00  0.00     0.156 C 
BRANCH  29  30
ATOM     30  O   UNL     1     113.570 112.423 118.312  1.00  0.00    -0.396 OA
ATOM     31  H   UNL     1     114.102 112.398 119.151  1.00  0.00     0.210 HD
ENDBRANCH  29  30
ENDBRANCH  28  29
ENDBRANCH  27  28
ENDBRANCH  26  27
ENDBRANCH  25  26
ENDBRANCH  24  25
ENDBRANCH  23  24
ENDBRANCH  22  23
ENDBRANCH  21  22
ENDBRANCH  20  21
ENDBRANCH  19  20
ENDBRANCH  18  19
ENDBRANCH  17  18
ENDBRANCH   1  17
TORSDOF 28
ENDMDL
MODEL 9
REMARK VINA RESULT:    -4.020      2.331      5.737
REMARK INTER + INTRA:         -14.976
REMARK INTER:                 -10.040
REMARK INTRA:                  -4.936
REMARK UNBOUND:                -4.492
REMARK SMILES CCCCCCCCCCCCCCCCCCCCCCCCCCCCCO
REMARK SMILES IDX 16 1 15 2 14 3 13 4 12 5 11 6 10 7 9 8 8 9 7 10 6 11 5 12
REMARK SMILES IDX 4 13 3 14 2 15 1 16 17 17 18 18 19 19 20 20 21 21 22 22
REMARK SMILES IDX 23 23 24 24 25 25 26 26 27 27 28 28 29 29 30 30
REMARK H PARENT 30 31
REMARK Flexibility Score: inf
ROOT
ATOM      1  C   UNL     1     118.947 115.214 121.960  1.00  0.00     0.000 C 
ENDROOT
BRANCH   1   2
ATOM      2  C   UNL     1     120.080 115.873 121.155  1.00  0.00     0.000 C 
BRANCH   2   3
ATOM      3  C   UNL     1     119.590 117.102 120.359  1.00  0.00     0.000 C 
BRANCH   3   4
ATOM      4  C   UNL     1     120.070 117.126 118.898  1.00  0.00     0.000 C 
BRANCH   4   5
ATOM      5  C   UNL     1     119.213 118.037 118.002  1.00  0.00     0.000 C 
BRANCH   5   6
ATOM      6  C   UNL     1     119.144 119.489 118.524  1.00  0.00     0.000 C 
BRANCH   6   7
ATOM      7  C   UNL     1     117.734 119.933 118.961  1.00  0.00     0.000 C 
BRANCH   7   8
ATOM      8  C   UNL     1     116.682 118.813 119.009  1.00  0.00    -0.000 C 
BRANCH   8   9
ATOM      9  C   UNL     1     115.465 119.100 118.111  1.00  0.00    -0.000 C 
BRANCH   9  10
ATOM     10  C   UNL     1     114.228 118.276 118.508  1.00  0.00    -0.000 C 
BRANCH  10  11
ATOM     11  C   UNL     1     114.035 118.093 120.026  1.00  0.00    -0.000 C 
BRANCH  11  12
ATOM     12  C   UNL     1     114.123 116.621 120.490  1.00  0.00    -0.000 C 
BRANCH  12  13
ATOM     13  C   UNL     1     113.314 115.656 119.605  1.00  0.00    -0.000 C 
BRANCH  13  14
ATOM     14  C   UNL     1     113.728 114.190 119.819  1.00  0.00    -0.000 C 
BRANCH  14  15
ATOM     15  C   UNL     1     113.277 113.277 118.669  1.00  0.00    -0.003 C 
ATOM     16  C   UNL     1     112.989 114.046 117.379  1.00  0.00     0.004 C 
ENDBRANCH  14  15
ENDBRANCH  13  14
ENDBRANCH  12  13
ENDBRANCH  11  12
ENDBRANCH  10  11
ENDBRANCH   9  10
ENDBRANCH   8   9
ENDBRANCH   7   8
ENDBRANCH   6   7
ENDBRANCH   5   6
ENDBRANCH   4   5
ENDBRANCH   3   4
ENDBRANCH   2   3
ENDBRANCH   1   2
BRANCH   1  17
ATOM     17  C   UNL     1     119.033 113.678 121.958  1.00  0.00     0.000 C 
BRANCH  17  18
ATOM     18  C   UNL     1     120.179 113.155 121.075  1.00  0.00     0.000 C 
BRANCH  18  19
ATOM     19  C   UNL     1     119.678 112.441 119.809  1.00  0.00     0.000 C 
BRANCH  19  20
ATOM     20  C   UNL     1     120.106 113.150 118.515  1.00  0.00     0.000 C 
BRANCH  20  21
ATOM     21  C   UNL     1     118.885 113.537 117.667  1.00  0.00     0.000 C 
BRANCH  21  22
ATOM     22  C   UNL     1     117.601 113.698 118.503  1.00  0.00     0.000 C 
BRANCH  22  23
ATOM     23  C   UNL     1     116.993 115.115 118.491  1.00  0.00     0.000 C 
BRANCH  23  24
ATOM     24  C   UNL     1     116.288 115.515 117.180  1.00  0.00     0.000 C 
BRANCH  24  25
ATOM     25  C   UNL     1     117.087 116.464 116.269  1.00  0.00     0.000 C 
BRANCH  25  26
ATOM     26  C   UNL     1     116.295 116.910 115.029  1.00  0.00     0.000 C 
BRANCH  26  27
ATOM     27  C   UNL     1     116.817 116.271 113.730  1.00  0.00     0.002 C 
BRANCH  27  28
ATOM     28  C   UNL     1     116.628 117.163 112.484  1.00  0.00     0.028 C 
BRANCH  28  29
ATOM     29  C   UNL     1     116.782 116.374 111.177  1.00  0.00     0.156 C 
BRANCH  29  30
ATOM     30  O   UNL     1     116.689 114.998 111.427  1.00  0.00    -0.396 OA
ATOM     31  H   UNL     1     116.136 114.894 112.245  1.00  0.00     0.210 HD
ENDBRANCH  29  30
ENDBRANCH  28  29
ENDBRANCH  27  28
ENDBRANCH  26  27
ENDBRANCH  25  26
ENDBRANCH  24  25
ENDBRANCH  23  24
ENDBRANCH  22  23
ENDBRANCH  21  22
ENDBRANCH  20  21
ENDBRANCH  19  20
ENDBRANCH  18  19
ENDBRANCH  17  18
ENDBRANCH   1  17
TORSDOF 28
ENDMDL
