MODEL 1
REMARK VINA RESULT:    -3.443      0.000      0.000
REMARK INTER + INTRA:          -4.104
REMARK INTER:                  -4.047
REMARK INTRA:                  -0.058
REMARK UNBOUND:                -0.058
REMARK SMILES CCCCC(=O)[O-]
REMARK SMILES IDX 4 1 5 2 6 3 7 4 3 5 2 6 1 7
REMARK H PARENT
REMARK Flexibility Score: inf
ROOT
ATOM      1  C   UNL     1      51.165  30.199  41.896  1.00  0.00     0.053 C 
ENDROOT
BRANCH   1   2
ATOM      2  C   UNL     1      52.234  29.592  42.754  1.00  0.00     0.041 C 
ATOM      3  O   UNL     1      51.950  28.666  43.559  1.00  0.00    -0.550 OA
ATOM      4  O   UNL     1      53.549  30.025  42.642  1.00  0.00    -0.550 OA
ENDBRANCH   1   2
BRANCH   1   5
ATOM      5  C   UNL     1      50.469  31.391  42.577  1.00  0.00     0.006 C 
BRANCH   5   6
ATOM      6  C   UNL     1      51.257  32.709  42.484  1.00  0.00    -0.003 C 
ATOM      7  C   UNL     1      50.987  33.656  43.652  1.00  0.00     0.004 C 
ENDBRANCH   5   6
ENDBRANCH   1   5
TORSDOF 3
ENDMDL
MODEL 2
REMARK VINA RESULT:    -3.425     12.864     13.582
REMARK INTER + INTRA:          -4.083
REMARK INTER:                  -3.968
REMARK INTRA:                  -0.115
REMARK UNBOUND:                -0.058
REMARK SMILES CCCCC(=O)[O-]
REMARK SMILES IDX 4 1 5 2 6 3 7 4 3 5 2 6 1 7
REMARK H PARENT
REMARK Flexibility Score: inf
ROOT
ATOM      1  C   UNL     1      60.424  38.203  38.404  1.00  0.00     0.053 C 
ENDROOT
BRANCH   1   2
ATOM      2  C   UNL     1      61.309  39.386  38.149  1.00  0.00     0.041 C 
ATOM      3  O   UNL     1      62.329  39.578  38.862  1.00  0.00    -0.550 OA
ATOM      4  O   UNL     1      61.028  40.256  37.103  1.00  0.00    -0.550 OA
ENDBRANCH   1   2
BRANCH   1   5
ATOM      5  C   UNL     1      59.832  37.620  37.108  1.00  0.00     0.006 C 
BRANCH   5   6
ATOM      6  C   UNL     1      60.746  36.595  36.413  1.00  0.00    -0.003 C 
ATOM      7  C   UNL     1      61.281  37.081  35.067  1.00  0.00     0.004 C 
ENDBRANCH   5   6
ENDBRANCH   1   5
TORSDOF 3
ENDMDL
MODEL 3
REMARK VINA RESULT:    -3.409      4.721      5.888
REMARK INTER + INTRA:          -4.065
REMARK INTER:                  -4.047
REMARK INTRA:                  -0.018
REMARK UNBOUND:                -0.058
REMARK SMILES CCCCC(=O)[O-]
REMARK SMILES IDX 4 1 5 2 6 3 7 4 3 5 2 6 1 7
REMARK H PARENT
REMARK Flexibility Score: inf
ROOT
ATOM      1  C   UNL     1      55.636  33.813  42.513  1.00  0.00     0.053 C 
ENDROOT
BRANCH   1   2
ATOM      2  C   UNL     1      55.496  35.221  43.009  1.00  0.00     0.041 C 
ATOM      3  O   UNL     1      54.354  35.706  43.221  1.00  0.00    -0.550 OA
ATOM      4  O   UNL     1      56.627  35.985  43.271  1.00  0.00    -0.550 OA
ENDBRANCH   1   2
BRANCH   1   5
ATOM      5  C   UNL     1      54.736  32.827  43.277  1.00  0.00     0.006 C 
BRANCH   5   6
ATOM      6  C   UNL     1      55.429  31.500  43.634  1.00  0.00    -0.003 C 
ATOM      7  C   UNL     1      54.640  30.269  43.190  1.00  0.00     0.004 C 
ENDBRANCH   5   6
ENDBRANCH   1   5
TORSDOF 3
ENDMDL
MODEL 4
REMARK VINA RESULT:    -3.363     12.113     12.893
REMARK INTER + INTRA:          -4.011
REMARK INTER:                  -3.911
REMARK INTRA:                  -0.099
REMARK UNBOUND:                -0.058
REMARK SMILES CCCCC(=O)[O-]
REMARK SMILES IDX 4 1 5 2 6 3 7 4 3 5 2 6 1 7
REMARK H PARENT
REMARK Flexibility Score: inf
ROOT
ATOM      1  C   UNL     1      60.379  38.169  38.409  1.00  0.00     0.053 C 
ENDROOT
BRANCH   1   2
ATOM      2  C   UNL     1      61.215  39.371  38.087  1.00  0.00     0.041 C 
ATOM      3  O   UNL     1      60.880  40.143  37.149  1.00  0.00    -0.550 OA
ATOM      4  O   UNL     1      62.345  39.660  38.843  1.00  0.00    -0.550 OA
ENDBRANCH   1   2
BRANCH   1   5
ATOM      5  C   UNL     1      58.871  38.468  38.351  1.00  0.00     0.006 C 
BRANCH   5   6
ATOM      6  C   UNL     1      58.124  37.696  37.250  1.00  0.00    -0.003 C 
ATOM      7  C   UNL     1      59.058  36.935  36.309  1.00  0.00     0.004 C 
ENDBRANCH   5   6
ENDBRANCH   1   5
TORSDOF 3
ENDMDL
MODEL 5
REMARK VINA RESULT:    -3.362      2.854      4.071
REMARK INTER + INTRA:          -4.009
REMARK INTER:                  -3.972
REMARK INTRA:                  -0.038
REMARK UNBOUND:                -0.058
REMARK SMILES CCCCC(=O)[O-]
REMARK SMILES IDX 4 1 5 2 6 3 7 4 3 5 2 6 1 7
REMARK H PARENT
REMARK Flexibility Score: inf
ROOT
ATOM      1  C   UNL     1      51.455  32.782  42.488  1.00  0.00     0.053 C 
ENDROOT
BRANCH   1   2
ATOM      2  C   UNL     1      51.320  33.867  43.514  1.00  0.00     0.041 C 
ATOM      3  O   UNL     1      52.176  34.788  43.578  1.00  0.00    -0.550 OA
ATOM      4  O   UNL     1      50.231  33.880  44.377  1.00  0.00    -0.550 OA
ENDBRANCH   1   2
BRANCH   1   5
ATOM      5  C   UNL     1      50.374  31.696  42.633  1.00  0.00     0.006 C 
BRANCH   5   6
ATOM      6  C   UNL     1      50.806  30.315  42.109  1.00  0.00    -0.003 C 
ATOM      7  C   UNL     1      52.260  29.976  42.432  1.00  0.00     0.004 C 
ENDBRANCH   5   6
ENDBRANCH   1   5
TORSDOF 3
ENDMDL
MODEL 6
REMARK VINA RESULT:    -3.352     10.427     11.596
REMARK INTER + INTRA:          -3.998
REMARK INTER:                  -3.956
REMARK INTRA:                  -0.042
REMARK UNBOUND:                -0.058
REMARK SMILES CCCCC(=O)[O-]
REMARK SMILES IDX 4 1 5 2 6 3 7 4 3 5 2 6 1 7
REMARK H PARENT
REMARK Flexibility Score: inf
ROOT
ATOM      1  C   UNL     1      45.744  36.024  50.104  1.00  0.00     0.053 C 
ENDROOT
BRANCH   1   2
ATOM      2  C   UNL     1      44.468  36.809  50.163  1.00  0.00     0.041 C 
ATOM      3  O   UNL     1      43.494  36.490  49.431  1.00  0.00    -0.550 OA
ATOM      4  O   UNL     1      44.340  37.870  51.051  1.00  0.00    -0.550 OA
ENDBRANCH   1   2
BRANCH   1   5
ATOM      5  C   UNL     1      46.613  36.218  51.359  1.00  0.00     0.006 C 
BRANCH   5   6
ATOM      6  C   UNL     1      48.119  36.028  51.109  1.00  0.00    -0.003 C 
ATOM      7  C   UNL     1      48.514  36.211  49.645  1.00  0.00     0.004 C 
ENDBRANCH   5   6
ENDBRANCH   1   5
TORSDOF 3
ENDMDL
MODEL 7
REMARK VINA RESULT:    -3.341     10.328     11.510
REMARK INTER + INTRA:          -3.984
REMARK INTER:                  -3.956
REMARK INTRA:                  -0.028
REMARK UNBOUND:                -0.058
REMARK SMILES CCCCC(=O)[O-]
REMARK SMILES IDX 4 1 5 2 6 3 7 4 3 5 2 6 1 7
REMARK H PARENT
REMARK Flexibility Score: inf
ROOT
ATOM      1  C   UNL     1      45.920  36.058  50.192  1.00  0.00     0.053 C 
ENDROOT
BRANCH   1   2
ATOM      2  C   UNL     1      44.777  36.974  50.512  1.00  0.00     0.041 C 
ATOM      3  O   UNL     1      44.861  37.778  51.478  1.00  0.00    -0.550 OA
ATOM      4  O   UNL     1      43.633  36.965  49.724  1.00  0.00    -0.550 OA
ENDBRANCH   1   2
BRANCH   1   5
ATOM      5  C   UNL     1      47.119  36.261  51.134  1.00  0.00     0.006 C 
BRANCH   5   6
ATOM      6  C   UNL     1      48.433  35.655  50.609  1.00  0.00    -0.003 C 
ATOM      7  C   UNL     1      48.895  36.269  49.289  1.00  0.00     0.004 C 
ENDBRANCH   5   6
ENDBRANCH   1   5
TORSDOF 3
ENDMDL
MODEL 8
REMARK VINA RESULT:    -3.271     12.081     12.576
REMARK INTER + INTRA:          -3.902
REMARK INTER:                  -3.831
REMARK INTRA:                  -0.071
REMARK UNBOUND:                -0.058
REMARK SMILES CCCCC(=O)[O-]
REMARK SMILES IDX 4 1 5 2 6 3 7 4 3 5 2 6 1 7
REMARK H PARENT
REMARK Flexibility Score: inf
ROOT
ATOM      1  C   UNL     1      59.666  36.647  36.282  1.00  0.00     0.053 C 
ENDROOT
BRANCH   1   2
ATOM      2  C   UNL     1      60.315  37.053  34.994  1.00  0.00     0.041 C 
ATOM      3  O   UNL     1      59.672  36.988  33.913  1.00  0.00    -0.550 OA
ATOM      4  O   UNL     1      61.618  37.537  34.989  1.00  0.00    -0.550 OA
ENDBRANCH   1   2
BRANCH   1   5
ATOM      5  C   UNL     1      58.529  37.598  36.695  1.00  0.00     0.006 C 
BRANCH   5   6
ATOM      6  C   UNL     1      58.789  38.343  38.016  1.00  0.00    -0.003 C 
ATOM      7  C   UNL     1      60.221  38.184  38.526  1.00  0.00     0.004 C 
ENDBRANCH   5   6
ENDBRANCH   1   5
TORSDOF 3
ENDMDL
MODEL 9
REMARK VINA RESULT:    -3.248     11.487     12.367
REMARK INTER + INTRA:          -3.875
REMARK INTER:                  -3.825
REMARK INTRA:                  -0.050
REMARK UNBOUND:                -0.058
REMARK SMILES CCCCC(=O)[O-]
REMARK SMILES IDX 4 1 5 2 6 3 7 4 3 5 2 6 1 7
REMARK H PARENT
REMARK Flexibility Score: inf
ROOT
ATOM      1  C   UNL     1      58.822  38.388  38.206  1.00  0.00     0.053 C 
ENDROOT
BRANCH   1   2
ATOM      2  C   UNL     1      58.377  37.538  37.054  1.00  0.00     0.041 C 
ATOM      3  O   UNL     1      57.226  37.687  36.565  1.00  0.00    -0.550 OA
ATOM      4  O   UNL     1      59.244  36.607  36.497  1.00  0.00    -0.550 OA
ENDBRANCH   1   2
BRANCH   1   5
ATOM      5  C   UNL     1      60.349  38.373  38.393  1.00  0.00     0.006 C 
BRANCH   5   6
ATOM      6  C   UNL     1      61.075  39.526  37.678  1.00  0.00    -0.003 C 
ATOM      7  C   UNL     1      62.333  39.991  38.410  1.00  0.00     0.004 C 
ENDBRANCH   5   6
ENDBRANCH   1   5
TORSDOF 3
ENDMDL
