MODEL 1
REMARK VINA RESULT:    12.616      0.000      0.000
REMARK INTER + INTRA:          27.619
REMARK INTER:                  28.841
REMARK INTRA:                  -1.223
REMARK UNBOUND:                -1.223
REMARK SMILES CCCCCCCCCCCCCCCCCCCCCCCC(=O)[O-]
REMARK SMILES IDX 13 1 14 2 15 3 16 4 17 5 18 6 19 7 20 8 21 9 22 10 23 11
REMARK SMILES IDX 24 12 25 13 26 14 12 15 11 16 10 17 9 18 8 19 7 20 6 21 5 22
REMARK SMILES IDX 4 23 3 24 2 25 1 26
REMARK H PARENT
REMARK Flexibility Score: inf
ROOT
ATOM      1  C   UNL     1      34.379  12.420  40.750  1.00  0.00     0.000 C 
ENDROOT
BRANCH   1   2
ATOM      2  C   UNL     1      33.904  11.319  41.720  1.00  0.00     0.000 C 
BRANCH   2   3
ATOM      3  C   UNL     1      32.596  10.615  41.303  1.00  0.00     0.000 C 
BRANCH   3   4
ATOM      4  C   UNL     1      32.666   9.901  39.939  1.00  0.00     0.000 C 
BRANCH   4   5
ATOM      5  C   UNL     1      34.086   9.421  39.591  1.00  0.00     0.000 C 
BRANCH   5   6
ATOM      6  C   UNL     1      34.502   8.184  40.410  1.00  0.00     0.000 C 
BRANCH   6   7
ATOM      7  C   UNL     1      33.714   6.901  40.072  1.00  0.00     0.000 C 
BRANCH   7   8
ATOM      8  C   UNL     1      33.291   6.055  41.290  1.00  0.00     0.000 C 
BRANCH   8   9
ATOM      9  C   UNL     1      32.660   4.707  40.898  1.00  0.00     0.000 C 
BRANCH   9  10
ATOM     10  C   UNL     1      31.128   4.711  41.029  1.00  0.00     0.006 C 
BRANCH  10  11
ATOM     11  C   UNL     1      30.644   5.542  42.227  1.00  0.00     0.053 C 
BRANCH  11  12
ATOM     12  C   UNL     1      29.231   5.988  42.021  1.00  0.00     0.041 C 
ATOM     13  O   UNL     1      28.989   7.073  41.430  1.00  0.00    -0.550 OA
ATOM     14  O   UNL     1      28.182   5.223  42.517  1.00  0.00    -0.550 OA
ENDBRANCH  11  12
ENDBRANCH  10  11
ENDBRANCH   9  10
ENDBRANCH   8   9
ENDBRANCH   7   8
ENDBRANCH   6   7
ENDBRANCH   5   6
ENDBRANCH   4   5
ENDBRANCH   3   4
ENDBRANCH   2   3
ENDBRANCH   1   2
BRANCH   1  15
ATOM     15  C   UNL     1      35.599  13.199  41.270  1.00  0.00     0.000 C 
BRANCH  15  16
ATOM     16  C   UNL     1      35.517  13.385  42.791  1.00  0.00     0.000 C 
BRANCH  16  17
ATOM     17  C   UNL     1      36.795  14.036  43.346  1.00  0.00     0.000 C 
BRANCH  17  18
ATOM     18  C   UNL     1      36.524  15.387  44.026  1.00  0.00    -0.000 C 
BRANCH  18  19
ATOM     19  C   UNL     1      35.037  15.784  43.991  1.00  0.00    -0.000 C 
BRANCH  19  20
ATOM     20  C   UNL     1      34.771  17.008  43.100  1.00  0.00    -0.000 C 
BRANCH  20  21
ATOM     21  C   UNL     1      34.023  16.648  41.807  1.00  0.00    -0.000 C 
BRANCH  21  22
ATOM     22  C   UNL     1      34.107  17.758  40.743  1.00  0.00    -0.000 C 
BRANCH  22  23
ATOM     23  C   UNL     1      33.594  17.365  39.344  1.00  0.00    -0.000 C 
BRANCH  23  24
ATOM     24  C   UNL     1      32.901  18.498  38.557  1.00  0.00    -0.000 C 
BRANCH  24  25
ATOM     25  C   UNL     1      31.642  18.071  37.782  1.00  0.00    -0.003 C 
ATOM     26  C   UNL     1      30.697  19.238  37.488  1.00  0.00     0.004 C 
ENDBRANCH  24  25
ENDBRANCH  23  24
ENDBRANCH  22  23
ENDBRANCH  21  22
ENDBRANCH  20  21
ENDBRANCH  19  20
ENDBRANCH  18  19
ENDBRANCH  17  18
ENDBRANCH  16  17
ENDBRANCH  15  16
ENDBRANCH   1  15
TORSDOF 22
ENDMDL
MODEL 2
REMARK VINA RESULT:    12.961      3.569     10.382
REMARK INTER + INTRA:          28.408
REMARK INTER:                  30.073
REMARK INTRA:                  -1.665
REMARK UNBOUND:                -1.223
REMARK SMILES CCCCCCCCCCCCCCCCCCCCCCCC(=O)[O-]
REMARK SMILES IDX 13 1 14 2 15 3 16 4 17 5 18 6 19 7 20 8 21 9 22 10 23 11
REMARK SMILES IDX 24 12 25 13 26 14 12 15 11 16 10 17 9 18 8 19 7 20 6 21 5 22
REMARK SMILES IDX 4 23 3 24 2 25 1 26
REMARK H PARENT
REMARK Flexibility Score: inf
ROOT
ATOM      1  C   UNL     1      34.352  13.262  40.306  1.00  0.00     0.000 C 
ENDROOT
BRANCH   1   2
ATOM      2  C   UNL     1      35.484  12.722  41.205  1.00  0.00     0.000 C 
BRANCH   2   3
ATOM      3  C   UNL     1      35.398  13.162  42.681  1.00  0.00     0.000 C 
BRANCH   3   4
ATOM      4  C   UNL     1      36.484  14.169  43.107  1.00  0.00     0.000 C 
BRANCH   4   5
ATOM      5  C   UNL     1      35.912  15.367  43.885  1.00  0.00     0.000 C 
BRANCH   5   6
ATOM      6  C   UNL     1      34.496  15.750  43.411  1.00  0.00     0.000 C 
BRANCH   6   7
ATOM      7  C   UNL     1      34.434  17.041  42.568  1.00  0.00     0.000 C 
BRANCH   7   8
ATOM      8  C   UNL     1      34.000  16.842  41.101  1.00  0.00     0.000 C 
BRANCH   8   9
ATOM      9  C   UNL     1      34.387  18.021  40.192  1.00  0.00     0.000 C 
BRANCH   9  10
ATOM     10  C   UNL     1      33.601  18.034  38.871  1.00  0.00     0.006 C 
BRANCH  10  11
ATOM     11  C   UNL     1      32.168  18.559  39.047  1.00  0.00     0.053 C 
BRANCH  11  12
ATOM     12  C   UNL     1      31.433  18.528  37.743  1.00  0.00     0.041 C 
ATOM     13  O   UNL     1      31.278  17.440  37.129  1.00  0.00    -0.550 OA
ATOM     14  O   UNL     1      30.955  19.709  37.188  1.00  0.00    -0.550 OA
ENDBRANCH  11  12
ENDBRANCH  10  11
ENDBRANCH   9  10
ENDBRANCH   8   9
ENDBRANCH   7   8
ENDBRANCH   6   7
ENDBRANCH   5   6
ENDBRANCH   4   5
ENDBRANCH   3   4
ENDBRANCH   2   3
ENDBRANCH   1   2
BRANCH   1  15
ATOM     15  C   UNL     1      33.298  12.198  39.955  1.00  0.00     0.000 C 
BRANCH  15  16
ATOM     16  C   UNL     1      32.725  11.562  41.228  1.00  0.00     0.000 C 
BRANCH  16  17
ATOM     17  C   UNL     1      32.500  10.051  41.045  1.00  0.00     0.000 C 
BRANCH  17  18
ATOM     18  C   UNL     1      32.991   9.540  39.681  1.00  0.00    -0.000 C 
BRANCH  18  19
ATOM     19  C   UNL     1      34.422   8.976  39.737  1.00  0.00    -0.000 C 
BRANCH  19  20
ATOM     20  C   UNL     1      34.531   7.722  40.620  1.00  0.00    -0.000 C 
BRANCH  20  21
ATOM     21  C   UNL     1      33.734   6.533  40.061  1.00  0.00    -0.000 C 
BRANCH  21  22
ATOM     22  C   UNL     1      33.416   5.474  41.133  1.00  0.00    -0.000 C 
BRANCH  22  23
ATOM     23  C   UNL     1      31.979   4.919  41.100  1.00  0.00    -0.000 C 
BRANCH  23  24
ATOM     24  C   UNL     1      30.951   5.706  41.940  1.00  0.00    -0.000 C 
BRANCH  24  25
ATOM     25  C   UNL     1      29.497   5.602  41.448  1.00  0.00    -0.003 C 
ATOM     26  C   UNL     1      28.510   5.271  42.568  1.00  0.00     0.004 C 
ENDBRANCH  24  25
ENDBRANCH  23  24
ENDBRANCH  22  23
ENDBRANCH  21  22
ENDBRANCH  20  21
ENDBRANCH  19  20
ENDBRANCH  18  19
ENDBRANCH  17  18
ENDBRANCH  16  17
ENDBRANCH  15  16
ENDBRANCH   1  15
TORSDOF 22
ENDMDL
MODEL 3
REMARK VINA RESULT:    12.989      0.753      1.359
REMARK INTER + INTRA:          28.472
REMARK INTER:                  29.859
REMARK INTRA:                  -1.387
REMARK UNBOUND:                -1.223
REMARK SMILES CCCCCCCCCCCCCCCCCCCCCCCC(=O)[O-]
REMARK SMILES IDX 13 1 14 2 15 3 16 4 17 5 18 6 19 7 20 8 21 9 22 10 23 11
REMARK SMILES IDX 24 12 25 13 26 14 12 15 11 16 10 17 9 18 8 19 7 20 6 21 5 22
REMARK SMILES IDX 4 23 3 24 2 25 1 26
REMARK H PARENT
REMARK Flexibility Score: inf
ROOT
ATOM      1  C   UNL     1      35.239  12.538  41.506  1.00  0.00     0.000 C 
ENDROOT
BRANCH   1   2
ATOM      2  C   UNL     1      34.436  12.969  40.262  1.00  0.00     0.000 C 
BRANCH   2   3
ATOM      3  C   UNL     1      33.172  12.126  39.989  1.00  0.00     0.000 C 
BRANCH   3   4
ATOM      4  C   UNL     1      33.063  10.850  40.845  1.00  0.00     0.000 C 
BRANCH   4   5
ATOM      5  C   UNL     1      32.934   9.572  39.996  1.00  0.00     0.000 C 
BRANCH   5   6
ATOM      6  C   UNL     1      34.196   8.692  40.070  1.00  0.00     0.000 C 
BRANCH   6   7
ATOM      7  C   UNL     1      33.953   7.202  39.746  1.00  0.00     0.000 C 
BRANCH   7   8
ATOM      8  C   UNL     1      33.989   6.256  40.964  1.00  0.00     0.000 C 
BRANCH   8   9
ATOM      9  C   UNL     1      32.889   5.181  40.925  1.00  0.00     0.000 C 
BRANCH   9  10
ATOM     10  C   UNL     1      31.759   5.453  41.932  1.00  0.00     0.006 C 
BRANCH  10  11
ATOM     11  C   UNL     1      30.389   4.990  41.414  1.00  0.00     0.053 C 
BRANCH  11  12
ATOM     12  C   UNL     1      29.299   5.857  41.964  1.00  0.00     0.041 C 
ATOM     13  O   UNL     1      28.468   5.386  42.784  1.00  0.00    -0.550 OA
ATOM     14  O   UNL     1      29.180   7.174  41.538  1.00  0.00    -0.550 OA
ENDBRANCH  11  12
ENDBRANCH  10  11
ENDBRANCH   9  10
ENDBRANCH   8   9
ENDBRANCH   7   8
ENDBRANCH   6   7
ENDBRANCH   5   6
ENDBRANCH   4   5
ENDBRANCH   3   4
ENDBRANCH   2   3
ENDBRANCH   1   2
BRANCH   1  15
ATOM     15  C   UNL     1      35.060  13.490  42.701  1.00  0.00     0.000 C 
BRANCH  15  16
ATOM     16  C   UNL     1      36.417  14.026  43.176  1.00  0.00     0.000 C 
BRANCH  16  17
ATOM     17  C   UNL     1      36.266  15.383  43.885  1.00  0.00     0.000 C 
BRANCH  17  18
ATOM     18  C   UNL     1      34.933  16.076  43.558  1.00  0.00    -0.000 C 
BRANCH  18  19
ATOM     19  C   UNL     1      34.987  17.600  43.768  1.00  0.00    -0.000 C 
BRANCH  19  20
ATOM     20  C   UNL     1      34.888  18.384  42.449  1.00  0.00    -0.000 C 
BRANCH  20  21
ATOM     21  C   UNL     1      34.171  17.595  41.342  1.00  0.00    -0.000 C 
BRANCH  21  22
ATOM     22  C   UNL     1      34.676  17.955  39.933  1.00  0.00    -0.000 C 
BRANCH  22  23
ATOM     23  C   UNL     1      33.642  17.784  38.803  1.00  0.00    -0.000 C 
BRANCH  23  24
ATOM     24  C   UNL     1      32.329  18.573  38.989  1.00  0.00    -0.000 C 
BRANCH  24  25
ATOM     25  C   UNL     1      31.228  18.246  37.966  1.00  0.00    -0.003 C 
ATOM     26  C   UNL     1      30.807  19.459  37.133  1.00  0.00     0.004 C 
ENDBRANCH  24  25
ENDBRANCH  23  24
ENDBRANCH  22  23
ENDBRANCH  21  22
ENDBRANCH  20  21
ENDBRANCH  19  20
ENDBRANCH  18  19
ENDBRANCH  17  18
ENDBRANCH  16  17
ENDBRANCH  15  16
ENDBRANCH   1  15
TORSDOF 22
ENDMDL
MODEL 4
REMARK VINA RESULT:    13.595      3.711     10.470
REMARK INTER + INTRA:          29.858
REMARK INTER:                  31.008
REMARK INTRA:                  -1.149
REMARK UNBOUND:                -1.223
REMARK SMILES CCCCCCCCCCCCCCCCCCCCCCCC(=O)[O-]
REMARK SMILES IDX 13 1 14 2 15 3 16 4 17 5 18 6 19 7 20 8 21 9 22 10 23 11
REMARK SMILES IDX 24 12 25 13 26 14 12 15 11 16 10 17 9 18 8 19 7 20 6 21 5 22
REMARK SMILES IDX 4 23 3 24 2 25 1 26
REMARK H PARENT
REMARK Flexibility Score: inf
ROOT
ATOM      1  C   UNL     1      35.362  13.153  42.555  1.00  0.00     0.000 C 
ENDROOT
BRANCH   1   2
ATOM      2  C   UNL     1      36.660  13.740  43.148  1.00  0.00     0.000 C 
BRANCH   2   3
ATOM      3  C   UNL     1      36.512  15.156  43.742  1.00  0.00     0.000 C 
BRANCH   3   4
ATOM      4  C   UNL     1      35.078  15.718  43.696  1.00  0.00     0.000 C 
BRANCH   4   5
ATOM      5  C   UNL     1      34.992  17.173  44.189  1.00  0.00     0.000 C 
BRANCH   5   6
ATOM      6  C   UNL     1      35.955  18.105  43.430  1.00  0.00     0.000 C 
BRANCH   6   7
ATOM      7  C   UNL     1      35.308  18.873  42.258  1.00  0.00     0.000 C 
BRANCH   7   8
ATOM      8  C   UNL     1      34.346  18.042  41.385  1.00  0.00     0.000 C 
BRANCH   8   9
ATOM      9  C   UNL     1      34.526  18.296  39.878  1.00  0.00     0.000 C 
BRANCH   9  10
ATOM     10  C   UNL     1      33.353  17.759  39.042  1.00  0.00     0.006 C 
BRANCH  10  11
ATOM     11  C   UNL     1      32.167  18.734  39.002  1.00  0.00     0.053 C 
BRANCH  11  12
ATOM     12  C   UNL     1      31.429  18.612  37.706  1.00  0.00     0.041 C 
ATOM     13  O   UNL     1      31.439  17.525  37.071  1.00  0.00    -0.550 OA
ATOM     14  O   UNL     1      30.764  19.713  37.179  1.00  0.00    -0.550 OA
ENDBRANCH  11  12
ENDBRANCH  10  11
ENDBRANCH   9  10
ENDBRANCH   8   9
ENDBRANCH   7   8
ENDBRANCH   6   7
ENDBRANCH   5   6
ENDBRANCH   4   5
ENDBRANCH   3   4
ENDBRANCH   2   3
ENDBRANCH   1   2
BRANCH   1  15
ATOM     15  C   UNL     1      35.286  13.276  41.024  1.00  0.00     0.000 C 
BRANCH  15  16
ATOM     16  C   UNL     1      34.079  12.502  40.477  1.00  0.00     0.000 C 
BRANCH  16  17
ATOM     17  C   UNL     1      33.989  11.097  41.094  1.00  0.00     0.000 C 
BRANCH  17  18
ATOM     18  C   UNL     1      34.212   9.981  40.060  1.00  0.00    -0.000 C 
BRANCH  18  19
ATOM     19  C   UNL     1      32.899   9.320  39.604  1.00  0.00    -0.000 C 
BRANCH  19  20
ATOM     20  C   UNL     1      31.715   9.656  40.525  1.00  0.00    -0.000 C 
BRANCH  20  21
ATOM     21  C   UNL     1      31.077   8.406  41.151  1.00  0.00    -0.000 C 
BRANCH  21  22
ATOM     22  C   UNL     1      29.569   8.301  40.863  1.00  0.00    -0.000 C 
BRANCH  22  23
ATOM     23  C   UNL     1      29.039   6.868  40.657  1.00  0.00    -0.000 C 
BRANCH  23  24
ATOM     24  C   UNL     1      28.807   6.062  41.952  1.00  0.00    -0.000 C 
BRANCH  24  25
ATOM     25  C   UNL     1      30.040   5.303  42.472  1.00  0.00    -0.003 C 
ATOM     26  C   UNL     1      30.949   4.799  41.349  1.00  0.00     0.004 C 
ENDBRANCH  24  25
ENDBRANCH  23  24
ENDBRANCH  22  23
ENDBRANCH  21  22
ENDBRANCH  20  21
ENDBRANCH  19  20
ENDBRANCH  18  19
ENDBRANCH  17  18
ENDBRANCH  16  17
ENDBRANCH  15  16
ENDBRANCH   1  15
TORSDOF 22
ENDMDL
MODEL 5
REMARK VINA RESULT:    13.847      4.428     10.242
REMARK INTER + INTRA:          30.433
REMARK INTER:                  31.302
REMARK INTRA:                  -0.868
REMARK UNBOUND:                -1.223
REMARK SMILES CCCCCCCCCCCCCCCCCCCCCCCC(=O)[O-]
REMARK SMILES IDX 13 1 14 2 15 3 16 4 17 5 18 6 19 7 20 8 21 9 22 10 23 11
REMARK SMILES IDX 24 12 25 13 26 14 12 15 11 16 10 17 9 18 8 19 7 20 6 21 5 22
REMARK SMILES IDX 4 23 3 24 2 25 1 26
REMARK H PARENT
REMARK Flexibility Score: inf
ROOT
ATOM      1  C   UNL     1      34.172  12.930  40.025  1.00  0.00     0.000 C 
ENDROOT
BRANCH   1   2
ATOM      2  C   UNL     1      35.307  12.942  41.070  1.00  0.00     0.000 C 
BRANCH   2   3
ATOM      3  C   UNL     1      34.909  13.516  42.445  1.00  0.00     0.000 C 
BRANCH   3   4
ATOM      4  C   UNL     1      36.102  13.920  43.334  1.00  0.00     0.000 C 
BRANCH   4   5
ATOM      5  C   UNL     1      35.986  15.357  43.870  1.00  0.00     0.000 C 
BRANCH   5   6
ATOM      6  C   UNL     1      34.634  16.006  43.515  1.00  0.00     0.000 C 
BRANCH   6   7
ATOM      7  C   UNL     1      34.746  17.286  42.660  1.00  0.00     0.000 C 
BRANCH   7   8
ATOM      8  C   UNL     1      33.808  17.338  41.437  1.00  0.00     0.000 C 
BRANCH   8   9
ATOM      9  C   UNL     1      34.525  17.768  40.145  1.00  0.00     0.000 C 
BRANCH   9  10
ATOM     10  C   UNL     1      33.607  17.716  38.913  1.00  0.00     0.006 C 
BRANCH  10  11
ATOM     11  C   UNL     1      32.309  18.513  39.116  1.00  0.00     0.053 C 
BRANCH  11  12
ATOM     12  C   UNL     1      31.525  18.571  37.843  1.00  0.00     0.041 C 
ATOM     13  O   UNL     1      31.629  17.650  36.991  1.00  0.00    -0.550 OA
ATOM     14  O   UNL     1      30.708  19.665  37.581  1.00  0.00    -0.550 OA
ENDBRANCH  11  12
ENDBRANCH  10  11
ENDBRANCH   9  10
ENDBRANCH   8   9
ENDBRANCH   7   8
ENDBRANCH   6   7
ENDBRANCH   5   6
ENDBRANCH   4   5
ENDBRANCH   3   4
ENDBRANCH   2   3
ENDBRANCH   1   2
BRANCH   1  15
ATOM     15  C   UNL     1      32.941  12.127  40.477  1.00  0.00     0.000 C 
BRANCH  15  16
ATOM     16  C   UNL     1      33.363  10.910  41.313  1.00  0.00     0.000 C 
BRANCH  16  17
ATOM     17  C   UNL     1      33.880   9.770  40.419  1.00  0.00     0.000 C 
BRANCH  17  18
ATOM     18  C   UNL     1      33.042   9.592  39.143  1.00  0.00    -0.000 C 
BRANCH  18  19
ATOM     19  C   UNL     1      31.533   9.508  39.428  1.00  0.00    -0.000 C 
BRANCH  19  20
ATOM     20  C   UNL     1      30.689   9.445  38.145  1.00  0.00    -0.000 C 
BRANCH  20  21
ATOM     21  C   UNL     1      29.480   8.505  38.276  1.00  0.00    -0.000 C 
BRANCH  21  22
ATOM     22  C   UNL     1      28.198   9.097  37.662  1.00  0.00    -0.000 C 
BRANCH  22  23
ATOM     23  C   UNL     1      27.659   8.353  36.425  1.00  0.00    -0.000 C 
BRANCH  23  24
ATOM     24  C   UNL     1      28.148   6.897  36.270  1.00  0.00    -0.000 C 
BRANCH  24  25
ATOM     25  C   UNL     1      27.103   5.823  36.618  1.00  0.00    -0.003 C 
ATOM     26  C   UNL     1      27.730   4.513  37.098  1.00  0.00     0.004 C 
ENDBRANCH  24  25
ENDBRANCH  23  24
ENDBRANCH  22  23
ENDBRANCH  21  22
ENDBRANCH  20  21
ENDBRANCH  19  20
ENDBRANCH  18  19
ENDBRANCH  17  18
ENDBRANCH  16  17
ENDBRANCH  15  16
ENDBRANCH   1  15
TORSDOF 22
ENDMDL
MODEL 6
REMARK VINA RESULT:    14.024      2.977      3.523
REMARK INTER + INTRA:          30.838
REMARK INTER:                  31.956
REMARK INTRA:                  -1.118
REMARK UNBOUND:                -1.223
REMARK SMILES CCCCCCCCCCCCCCCCCCCCCCCC(=O)[O-]
REMARK SMILES IDX 13 1 14 2 15 3 16 4 17 5 18 6 19 7 20 8 21 9 22 10 23 11
REMARK SMILES IDX 24 12 25 13 26 14 12 15 11 16 10 17 9 18 8 19 7 20 6 21 5 22
REMARK SMILES IDX 4 23 3 24 2 25 1 26
REMARK H PARENT
REMARK Flexibility Score: inf
ROOT
ATOM      1  C   UNL     1      34.474  12.988  40.166  1.00  0.00     0.000 C 
ENDROOT
BRANCH   1   2
ATOM      2  C   UNL     1      33.173  12.179  40.345  1.00  0.00     0.000 C 
BRANCH   2   3
ATOM      3  C   UNL     1      33.340  10.855  41.119  1.00  0.00     0.000 C 
BRANCH   3   4
ATOM      4  C   UNL     1      33.709   9.647  40.237  1.00  0.00     0.000 C 
BRANCH   4   5
ATOM      5  C   UNL     1      32.960   9.639  38.892  1.00  0.00     0.000 C 
BRANCH   5   6
ATOM      6  C   UNL     1      31.440   9.823  39.070  1.00  0.00     0.000 C 
BRANCH   6   7
ATOM      7  C   UNL     1      30.606   9.482  37.817  1.00  0.00     0.000 C 
BRANCH   7   8
ATOM      8  C   UNL     1      29.306   8.699  38.092  1.00  0.00     0.000 C 
BRANCH   8   9
ATOM      9  C   UNL     1      28.129   9.157  37.214  1.00  0.00     0.000 C 
BRANCH   9  10
ATOM     10  C   UNL     1      27.380   7.981  36.566  1.00  0.00     0.006 C 
BRANCH  10  11
ATOM     11  C   UNL     1      28.207   6.686  36.571  1.00  0.00     0.053 C 
BRANCH  11  12
ATOM     12  C   UNL     1      27.318   5.496  36.758  1.00  0.00     0.041 C 
ATOM     13  O   UNL     1      27.815   4.342  36.840  1.00  0.00    -0.550 OA
ATOM     14  O   UNL     1      25.939   5.660  36.802  1.00  0.00    -0.550 OA
ENDBRANCH  11  12
ENDBRANCH  10  11
ENDBRANCH   9  10
ENDBRANCH   8   9
ENDBRANCH   7   8
ENDBRANCH   6   7
ENDBRANCH   5   6
ENDBRANCH   4   5
ENDBRANCH   3   4
ENDBRANCH   2   3
ENDBRANCH   1   2
BRANCH   1  15
ATOM     15  C   UNL     1      35.500  12.740  41.285  1.00  0.00     0.000 C 
BRANCH  15  16
ATOM     16  C   UNL     1      35.006  13.329  42.614  1.00  0.00     0.000 C 
BRANCH  16  17
ATOM     17  C   UNL     1      36.150  14.014  43.382  1.00  0.00     0.000 C 
BRANCH  17  18
ATOM     18  C   UNL     1      35.892  15.511  43.615  1.00  0.00    -0.000 C 
BRANCH  18  19
ATOM     19  C   UNL     1      34.454  15.930  43.260  1.00  0.00    -0.000 C 
BRANCH  19  20
ATOM     20  C   UNL     1      34.407  17.085  42.246  1.00  0.00    -0.000 C 
BRANCH  20  21
ATOM     21  C   UNL     1      33.961  16.628  40.848  1.00  0.00    -0.000 C 
BRANCH  21  22
ATOM     22  C   UNL     1      34.121  17.729  39.784  1.00  0.00    -0.000 C 
BRANCH  22  23
ATOM     23  C   UNL     1      32.803  18.351  39.280  1.00  0.00    -0.000 C 
BRANCH  23  24
ATOM     24  C   UNL     1      32.341  17.872  37.888  1.00  0.00    -0.000 C 
BRANCH  24  25
ATOM     25  C   UNL     1      31.137  18.633  37.308  1.00  0.00    -0.003 C 
ATOM     26  C   UNL     1      30.862  19.954  38.030  1.00  0.00     0.004 C 
ENDBRANCH  24  25
ENDBRANCH  23  24
ENDBRANCH  22  23
ENDBRANCH  21  22
ENDBRANCH  20  21
ENDBRANCH  19  20
ENDBRANCH  18  19
ENDBRANCH  17  18
ENDBRANCH  16  17
ENDBRANCH  15  16
ENDBRANCH   1  15
TORSDOF 22
ENDMDL
MODEL 7
REMARK VINA RESULT:    14.661      1.077      2.679
REMARK INTER + INTRA:          32.294
REMARK INTER:                  34.299
REMARK INTRA:                  -2.005
REMARK UNBOUND:                -1.223
REMARK SMILES CCCCCCCCCCCCCCCCCCCCCCCC(=O)[O-]
REMARK SMILES IDX 13 1 14 2 15 3 16 4 17 5 18 6 19 7 20 8 21 9 22 10 23 11
REMARK SMILES IDX 24 12 25 13 26 14 12 15 11 16 10 17 9 18 8 19 7 20 6 21 5 22
REMARK SMILES IDX 4 23 3 24 2 25 1 26
REMARK H PARENT
REMARK Flexibility Score: inf
ROOT
ATOM      1  C   UNL     1      32.610  10.175  41.070  1.00  0.00     0.000 C 
ENDROOT
BRANCH   1   2
ATOM      2  C   UNL     1      33.022   9.635  39.685  1.00  0.00     0.000 C 
BRANCH   2   3
ATOM      3  C   UNL     1      34.464   9.093  39.609  1.00  0.00     0.000 C 
BRANCH   3   4
ATOM      4  C   UNL     1      35.225   9.121  40.949  1.00  0.00     0.000 C 
BRANCH   4   5
ATOM      5  C   UNL     1      36.245   7.977  41.079  1.00  0.00     0.000 C 
BRANCH   5   6
ATOM      6  C   UNL     1      35.746   6.853  42.007  1.00  0.00     0.000 C 
BRANCH   6   7
ATOM      7  C   UNL     1      34.976   5.725  41.287  1.00  0.00     0.000 C 
BRANCH   7   8
ATOM      8  C   UNL     1      33.469   5.986  41.092  1.00  0.00     0.000 C 
BRANCH   8   9
ATOM      9  C   UNL     1      32.622   4.703  41.154  1.00  0.00     0.000 C 
BRANCH   9  10
ATOM     10  C   UNL     1      31.140   4.955  40.834  1.00  0.00     0.006 C 
BRANCH  10  11
ATOM     11  C   UNL     1      30.246   4.857  42.079  1.00  0.00     0.053 C 
BRANCH  11  12
ATOM     12  C   UNL     1      29.173   5.900  42.040  1.00  0.00     0.041 C 
ATOM     13  O   UNL     1      29.373   6.992  41.445  1.00  0.00    -0.550 OA
ATOM     14  O   UNL     1      27.967   5.681  42.695  1.00  0.00    -0.550 OA
ENDBRANCH  11  12
ENDBRANCH  10  11
ENDBRANCH   9  10
ENDBRANCH   8   9
ENDBRANCH   7   8
ENDBRANCH   6   7
ENDBRANCH   5   6
ENDBRANCH   4   5
ENDBRANCH   3   4
ENDBRANCH   2   3
ENDBRANCH   1   2
BRANCH   1  15
ATOM     15  C   UNL     1      32.655  11.710  41.160  1.00  0.00     0.000 C 
BRANCH  15  16
ATOM     16  C   UNL     1      33.476  12.297  40.004  1.00  0.00     0.000 C 
BRANCH  16  17
ATOM     17  C   UNL     1      34.806  12.885  40.505  1.00  0.00     0.000 C 
BRANCH  17  18
ATOM     18  C   UNL     1      34.955  12.795  42.033  1.00  0.00    -0.000 C 
BRANCH  18  19
ATOM     19  C   UNL     1      36.329  13.281  42.527  1.00  0.00    -0.000 C 
BRANCH  19  20
ATOM     20  C   UNL     1      36.228  14.503  43.454  1.00  0.00    -0.000 C 
BRANCH  20  21
ATOM     21  C   UNL     1      34.833  15.147  43.436  1.00  0.00    -0.000 C 
BRANCH  21  22
ATOM     22  C   UNL     1      34.859  16.633  43.837  1.00  0.00    -0.000 C 
BRANCH  22  23
ATOM     23  C   UNL     1      34.719  17.630  42.669  1.00  0.00    -0.000 C 
BRANCH  23  24
ATOM     24  C   UNL     1      34.178  17.028  41.355  1.00  0.00    -0.000 C 
BRANCH  24  25
ATOM     25  C   UNL     1      34.207  17.981  40.147  1.00  0.00    -0.003 C 
ATOM     26  C   UNL     1      33.106  17.686  39.127  1.00  0.00     0.004 C 
ENDBRANCH  24  25
ENDBRANCH  23  24
ENDBRANCH  22  23
ENDBRANCH  21  22
ENDBRANCH  20  21
ENDBRANCH  19  20
ENDBRANCH  18  19
ENDBRANCH  17  18
ENDBRANCH  16  17
ENDBRANCH  15  16
ENDBRANCH   1  15
TORSDOF 22
ENDMDL
MODEL 8
REMARK VINA RESULT:    15.052      3.042      6.597
REMARK INTER + INTRA:          33.189
REMARK INTER:                  34.449
REMARK INTRA:                  -1.261
REMARK UNBOUND:                -1.223
REMARK SMILES CCCCCCCCCCCCCCCCCCCCCCCC(=O)[O-]
REMARK SMILES IDX 13 1 14 2 15 3 16 4 17 5 18 6 19 7 20 8 21 9 22 10 23 11
REMARK SMILES IDX 24 12 25 13 26 14 12 15 11 16 10 17 9 18 8 19 7 20 6 21 5 22
REMARK SMILES IDX 4 23 3 24 2 25 1 26
REMARK H PARENT
REMARK Flexibility Score: inf
ROOT
ATOM      1  C   UNL     1      32.485   5.015  41.121  1.00  0.00     0.000 C 
ENDROOT
BRANCH   1   2
ATOM      2  C   UNL     1      31.274   5.892  41.502  1.00  0.00     0.000 C 
BRANCH   2   3
ATOM      3  C   UNL     1      30.143   5.143  42.236  1.00  0.00     0.000 C 
BRANCH   3   4
ATOM      4  C   UNL     1      28.723   5.560  41.807  1.00  0.00     0.000 C 
BRANCH   4   5
ATOM      5  C   UNL     1      28.690   6.220  40.417  1.00  0.00     0.000 C 
BRANCH   5   6
ATOM      6  C   UNL     1      28.861   5.194  39.280  1.00  0.00     0.000 C 
BRANCH   6   7
ATOM      7  C   UNL     1      27.538   4.734  38.632  1.00  0.00     0.000 C 
BRANCH   7   8
ATOM      8  C   UNL     1      27.648   4.310  37.153  1.00  0.00     0.000 C 
BRANCH   8   9
ATOM      9  C   UNL     1      27.363   5.461  36.172  1.00  0.00     0.000 C 
BRANCH   9  10
ATOM     10  C   UNL     1      27.266   6.826  36.873  1.00  0.00     0.006 C 
BRANCH  10  11
ATOM     11  C   UNL     1      28.275   7.842  36.318  1.00  0.00     0.053 C 
BRANCH  11  12
ATOM     12  C   UNL     1      28.477   8.965  37.287  1.00  0.00     0.041 C 
ATOM     13  O   UNL     1      29.214   8.806  38.295  1.00  0.00    -0.550 OA
ATOM     14  O   UNL     1      27.819  10.174  37.096  1.00  0.00    -0.550 OA
ENDBRANCH  11  12
ENDBRANCH  10  11
ENDBRANCH   9  10
ENDBRANCH   8   9
ENDBRANCH   7   8
ENDBRANCH   6   7
ENDBRANCH   5   6
ENDBRANCH   4   5
ENDBRANCH   3   4
ENDBRANCH   2   3
ENDBRANCH   1   2
BRANCH   1  15
ATOM     15  C   UNL     1      33.811   5.793  41.093  1.00  0.00     0.000 C 
BRANCH  15  16
ATOM     16  C   UNL     1      33.815   6.819  39.952  1.00  0.00     0.000 C 
BRANCH  16  17
ATOM     17  C   UNL     1      34.194   8.220  40.460  1.00  0.00     0.000 C 
BRANCH  17  18
ATOM     18  C   UNL     1      33.498   9.344  39.674  1.00  0.00    -0.000 C 
BRANCH  18  19
ATOM     19  C   UNL     1      32.786  10.356  40.588  1.00  0.00    -0.000 C 
BRANCH  19  20
ATOM     20  C   UNL     1      33.213  11.807  40.312  1.00  0.00    -0.000 C 
BRANCH  20  21
ATOM     21  C   UNL     1      34.689  12.066  40.654  1.00  0.00    -0.000 C 
BRANCH  21  22
ATOM     22  C   UNL     1      34.891  13.349  41.480  1.00  0.00    -0.000 C 
BRANCH  22  23
ATOM     23  C   UNL     1      35.954  13.251  42.593  1.00  0.00    -0.000 C 
BRANCH  23  24
ATOM     24  C   UNL     1      36.031  14.470  43.536  1.00  0.00    -0.000 C 
BRANCH  24  25
ATOM     25  C   UNL     1      34.826  15.424  43.460  1.00  0.00    -0.003 C 
ATOM     26  C   UNL     1      35.198  16.880  43.751  1.00  0.00     0.004 C 
ENDBRANCH  24  25
ENDBRANCH  23  24
ENDBRANCH  22  23
ENDBRANCH  21  22
ENDBRANCH  20  21
ENDBRANCH  19  20
ENDBRANCH  18  19
ENDBRANCH  17  18
ENDBRANCH  16  17
ENDBRANCH  15  16
ENDBRANCH   1  15
TORSDOF 22
ENDMDL
MODEL 9
REMARK VINA RESULT:    15.073      4.095      9.807
REMARK INTER + INTRA:          33.235
REMARK INTER:                  33.947
REMARK INTRA:                  -0.712
REMARK UNBOUND:                -1.223
REMARK SMILES CCCCCCCCCCCCCCCCCCCCCCCC(=O)[O-]
REMARK SMILES IDX 13 1 14 2 15 3 16 4 17 5 18 6 19 7 20 8 21 9 22 10 23 11
REMARK SMILES IDX 24 12 25 13 26 14 12 15 11 16 10 17 9 18 8 19 7 20 6 21 5 22
REMARK SMILES IDX 4 23 3 24 2 25 1 26
REMARK H PARENT
REMARK Flexibility Score: inf
ROOT
ATOM      1  C   UNL     1      34.161   6.643  40.775  1.00  0.00     0.000 C 
ENDROOT
BRANCH   1   2
ATOM      2  C   UNL     1      34.218   7.640  39.600  1.00  0.00     0.000 C 
BRANCH   2   3
ATOM      3  C   UNL     1      34.085   9.122  40.007  1.00  0.00     0.000 C 
BRANCH   3   4
ATOM      4  C   UNL     1      32.639   9.656  40.000  1.00  0.00     0.000 C 
BRANCH   4   5
ATOM      5  C   UNL     1      32.572  11.193  40.031  1.00  0.00     0.000 C 
BRANCH   5   6
ATOM      6  C   UNL     1      33.504  11.797  41.098  1.00  0.00     0.000 C 
BRANCH   6   7
ATOM      7  C   UNL     1      34.475  12.871  40.563  1.00  0.00     0.000 C 
BRANCH   7   8
ATOM      8  C   UNL     1      35.868  12.879  41.223  1.00  0.00     0.000 C 
BRANCH   8   9
ATOM      9  C   UNL     1      35.830  13.284  42.707  1.00  0.00     0.000 C 
BRANCH   9  10
ATOM     10  C   UNL     1      37.080  14.067  43.140  1.00  0.00     0.006 C 
BRANCH  10  11
ATOM     11  C   UNL     1      36.752  15.197  44.127  1.00  0.00     0.053 C 
BRANCH  11  12
ATOM     12  C   UNL     1      35.494  15.899  43.722  1.00  0.00     0.041 C 
ATOM     13  O   UNL     1      35.447  17.158  43.709  1.00  0.00    -0.550 OA
ATOM     14  O   UNL     1      34.361  15.163  43.396  1.00  0.00    -0.550 OA
ENDBRANCH  11  12
ENDBRANCH  10  11
ENDBRANCH   9  10
ENDBRANCH   8   9
ENDBRANCH   7   8
ENDBRANCH   6   7
ENDBRANCH   5   6
ENDBRANCH   4   5
ENDBRANCH   3   4
ENDBRANCH   2   3
ENDBRANCH   1   2
BRANCH   1  15
ATOM     15  C   UNL     1      33.133   5.518  40.566  1.00  0.00     0.000 C 
BRANCH  15  16
ATOM     16  C   UNL     1      32.135   5.471  41.731  1.00  0.00     0.000 C 
BRANCH  16  17
ATOM     17  C   UNL     1      30.755   4.975  41.267  1.00  0.00     0.000 C 
BRANCH  17  18
ATOM     18  C   UNL     1      29.615   5.459  42.178  1.00  0.00    -0.000 C 
BRANCH  18  19
ATOM     19  C   UNL     1      28.830   6.637  41.575  1.00  0.00    -0.000 C 
BRANCH  19  20
ATOM     20  C   UNL     1      29.715   7.570  40.732  1.00  0.00    -0.000 C 
BRANCH  20  21
ATOM     21  C   UNL     1      28.897   8.495  39.816  1.00  0.00    -0.000 C 
BRANCH  21  22
ATOM     22  C   UNL     1      29.292   8.363  38.334  1.00  0.00    -0.000 C 
BRANCH  22  23
ATOM     23  C   UNL     1      28.113   8.192  37.355  1.00  0.00    -0.000 C 
BRANCH  23  24
ATOM     24  C   UNL     1      28.089   6.855  36.585  1.00  0.00    -0.000 C 
BRANCH  24  25
ATOM     25  C   UNL     1      27.926   5.604  37.466  1.00  0.00    -0.003 C 
ATOM     26  C   UNL     1      27.519   4.362  36.670  1.00  0.00     0.004 C 
ENDBRANCH  24  25
ENDBRANCH  23  24
ENDBRANCH  22  23
ENDBRANCH  21  22
ENDBRANCH  20  21
ENDBRANCH  19  20
ENDBRANCH  18  19
ENDBRANCH  17  18
ENDBRANCH  16  17
ENDBRANCH  15  16
ENDBRANCH   1  15
TORSDOF 22
ENDMDL
