MODEL 1
REMARK VINA RESULT:    -5.320      0.000      0.000
REMARK INTER + INTRA:         -10.161
REMARK INTER:                  -9.673
REMARK INTRA:                  -0.488
REMARK UNBOUND:                -0.488
REMARK SMILES CCCCCCCCCCCCCC[C@H](C)C(=O)[O-]
REMARK SMILES IDX 9 1 10 2 11 3 12 4 13 5 14 6 15 7 16 8 17 9 18 10 19 11 8 12
REMARK SMILES IDX 7 13 6 14 5 15 4 16 3 17 2 18 1 19
REMARK H PARENT
REMARK Flexibility Score: inf
ROOT
ATOM      1  C   UNL     1      -6.834 -10.469  -5.150  1.00  0.00     0.000 C 
ENDROOT
BRANCH   1   2
ATOM      2  C   UNL     1      -5.923 -10.131  -6.347  1.00  0.00     0.000 C 
BRANCH   2   3
ATOM      3  C   UNL     1      -4.836 -11.190  -6.593  1.00  0.00     0.000 C 
BRANCH   3   4
ATOM      4  C   UNL     1      -3.559 -10.929  -5.777  1.00  0.00     0.000 C 
BRANCH   4   5
ATOM      5  C   UNL     1      -2.790 -12.220  -5.445  1.00  0.00     0.001 C 
BRANCH   5   6
ATOM      6  C   UNL     1      -2.192 -12.194  -4.019  1.00  0.00     0.009 C 
BRANCH   6   7
ATOM      7  C   UNL     1      -1.377 -13.449  -3.627  1.00  0.00     0.032 C 
ATOM      8  C   UNL     1      -1.606 -13.878  -2.173  1.00  0.00     0.014 C 
BRANCH   7   9
ATOM      9  C   UNL     1       0.088 -13.275  -3.933  1.00  0.00     0.044 C 
ATOM     10  O   UNL     1       0.468 -13.165  -5.128  1.00  0.00    -0.550 OA
ATOM     11  O   UNL     1       1.027 -13.191  -2.910  1.00  0.00    -0.550 OA
ENDBRANCH   7   9
ENDBRANCH   6   7
ENDBRANCH   5   6
ENDBRANCH   4   5
ENDBRANCH   3   4
ENDBRANCH   2   3
ENDBRANCH   1   2
BRANCH   1  12
ATOM     12  C   UNL     1      -8.299 -10.781  -5.503  1.00  0.00     0.000 C 
BRANCH  12  13
ATOM     13  C   UNL     1      -9.287  -9.747  -4.939  1.00  0.00    -0.000 C 
BRANCH  13  14
ATOM     14  C   UNL     1      -8.789  -8.299  -5.097  1.00  0.00    -0.000 C 
BRANCH  14  15
ATOM     15  C   UNL     1      -9.880  -7.314  -5.568  1.00  0.00    -0.000 C 
BRANCH  15  16
ATOM     16  C   UNL     1      -9.337  -6.286  -6.572  1.00  0.00    -0.000 C 
BRANCH  16  17
ATOM     17  C   UNL     1     -10.413  -5.253  -6.940  1.00  0.00    -0.000 C 
BRANCH  17  18
ATOM     18  C   UNL     1     -10.893  -5.392  -8.393  1.00  0.00    -0.003 C 
ATOM     19  C   UNL     1     -10.871  -4.066  -9.153  1.00  0.00     0.004 C 
ENDBRANCH  17  18
ENDBRANCH  16  17
ENDBRANCH  15  16
ENDBRANCH  14  15
ENDBRANCH  13  14
ENDBRANCH  12  13
ENDBRANCH   1  12
TORSDOF 14
ENDMDL
MODEL 2
REMARK VINA RESULT:    -5.305      4.015      6.154
REMARK INTER + INTRA:         -10.134
REMARK INTER:                  -8.461
REMARK INTRA:                  -1.673
REMARK UNBOUND:                -0.488
REMARK SMILES CCCCCCCCCCCCCC[C@H](C)C(=O)[O-]
REMARK SMILES IDX 9 1 10 2 11 3 12 4 13 5 14 6 15 7 16 8 17 9 18 10 19 11 8 12
REMARK SMILES IDX 7 13 6 14 5 15 4 16 3 17 2 18 1 19
REMARK H PARENT
REMARK Flexibility Score: inf
ROOT
ATOM      1  C   UNL     1     -10.272  -7.197  -5.776  1.00  0.00     0.000 C 
ENDROOT
BRANCH   1   2
ATOM      2  C   UNL     1     -11.184  -8.169  -6.547  1.00  0.00     0.000 C 
BRANCH   2   3
ATOM      3  C   UNL     1     -11.659  -9.355  -5.691  1.00  0.00     0.000 C 
BRANCH   3   4
ATOM      4  C   UNL     1     -11.097 -10.700  -6.177  1.00  0.00     0.000 C 
BRANCH   4   5
ATOM      5  C   UNL     1     -10.043 -11.286  -5.221  1.00  0.00     0.001 C 
BRANCH   5   6
ATOM      6  C   UNL     1      -8.743 -11.686  -5.958  1.00  0.00     0.009 C 
BRANCH   6   7
ATOM      7  C   UNL     1      -7.473 -10.929  -5.506  1.00  0.00     0.032 C 
ATOM      8  C   UNL     1      -7.757  -9.480  -5.093  1.00  0.00     0.014 C 
BRANCH   7   9
ATOM      9  C   UNL     1      -6.382 -11.010  -6.541  1.00  0.00     0.044 C 
ATOM     10  O   UNL     1      -5.243 -10.536  -6.289  1.00  0.00    -0.550 OA
ATOM     11  O   UNL     1      -6.601 -11.641  -7.762  1.00  0.00    -0.550 OA
ENDBRANCH   7   9
ENDBRANCH   6   7
ENDBRANCH   5   6
ENDBRANCH   4   5
ENDBRANCH   3   4
ENDBRANCH   2   3
ENDBRANCH   1   2
BRANCH   1  12
ATOM     12  C   UNL     1      -9.437  -6.241  -6.648  1.00  0.00     0.000 C 
BRANCH  12  13
ATOM     13  C   UNL     1     -10.003  -6.073  -8.068  1.00  0.00    -0.000 C 
BRANCH  13  14
ATOM     14  C   UNL     1     -11.239  -5.156  -8.112  1.00  0.00    -0.000 C 
BRANCH  14  15
ATOM     15  C   UNL     1     -10.996  -3.756  -7.507  1.00  0.00    -0.000 C 
BRANCH  15  16
ATOM     16  C   UNL     1     -11.720  -3.572  -6.165  1.00  0.00    -0.000 C 
BRANCH  16  17
ATOM     17  C   UNL     1     -12.783  -4.662  -5.958  1.00  0.00    -0.000 C 
BRANCH  17  18
ATOM     18  C   UNL     1     -12.872  -5.130  -4.496  1.00  0.00    -0.003 C 
ATOM     19  C   UNL     1     -13.590  -6.470  -4.347  1.00  0.00     0.004 C 
ENDBRANCH  17  18
ENDBRANCH  16  17
ENDBRANCH  15  16
ENDBRANCH  14  15
ENDBRANCH  13  14
ENDBRANCH  12  13
ENDBRANCH   1  12
TORSDOF 14
ENDMDL
MODEL 3
REMARK VINA RESULT:    -5.250      5.273     10.786
REMARK INTER + INTRA:         -10.035
REMARK INTER:                  -9.506
REMARK INTRA:                  -0.530
REMARK UNBOUND:                -0.488
REMARK SMILES CCCCCCCCCCCCCC[C@H](C)C(=O)[O-]
REMARK SMILES IDX 9 1 10 2 11 3 12 4 13 5 14 6 15 7 16 8 17 9 18 10 19 11 8 12
REMARK SMILES IDX 7 13 6 14 5 15 4 16 3 17 2 18 1 19
REMARK H PARENT
REMARK Flexibility Score: inf
ROOT
ATOM      1  C   UNL     1      -6.596 -10.277  -5.241  1.00  0.00     0.000 C 
ENDROOT
BRANCH   1   2
ATOM      2  C   UNL     1      -8.114 -10.016  -5.265  1.00  0.00     0.000 C 
BRANCH   2   3
ATOM      3  C   UNL     1      -8.492  -8.617  -4.750  1.00  0.00     0.000 C 
BRANCH   3   4
ATOM      4  C   UNL     1      -9.746  -8.051  -5.435  1.00  0.00     0.000 C 
BRANCH   4   5
ATOM      5  C   UNL     1      -9.852  -6.521  -5.315  1.00  0.00     0.001 C 
BRANCH   5   6
ATOM      6  C   UNL     1      -9.629  -5.811  -6.671  1.00  0.00     0.009 C 
BRANCH   6   7
ATOM      7  C   UNL     1     -10.920  -5.409  -7.421  1.00  0.00     0.032 C 
ATOM      8  C   UNL     1     -10.643  -4.760  -8.782  1.00  0.00     0.014 C 
BRANCH   7   9
ATOM      9  C   UNL     1     -11.813  -4.549  -6.564  1.00  0.00     0.044 C 
ATOM     10  O   UNL     1     -12.887  -5.021  -6.108  1.00  0.00    -0.550 OA
ATOM     11  O   UNL     1     -11.446  -3.249  -6.231  1.00  0.00    -0.550 OA
ENDBRANCH   7   9
ENDBRANCH   6   7
ENDBRANCH   5   6
ENDBRANCH   4   5
ENDBRANCH   3   4
ENDBRANCH   2   3
ENDBRANCH   1   2
BRANCH   1  12
ATOM     12  C   UNL     1      -5.927 -10.414  -6.621  1.00  0.00     0.000 C 
BRANCH  12  13
ATOM     13  C   UNL     1      -4.792 -11.451  -6.639  1.00  0.00    -0.000 C 
BRANCH  13  14
ATOM     14  C   UNL     1      -3.582 -11.025  -5.787  1.00  0.00    -0.000 C 
BRANCH  14  15
ATOM     15  C   UNL     1      -2.840 -12.207  -5.127  1.00  0.00    -0.000 C 
BRANCH  15  16
ATOM     16  C   UNL     1      -1.318 -11.999  -5.113  1.00  0.00    -0.000 C 
BRANCH  16  17
ATOM     17  C   UNL     1      -0.579 -13.344  -5.045  1.00  0.00    -0.000 C 
BRANCH  17  18
ATOM     18  C   UNL     1      -0.178 -13.868  -6.433  1.00  0.00    -0.003 C 
ATOM     19  C   UNL     1       1.198 -13.371  -6.878  1.00  0.00     0.004 C 
ENDBRANCH  17  18
ENDBRANCH  16  17
ENDBRANCH  15  16
ENDBRANCH  14  15
ENDBRANCH  13  14
ENDBRANCH  12  13
ENDBRANCH   1  12
TORSDOF 14
ENDMDL
MODEL 4
REMARK VINA RESULT:    -5.233      1.374      2.782
REMARK INTER + INTRA:         -10.003
REMARK INTER:                  -9.100
REMARK INTRA:                  -0.904
REMARK UNBOUND:                -0.488
REMARK SMILES CCCCCCCCCCCCCC[C@H](C)C(=O)[O-]
REMARK SMILES IDX 9 1 10 2 11 3 12 4 13 5 14 6 15 7 16 8 17 9 18 10 19 11 8 12
REMARK SMILES IDX 7 13 6 14 5 15 4 16 3 17 2 18 1 19
REMARK H PARENT
REMARK Flexibility Score: inf
ROOT
ATOM      1  C   UNL     1      -8.542  -8.575  -4.726  1.00  0.00     0.000 C 
ENDROOT
BRANCH   1   2
ATOM      2  C   UNL     1      -8.220  -9.993  -5.235  1.00  0.00     0.000 C 
BRANCH   2   3
ATOM      3  C   UNL     1      -6.728 -10.349  -5.117  1.00  0.00     0.000 C 
BRANCH   3   4
ATOM      4  C   UNL     1      -5.992 -10.270  -6.464  1.00  0.00     0.000 C 
BRANCH   4   5
ATOM      5  C   UNL     1      -4.926 -11.369  -6.627  1.00  0.00     0.001 C 
BRANCH   5   6
ATOM      6  C   UNL     1      -3.684 -11.114  -5.742  1.00  0.00     0.009 C 
BRANCH   6   7
ATOM      7  C   UNL     1      -2.591 -12.206  -5.816  1.00  0.00     0.032 C 
ATOM      8  C   UNL     1      -3.155 -13.595  -6.137  1.00  0.00     0.014 C 
BRANCH   7   9
ATOM      9  C   UNL     1      -1.742 -12.223  -4.572  1.00  0.00     0.044 C 
ATOM     10  O   UNL     1      -2.263 -12.511  -3.462  1.00  0.00    -0.550 OA
ATOM     11  O   UNL     1      -0.375 -11.968  -4.636  1.00  0.00    -0.550 OA
ENDBRANCH   7   9
ENDBRANCH   6   7
ENDBRANCH   5   6
ENDBRANCH   4   5
ENDBRANCH   3   4
ENDBRANCH   2   3
ENDBRANCH   1   2
BRANCH   1  12
ATOM     12  C   UNL     1      -9.098  -7.604  -5.784  1.00  0.00     0.000 C 
BRANCH  12  13
ATOM     13  C   UNL     1     -10.554  -7.189  -5.514  1.00  0.00    -0.000 C 
BRANCH  13  14
ATOM     14  C   UNL     1     -10.700  -5.687  -5.212  1.00  0.00    -0.000 C 
BRANCH  14  15
ATOM     15  C   UNL     1     -12.153  -5.173  -5.300  1.00  0.00    -0.000 C 
BRANCH  15  16
ATOM     16  C   UNL     1     -12.436  -4.463  -6.632  1.00  0.00    -0.000 C 
BRANCH  16  17
ATOM     17  C   UNL     1     -11.182  -3.743  -7.151  1.00  0.00    -0.000 C 
BRANCH  17  18
ATOM     18  C   UNL     1     -10.905  -4.036  -8.634  1.00  0.00    -0.003 C 
ATOM     19  C   UNL     1     -10.714  -5.525  -8.917  1.00  0.00     0.004 C 
ENDBRANCH  17  18
ENDBRANCH  16  17
ENDBRANCH  15  16
ENDBRANCH  14  15
ENDBRANCH  13  14
ENDBRANCH  12  13
ENDBRANCH   1  12
TORSDOF 14
ENDMDL
MODEL 5
REMARK VINA RESULT:    -5.222      5.203     10.796
REMARK INTER + INTRA:          -9.983
REMARK INTER:                  -9.558
REMARK INTRA:                  -0.425
REMARK UNBOUND:                -0.488
REMARK SMILES CCCCCCCCCCCCCC[C@H](C)C(=O)[O-]
REMARK SMILES IDX 9 1 10 2 11 3 12 4 13 5 14 6 15 7 16 8 17 9 18 10 19 11 8 12
REMARK SMILES IDX 7 13 6 14 5 15 4 16 3 17 2 18 1 19
REMARK H PARENT
REMARK Flexibility Score: inf
ROOT
ATOM      1  C   UNL     1      -7.129  -9.974  -5.048  1.00  0.00     0.000 C 
ENDROOT
BRANCH   1   2
ATOM      2  C   UNL     1      -8.593  -9.504  -5.145  1.00  0.00     0.000 C 
BRANCH   2   3
ATOM      3  C   UNL     1      -8.765  -8.006  -4.840  1.00  0.00     0.000 C 
BRANCH   3   4
ATOM      4  C   UNL     1      -9.991  -7.396  -5.537  1.00  0.00     0.000 C 
BRANCH   4   5
ATOM      5  C   UNL     1      -9.650  -6.132  -6.347  1.00  0.00     0.001 C 
BRANCH   5   6
ATOM      6  C   UNL     1     -10.348  -6.115  -7.726  1.00  0.00     0.009 C 
BRANCH   6   7
ATOM      7  C   UNL     1     -11.369  -4.972  -7.930  1.00  0.00     0.032 C 
ATOM      8  C   UNL     1     -10.805  -3.807  -8.753  1.00  0.00     0.014 C 
BRANCH   7   9
ATOM      9  C   UNL     1     -11.943  -4.502  -6.619  1.00  0.00     0.044 C 
ATOM     10  O   UNL     1     -12.776  -5.220  -6.006  1.00  0.00    -0.550 OA
ATOM     11  O   UNL     1     -11.532  -3.301  -6.049  1.00  0.00    -0.550 OA
ENDBRANCH   7   9
ENDBRANCH   6   7
ENDBRANCH   5   6
ENDBRANCH   4   5
ENDBRANCH   3   4
ENDBRANCH   2   3
ENDBRANCH   1   2
BRANCH   1  12
ATOM     12  C   UNL     1      -6.614 -10.782  -6.253  1.00  0.00     0.000 C 
BRANCH  12  13
ATOM     13  C   UNL     1      -5.145 -10.481  -6.596  1.00  0.00    -0.000 C 
BRANCH  13  14
ATOM     14  C   UNL     1      -4.202 -11.649  -6.257  1.00  0.00    -0.000 C 
BRANCH  14  15
ATOM     15  C   UNL     1      -2.918 -11.216  -5.517  1.00  0.00    -0.000 C 
BRANCH  15  16
ATOM     16  C   UNL     1      -2.194 -12.405  -4.869  1.00  0.00    -0.000 C 
BRANCH  16  17
ATOM     17  C   UNL     1      -2.496 -12.481  -3.365  1.00  0.00    -0.000 C 
BRANCH  17  18
ATOM     18  C   UNL     1      -1.768 -13.645  -2.674  1.00  0.00    -0.003 C 
ATOM     19  C   UNL     1      -0.248 -13.559  -2.814  1.00  0.00     0.004 C 
ENDBRANCH  17  18
ENDBRANCH  16  17
ENDBRANCH  15  16
ENDBRANCH  14  15
ENDBRANCH  13  14
ENDBRANCH  12  13
ENDBRANCH   1  12
TORSDOF 14
ENDMDL
MODEL 6
REMARK VINA RESULT:    -5.144      5.784     10.157
REMARK INTER + INTRA:          -9.842
REMARK INTER:                  -8.704
REMARK INTRA:                  -1.138
REMARK UNBOUND:                -0.488
REMARK SMILES CCCCCCCCCCCCCC[C@H](C)C(=O)[O-]
REMARK SMILES IDX 9 1 10 2 11 3 12 4 13 5 14 6 15 7 16 8 17 9 18 10 19 11 8 12
REMARK SMILES IDX 7 13 6 14 5 15 4 16 3 17 2 18 1 19
REMARK H PARENT
REMARK Flexibility Score: inf
ROOT
ATOM      1  C   UNL     1      -9.267  -6.709  -6.672  1.00  0.00     0.000 C 
ENDROOT
BRANCH   1   2
ATOM      2  C   UNL     1     -10.425  -6.453  -7.656  1.00  0.00     0.000 C 
BRANCH   2   3
ATOM      3  C   UNL     1     -10.180  -5.241  -8.570  1.00  0.00     0.000 C 
BRANCH   3   4
ATOM      4  C   UNL     1     -11.306  -4.199  -8.487  1.00  0.00     0.000 C 
BRANCH   4   5
ATOM      5  C   UNL     1     -11.554  -3.702  -7.051  1.00  0.00     0.001 C 
BRANCH   5   6
ATOM      6  C   UNL     1     -12.710  -4.462  -6.361  1.00  0.00     0.009 C 
BRANCH   6   7
ATOM      7  C   UNL     1     -12.542  -4.667  -4.838  1.00  0.00     0.032 C 
ATOM      8  C   UNL     1     -11.084  -4.558  -4.377  1.00  0.00     0.014 C 
BRANCH   7   9
ATOM      9  C   UNL     1     -13.177  -5.955  -4.379  1.00  0.00     0.044 C 
ATOM     10  O   UNL     1     -13.822  -5.985  -3.298  1.00  0.00    -0.550 OA
ATOM     11  O   UNL     1     -13.099  -7.106  -5.156  1.00  0.00    -0.550 OA
ENDBRANCH   7   9
ENDBRANCH   6   7
ENDBRANCH   5   6
ENDBRANCH   4   5
ENDBRANCH   3   4
ENDBRANCH   2   3
ENDBRANCH   1   2
BRANCH   1  12
ATOM     12  C   UNL     1      -9.652  -7.447  -5.376  1.00  0.00     0.000 C 
BRANCH  12  13
ATOM     13  C   UNL     1      -8.595  -8.470  -4.929  1.00  0.00    -0.000 C 
BRANCH  13  14
ATOM     14  C   UNL     1      -9.057  -9.926  -5.120  1.00  0.00    -0.000 C 
BRANCH  14  15
ATOM     15  C   UNL     1      -7.896 -10.937  -5.230  1.00  0.00    -0.000 C 
BRANCH  15  16
ATOM     16  C   UNL     1      -6.534 -10.241  -5.370  1.00  0.00    -0.000 C 
BRANCH  16  17
ATOM     17  C   UNL     1      -5.759 -10.782  -6.581  1.00  0.00    -0.000 C 
BRANCH  17  18
ATOM     18  C   UNL     1      -6.563 -11.820  -7.380  1.00  0.00    -0.003 C 
ATOM     19  C   UNL     1      -5.673 -12.852  -8.073  1.00  0.00     0.004 C 
ENDBRANCH  17  18
ENDBRANCH  16  17
ENDBRANCH  15  16
ENDBRANCH  14  15
ENDBRANCH  13  14
ENDBRANCH  12  13
ENDBRANCH   1  12
TORSDOF 14
ENDMDL
MODEL 7
REMARK VINA RESULT:    -5.138      4.109      6.014
REMARK INTER + INTRA:          -9.830
REMARK INTER:                  -8.290
REMARK INTRA:                  -1.540
REMARK UNBOUND:                -0.488
REMARK SMILES CCCCCCCCCCCCCC[C@H](C)C(=O)[O-]
REMARK SMILES IDX 9 1 10 2 11 3 12 4 13 5 14 6 15 7 16 8 17 9 18 10 19 11 8 12
REMARK SMILES IDX 7 13 6 14 5 15 4 16 3 17 2 18 1 19
REMARK H PARENT
REMARK Flexibility Score: inf
ROOT
ATOM      1  C   UNL     1     -11.483  -8.217  -6.285  1.00  0.00     0.000 C 
ENDROOT
BRANCH   1   2
ATOM      2  C   UNL     1     -12.161  -9.363  -5.510  1.00  0.00     0.000 C 
BRANCH   2   3
ATOM      3  C   UNL     1     -11.669 -10.755  -5.943  1.00  0.00     0.000 C 
BRANCH   3   4
ATOM      4  C   UNL     1     -11.225 -11.622  -4.754  1.00  0.00     0.000 C 
BRANCH   4   5
ATOM      5  C   UNL     1      -9.875 -12.320  -4.998  1.00  0.00     0.001 C 
BRANCH   5   6
ATOM      6  C   UNL     1      -8.993 -11.551  -6.009  1.00  0.00     0.009 C 
BRANCH   6   7
ATOM      7  C   UNL     1      -7.793 -10.795  -5.391  1.00  0.00     0.032 C 
ATOM      8  C   UNL     1      -8.130  -9.348  -5.012  1.00  0.00     0.014 C 
BRANCH   7   9
ATOM      9  C   UNL     1      -6.577 -10.871  -6.276  1.00  0.00     0.044 C 
ATOM     10  O   UNL     1      -5.467 -10.452  -5.853  1.00  0.00    -0.550 OA
ATOM     11  O   UNL     1      -6.649 -11.438  -7.545  1.00  0.00    -0.550 OA
ENDBRANCH   7   9
ENDBRANCH   6   7
ENDBRANCH   5   6
ENDBRANCH   4   5
ENDBRANCH   3   4
ENDBRANCH   2   3
ENDBRANCH   1   2
BRANCH   1  12
ATOM     12  C   UNL     1     -11.235  -6.930  -5.477  1.00  0.00     0.000 C 
BRANCH  12  13
ATOM     13  C   UNL     1     -12.531  -6.185  -5.118  1.00  0.00    -0.000 C 
BRANCH  13  14
ATOM     14  C   UNL     1     -12.458  -4.678  -5.425  1.00  0.00    -0.000 C 
BRANCH  14  15
ATOM     15  C   UNL     1     -12.430  -4.352  -6.934  1.00  0.00    -0.000 C 
BRANCH  15  16
ATOM     16  C   UNL     1     -11.073  -3.787  -7.379  1.00  0.00    -0.000 C 
BRANCH  16  17
ATOM     17  C   UNL     1     -10.293  -4.816  -8.211  1.00  0.00    -0.000 C 
BRANCH  17  18
ATOM     18  C   UNL     1     -11.119  -5.381  -9.378  1.00  0.00    -0.003 C 
ATOM     19  C   UNL     1     -11.076  -4.490 -10.619  1.00  0.00     0.004 C 
ENDBRANCH  17  18
ENDBRANCH  16  17
ENDBRANCH  15  16
ENDBRANCH  14  15
ENDBRANCH  13  14
ENDBRANCH  12  13
ENDBRANCH   1  12
TORSDOF 14
ENDMDL
MODEL 8
REMARK VINA RESULT:    -5.099      5.498      6.852
REMARK INTER + INTRA:          -9.761
REMARK INTER:                  -8.470
REMARK INTRA:                  -1.291
REMARK UNBOUND:                -0.488
REMARK SMILES CCCCCCCCCCCCCC[C@H](C)C(=O)[O-]
REMARK SMILES IDX 9 1 10 2 11 3 12 4 13 5 14 6 15 7 16 8 17 9 18 10 19 11 8 12
REMARK SMILES IDX 7 13 6 14 5 15 4 16 3 17 2 18 1 19
REMARK H PARENT
REMARK Flexibility Score: inf
ROOT
ATOM      1  C   UNL     1     -10.136  -6.683  -5.190  1.00  0.00     0.000 C 
ENDROOT
BRANCH   1   2
ATOM      2  C   UNL     1      -9.025  -7.573  -5.780  1.00  0.00     0.000 C 
BRANCH   2   3
ATOM      3  C   UNL     1      -8.512  -8.631  -4.788  1.00  0.00     0.000 C 
BRANCH   3   4
ATOM      4  C   UNL     1      -7.535  -9.625  -5.436  1.00  0.00     0.000 C 
BRANCH   4   5
ATOM      5  C   UNL     1      -7.888 -11.092  -5.130  1.00  0.00     0.001 C 
BRANCH   5   6
ATOM      6  C   UNL     1      -8.479 -11.819  -6.361  1.00  0.00     0.009 C 
BRANCH   6   7
ATOM      7  C   UNL     1      -9.861 -12.475  -6.134  1.00  0.00     0.032 C 
ATOM      8  C   UNL     1     -10.454 -13.076  -7.414  1.00  0.00     0.014 C 
BRANCH   7   9
ATOM      9  C   UNL     1     -10.821 -11.525  -5.467  1.00  0.00     0.044 C 
ATOM     10  O   UNL     1     -11.215 -11.754  -4.293  1.00  0.00    -0.550 OA
ATOM     11  O   UNL     1     -11.250 -10.370  -6.114  1.00  0.00    -0.550 OA
ENDBRANCH   7   9
ENDBRANCH   6   7
ENDBRANCH   5   6
ENDBRANCH   4   5
ENDBRANCH   3   4
ENDBRANCH   2   3
ENDBRANCH   1   2
BRANCH   1  12
ATOM     12  C   UNL     1     -11.548  -6.927  -5.755  1.00  0.00     0.000 C 
BRANCH  12  13
ATOM     13  C   UNL     1     -12.570  -5.875  -5.294  1.00  0.00    -0.000 C 
BRANCH  13  14
ATOM     14  C   UNL     1     -12.115  -4.434  -5.584  1.00  0.00    -0.000 C 
BRANCH  14  15
ATOM     15  C   UNL     1     -12.154  -4.058  -7.081  1.00  0.00    -0.000 C 
BRANCH  15  16
ATOM     16  C   UNL     1     -10.749  -3.981  -7.695  1.00  0.00    -0.000 C 
BRANCH  16  17
ATOM     17  C   UNL     1     -10.596  -4.981  -8.850  1.00  0.00    -0.000 C 
BRANCH  17  18
ATOM     18  C   UNL     1     -11.100  -4.418 -10.189  1.00  0.00    -0.003 C 
ATOM     19  C   UNL     1     -11.630  -5.504 -11.125  1.00  0.00     0.004 C 
ENDBRANCH  17  18
ENDBRANCH  16  17
ENDBRANCH  15  16
ENDBRANCH  14  15
ENDBRANCH  13  14
ENDBRANCH  12  13
ENDBRANCH   1  12
TORSDOF 14
ENDMDL
MODEL 9
REMARK VINA RESULT:    -5.093      4.909     10.456
REMARK INTER + INTRA:          -9.750
REMARK INTER:                  -9.062
REMARK INTRA:                  -0.688
REMARK UNBOUND:                -0.488
REMARK SMILES CCCCCCCCCCCCCC[C@H](C)C(=O)[O-]
REMARK SMILES IDX 9 1 10 2 11 3 12 4 13 5 14 6 15 7 16 8 17 9 18 10 19 11 8 12
REMARK SMILES IDX 7 13 6 14 5 15 4 16 3 17 2 18 1 19
REMARK H PARENT
REMARK Flexibility Score: inf
ROOT
ATOM      1  C   UNL     1      -6.943 -10.186  -5.114  1.00  0.00     0.000 C 
ENDROOT
BRANCH   1   2
ATOM      2  C   UNL     1      -8.424 -10.181  -5.539  1.00  0.00     0.000 C 
BRANCH   2   3
ATOM      3  C   UNL     1      -9.275  -9.177  -4.743  1.00  0.00     0.000 C 
BRANCH   3   4
ATOM      4  C   UNL     1      -8.992  -7.718  -5.135  1.00  0.00     0.000 C 
BRANCH   4   5
ATOM      5  C   UNL     1     -10.215  -7.021  -5.758  1.00  0.00     0.001 C 
BRANCH   5   6
ATOM      6  C   UNL     1      -9.854  -6.254  -7.052  1.00  0.00     0.009 C 
BRANCH   6   7
ATOM      7  C   UNL     1     -10.564  -4.892  -7.227  1.00  0.00     0.032 C 
ATOM      8  C   UNL     1     -11.834  -4.767  -6.376  1.00  0.00     0.014 C 
BRANCH   7   9
ATOM      9  C   UNL     1     -10.833  -4.591  -8.678  1.00  0.00     0.044 C 
ATOM     10  O   UNL     1     -11.079  -3.409  -9.037  1.00  0.00    -0.550 OA
ATOM     11  O   UNL     1     -10.772  -5.594  -9.640  1.00  0.00    -0.550 OA
ENDBRANCH   7   9
ENDBRANCH   6   7
ENDBRANCH   5   6
ENDBRANCH   4   5
ENDBRANCH   3   4
ENDBRANCH   2   3
ENDBRANCH   1   2
BRANCH   1  12
ATOM     12  C   UNL     1      -5.925 -10.151  -6.268  1.00  0.00     0.000 C 
BRANCH  12  13
ATOM     13  C   UNL     1      -5.676 -11.534  -6.893  1.00  0.00    -0.000 C 
BRANCH  13  14
ATOM     14  C   UNL     1      -4.218 -12.004  -6.739  1.00  0.00    -0.000 C 
BRANCH  14  15
ATOM     15  C   UNL     1      -3.401 -11.176  -5.725  1.00  0.00    -0.000 C 
BRANCH  15  16
ATOM     16  C   UNL     1      -2.267 -11.993  -5.090  1.00  0.00    -0.000 C 
BRANCH  16  17
ATOM     17  C   UNL     1      -2.560 -12.288  -3.611  1.00  0.00    -0.000 C 
BRANCH  17  18
ATOM     18  C   UNL     1      -2.215 -13.733  -3.217  1.00  0.00    -0.003 C 
ATOM     19  C   UNL     1      -1.192 -13.808  -2.084  1.00  0.00     0.004 C 
ENDBRANCH  17  18
ENDBRANCH  16  17
ENDBRANCH  15  16
ENDBRANCH  14  15
ENDBRANCH  13  14
ENDBRANCH  12  13
ENDBRANCH   1  12
TORSDOF 14
ENDMDL
