MODEL 1
REMARK VINA RESULT:    -4.202      0.000      0.000
REMARK INTER + INTRA:          -4.468
REMARK INTER:                  -4.448
REMARK INTRA:                  -0.020
REMARK UNBOUND:                -0.020
REMARK SMILES O=C([O-])c1cccnc1
REMARK SMILES IDX 4 1 5 2 9 3 6 4 8 5 7 6 2 7 1 8 3 9
REMARK H PARENT
REMARK Flexibility Score: inf
ROOT
ATOM      1  C   UNL     1      34.661 -30.010  11.348  1.00  0.00     0.016 A 
ATOM      2  C   UNL     1      35.601 -29.638  10.373  1.00  0.00     0.013 A 
ATOM      3  C   UNL     1      34.307 -31.367  11.452  1.00  0.00     0.120 A 
ATOM      4  C   UNL     1      36.160 -30.605   9.534  1.00  0.00     0.021 A 
ATOM      5  N   UNL     1      34.867 -32.287  10.623  1.00  0.00    -0.264 NA
ATOM      6  C   UNL     1      35.777 -31.938   9.676  1.00  0.00     0.111 A 
ENDROOT
BRANCH   1   7
ATOM      7  C   UNL     1      34.062 -28.996  12.242  1.00  0.00     0.073 C 
ATOM      8  O   UNL     1      33.719 -27.870  11.793  1.00  0.00    -0.545 OA
ATOM      9  O   UNL     1      33.869 -29.273  13.591  1.00  0.00    -0.545 OA
ENDBRANCH   1   7
TORSDOF 1
ENDMDL
MODEL 2
REMARK VINA RESULT:    -4.016      2.946      3.688
REMARK INTER + INTRA:          -4.271
REMARK INTER:                  -4.253
REMARK INTRA:                  -0.018
REMARK UNBOUND:                -0.020
REMARK SMILES O=C([O-])c1cccnc1
REMARK SMILES IDX 4 1 5 2 9 3 6 4 8 5 7 6 2 7 1 8 3 9
REMARK H PARENT
REMARK Flexibility Score: inf
ROOT
ATOM      1  C   UNL     1      35.785 -30.279  10.337  1.00  0.00     0.016 A 
ATOM      2  C   UNL     1      36.008 -29.040  10.959  1.00  0.00     0.013 A 
ATOM      3  C   UNL     1      34.499 -30.842  10.412  1.00  0.00     0.120 A 
ATOM      4  C   UNL     1      34.968 -28.396  11.633  1.00  0.00     0.021 A 
ATOM      5  N   UNL     1      33.504 -30.194  11.074  1.00  0.00    -0.264 NA
ATOM      6  C   UNL     1      33.709 -28.996  11.679  1.00  0.00     0.111 A 
ENDROOT
BRANCH   1   7
ATOM      7  C   UNL     1      36.879 -30.971   9.621  1.00  0.00     0.073 C 
ATOM      8  O   UNL     1      36.745 -31.302   8.414  1.00  0.00    -0.545 OA
ATOM      9  O   UNL     1      38.071 -31.265  10.274  1.00  0.00    -0.545 OA
ENDBRANCH   1   7
TORSDOF 1
ENDMDL
MODEL 3
REMARK VINA RESULT:    -3.982      0.931      1.602
REMARK INTER + INTRA:          -4.235
REMARK INTER:                  -4.216
REMARK INTRA:                  -0.020
REMARK UNBOUND:                -0.020
REMARK SMILES O=C([O-])c1cccnc1
REMARK SMILES IDX 4 1 5 2 9 3 6 4 8 5 7 6 2 7 1 8 3 9
REMARK H PARENT
REMARK Flexibility Score: inf
ROOT
ATOM      1  C   UNL     1      34.720 -29.970  11.337  1.00  0.00     0.016 A 
ATOM      2  C   UNL     1      34.337 -31.320  11.387  1.00  0.00     0.013 A 
ATOM      3  C   UNL     1      35.716 -29.592  10.419  1.00  0.00     0.120 A 
ATOM      4  C   UNL     1      34.940 -32.252  10.540  1.00  0.00     0.021 A 
ATOM      5  N   UNL     1      36.288 -30.519   9.607  1.00  0.00    -0.264 NA
ATOM      6  C   UNL     1      35.924 -31.828   9.647  1.00  0.00     0.111 A 
ENDROOT
BRANCH   1   7
ATOM      7  C   UNL     1      34.088 -28.974  12.229  1.00  0.00     0.073 C 
ATOM      8  O   UNL     1      33.716 -27.858  11.780  1.00  0.00    -0.545 OA
ATOM      9  O   UNL     1      33.896 -29.258  13.576  1.00  0.00    -0.545 OA
ENDBRANCH   1   7
TORSDOF 1
ENDMDL
MODEL 4
REMARK VINA RESULT:    -3.823      3.147      3.974
REMARK INTER + INTRA:          -4.067
REMARK INTER:                  -4.048
REMARK INTRA:                  -0.018
REMARK UNBOUND:                -0.020
REMARK SMILES O=C([O-])c1cccnc1
REMARK SMILES IDX 4 1 5 2 9 3 6 4 8 5 7 6 2 7 1 8 3 9
REMARK H PARENT
REMARK Flexibility Score: inf
ROOT
ATOM      1  C   UNL     1      35.865 -30.308  10.325  1.00  0.00     0.016 A 
ATOM      2  C   UNL     1      34.582 -30.869  10.432  1.00  0.00     0.013 A 
ATOM      3  C   UNL     1      36.106 -29.068  10.944  1.00  0.00     0.120 A 
ATOM      4  C   UNL     1      33.580 -30.200  11.140  1.00  0.00     0.021 A 
ATOM      5  N   UNL     1      35.113 -28.438  11.627  1.00  0.00    -0.264 NA
ATOM      6  C   UNL     1      33.869 -28.972  11.737  1.00  0.00     0.111 A 
ENDROOT
BRANCH   1   7
ATOM      7  C   UNL     1      36.933 -31.006   9.578  1.00  0.00     0.073 C 
ATOM      8  O   UNL     1      36.765 -31.329   8.373  1.00  0.00    -0.545 OA
ATOM      9  O   UNL     1      38.138 -31.316  10.199  1.00  0.00    -0.545 OA
ENDBRANCH   1   7
TORSDOF 1
ENDMDL
MODEL 5
REMARK VINA RESULT:    -3.756     18.656     19.798
REMARK INTER + INTRA:          -3.996
REMARK INTER:                  -3.978
REMARK INTRA:                  -0.018
REMARK UNBOUND:                -0.020
REMARK SMILES O=C([O-])c1cccnc1
REMARK SMILES IDX 4 1 5 2 9 3 6 4 8 5 7 6 2 7 1 8 3 9
REMARK H PARENT
REMARK Flexibility Score: inf
ROOT
ATOM      1  C   UNL     1      23.141 -15.322   7.442  1.00  0.00     0.016 A 
ATOM      2  C   UNL     1      23.625 -14.015   7.612  1.00  0.00     0.013 A 
ATOM      3  C   UNL     1      22.038 -15.521   6.592  1.00  0.00     0.120 A 
ATOM      4  C   UNL     1      23.014 -12.949   6.947  1.00  0.00     0.021 A 
ATOM      5  N   UNL     1      21.462 -14.466   5.958  1.00  0.00    -0.264 NA
ATOM      6  C   UNL     1      21.923 -13.197   6.115  1.00  0.00     0.111 A 
ENDROOT
BRANCH   1   7
ATOM      7  C   UNL     1      23.779 -16.459   8.140  1.00  0.00     0.073 C 
ATOM      8  O   UNL     1      24.179 -17.464   7.495  1.00  0.00    -0.545 OA
ATOM      9  O   UNL     1      23.947 -16.432   9.520  1.00  0.00    -0.545 OA
ENDBRANCH   1   7
TORSDOF 1
ENDMDL
MODEL 6
REMARK VINA RESULT:    -3.665      2.936      3.953
REMARK INTER + INTRA:          -3.899
REMARK INTER:                  -3.883
REMARK INTRA:                  -0.017
REMARK UNBOUND:                -0.020
REMARK SMILES O=C([O-])c1cccnc1
REMARK SMILES IDX 4 1 5 2 9 3 6 4 8 5 7 6 2 7 1 8 3 9
REMARK H PARENT
REMARK Flexibility Score: inf
ROOT
ATOM      1  C   UNL     1      35.069 -30.789  10.589  1.00  0.00     0.016 A 
ATOM      2  C   UNL     1      33.868 -30.382  11.193  1.00  0.00     0.013 A 
ATOM      3  C   UNL     1      36.147 -29.887  10.570  1.00  0.00     0.120 A 
ATOM      4  C   UNL     1      33.764 -29.108  11.756  1.00  0.00     0.021 A 
ATOM      5  N   UNL     1      36.018 -28.653  11.125  1.00  0.00    -0.264 NA
ATOM      6  C   UNL     1      34.862 -28.249  11.712  1.00  0.00     0.111 A 
ENDROOT
BRANCH   1   7
ATOM      7  C   UNL     1      35.191 -32.135   9.989  1.00  0.00     0.073 C 
ATOM      8  O   UNL     1      35.902 -33.018  10.538  1.00  0.00    -0.545 OA
ATOM      9  O   UNL     1      34.522 -32.443   8.809  1.00  0.00    -0.545 OA
ENDBRANCH   1   7
TORSDOF 1
ENDMDL
MODEL 7
REMARK VINA RESULT:    -3.624     18.771     19.909
REMARK INTER + INTRA:          -3.857
REMARK INTER:                  -3.838
REMARK INTRA:                  -0.019
REMARK UNBOUND:                -0.020
REMARK SMILES O=C([O-])c1cccnc1
REMARK SMILES IDX 4 1 5 2 9 3 6 4 8 5 7 6 2 7 1 8 3 9
REMARK H PARENT
REMARK Flexibility Score: inf
ROOT
ATOM      1  C   UNL     1      23.004 -15.388   7.234  1.00  0.00     0.016 A 
ATOM      2  C   UNL     1      21.887 -15.675   6.433  1.00  0.00     0.013 A 
ATOM      3  C   UNL     1      23.437 -14.053   7.324  1.00  0.00     0.120 A 
ATOM      4  C   UNL     1      21.233 -14.648   5.748  1.00  0.00     0.021 A 
ATOM      5  N   UNL     1      22.783 -13.073   6.646  1.00  0.00    -0.264 NA
ATOM      6  C   UNL     1      21.701 -13.339   5.869  1.00  0.00     0.111 A 
ENDROOT
BRANCH   1   7
ATOM      7  C   UNL     1      23.704 -16.467   7.964  1.00  0.00     0.073 C 
ATOM      8  O   UNL     1      24.110 -17.492   7.357  1.00  0.00    -0.545 OA
ATOM      9  O   UNL     1      23.924 -16.362   9.333  1.00  0.00    -0.545 OA
ENDBRANCH   1   7
TORSDOF 1
ENDMDL
MODEL 8
REMARK VINA RESULT:    -3.534      1.943      2.671
REMARK INTER + INTRA:          -3.761
REMARK INTER:                  -3.737
REMARK INTRA:                  -0.024
REMARK UNBOUND:                -0.020
REMARK SMILES O=C([O-])c1cccnc1
REMARK SMILES IDX 4 1 5 2 9 3 6 4 8 5 7 6 2 7 1 8 3 9
REMARK H PARENT
REMARK Flexibility Score: inf
ROOT
ATOM      1  C   UNL     1      35.412 -31.040   9.717  1.00  0.00     0.016 A 
ATOM      2  C   UNL     1      34.566 -32.120   9.413  1.00  0.00     0.013 A 
ATOM      3  C   UNL     1      36.643 -30.946   9.044  1.00  0.00     0.120 A 
ATOM      4  C   UNL     1      34.954 -33.068   8.464  1.00  0.00     0.021 A 
ATOM      5  N   UNL     1      36.996 -31.883   8.125  1.00  0.00    -0.264 NA
ATOM      6  C   UNL     1      36.186 -32.931   7.824  1.00  0.00     0.111 A 
ENDROOT
BRANCH   1   7
ATOM      7  C   UNL     1      35.012 -30.029  10.719  1.00  0.00     0.073 C 
ATOM      8  O   UNL     1      35.768 -29.057  10.984  1.00  0.00    -0.545 OA
ATOM      9  O   UNL     1      33.796 -30.139  11.384  1.00  0.00    -0.545 OA
ENDBRANCH   1   7
TORSDOF 1
ENDMDL
MODEL 9
REMARK VINA RESULT:    -3.488      3.271      4.016
REMARK INTER + INTRA:          -3.712
REMARK INTER:                  -3.695
REMARK INTRA:                  -0.017
REMARK UNBOUND:                -0.020
REMARK SMILES O=C([O-])c1cccnc1
REMARK SMILES IDX 4 1 5 2 9 3 6 4 8 5 7 6 2 7 1 8 3 9
REMARK H PARENT
REMARK Flexibility Score: inf
ROOT
ATOM      1  C   UNL     1      36.024 -31.432  10.189  1.00  0.00     0.016 A 
ATOM      2  C   UNL     1      36.235 -30.045  10.253  1.00  0.00     0.013 A 
ATOM      3  C   UNL     1      34.921 -31.972  10.873  1.00  0.00     0.120 A 
ATOM      4  C   UNL     1      35.362 -29.236  10.983  1.00  0.00     0.021 A 
ATOM      5  N   UNL     1      34.087 -31.162  11.577  1.00  0.00    -0.264 NA
ATOM      6  C   UNL     1      34.282 -29.819  11.645  1.00  0.00     0.111 A 
ENDROOT
BRANCH   1   7
ATOM      7  C   UNL     1      36.942 -32.298   9.419  1.00  0.00     0.073 C 
ATOM      8  O   UNL     1      38.144 -32.431   9.771  1.00  0.00    -0.545 OA
ATOM      9  O   UNL     1      36.489 -32.980   8.295  1.00  0.00    -0.545 OA
ENDBRANCH   1   7
TORSDOF 1
ENDMDL
