MODEL 1
REMARK VINA RESULT:    -4.356      0.000      0.000
REMARK INTER + INTRA:          -8.155
REMARK INTER:                  -6.902
REMARK INTRA:                  -1.253
REMARK UNBOUND:                -1.253
REMARK SMILES CCCCCCCCCCCC(=O)[O-]
REMARK SMILES IDX 7 1 8 2 9 3 10 4 11 5 12 6 13 7 14 8 6 9 5 10 4 11 3 12 2 13
REMARK SMILES IDX 1 14
REMARK H PARENT
REMARK Flexibility Score: inf
ROOT
ATOM      1  C   UNL     1     -23.122  61.592  28.009  1.00  0.00     0.000 C 
ENDROOT
BRANCH   1   2
ATOM      2  C   UNL     1     -24.190  61.517  29.112  1.00  0.00     0.000 C 
BRANCH   2   3
ATOM      3  C   UNL     1     -24.428  62.870  29.800  1.00  0.00     0.000 C 
BRANCH   3   4
ATOM      4  C   UNL     1     -25.405  62.725  30.972  1.00  0.00     0.006 C 
BRANCH   4   5
ATOM      5  C   UNL     1     -25.827  61.264  31.158  1.00  0.00     0.053 C 
BRANCH   5   6
ATOM      6  C   UNL     1     -26.913  61.160  32.182  1.00  0.00     0.041 C 
ATOM      7  O   UNL     1     -27.411  60.038  32.466  1.00  0.00    -0.550 OA
ATOM      8  O   UNL     1     -27.342  62.294  32.860  1.00  0.00    -0.550 OA
ENDBRANCH   5   6
ENDBRANCH   4   5
ENDBRANCH   3   4
ENDBRANCH   2   3
ENDBRANCH   1   2
BRANCH   1   9
ATOM      9  C   UNL     1     -21.876  60.754  28.333  1.00  0.00     0.000 C 
BRANCH   9  10
ATOM     10  C   UNL     1     -20.648  61.651  28.535  1.00  0.00    -0.000 C 
BRANCH  10  11
ATOM     11  C   UNL     1     -20.151  61.581  29.987  1.00  0.00    -0.000 C 
BRANCH  11  12
ATOM     12  C   UNL     1     -20.996  62.438  30.944  1.00  0.00    -0.000 C 
BRANCH  12  13
ATOM     13  C   UNL     1     -21.143  61.801  32.333  1.00  0.00    -0.003 C 
ATOM     14  C   UNL     1     -22.390  60.923  32.405  1.00  0.00     0.004 C 
ENDBRANCH  12  13
ENDBRANCH  11  12
ENDBRANCH  10  11
ENDBRANCH   9  10
ENDBRANCH   1   9
TORSDOF 10
ENDMDL
MODEL 2
REMARK VINA RESULT:    -4.313      1.692      2.851
REMARK INTER + INTRA:          -8.088
REMARK INTER:                  -6.412
REMARK INTRA:                  -1.676
REMARK UNBOUND:                -1.253
REMARK SMILES CCCCCCCCCCCC(=O)[O-]
REMARK SMILES IDX 7 1 8 2 9 3 10 4 11 5 12 6 13 7 14 8 6 9 5 10 4 11 3 12 2 13
REMARK SMILES IDX 1 14
REMARK H PARENT
REMARK Flexibility Score: inf
ROOT
ATOM      1  C   UNL     1     -25.141  59.561  29.330  1.00  0.00     0.000 C 
ENDROOT
BRANCH   1   2
ATOM      2  C   UNL     1     -24.248  58.717  30.254  1.00  0.00     0.000 C 
BRANCH   2   3
ATOM      3  C   UNL     1     -24.741  58.710  31.709  1.00  0.00     0.000 C 
BRANCH   3   4
ATOM      4  C   UNL     1     -25.979  59.600  31.873  1.00  0.00     0.006 C 
BRANCH   4   5
ATOM      5  C   UNL     1     -25.897  60.422  33.163  1.00  0.00     0.053 C 
BRANCH   5   6
ATOM      6  C   UNL     1     -26.944  61.491  33.169  1.00  0.00     0.041 C 
ATOM      7  O   UNL     1     -26.980  62.348  32.247  1.00  0.00    -0.550 OA
ATOM      8  O   UNL     1     -27.910  61.512  34.166  1.00  0.00    -0.550 OA
ENDBRANCH   5   6
ENDBRANCH   4   5
ENDBRANCH   3   4
ENDBRANCH   2   3
ENDBRANCH   1   2
BRANCH   1   9
ATOM      9  C   UNL     1     -24.368  60.159  28.144  1.00  0.00     0.000 C 
BRANCH   9  10
ATOM     10  C   UNL     1     -23.675  61.468  28.544  1.00  0.00    -0.000 C 
BRANCH  10  11
ATOM     11  C   UNL     1     -24.576  62.308  29.461  1.00  0.00    -0.000 C 
BRANCH  11  12
ATOM     12  C   UNL     1     -23.869  62.731  30.760  1.00  0.00    -0.000 C 
BRANCH  12  13
ATOM     13  C   UNL     1     -22.538  61.998  30.974  1.00  0.00    -0.003 C 
ATOM     14  C   UNL     1     -22.395  61.531  32.420  1.00  0.00     0.004 C 
ENDBRANCH  12  13
ENDBRANCH  11  12
ENDBRANCH  10  11
ENDBRANCH   9  10
ENDBRANCH   1   9
TORSDOF 10
ENDMDL
MODEL 3
REMARK VINA RESULT:    -4.298      1.447      2.753
REMARK INTER + INTRA:          -8.063
REMARK INTER:                  -6.603
REMARK INTRA:                  -1.461
REMARK UNBOUND:                -1.253
REMARK SMILES CCCCCCCCCCCC(=O)[O-]
REMARK SMILES IDX 7 1 8 2 9 3 10 4 11 5 12 6 13 7 14 8 6 9 5 10 4 11 3 12 2 13
REMARK SMILES IDX 1 14
REMARK H PARENT
REMARK Flexibility Score: inf
ROOT
ATOM      1  C   UNL     1     -21.260  62.025  30.636  1.00  0.00     0.000 C 
ENDROOT
BRANCH   1   2
ATOM      2  C   UNL     1     -22.643  61.769  31.257  1.00  0.00     0.000 C 
BRANCH   2   3
ATOM      3  C   UNL     1     -23.750  62.612  30.606  1.00  0.00     0.000 C 
BRANCH   3   4
ATOM      4  C   UNL     1     -25.128  61.984  30.841  1.00  0.00     0.006 C 
BRANCH   4   5
ATOM      5  C   UNL     1     -25.146  61.169  32.138  1.00  0.00     0.053 C 
BRANCH   5   6
ATOM      6  C   UNL     1     -26.492  61.247  32.788  1.00  0.00     0.041 C 
ATOM      7  O   UNL     1     -27.537  61.213  32.086  1.00  0.00    -0.550 OA
ATOM      8  O   UNL     1     -26.593  61.308  34.172  1.00  0.00    -0.550 OA
ENDBRANCH   5   6
ENDBRANCH   4   5
ENDBRANCH   3   4
ENDBRANCH   2   3
ENDBRANCH   1   2
BRANCH   1   9
ATOM      9  C   UNL     1     -20.902  61.003  29.545  1.00  0.00     0.000 C 
BRANCH   9  10
ATOM     10  C   UNL     1     -21.079  61.609  28.147  1.00  0.00    -0.000 C 
BRANCH  10  11
ATOM     11  C   UNL     1     -22.427  61.197  27.536  1.00  0.00    -0.000 C 
BRANCH  11  12
ATOM     12  C   UNL     1     -22.722  59.698  27.710  1.00  0.00    -0.000 C 
BRANCH  12  13
ATOM     13  C   UNL     1     -24.068  59.437  28.402  1.00  0.00    -0.003 C 
ATOM     14  C   UNL     1     -23.884  58.593  29.660  1.00  0.00     0.004 C 
ENDBRANCH  12  13
ENDBRANCH  11  12
ENDBRANCH  10  11
ENDBRANCH   9  10
ENDBRANCH   1   9
TORSDOF 10
ENDMDL
MODEL 4
REMARK VINA RESULT:    -4.275      1.240      2.062
REMARK INTER + INTRA:          -8.027
REMARK INTER:                  -6.996
REMARK INTRA:                  -1.031
REMARK UNBOUND:                -1.253
REMARK SMILES CCCCCCCCCCCC(=O)[O-]
REMARK SMILES IDX 7 1 8 2 9 3 10 4 11 5 12 6 13 7 14 8 6 9 5 10 4 11 3 12 2 13
REMARK SMILES IDX 1 14
REMARK H PARENT
REMARK Flexibility Score: inf
ROOT
ATOM      1  C   UNL     1     -24.891  60.936  29.199  1.00  0.00     0.000 C 
ENDROOT
BRANCH   1   2
ATOM      2  C   UNL     1     -24.754  62.392  29.671  1.00  0.00     0.000 C 
BRANCH   2   3
ATOM      3  C   UNL     1     -25.297  62.607  31.093  1.00  0.00     0.000 C 
BRANCH   3   4
ATOM      4  C   UNL     1     -25.992  61.343  31.611  1.00  0.00     0.006 C 
BRANCH   4   5
ATOM      5  C   UNL     1     -26.895  61.664  32.806  1.00  0.00     0.053 C 
BRANCH   5   6
ATOM      6  C   UNL     1     -26.878  60.539  33.792  1.00  0.00     0.041 C 
ATOM      7  O   UNL     1     -25.988  59.651  33.725  1.00  0.00    -0.550 OA
ATOM      8  O   UNL     1     -27.815  60.499  34.817  1.00  0.00    -0.550 OA
ENDBRANCH   5   6
ENDBRANCH   4   5
ENDBRANCH   3   4
ENDBRANCH   2   3
ENDBRANCH   1   2
BRANCH   1   9
ATOM      9  C   UNL     1     -23.669  60.453  28.402  1.00  0.00     0.000 C 
BRANCH   9  10
ATOM     10  C   UNL     1     -22.984  61.624  27.686  1.00  0.00    -0.000 C 
BRANCH  10  11
ATOM     11  C   UNL     1     -21.468  61.606  27.931  1.00  0.00    -0.000 C 
BRANCH  11  12
ATOM     12  C   UNL     1     -21.088  60.902  29.245  1.00  0.00    -0.000 C 
BRANCH  12  13
ATOM     13  C   UNL     1     -20.388  61.841  30.237  1.00  0.00    -0.003 C 
ATOM     14  C   UNL     1     -21.363  62.343  31.299  1.00  0.00     0.004 C 
ENDBRANCH  12  13
ENDBRANCH  11  12
ENDBRANCH  10  11
ENDBRANCH   9  10
ENDBRANCH   1   9
TORSDOF 10
ENDMDL
MODEL 5
REMARK VINA RESULT:    -4.235      1.988      3.610
REMARK INTER + INTRA:          -7.964
REMARK INTER:                  -6.329
REMARK INTRA:                  -1.635
REMARK UNBOUND:                -1.253
REMARK SMILES CCCCCCCCCCCC(=O)[O-]
REMARK SMILES IDX 7 1 8 2 9 3 10 4 11 5 12 6 13 7 14 8 6 9 5 10 4 11 3 12 2 13
REMARK SMILES IDX 1 14
REMARK H PARENT
REMARK Flexibility Score: inf
ROOT
ATOM      1  C   UNL     1     -24.416  58.696  31.219  1.00  0.00     0.000 C 
ENDROOT
BRANCH   1   2
ATOM      2  C   UNL     1     -24.846  58.590  32.692  1.00  0.00     0.000 C 
BRANCH   2   3
ATOM      3  C   UNL     1     -24.109  59.589  33.597  1.00  0.00     0.000 C 
BRANCH   3   4
ATOM      4  C   UNL     1     -24.988  60.808  33.898  1.00  0.00     0.006 C 
BRANCH   4   5
ATOM      5  C   UNL     1     -26.447  60.393  34.115  1.00  0.00     0.053 C 
BRANCH   5   6
ATOM      6  C   UNL     1     -27.372  61.365  33.453  1.00  0.00     0.041 C 
ATOM      7  O   UNL     1     -27.914  61.075  32.354  1.00  0.00    -0.550 OA
ATOM      8  O   UNL     1     -27.674  62.570  34.074  1.00  0.00    -0.550 OA
ENDBRANCH   5   6
ENDBRANCH   4   5
ENDBRANCH   3   4
ENDBRANCH   2   3
ENDBRANCH   1   2
BRANCH   1   9
ATOM      9  C   UNL     1     -25.522  59.266  30.318  1.00  0.00     0.000 C 
BRANCH   9  10
ATOM     10  C   UNL     1     -24.992  60.425  29.465  1.00  0.00    -0.000 C 
BRANCH  10  11
ATOM     11  C   UNL     1     -25.401  61.779  30.064  1.00  0.00    -0.000 C 
BRANCH  11  12
ATOM     12  C   UNL     1     -24.209  62.551  30.653  1.00  0.00    -0.000 C 
BRANCH  12  13
ATOM     13  C   UNL     1     -22.857  61.940  30.260  1.00  0.00    -0.003 C 
ATOM     14  C   UNL     1     -21.936  61.818  31.471  1.00  0.00     0.004 C 
ENDBRANCH  12  13
ENDBRANCH  11  12
ENDBRANCH  10  11
ENDBRANCH   9  10
ENDBRANCH   1   9
TORSDOF 10
ENDMDL
MODEL 6
REMARK VINA RESULT:    -4.230      1.361      2.876
REMARK INTER + INTRA:          -7.957
REMARK INTER:                  -6.870
REMARK INTRA:                  -1.087
REMARK UNBOUND:                -1.253
REMARK SMILES CCCCCCCCCCCC(=O)[O-]
REMARK SMILES IDX 7 1 8 2 9 3 10 4 11 5 12 6 13 7 14 8 6 9 5 10 4 11 3 12 2 13
REMARK SMILES IDX 1 14
REMARK H PARENT
REMARK Flexibility Score: inf
ROOT
ATOM      1  C   UNL     1     -23.651  62.706  30.406  1.00  0.00     0.000 C 
ENDROOT
BRANCH   1   2
ATOM      2  C   UNL     1     -25.141  62.402  30.636  1.00  0.00     0.000 C 
BRANCH   2   3
ATOM      3  C   UNL     1     -25.535  60.989  30.183  1.00  0.00     0.000 C 
BRANCH   3   4
ATOM      4  C   UNL     1     -26.211  60.216  31.321  1.00  0.00     0.006 C 
BRANCH   4   5
ATOM      5  C   UNL     1     -26.805  61.174  32.358  1.00  0.00     0.053 C 
BRANCH   5   6
ATOM      6  C   UNL     1     -26.431  60.746  33.742  1.00  0.00     0.041 C 
ATOM      7  O   UNL     1     -25.221  60.713  34.089  1.00  0.00    -0.550 OA
ATOM      8  O   UNL     1     -27.421  60.430  34.664  1.00  0.00    -0.550 OA
ENDBRANCH   5   6
ENDBRANCH   4   5
ENDBRANCH   3   4
ENDBRANCH   2   3
ENDBRANCH   1   2
BRANCH   1   9
ATOM      9  C   UNL     1     -22.731  61.895  31.332  1.00  0.00     0.000 C 
BRANCH   9  10
ATOM     10  C   UNL     1     -21.269  61.996  30.878  1.00  0.00    -0.000 C 
BRANCH  10  11
ATOM     11  C   UNL     1     -20.981  61.016  29.731  1.00  0.00    -0.000 C 
BRANCH  11  12
ATOM     12  C   UNL     1     -20.612  61.730  28.421  1.00  0.00    -0.000 C 
BRANCH  12  13
ATOM     13  C   UNL     1     -21.737  61.668  27.377  1.00  0.00    -0.003 C 
ATOM     14  C   UNL     1     -22.697  60.518  27.672  1.00  0.00     0.004 C 
ENDBRANCH  12  13
ENDBRANCH  11  12
ENDBRANCH  10  11
ENDBRANCH   9  10
ENDBRANCH   1   9
TORSDOF 10
ENDMDL
MODEL 7
REMARK VINA RESULT:    -4.205      2.813      4.665
REMARK INTER + INTRA:          -7.917
REMARK INTER:                  -6.411
REMARK INTRA:                  -1.505
REMARK UNBOUND:                -1.253
REMARK SMILES CCCCCCCCCCCC(=O)[O-]
REMARK SMILES IDX 7 1 8 2 9 3 10 4 11 5 12 6 13 7 14 8 6 9 5 10 4 11 3 12 2 13
REMARK SMILES IDX 1 14
REMARK H PARENT
REMARK Flexibility Score: inf
ROOT
ATOM      1  C   UNL     1     -24.123  61.110  28.786  1.00  0.00     0.000 C 
ENDROOT
BRANCH   1   2
ATOM      2  C   UNL     1     -24.620  62.383  29.491  1.00  0.00     0.000 C 
BRANCH   2   3
ATOM      3  C   UNL     1     -23.727  62.794  30.671  1.00  0.00     0.000 C 
BRANCH   3   4
ATOM      4  C   UNL     1     -22.547  61.828  30.829  1.00  0.00     0.006 C 
BRANCH   4   5
ATOM      5  C   UNL     1     -21.376  62.503  31.549  1.00  0.00     0.053 C 
BRANCH   5   6
ATOM      6  C   UNL     1     -21.193  61.918  32.913  1.00  0.00     0.041 C 
ATOM      7  O   UNL     1     -22.195  61.616  33.614  1.00  0.00    -0.550 OA
ATOM      8  O   UNL     1     -19.915  61.659  33.393  1.00  0.00    -0.550 OA
ENDBRANCH   5   6
ENDBRANCH   4   5
ENDBRANCH   3   4
ENDBRANCH   2   3
ENDBRANCH   1   2
BRANCH   1   9
ATOM      9  C   UNL     1     -25.133  59.955  28.867  1.00  0.00     0.000 C 
BRANCH   9  10
ATOM     10  C   UNL     1     -24.833  59.046  30.065  1.00  0.00    -0.000 C 
BRANCH  10  11
ATOM     11  C   UNL     1     -25.862  59.257  31.186  1.00  0.00    -0.000 C 
BRANCH  11  12
ATOM     12  C   UNL     1     -25.209  59.617  32.530  1.00  0.00    -0.000 C 
BRANCH  12  13
ATOM     13  C   UNL     1     -25.755  60.925  33.120  1.00  0.00    -0.003 C 
ATOM     14  C   UNL     1     -26.925  61.454  32.295  1.00  0.00     0.004 C 
ENDBRANCH  12  13
ENDBRANCH  11  12
ENDBRANCH  10  11
ENDBRANCH   9  10
ENDBRANCH   1   9
TORSDOF 10
ENDMDL
MODEL 8
REMARK VINA RESULT:    -4.172      1.943      3.419
REMARK INTER + INTRA:          -7.865
REMARK INTER:                  -6.619
REMARK INTRA:                  -1.246
REMARK UNBOUND:                -1.253
REMARK SMILES CCCCCCCCCCCC(=O)[O-]
REMARK SMILES IDX 7 1 8 2 9 3 10 4 11 5 12 6 13 7 14 8 6 9 5 10 4 11 3 12 2 13
REMARK SMILES IDX 1 14
REMARK H PARENT
REMARK Flexibility Score: inf
ROOT
ATOM      1  C   UNL     1     -25.221  58.993  31.066  1.00  0.00     0.000 C 
ENDROOT
BRANCH   1   2
ATOM      2  C   UNL     1     -25.370  60.022  32.198  1.00  0.00     0.000 C 
BRANCH   2   3
ATOM      3  C   UNL     1     -26.134  61.280  31.758  1.00  0.00     0.000 C 
BRANCH   3   4
ATOM      4  C   UNL     1     -27.538  61.312  32.374  1.00  0.00     0.006 C 
BRANCH   4   5
ATOM      5  C   UNL     1     -27.612  62.328  33.518  1.00  0.00     0.053 C 
BRANCH   5   6
ATOM      6  C   UNL     1     -27.635  61.627  34.840  1.00  0.00     0.041 C 
ATOM      7  O   UNL     1     -27.301  62.239  35.888  1.00  0.00    -0.550 OA
ATOM      8  O   UNL     1     -28.074  60.311  34.921  1.00  0.00    -0.550 OA
ENDBRANCH   5   6
ENDBRANCH   4   5
ENDBRANCH   3   4
ENDBRANCH   2   3
ENDBRANCH   1   2
BRANCH   1   9
ATOM      9  C   UNL     1     -25.500  59.593  29.679  1.00  0.00     0.000 C 
BRANCH   9  10
ATOM     10  C   UNL     1     -24.244  59.549  28.799  1.00  0.00    -0.000 C 
BRANCH  10  11
ATOM     11  C   UNL     1     -23.943  60.933  28.204  1.00  0.00    -0.000 C 
BRANCH  11  12
ATOM     12  C   UNL     1     -23.439  61.933  29.257  1.00  0.00    -0.000 C 
BRANCH  12  13
ATOM     13  C   UNL     1     -22.270  61.381  30.086  1.00  0.00    -0.003 C 
ATOM     14  C   UNL     1     -22.254  61.988  31.486  1.00  0.00     0.004 C 
ENDBRANCH  12  13
ENDBRANCH  11  12
ENDBRANCH  10  11
ENDBRANCH   9  10
ENDBRANCH   1   9
TORSDOF 10
ENDMDL
MODEL 9
REMARK VINA RESULT:    -4.161      1.974      2.861
REMARK INTER + INTRA:          -7.847
REMARK INTER:                  -6.401
REMARK INTRA:                  -1.446
REMARK UNBOUND:                -1.253
REMARK SMILES CCCCCCCCCCCC(=O)[O-]
REMARK SMILES IDX 7 1 8 2 9 3 10 4 11 5 12 6 13 7 14 8 6 9 5 10 4 11 3 12 2 13
REMARK SMILES IDX 1 14
REMARK H PARENT
REMARK Flexibility Score: inf
ROOT
ATOM      1  C   UNL     1     -25.508  60.082  29.644  1.00  0.00     0.000 C 
ENDROOT
BRANCH   1   2
ATOM      2  C   UNL     1     -25.244  58.977  30.681  1.00  0.00     0.000 C 
BRANCH   2   3
ATOM      3  C   UNL     1     -25.862  59.292  32.052  1.00  0.00     0.000 C 
BRANCH   3   4
ATOM      4  C   UNL     1     -26.884  60.429  31.944  1.00  0.00     0.006 C 
BRANCH   4   5
ATOM      5  C   UNL     1     -26.604  61.520  32.983  1.00  0.00     0.053 C 
BRANCH   5   6
ATOM      6  C   UNL     1     -26.717  60.966  34.368  1.00  0.00     0.041 C 
ATOM      7  O   UNL     1     -27.774  60.389  34.736  1.00  0.00    -0.550 OA
ATOM      8  O   UNL     1     -25.636  61.041  35.237  1.00  0.00    -0.550 OA
ENDBRANCH   5   6
ENDBRANCH   4   5
ENDBRANCH   3   4
ENDBRANCH   2   3
ENDBRANCH   1   2
BRANCH   1   9
ATOM      9  C   UNL     1     -24.242  60.879  29.292  1.00  0.00     0.000 C 
BRANCH   9  10
ATOM     10  C   UNL     1     -24.211  62.218  30.039  1.00  0.00    -0.000 C 
BRANCH  10  11
ATOM     11  C   UNL     1     -22.872  62.410  30.767  1.00  0.00    -0.000 C 
BRANCH  11  12
ATOM     12  C   UNL     1     -22.438  61.158  31.546  1.00  0.00    -0.000 C 
BRANCH  12  13
ATOM     13  C   UNL     1     -22.883  61.191  33.015  1.00  0.00    -0.003 C 
ATOM     14  C   UNL     1     -21.763  60.721  33.939  1.00  0.00     0.004 C 
ENDBRANCH  12  13
ENDBRANCH  11  12
ENDBRANCH  10  11
ENDBRANCH   9  10
ENDBRANCH   1   9
TORSDOF 10
ENDMDL
