MODEL 1
REMARK VINA RESULT:     4.875      0.000      0.000
REMARK INTER + INTRA:           8.108
REMARK INTER:                   8.866
REMARK INTRA:                  -0.757
REMARK UNBOUND:                -0.757
REMARK SMILES CCCCCC=CCC=CCCCCCCCC(=O)[O-]
REMARK SMILES IDX 11 1 12 2 13 3 14 4 15 5 16 6 17 7 18 8 19 9 20 10 10 11
REMARK SMILES IDX 9 12 8 13 7 14 6 15 5 16 4 17 3 18 2 19 1 20
REMARK H PARENT
REMARK Flexibility Score: inf
ROOT
ATOM      1  C   UNL     1      28.897  18.703   4.398  1.00  0.00     0.027 C 
ENDROOT
BRANCH   1   2
ATOM      2  C   UNL     1      28.408  18.002   3.122  1.00  0.00     0.004 C 
BRANCH   2   3
ATOM      3  C   UNL     1      28.710  18.810   1.851  1.00  0.00     0.000 C 
BRANCH   3   4
ATOM      4  C   UNL     1      27.822  18.395   0.665  1.00  0.00     0.000 C 
BRANCH   4   5
ATOM      5  C   UNL     1      28.145  16.981   0.153  1.00  0.00     0.000 C 
BRANCH   5   6
ATOM      6  C   UNL     1      27.845  16.810  -1.345  1.00  0.00     0.006 C 
BRANCH   6   7
ATOM      7  C   UNL     1      28.271  15.430  -1.866  1.00  0.00     0.053 C 
BRANCH   7   8
ATOM      8  C   UNL     1      29.670  15.445  -2.403  1.00  0.00     0.041 C 
ATOM      9  O   UNL     1      29.871  15.590  -3.638  1.00  0.00    -0.550 OA
ATOM     10  O   UNL     1      30.749  15.335  -1.537  1.00  0.00    -0.550 OA
ENDBRANCH   7   8
ENDBRANCH   6   7
ENDBRANCH   5   6
ENDBRANCH   4   5
ENDBRANCH   3   4
ENDBRANCH   2   3
ENDBRANCH   1   2
BRANCH   1  11
ATOM     11  C   UNL     1      30.337  18.361   4.682  1.00  0.00    -0.031 C 
ATOM     12  C   UNL     1      30.737  17.396   5.529  1.00  0.00    -0.027 C 
BRANCH  12  13
ATOM     13  C   UNL     1      29.790  16.501   6.291  1.00  0.00     0.054 C 
BRANCH  13  14
ATOM     14  C   UNL     1      29.780  16.848   7.758  1.00  0.00    -0.027 C 
ATOM     15  C   UNL     1      29.211  16.096   8.717  1.00  0.00    -0.031 C 
BRANCH  15  16
ATOM     16  C   UNL     1      28.462  14.806   8.472  1.00  0.00     0.027 C 
BRANCH  16  17
ATOM     17  C   UNL     1      27.362  14.589   9.519  1.00  0.00     0.004 C 
BRANCH  17  18
ATOM     18  C   UNL     1      25.978  14.408   8.872  1.00  0.00     0.000 C 
BRANCH  18  19
ATOM     19  C   UNL     1      25.874  13.114   8.053  1.00  0.00    -0.003 C 
ATOM     20  C   UNL     1      24.430  12.735   7.730  1.00  0.00     0.004 C 
ENDBRANCH  18  19
ENDBRANCH  17  18
ENDBRANCH  16  17
ENDBRANCH  15  16
ENDBRANCH  13  14
ENDBRANCH  12  13
ENDBRANCH   1  11
TORSDOF 14
ENDMDL
MODEL 2
REMARK VINA RESULT:     5.417      4.006      9.159
REMARK INTER + INTRA:           9.093
REMARK INTER:                   9.341
REMARK INTRA:                  -0.248
REMARK UNBOUND:                -0.757
REMARK SMILES CCCCCC=CCC=CCCCCCCCC(=O)[O-]
REMARK SMILES IDX 11 1 12 2 13 3 14 4 15 5 16 6 17 7 18 8 19 9 20 10 10 11
REMARK SMILES IDX 9 12 8 13 7 14 6 15 5 16 4 17 3 18 2 19 1 20
REMARK H PARENT
REMARK Flexibility Score: inf
ROOT
ATOM      1  C   UNL     1      30.049  18.586   4.416  1.00  0.00     0.027 C 
ENDROOT
BRANCH   1   2
ATOM      2  C   UNL     1      30.951  17.629   5.209  1.00  0.00     0.004 C 
BRANCH   2   3
ATOM      3  C   UNL     1      30.402  17.322   6.610  1.00  0.00     0.000 C 
BRANCH   3   4
ATOM      4  C   UNL     1      29.524  16.060   6.635  1.00  0.00     0.000 C 
BRANCH   4   5
ATOM      5  C   UNL     1      29.366  15.479   8.049  1.00  0.00     0.000 C 
BRANCH   5   6
ATOM      6  C   UNL     1      28.796  16.499   9.049  1.00  0.00     0.006 C 
BRANCH   6   7
ATOM      7  C   UNL     1      27.453  16.045   9.637  1.00  0.00     0.053 C 
BRANCH   7   8
ATOM      8  C   UNL     1      27.172  14.604   9.335  1.00  0.00     0.041 C 
ATOM      9  O   UNL     1      27.931  13.705   9.783  1.00  0.00    -0.550 OA
ATOM     10  O   UNL     1      26.054  14.254   8.589  1.00  0.00    -0.550 OA
ENDBRANCH   7   8
ENDBRANCH   6   7
ENDBRANCH   5   6
ENDBRANCH   4   5
ENDBRANCH   3   4
ENDBRANCH   2   3
ENDBRANCH   1   2
BRANCH   1  11
ATOM     11  C   UNL     1      28.736  17.930   4.074  1.00  0.00    -0.031 C 
ATOM     12  C   UNL     1      28.147  17.990   2.866  1.00  0.00    -0.027 C 
BRANCH  12  13
ATOM     13  C   UNL     1      28.740  18.706   1.677  1.00  0.00     0.054 C 
BRANCH  13  14
ATOM     14  C   UNL     1      27.714  18.890   0.589  1.00  0.00    -0.027 C 
ATOM     15  C   UNL     1      27.450  17.987  -0.373  1.00  0.00    -0.031 C 
BRANCH  15  16
ATOM     16  C   UNL     1      28.165  16.665  -0.536  1.00  0.00     0.027 C 
BRANCH  16  17
ATOM     17  C   UNL     1      27.720  15.941  -1.813  1.00  0.00     0.004 C 
BRANCH  17  18
ATOM     18  C   UNL     1      28.824  15.028  -2.372  1.00  0.00     0.000 C 
BRANCH  18  19
ATOM     19  C   UNL     1      30.211  15.363  -1.803  1.00  0.00    -0.003 C 
ATOM     20  C   UNL     1      31.346  14.977  -2.750  1.00  0.00     0.004 C 
ENDBRANCH  18  19
ENDBRANCH  17  18
ENDBRANCH  16  17
ENDBRANCH  15  16
ENDBRANCH  13  14
ENDBRANCH  12  13
ENDBRANCH   1  11
TORSDOF 14
ENDMDL
MODEL 3
REMARK VINA RESULT:     5.836      1.727      2.688
REMARK INTER + INTRA:           9.856
REMARK INTER:                   9.929
REMARK INTRA:                  -0.074
REMARK UNBOUND:                -0.757
REMARK SMILES CCCCCC=CCC=CCCCCCCCC(=O)[O-]
REMARK SMILES IDX 11 1 12 2 13 3 14 4 15 5 16 6 17 7 18 8 19 9 20 10 10 11
REMARK SMILES IDX 9 12 8 13 7 14 6 15 5 16 4 17 3 18 2 19 1 20
REMARK H PARENT
REMARK Flexibility Score: inf
ROOT
ATOM      1  C   UNL     1      29.078  18.486   4.474  1.00  0.00     0.027 C 
ENDROOT
BRANCH   1   2
ATOM      2  C   UNL     1      28.394  17.840   3.261  1.00  0.00     0.004 C 
BRANCH   2   3
ATOM      3  C   UNL     1      28.083  18.852   2.147  1.00  0.00     0.000 C 
BRANCH   3   4
ATOM      4  C   UNL     1      28.667  18.429   0.788  1.00  0.00     0.000 C 
BRANCH   4   5
ATOM      5  C   UNL     1      27.578  18.070  -0.235  1.00  0.00     0.000 C 
BRANCH   5   6
ATOM      6  C   UNL     1      27.819  16.707  -0.906  1.00  0.00     0.006 C 
BRANCH   6   7
ATOM      7  C   UNL     1      29.310  16.441  -1.156  1.00  0.00     0.053 C 
BRANCH   7   8
ATOM      8  C   UNL     1      29.519  15.399  -2.213  1.00  0.00     0.041 C 
ATOM      9  O   UNL     1      28.528  14.851  -2.765  1.00  0.00    -0.550 OA
ATOM     10  O   UNL     1      30.805  15.061  -2.612  1.00  0.00    -0.550 OA
ENDBRANCH   7   8
ENDBRANCH   6   7
ENDBRANCH   5   6
ENDBRANCH   4   5
ENDBRANCH   3   4
ENDBRANCH   2   3
ENDBRANCH   1   2
BRANCH   1  11
ATOM     11  C   UNL     1      30.396  17.818   4.769  1.00  0.00    -0.031 C 
ATOM     12  C   UNL     1      30.659  17.110   5.883  1.00  0.00    -0.027 C 
BRANCH  12  13
ATOM     13  C   UNL     1      29.651  16.867   6.980  1.00  0.00     0.054 C 
BRANCH  13  14
ATOM     14  C   UNL     1      29.275  15.409   7.055  1.00  0.00    -0.027 C 
ATOM     15  C   UNL     1      28.509  14.867   8.019  1.00  0.00    -0.031 C 
BRANCH  15  16
ATOM     16  C   UNL     1      27.938  15.624   9.197  1.00  0.00     0.027 C 
BRANCH  16  17
ATOM     17  C   UNL     1      28.848  16.788   9.609  1.00  0.00     0.004 C 
BRANCH  17  18
ATOM     18  C   UNL     1      28.146  17.752  10.580  1.00  0.00     0.000 C 
BRANCH  18  19
ATOM     19  C   UNL     1      27.144  18.677   9.872  1.00  0.00    -0.003 C 
ATOM     20  C   UNL     1      26.681  19.832  10.758  1.00  0.00     0.004 C 
ENDBRANCH  18  19
ENDBRANCH  17  18
ENDBRANCH  16  17
ENDBRANCH  15  16
ENDBRANCH  13  14
ENDBRANCH  12  13
ENDBRANCH   1  11
TORSDOF 14
ENDMDL
MODEL 4
REMARK VINA RESULT:     5.849      4.359      9.289
REMARK INTER + INTRA:           9.879
REMARK INTER:                  10.152
REMARK INTRA:                  -0.273
REMARK UNBOUND:                -0.757
REMARK SMILES CCCCCC=CCC=CCCCCCCCC(=O)[O-]
REMARK SMILES IDX 11 1 12 2 13 3 14 4 15 5 16 6 17 7 18 8 19 9 20 10 10 11
REMARK SMILES IDX 9 12 8 13 7 14 6 15 5 16 4 17 3 18 2 19 1 20
REMARK H PARENT
REMARK Flexibility Score: inf
ROOT
ATOM      1  C   UNL     1      30.109  18.700   4.318  1.00  0.00     0.027 C 
ENDROOT
BRANCH   1   2
ATOM      2  C   UNL     1      30.845  18.068   5.508  1.00  0.00     0.004 C 
BRANCH   2   3
ATOM      3  C   UNL     1      30.376  16.635   5.801  1.00  0.00     0.000 C 
BRANCH   3   4
ATOM      4  C   UNL     1      29.740  16.496   7.195  1.00  0.00     0.000 C 
BRANCH   4   5
ATOM      5  C   UNL     1      29.006  15.158   7.378  1.00  0.00     0.000 C 
BRANCH   5   6
ATOM      6  C   UNL     1      28.667  14.863   8.848  1.00  0.00     0.006 C 
BRANCH   6   7
ATOM      7  C   UNL     1      27.593  15.813   9.396  1.00  0.00     0.053 C 
BRANCH   7   8
ATOM      8  C   UNL     1      28.192  17.077   9.937  1.00  0.00     0.041 C 
ATOM      9  O   UNL     1      29.436  17.163  10.110  1.00  0.00    -0.550 OA
ATOM     10  O   UNL     1      27.380  18.168  10.215  1.00  0.00    -0.550 OA
ENDBRANCH   7   8
ENDBRANCH   6   7
ENDBRANCH   5   6
ENDBRANCH   4   5
ENDBRANCH   3   4
ENDBRANCH   2   3
ENDBRANCH   1   2
BRANCH   1  11
ATOM     11  C   UNL     1      28.815  17.978   4.040  1.00  0.00    -0.031 C 
ATOM     12  C   UNL     1      28.177  17.987   2.856  1.00  0.00    -0.027 C 
BRANCH  12  13
ATOM     13  C   UNL     1      28.692  18.703   1.630  1.00  0.00     0.054 C 
BRANCH  13  14
ATOM     14  C   UNL     1      27.632  18.777   0.562  1.00  0.00    -0.027 C 
ATOM     15  C   UNL     1      27.488  17.885  -0.435  1.00  0.00    -0.031 C 
BRANCH  15  16
ATOM     16  C   UNL     1      28.389  16.691  -0.661  1.00  0.00     0.027 C 
BRANCH  16  17
ATOM     17  C   UNL     1      27.853  15.791  -1.782  1.00  0.00     0.004 C 
BRANCH  17  18
ATOM     18  C   UNL     1      28.985  15.057  -2.521  1.00  0.00     0.000 C 
BRANCH  18  19
ATOM     19  C   UNL     1      30.376  15.428  -1.987  1.00  0.00    -0.003 C 
ATOM     20  C   UNL     1      31.506  14.755  -2.765  1.00  0.00     0.004 C 
ENDBRANCH  18  19
ENDBRANCH  17  18
ENDBRANCH  16  17
ENDBRANCH  15  16
ENDBRANCH  13  14
ENDBRANCH  12  13
ENDBRANCH   1  11
TORSDOF 14
ENDMDL
MODEL 5
REMARK VINA RESULT:     5.958      4.448      9.580
REMARK INTER + INTRA:          10.077
REMARK INTER:                  10.901
REMARK INTRA:                  -0.825
REMARK UNBOUND:                -0.757
REMARK SMILES CCCCCC=CCC=CCCCCCCCC(=O)[O-]
REMARK SMILES IDX 11 1 12 2 13 3 14 4 15 5 16 6 17 7 18 8 19 9 20 10 10 11
REMARK SMILES IDX 9 12 8 13 7 14 6 15 5 16 4 17 3 18 2 19 1 20
REMARK H PARENT
REMARK Flexibility Score: inf
ROOT
ATOM      1  C   UNL     1      30.228  17.301   5.167  1.00  0.00     0.027 C 
ENDROOT
BRANCH   1   2
ATOM      2  C   UNL     1      30.117  16.903   6.646  1.00  0.00     0.004 C 
BRANCH   2   3
ATOM      3  C   UNL     1      29.203  15.687   6.865  1.00  0.00     0.000 C 
BRANCH   3   4
ATOM      4  C   UNL     1      28.970  15.386   8.355  1.00  0.00     0.000 C 
BRANCH   4   5
ATOM      5  C   UNL     1      29.077  16.643   9.234  1.00  0.00     0.000 C 
BRANCH   5   6
ATOM      6  C   UNL     1      27.772  16.955   9.985  1.00  0.00     0.006 C 
BRANCH   6   7
ATOM      7  C   UNL     1      27.877  18.241  10.817  1.00  0.00     0.053 C 
BRANCH   7   8
ATOM      8  C   UNL     1      26.981  19.320  10.288  1.00  0.00     0.041 C 
ATOM      9  O   UNL     1      26.810  20.379  10.948  1.00  0.00    -0.550 OA
ATOM     10  O   UNL     1      26.365  19.171   9.053  1.00  0.00    -0.550 OA
ENDBRANCH   7   8
ENDBRANCH   6   7
ENDBRANCH   5   6
ENDBRANCH   4   5
ENDBRANCH   3   4
ENDBRANCH   2   3
ENDBRANCH   1   2
BRANCH   1  11
ATOM     11  C   UNL     1      29.666  18.681   4.938  1.00  0.00    -0.031 C 
ATOM     12  C   UNL     1      28.911  19.029   3.880  1.00  0.00    -0.027 C 
BRANCH  12  13
ATOM     13  C   UNL     1      28.500  18.070   2.789  1.00  0.00     0.054 C 
BRANCH  13  14
ATOM     14  C   UNL     1      28.062  18.812   1.553  1.00  0.00    -0.027 C 
ATOM     15  C   UNL     1      27.997  18.274   0.322  1.00  0.00    -0.031 C 
BRANCH  15  16
ATOM     16  C   UNL     1      28.389  16.854  -0.022  1.00  0.00     0.027 C 
BRANCH  16  17
ATOM     17  C   UNL     1      27.643  16.353  -1.265  1.00  0.00     0.004 C 
BRANCH  17  18
ATOM     18  C   UNL     1      28.406  15.223  -1.977  1.00  0.00     0.000 C 
BRANCH  18  19
ATOM     19  C   UNL     1      29.621  15.737  -2.763  1.00  0.00    -0.003 C 
ATOM     20  C   UNL     1      30.924  15.056  -2.346  1.00  0.00     0.004 C 
ENDBRANCH  18  19
ENDBRANCH  17  18
ENDBRANCH  16  17
ENDBRANCH  15  16
ENDBRANCH  13  14
ENDBRANCH  12  13
ENDBRANCH   1  11
TORSDOF 14
ENDMDL
MODEL 6
REMARK VINA RESULT:     6.192      3.869      8.746
REMARK INTER + INTRA:          10.503
REMARK INTER:                  11.241
REMARK INTRA:                  -0.738
REMARK UNBOUND:                -0.757
REMARK SMILES CCCCCC=CCC=CCCCCCCCC(=O)[O-]
REMARK SMILES IDX 11 1 12 2 13 3 14 4 15 5 16 6 17 7 18 8 19 9 20 10 10 11
REMARK SMILES IDX 9 12 8 13 7 14 6 15 5 16 4 17 3 18 2 19 1 20
REMARK H PARENT
REMARK Flexibility Score: inf
ROOT
ATOM      1  C   UNL     1      29.981  17.334   6.663  1.00  0.00     0.027 C 
ENDROOT
BRANCH   1   2
ATOM      2  C   UNL     1      29.605  15.879   6.979  1.00  0.00     0.004 C 
BRANCH   2   3
ATOM      3  C   UNL     1      29.572  15.590   8.488  1.00  0.00     0.000 C 
BRANCH   3   4
ATOM      4  C   UNL     1      28.670  16.571   9.255  1.00  0.00     0.000 C 
BRANCH   4   5
ATOM      5  C   UNL     1      27.303  15.963   9.607  1.00  0.00     0.000 C 
BRANCH   5   6
ATOM      6  C   UNL     1      27.308  14.425   9.564  1.00  0.00     0.006 C 
BRANCH   6   7
ATOM      7  C   UNL     1      26.766  13.881   8.236  1.00  0.00     0.053 C 
BRANCH   7   8
ATOM      8  C   UNL     1      25.307  13.550   8.324  1.00  0.00     0.041 C 
ATOM      9  O   UNL     1      24.822  12.633   7.609  1.00  0.00    -0.550 OA
ATOM     10  O   UNL     1      24.492  14.228   9.221  1.00  0.00    -0.550 OA
ENDBRANCH   7   8
ENDBRANCH   6   7
ENDBRANCH   5   6
ENDBRANCH   4   5
ENDBRANCH   3   4
ENDBRANCH   2   3
ENDBRANCH   1   2
BRANCH   1  11
ATOM     11  C   UNL     1      30.954  17.401   5.513  1.00  0.00    -0.031 C 
ATOM     12  C   UNL     1      30.716  18.036   4.351  1.00  0.00    -0.027 C 
BRANCH  12  13
ATOM     13  C   UNL     1      29.446  18.795   4.053  1.00  0.00     0.054 C 
BRANCH  13  14
ATOM     14  C   UNL     1      28.356  17.863   3.590  1.00  0.00    -0.027 C 
ATOM     15  C   UNL     1      27.926  17.763   2.319  1.00  0.00    -0.031 C 
BRANCH  15  16
ATOM     16  C   UNL     1      28.442  18.593   1.165  1.00  0.00     0.027 C 
BRANCH  16  17
ATOM     17  C   UNL     1      27.911  18.075  -0.178  1.00  0.00     0.004 C 
BRANCH  17  18
ATOM     18  C   UNL     1      28.118  16.559  -0.333  1.00  0.00     0.000 C 
BRANCH  18  19
ATOM     19  C   UNL     1      28.295  16.135  -1.798  1.00  0.00    -0.003 C 
ATOM     20  C   UNL     1      29.634  15.443  -2.054  1.00  0.00     0.004 C 
ENDBRANCH  18  19
ENDBRANCH  17  18
ENDBRANCH  16  17
ENDBRANCH  15  16
ENDBRANCH  13  14
ENDBRANCH  12  13
ENDBRANCH   1  11
TORSDOF 14
ENDMDL
MODEL 7
REMARK VINA RESULT:     6.768      5.226      9.547
REMARK INTER + INTRA:          11.550
REMARK INTER:                  12.216
REMARK INTRA:                  -0.667
REMARK UNBOUND:                -0.757
REMARK SMILES CCCCCC=CCC=CCCCCCCCC(=O)[O-]
REMARK SMILES IDX 11 1 12 2 13 3 14 4 15 5 16 6 17 7 18 8 19 9 20 10 10 11
REMARK SMILES IDX 9 12 8 13 7 14 6 15 5 16 4 17 3 18 2 19 1 20
REMARK H PARENT
REMARK Flexibility Score: inf
ROOT
ATOM      1  C   UNL     1      28.700  14.742   8.736  1.00  0.00     0.027 C 
ENDROOT
BRANCH   1   2
ATOM      2  C   UNL     1      27.229  14.649   9.167  1.00  0.00     0.004 C 
BRANCH   2   3
ATOM      3  C   UNL     1      26.355  13.922   8.134  1.00  0.00     0.000 C 
BRANCH   3   4
ATOM      4  C   UNL     1      24.931  13.657   8.651  1.00  0.00     0.000 C 
BRANCH   4   5
ATOM      5  C   UNL     1      24.328  12.363   8.080  1.00  0.00     0.000 C 
BRANCH   5   6
ATOM      6  C   UNL     1      22.834  12.207   8.411  1.00  0.00     0.006 C 
BRANCH   6   7
ATOM      7  C   UNL     1      22.601  11.273   9.606  1.00  0.00     0.053 C 
BRANCH   7   8
ATOM      8  C   UNL     1      21.411  10.386   9.395  1.00  0.00     0.041 C 
ATOM      9  O   UNL     1      20.324  10.874   8.985  1.00  0.00    -0.550 OA
ATOM     10  O   UNL     1      21.513   9.019   9.616  1.00  0.00    -0.550 OA
ENDBRANCH   7   8
ENDBRANCH   6   7
ENDBRANCH   5   6
ENDBRANCH   4   5
ENDBRANCH   3   4
ENDBRANCH   2   3
ENDBRANCH   1   2
BRANCH   1  11
ATOM     11  C   UNL     1      29.226  16.143   8.916  1.00  0.00    -0.031 C 
ATOM     12  C   UNL     1      29.660  16.928   7.914  1.00  0.00    -0.027 C 
BRANCH  12  13
ATOM     13  C   UNL     1      29.651  16.517   6.461  1.00  0.00     0.054 C 
BRANCH  13  14
ATOM     14  C   UNL     1      30.624  17.343   5.659  1.00  0.00    -0.027 C 
ATOM     15  C   UNL     1      30.271  18.267   4.748  1.00  0.00    -0.031 C 
BRANCH  15  16
ATOM     16  C   UNL     1      28.847  18.597   4.359  1.00  0.00     0.027 C 
BRANCH  16  17
ATOM     17  C   UNL     1      28.375  17.733   3.182  1.00  0.00     0.004 C 
BRANCH  17  18
ATOM     18  C   UNL     1      28.514  18.467   1.837  1.00  0.00     0.000 C 
BRANCH  18  19
ATOM     19  C   UNL     1      28.196  17.563   0.637  1.00  0.00    -0.003 C 
ATOM     20  C   UNL     1      27.370  18.274  -0.434  1.00  0.00     0.004 C 
ENDBRANCH  18  19
ENDBRANCH  17  18
ENDBRANCH  16  17
ENDBRANCH  15  16
ENDBRANCH  13  14
ENDBRANCH  12  13
ENDBRANCH   1  11
TORSDOF 14
ENDMDL
MODEL 8
REMARK VINA RESULT:     7.373      2.574      5.504
REMARK INTER + INTRA:          12.651
REMARK INTER:                  13.337
REMARK INTRA:                  -0.687
REMARK UNBOUND:                -0.757
REMARK SMILES CCCCCC=CCC=CCCCCCCCC(=O)[O-]
REMARK SMILES IDX 11 1 12 2 13 3 14 4 15 5 16 6 17 7 18 8 19 9 20 10 10 11
REMARK SMILES IDX 9 12 8 13 7 14 6 15 5 16 4 17 3 18 2 19 1 20
REMARK H PARENT
REMARK Flexibility Score: inf
ROOT
ATOM      1  C   UNL     1      28.435  15.979   8.534  1.00  0.00     0.027 C 
ENDROOT
BRANCH   1   2
ATOM      2  C   UNL     1      29.273  15.889   7.250  1.00  0.00     0.004 C 
BRANCH   2   3
ATOM      3  C   UNL     1      30.182  17.111   7.050  1.00  0.00     0.000 C 
BRANCH   3   4
ATOM      4  C   UNL     1      30.413  17.436   5.565  1.00  0.00     0.000 C 
BRANCH   4   5
ATOM      5  C   UNL     1      29.273  18.271   4.959  1.00  0.00     0.000 C 
BRANCH   5   6
ATOM      6  C   UNL     1      29.408  18.445   3.437  1.00  0.00     0.006 C 
BRANCH   6   7
ATOM      7  C   UNL     1      28.175  17.928   2.684  1.00  0.00     0.053 C 
BRANCH   7   8
ATOM      8  C   UNL     1      28.263  18.207   1.214  1.00  0.00     0.041 C 
ATOM      9  O   UNL     1      28.705  19.314   0.807  1.00  0.00    -0.550 OA
ATOM     10  O   UNL     1      27.890  17.235   0.297  1.00  0.00    -0.550 OA
ENDBRANCH   7   8
ENDBRANCH   6   7
ENDBRANCH   5   6
ENDBRANCH   4   5
ENDBRANCH   3   4
ENDBRANCH   2   3
ENDBRANCH   1   2
BRANCH   1  11
ATOM     11  C   UNL     1      28.389  14.649   9.241  1.00  0.00    -0.031 C 
ATOM     12  C   UNL     1      27.274  13.918   9.418  1.00  0.00    -0.027 C 
BRANCH  12  13
ATOM     13  C   UNL     1      25.914  14.324   8.903  1.00  0.00     0.054 C 
BRANCH  13  14
ATOM     14  C   UNL     1      25.491  13.452   7.749  1.00  0.00    -0.027 C 
ATOM     15  C   UNL     1      24.431  12.624   7.765  1.00  0.00    -0.031 C 
BRANCH  15  16
ATOM     16  C   UNL     1      23.521  12.409   8.954  1.00  0.00     0.027 C 
BRANCH  16  17
ATOM     17  C   UNL     1      22.252  11.645   8.557  1.00  0.00     0.004 C 
BRANCH  17  18
ATOM     18  C   UNL     1      21.718  10.778   9.710  1.00  0.00     0.000 C 
BRANCH  18  19
ATOM     19  C   UNL     1      21.383   9.347   9.266  1.00  0.00    -0.003 C 
ATOM     20  C   UNL     1      21.001   8.441  10.435  1.00  0.00     0.004 C 
ENDBRANCH  18  19
ENDBRANCH  17  18
ENDBRANCH  16  17
ENDBRANCH  15  16
ENDBRANCH  13  14
ENDBRANCH  12  13
ENDBRANCH   1  11
TORSDOF 14
ENDMDL
MODEL 9
REMARK VINA RESULT:     7.541      2.070      4.400
REMARK INTER + INTRA:          12.955
REMARK INTER:                  13.665
REMARK INTRA:                  -0.710
REMARK UNBOUND:                -0.757
REMARK SMILES CCCCCC=CCC=CCCCCCCCC(=O)[O-]
REMARK SMILES IDX 11 1 12 2 13 3 14 4 15 5 16 6 17 7 18 8 19 9 20 10 10 11
REMARK SMILES IDX 9 12 8 13 7 14 6 15 5 16 4 17 3 18 2 19 1 20
REMARK H PARENT
REMARK Flexibility Score: inf
ROOT
ATOM      1  C   UNL     1      29.368  16.026   6.960  1.00  0.00     0.027 C 
ENDROOT
BRANCH   1   2
ATOM      2  C   UNL     1      30.023  17.369   6.603  1.00  0.00     0.004 C 
BRANCH   2   3
ATOM      3  C   UNL     1      30.721  17.342   5.235  1.00  0.00     0.000 C 
BRANCH   3   4
ATOM      4  C   UNL     1      30.111  18.346   4.243  1.00  0.00     0.000 C 
BRANCH   4   5
ATOM      5  C   UNL     1      28.583  18.216   4.135  1.00  0.00     0.000 C 
BRANCH   5   6
ATOM      6  C   UNL     1      28.131  17.616   2.793  1.00  0.00     0.006 C 
BRANCH   6   7
ATOM      7  C   UNL     1      28.606  18.452   1.597  1.00  0.00     0.053 C 
BRANCH   7   8
ATOM      8  C   UNL     1      27.973  18.001   0.316  1.00  0.00     0.041 C 
ATOM      9  O   UNL     1      27.164  18.753  -0.289  1.00  0.00    -0.550 OA
ATOM     10  O   UNL     1      28.301  16.766  -0.226  1.00  0.00    -0.550 OA
ENDBRANCH   7   8
ENDBRANCH   6   7
ENDBRANCH   5   6
ENDBRANCH   4   5
ENDBRANCH   3   4
ENDBRANCH   2   3
ENDBRANCH   1   2
BRANCH   1  11
ATOM     11  C   UNL     1      29.398  15.792   8.449  1.00  0.00    -0.031 C 
ATOM     12  C   UNL     1      28.540  14.996   9.111  1.00  0.00    -0.027 C 
BRANCH  12  13
ATOM     13  C   UNL     1      27.442  14.204   8.443  1.00  0.00     0.054 C 
BRANCH  13  14
ATOM     14  C   UNL     1      26.091  14.581   8.994  1.00  0.00    -0.027 C 
ATOM     15  C   UNL     1      24.953  13.903   8.759  1.00  0.00    -0.031 C 
BRANCH  15  16
ATOM     16  C   UNL     1      24.845  12.680   7.876  1.00  0.00     0.027 C 
BRANCH  16  17
ATOM     17  C   UNL     1      23.397  12.182   7.785  1.00  0.00     0.004 C 
BRANCH  17  18
ATOM     18  C   UNL     1      22.876  11.675   9.140  1.00  0.00     0.000 C 
BRANCH  18  19
ATOM     19  C   UNL     1      21.511  10.981   9.026  1.00  0.00    -0.003 C 
ATOM     20  C   UNL     1      21.423   9.710   9.870  1.00  0.00     0.004 C 
ENDBRANCH  18  19
ENDBRANCH  17  18
ENDBRANCH  16  17
ENDBRANCH  15  16
ENDBRANCH  13  14
ENDBRANCH  12  13
ENDBRANCH   1  11
TORSDOF 14
ENDMDL
