MODEL 1
REMARK VINA RESULT:    -4.199      0.000      0.000
REMARK INTER + INTRA:          -9.550
REMARK INTER:                  -7.390
REMARK INTRA:                  -2.160
REMARK UNBOUND:                -2.160
REMARK SMILES CCCCCCCCCCCCCCC(=O)[O-]
REMARK SMILES IDX 9 1 10 2 11 3 12 4 13 5 14 6 15 7 16 8 17 9 8 10 7 11 6 12
REMARK SMILES IDX 5 13 4 14 3 15 2 16 1 17
REMARK H PARENT
REMARK Flexibility Score: inf
ROOT
ATOM      1  C   UNL     1     -38.722  18.805 -29.255  1.00  0.00     0.000 C 
ENDROOT
BRANCH   1   2
ATOM      2  C   UNL     1     -37.561  18.647 -28.256  1.00  0.00     0.000 C 
BRANCH   2   3
ATOM      3  C   UNL     1     -36.500  17.637 -28.728  1.00  0.00     0.000 C 
BRANCH   3   4
ATOM      4  C   UNL     1     -36.372  17.590 -30.259  1.00  0.00     0.000 C 
BRANCH   4   5
ATOM      5  C   UNL     1     -36.062  16.178 -30.786  1.00  0.00     0.006 C 
BRANCH   5   6
ATOM      6  C   UNL     1     -36.640  15.082 -29.881  1.00  0.00     0.053 C 
BRANCH   6   7
ATOM      7  C   UNL     1     -36.323  13.712 -30.396  1.00  0.00     0.041 C 
ATOM      8  O   UNL     1     -37.070  12.739 -30.109  1.00  0.00    -0.550 OA
ATOM      9  O   UNL     1     -35.225  13.515 -31.222  1.00  0.00    -0.550 OA
ENDBRANCH   6   7
ENDBRANCH   5   6
ENDBRANCH   4   5
ENDBRANCH   3   4
ENDBRANCH   2   3
ENDBRANCH   1   2
BRANCH   1  10
ATOM     10  C   UNL     1     -39.351  20.210 -29.310  1.00  0.00     0.000 C 
BRANCH  10  11
ATOM     11  C   UNL     1     -38.592  21.172 -30.236  1.00  0.00    -0.000 C 
BRANCH  11  12
ATOM     12  C   UNL     1     -38.371  20.542 -31.618  1.00  0.00    -0.000 C 
BRANCH  12  13
ATOM     13  C   UNL     1     -36.968  20.827 -32.181  1.00  0.00    -0.000 C 
BRANCH  13  14
ATOM     14  C   UNL     1     -36.069  21.569 -31.177  1.00  0.00    -0.000 C 
BRANCH  14  15
ATOM     15  C   UNL     1     -34.746  20.833 -30.915  1.00  0.00    -0.000 C 
BRANCH  15  16
ATOM     16  C   UNL     1     -34.433  20.695 -29.418  1.00  0.00    -0.003 C 
ATOM     17  C   UNL     1     -35.297  21.639 -28.586  1.00  0.00     0.004 C 
ENDBRANCH  15  16
ENDBRANCH  14  15
ENDBRANCH  13  14
ENDBRANCH  12  13
ENDBRANCH  11  12
ENDBRANCH  10  11
ENDBRANCH   1  10
TORSDOF 13
ENDMDL
MODEL 2
REMARK VINA RESULT:    -4.167      4.280      6.757
REMARK INTER + INTRA:          -9.494
REMARK INTER:                  -7.843
REMARK INTRA:                  -1.651
REMARK UNBOUND:                -2.160
REMARK SMILES CCCCCCCCCCCCCCC(=O)[O-]
REMARK SMILES IDX 9 1 10 2 11 3 12 4 13 5 14 6 15 7 16 8 17 9 8 10 7 11 6 12
REMARK SMILES IDX 5 13 4 14 3 15 2 16 1 17
REMARK H PARENT
REMARK Flexibility Score: inf
ROOT
ATOM      1  C   UNL     1     -35.313  21.112 -30.719  1.00  0.00     0.000 C 
ENDROOT
BRANCH   1   2
ATOM      2  C   UNL     1     -35.345  21.547 -29.243  1.00  0.00     0.000 C 
BRANCH   2   3
ATOM      3  C   UNL     1     -36.621  22.323 -28.874  1.00  0.00     0.000 C 
BRANCH   3   4
ATOM      4  C   UNL     1     -37.842  21.870 -29.691  1.00  0.00     0.000 C 
BRANCH   4   5
ATOM      5  C   UNL     1     -39.169  22.393 -29.116  1.00  0.00     0.006 C 
BRANCH   5   6
ATOM      6  C   UNL     1     -40.351  22.136 -30.060  1.00  0.00     0.053 C 
BRANCH   6   7
ATOM      7  C   UNL     1     -41.551  22.949 -29.682  1.00  0.00     0.041 C 
ATOM      8  O   UNL     1     -42.700  22.594 -30.057  1.00  0.00    -0.550 OA
ATOM      9  O   UNL     1     -41.405  24.078 -28.888  1.00  0.00    -0.550 OA
ENDBRANCH   6   7
ENDBRANCH   5   6
ENDBRANCH   4   5
ENDBRANCH   3   4
ENDBRANCH   2   3
ENDBRANCH   1   2
BRANCH   1  10
ATOM     10  C   UNL     1     -34.351  19.953 -31.040  1.00  0.00     0.000 C 
BRANCH  10  11
ATOM     11  C   UNL     1     -34.466  18.785 -30.049  1.00  0.00    -0.000 C 
BRANCH  11  12
ATOM     12  C   UNL     1     -35.167  17.583 -30.698  1.00  0.00    -0.000 C 
BRANCH  12  13
ATOM     13  C   UNL     1     -36.605  17.391 -30.189  1.00  0.00    -0.000 C 
BRANCH  13  14
ATOM     14  C   UNL     1     -36.712  17.520 -28.660  1.00  0.00    -0.000 C 
BRANCH  14  15
ATOM     15  C   UNL     1     -37.783  18.535 -28.228  1.00  0.00    -0.000 C 
BRANCH  15  16
ATOM     16  C   UNL     1     -38.950  18.620 -29.222  1.00  0.00    -0.003 C 
ATOM     17  C   UNL     1     -40.258  18.951 -28.508  1.00  0.00     0.004 C 
ENDBRANCH  15  16
ENDBRANCH  14  15
ENDBRANCH  13  14
ENDBRANCH  12  13
ENDBRANCH  11  12
ENDBRANCH  10  11
ENDBRANCH   1  10
TORSDOF 13
ENDMDL
MODEL 3
REMARK VINA RESULT:    -4.052      1.135      3.081
REMARK INTER + INTRA:          -9.292
REMARK INTER:                  -7.464
REMARK INTRA:                  -1.828
REMARK UNBOUND:                -2.160
REMARK SMILES CCCCCCCCCCCCCCC(=O)[O-]
REMARK SMILES IDX 9 1 10 2 11 3 12 4 13 5 14 6 15 7 16 8 17 9 8 10 7 11 6 12
REMARK SMILES IDX 5 13 4 14 3 15 2 16 1 17
REMARK H PARENT
REMARK Flexibility Score: inf
ROOT
ATOM      1  C   UNL     1     -34.828  19.262 -28.900  1.00  0.00     0.000 C 
ENDROOT
BRANCH   1   2
ATOM      2  C   UNL     1     -34.208  18.750 -30.213  1.00  0.00     0.000 C 
BRANCH   2   3
ATOM      3  C   UNL     1     -34.923  17.505 -30.766  1.00  0.00     0.000 C 
BRANCH   3   4
ATOM      4  C   UNL     1     -36.117  17.077 -29.897  1.00  0.00     0.000 C 
BRANCH   4   5
ATOM      5  C   UNL     1     -36.836  15.833 -30.447  1.00  0.00     0.006 C 
BRANCH   5   6
ATOM      6  C   UNL     1     -35.958  14.577 -30.375  1.00  0.00     0.053 C 
BRANCH   6   7
ATOM      7  C   UNL     1     -36.729  13.387 -29.892  1.00  0.00     0.041 C 
ATOM      8  O   UNL     1     -37.768  13.016 -30.501  1.00  0.00    -0.550 OA
ATOM      9  O   UNL     1     -36.282  12.666 -28.793  1.00  0.00    -0.550 OA
ENDBRANCH   6   7
ENDBRANCH   5   6
ENDBRANCH   4   5
ENDBRANCH   3   4
ENDBRANCH   2   3
ENDBRANCH   1   2
BRANCH   1  10
ATOM     10  C   UNL     1     -35.195  20.758 -28.889  1.00  0.00     0.000 C 
BRANCH  10  11
ATOM     11  C   UNL     1     -35.097  21.410 -30.277  1.00  0.00    -0.000 C 
BRANCH  11  12
ATOM     12  C   UNL     1     -36.489  21.781 -30.808  1.00  0.00    -0.000 C 
BRANCH  12  13
ATOM     13  C   UNL     1     -36.971  20.830 -31.917  1.00  0.00    -0.000 C 
BRANCH  13  14
ATOM     14  C   UNL     1     -37.940  19.756 -31.393  1.00  0.00    -0.000 C 
BRANCH  14  15
ATOM     15  C   UNL     1     -38.614  20.163 -30.073  1.00  0.00    -0.000 C 
BRANCH  15  16
ATOM     16  C   UNL     1     -38.924  18.959 -29.172  1.00  0.00    -0.003 C 
ATOM     17  C   UNL     1     -40.260  19.137 -28.457  1.00  0.00     0.004 C 
ENDBRANCH  15  16
ENDBRANCH  14  15
ENDBRANCH  13  14
ENDBRANCH  12  13
ENDBRANCH  11  12
ENDBRANCH  10  11
ENDBRANCH   1  10
TORSDOF 13
ENDMDL
MODEL 4
REMARK VINA RESULT:    -4.048      1.238      3.494
REMARK INTER + INTRA:          -9.285
REMARK INTER:                  -7.704
REMARK INTRA:                  -1.581
REMARK UNBOUND:                -2.160
REMARK SMILES CCCCCCCCCCCCCCC(=O)[O-]
REMARK SMILES IDX 9 1 10 2 11 3 12 4 13 5 14 6 15 7 16 8 17 9 8 10 7 11 6 12
REMARK SMILES IDX 5 13 4 14 3 15 2 16 1 17
REMARK H PARENT
REMARK Flexibility Score: inf
ROOT
ATOM      1  C   UNL     1     -35.405  20.635 -31.471  1.00  0.00     0.000 C 
ENDROOT
BRANCH   1   2
ATOM      2  C   UNL     1     -34.025  20.024 -31.166  1.00  0.00     0.000 C 
BRANCH   2   3
ATOM      3  C   UNL     1     -34.074  18.956 -30.060  1.00  0.00     0.000 C 
BRANCH   3   4
ATOM      4  C   UNL     1     -35.432  18.239 -29.994  1.00  0.00     0.000 C 
BRANCH   4   5
ATOM      5  C   UNL     1     -35.411  16.864 -30.683  1.00  0.00     0.006 C 
BRANCH   5   6
ATOM      6  C   UNL     1     -36.633  16.013 -30.314  1.00  0.00     0.053 C 
BRANCH   6   7
ATOM      7  C   UNL     1     -36.282  14.562 -30.185  1.00  0.00     0.041 C 
ATOM      8  O   UNL     1     -35.394  14.058 -30.923  1.00  0.00    -0.550 OA
ATOM      9  O   UNL     1     -36.908  13.776 -29.228  1.00  0.00    -0.550 OA
ENDBRANCH   6   7
ENDBRANCH   5   6
ENDBRANCH   4   5
ENDBRANCH   3   4
ENDBRANCH   2   3
ENDBRANCH   1   2
BRANCH   1  10
ATOM     10  C   UNL     1     -35.530  22.144 -31.191  1.00  0.00     0.000 C 
BRANCH  10  11
ATOM     11  C   UNL     1     -35.707  22.465 -29.699  1.00  0.00    -0.000 C 
BRANCH  11  12
ATOM     12  C   UNL     1     -36.745  21.532 -29.058  1.00  0.00    -0.000 C 
BRANCH  12  13
ATOM     13  C   UNL     1     -38.166  22.119 -29.085  1.00  0.00    -0.000 C 
BRANCH  13  14
ATOM     14  C   UNL     1     -39.161  21.221 -29.840  1.00  0.00    -0.000 C 
BRANCH  14  15
ATOM     15  C   UNL     1     -38.626  19.795 -30.049  1.00  0.00    -0.000 C 
BRANCH  15  16
ATOM     16  C   UNL     1     -38.965  18.860 -28.879  1.00  0.00    -0.003 C 
ATOM     17  C   UNL     1     -40.377  19.115 -28.362  1.00  0.00     0.004 C 
ENDBRANCH  15  16
ENDBRANCH  14  15
ENDBRANCH  13  14
ENDBRANCH  12  13
ENDBRANCH  11  12
ENDBRANCH  10  11
ENDBRANCH   1  10
TORSDOF 13
ENDMDL
MODEL 5
REMARK VINA RESULT:    -4.029      1.455      2.228
REMARK INTER + INTRA:          -9.251
REMARK INTER:                  -7.246
REMARK INTRA:                  -2.005
REMARK UNBOUND:                -2.160
REMARK SMILES CCCCCCCCCCCCCCC(=O)[O-]
REMARK SMILES IDX 9 1 10 2 11 3 12 4 13 5 14 6 15 7 16 8 17 9 8 10 7 11 6 12
REMARK SMILES IDX 5 13 4 14 3 15 2 16 1 17
REMARK H PARENT
REMARK Flexibility Score: inf
ROOT
ATOM      1  C   UNL     1     -39.398  20.564 -29.273  1.00  0.00     0.000 C 
ENDROOT
BRANCH   1   2
ATOM      2  C   UNL     1     -39.191  19.038 -29.262  1.00  0.00     0.000 C 
BRANCH   2   3
ATOM      3  C   UNL     1     -38.179  18.579 -28.199  1.00  0.00     0.000 C 
BRANCH   3   4
ATOM      4  C   UNL     1     -36.758  19.093 -28.478  1.00  0.00     0.000 C 
BRANCH   4   5
ATOM      5  C   UNL     1     -35.789  17.971 -28.890  1.00  0.00     0.006 C 
BRANCH   5   6
ATOM      6  C   UNL     1     -35.867  17.660 -30.390  1.00  0.00     0.053 C 
BRANCH   6   7
ATOM      7  C   UNL     1     -36.799  16.521 -30.673  1.00  0.00     0.041 C 
ATOM      8  O   UNL     1     -36.561  15.376 -30.205  1.00  0.00    -0.550 OA
ATOM      9  O   UNL     1     -37.948  16.732 -31.424  1.00  0.00    -0.550 OA
ENDBRANCH   6   7
ENDBRANCH   5   6
ENDBRANCH   4   5
ENDBRANCH   3   4
ENDBRANCH   2   3
ENDBRANCH   1   2
BRANCH   1  10
ATOM     10  C   UNL     1     -38.905  21.283 -30.543  1.00  0.00     0.000 C 
BRANCH  10  11
ATOM     11  C   UNL     1     -38.312  20.322 -31.584  1.00  0.00    -0.000 C 
BRANCH  11  12
ATOM     12  C   UNL     1     -37.141  20.978 -32.331  1.00  0.00    -0.000 C 
BRANCH  12  13
ATOM     13  C   UNL     1     -35.866  21.062 -31.474  1.00  0.00    -0.000 C 
BRANCH  13  14
ATOM     14  C   UNL     1     -35.476  22.512 -31.139  1.00  0.00    -0.000 C 
BRANCH  14  15
ATOM     15  C   UNL     1     -34.352  22.592 -30.093  1.00  0.00    -0.000 C 
BRANCH  15  16
ATOM     16  C   UNL     1     -34.827  22.205 -28.685  1.00  0.00    -0.003 C 
ATOM     17  C   UNL     1     -36.197  22.803 -28.383  1.00  0.00     0.004 C 
ENDBRANCH  15  16
ENDBRANCH  14  15
ENDBRANCH  13  14
ENDBRANCH  12  13
ENDBRANCH  11  12
ENDBRANCH  10  11
ENDBRANCH   1  10
TORSDOF 13
ENDMDL
MODEL 6
REMARK VINA RESULT:    -3.994      1.532      3.553
REMARK INTER + INTRA:          -9.189
REMARK INTER:                  -7.226
REMARK INTRA:                  -1.964
REMARK UNBOUND:                -2.160
REMARK SMILES CCCCCCCCCCCCCCC(=O)[O-]
REMARK SMILES IDX 9 1 10 2 11 3 12 4 13 5 14 6 15 7 16 8 17 9 8 10 7 11 6 12
REMARK SMILES IDX 5 13 4 14 3 15 2 16 1 17
REMARK H PARENT
REMARK Flexibility Score: inf
ROOT
ATOM      1  C   UNL     1     -35.436  21.435 -28.875  1.00  0.00     0.000 C 
ENDROOT
BRANCH   1   2
ATOM      2  C   UNL     1     -34.260  20.703 -28.204  1.00  0.00     0.000 C 
BRANCH   2   3
ATOM      3  C   UNL     1     -34.355  19.173 -28.331  1.00  0.00     0.000 C 
BRANCH   3   4
ATOM      4  C   UNL     1     -35.516  18.586 -27.511  1.00  0.00     0.000 C 
BRANCH   4   5
ATOM      5  C   UNL     1     -36.563  17.876 -28.387  1.00  0.00     0.006 C 
BRANCH   5   6
ATOM      6  C   UNL     1     -36.052  17.626 -29.812  1.00  0.00     0.053 C 
BRANCH   6   7
ATOM      7  C   UNL     1     -36.808  16.525 -30.489  1.00  0.00     0.041 C 
ATOM      8  O   UNL     1     -36.487  15.322 -30.293  1.00  0.00    -0.550 OA
ATOM      9  O   UNL     1     -37.890  16.823 -31.306  1.00  0.00    -0.550 OA
ENDBRANCH   6   7
ENDBRANCH   5   6
ENDBRANCH   4   5
ENDBRANCH   3   4
ENDBRANCH   2   3
ENDBRANCH   1   2
BRANCH   1  10
ATOM     10  C   UNL     1     -35.043  22.631 -29.763  1.00  0.00     0.000 C 
BRANCH  10  11
ATOM     11  C   UNL     1     -35.362  22.407 -31.248  1.00  0.00    -0.000 C 
BRANCH  11  12
ATOM     12  C   UNL     1     -35.831  20.966 -31.497  1.00  0.00    -0.000 C 
BRANCH  12  13
ATOM     13  C   UNL     1     -37.194  20.902 -32.207  1.00  0.00    -0.000 C 
BRANCH  13  14
ATOM     14  C   UNL     1     -38.253  20.147 -31.385  1.00  0.00    -0.000 C 
BRANCH  14  15
ATOM     15  C   UNL     1     -38.981  21.058 -30.384  1.00  0.00    -0.000 C 
BRANCH  15  16
ATOM     16  C   UNL     1     -38.941  20.510 -28.950  1.00  0.00    -0.003 C 
ATOM     17  C   UNL     1     -39.851  19.294 -28.800  1.00  0.00     0.004 C 
ENDBRANCH  15  16
ENDBRANCH  14  15
ENDBRANCH  13  14
ENDBRANCH  12  13
ENDBRANCH  11  12
ENDBRANCH  10  11
ENDBRANCH   1  10
TORSDOF 13
ENDMDL
MODEL 7
REMARK VINA RESULT:    -3.959      1.873      3.948
REMARK INTER + INTRA:          -9.128
REMARK INTER:                  -7.300
REMARK INTRA:                  -1.828
REMARK UNBOUND:                -2.160
REMARK SMILES CCCCCCCCCCCCCCC(=O)[O-]
REMARK SMILES IDX 9 1 10 2 11 3 12 4 13 5 14 6 15 7 16 8 17 9 8 10 7 11 6 12
REMARK SMILES IDX 5 13 4 14 3 15 2 16 1 17
REMARK H PARENT
REMARK Flexibility Score: inf
ROOT
ATOM      1  C   UNL     1     -35.088  20.851 -28.854  1.00  0.00     0.000 C 
ENDROOT
BRANCH   1   2
ATOM      2  C   UNL     1     -34.431  19.589 -28.266  1.00  0.00     0.000 C 
BRANCH   2   3
ATOM      3  C   UNL     1     -35.410  18.733 -27.445  1.00  0.00     0.000 C 
BRANCH   3   4
ATOM      4  C   UNL     1     -36.794  18.625 -28.104  1.00  0.00     0.000 C 
BRANCH   4   5
ATOM      5  C   UNL     1     -36.980  17.314 -28.886  1.00  0.00     0.006 C 
BRANCH   5   6
ATOM      6  C   UNL     1     -36.700  17.488 -30.385  1.00  0.00     0.053 C 
BRANCH   6   7
ATOM      7  C   UNL     1     -35.451  16.775 -30.803  1.00  0.00     0.041 C 
ATOM      8  O   UNL     1     -34.391  17.424 -31.013  1.00  0.00    -0.550 OA
ATOM      9  O   UNL     1     -35.446  15.393 -30.925  1.00  0.00    -0.550 OA
ENDBRANCH   6   7
ENDBRANCH   5   6
ENDBRANCH   4   5
ENDBRANCH   3   4
ENDBRANCH   2   3
ENDBRANCH   1   2
BRANCH   1  10
ATOM     10  C   UNL     1     -35.282  20.836 -30.382  1.00  0.00     0.000 C 
BRANCH  10  11
ATOM     11  C   UNL     1     -36.451  21.717 -30.848  1.00  0.00    -0.000 C 
BRANCH  11  12
ATOM     12  C   UNL     1     -37.592  20.859 -31.414  1.00  0.00    -0.000 C 
BRANCH  12  13
ATOM     13  C   UNL     1     -38.741  20.666 -30.411  1.00  0.00    -0.000 C 
BRANCH  13  14
ATOM     14  C   UNL     1     -38.701  21.690 -29.263  1.00  0.00    -0.000 C 
BRANCH  14  15
ATOM     15  C   UNL     1     -39.850  22.708 -29.341  1.00  0.00    -0.000 C 
BRANCH  15  16
ATOM     16  C   UNL     1     -40.925  22.308 -30.362  1.00  0.00    -0.003 C 
ATOM     17  C   UNL     1     -42.287  22.879 -29.979  1.00  0.00     0.004 C 
ENDBRANCH  15  16
ENDBRANCH  14  15
ENDBRANCH  13  14
ENDBRANCH  12  13
ENDBRANCH  11  12
ENDBRANCH  10  11
ENDBRANCH   1  10
TORSDOF 13
ENDMDL
MODEL 8
REMARK VINA RESULT:    -3.886     14.121     16.447
REMARK INTER + INTRA:          -8.999
REMARK INTER:                  -6.897
REMARK INTRA:                  -2.103
REMARK UNBOUND:                -2.160
REMARK SMILES CCCCCCCCCCCCCCC(=O)[O-]
REMARK SMILES IDX 9 1 10 2 11 3 12 4 13 5 14 6 15 7 16 8 17 9 8 10 7 11 6 12
REMARK SMILES IDX 5 13 4 14 3 15 2 16 1 17
REMARK H PARENT
REMARK Flexibility Score: inf
ROOT
ATOM      1  C   UNL     1     -46.576   8.400 -30.382  1.00  0.00     0.000 C 
ENDROOT
BRANCH   1   2
ATOM      2  C   UNL     1     -47.185   9.644 -29.710  1.00  0.00     0.000 C 
BRANCH   2   3
ATOM      3  C   UNL     1     -48.723   9.652 -29.748  1.00  0.00     0.000 C 
BRANCH   3   4
ATOM      4  C   UNL     1     -49.317  10.989 -29.274  1.00  0.00     0.000 C 
BRANCH   4   5
ATOM      5  C   UNL     1     -50.427  11.509 -30.204  1.00  0.00     0.006 C 
BRANCH   5   6
ATOM      6  C   UNL     1     -49.892  12.499 -31.247  1.00  0.00     0.053 C 
BRANCH   6   7
ATOM      7  C   UNL     1     -50.263  13.912 -30.913  1.00  0.00     0.041 C 
ATOM      8  O   UNL     1     -51.012  14.155 -29.929  1.00  0.00    -0.550 OA
ATOM      9  O   UNL     1     -49.753  14.961 -31.665  1.00  0.00    -0.550 OA
ENDBRANCH   6   7
ENDBRANCH   5   6
ENDBRANCH   4   5
ENDBRANCH   3   4
ENDBRANCH   2   3
ENDBRANCH   1   2
BRANCH   1  10
ATOM     10  C   UNL     1     -47.584   7.296 -30.751  1.00  0.00     0.000 C 
BRANCH  10  11
ATOM     11  C   UNL     1     -47.349   6.713 -32.153  1.00  0.00    -0.000 C 
BRANCH  11  12
ATOM     12  C   UNL     1     -48.526   7.037 -33.085  1.00  0.00    -0.000 C 
BRANCH  12  13
ATOM     13  C   UNL     1     -48.570   8.521 -33.487  1.00  0.00    -0.000 C 
BRANCH  13  14
ATOM     14  C   UNL     1     -49.895   9.199 -33.095  1.00  0.00    -0.000 C 
BRANCH  14  15
ATOM     15  C   UNL     1     -51.058   8.200 -32.983  1.00  0.00    -0.000 C 
BRANCH  15  16
ATOM     16  C   UNL     1     -51.800   8.306 -31.643  1.00  0.00    -0.003 C 
ATOM     17  C   UNL     1     -51.330   7.231 -30.668  1.00  0.00     0.004 C 
ENDBRANCH  15  16
ENDBRANCH  14  15
ENDBRANCH  13  14
ENDBRANCH  12  13
ENDBRANCH  11  12
ENDBRANCH  10  11
ENDBRANCH   1  10
TORSDOF 13
ENDMDL
MODEL 9
REMARK VINA RESULT:    -3.879     14.169     16.280
REMARK INTER + INTRA:          -8.986
REMARK INTER:                  -6.969
REMARK INTRA:                  -2.017
REMARK UNBOUND:                -2.160
REMARK SMILES CCCCCCCCCCCCCCC(=O)[O-]
REMARK SMILES IDX 9 1 10 2 11 3 12 4 13 5 14 6 15 7 16 8 17 9 8 10 7 11 6 12
REMARK SMILES IDX 5 13 4 14 3 15 2 16 1 17
REMARK H PARENT
REMARK Flexibility Score: inf
ROOT
ATOM      1  C   UNL     1     -46.827   9.242 -30.142  1.00  0.00     0.000 C 
ENDROOT
BRANCH   1   2
ATOM      2  C   UNL     1     -48.113   9.731 -29.451  1.00  0.00     0.000 C 
BRANCH   2   3
ATOM      3  C   UNL     1     -48.130  11.253 -29.226  1.00  0.00     0.000 C 
BRANCH   3   4
ATOM      4  C   UNL     1     -49.473  11.890 -29.617  1.00  0.00     0.000 C 
BRANCH   4   5
ATOM      5  C   UNL     1     -49.328  12.954 -30.718  1.00  0.00     0.006 C 
BRANCH   5   6
ATOM      6  C   UNL     1     -50.593  13.809 -30.869  1.00  0.00     0.053 C 
BRANCH   6   7
ATOM      7  C   UNL     1     -51.799  12.969 -31.160  1.00  0.00     0.041 C 
ATOM      8  O   UNL     1     -51.910  12.383 -32.270  1.00  0.00    -0.550 OA
ATOM      9  O   UNL     1     -52.782  12.804 -30.194  1.00  0.00    -0.550 OA
ENDBRANCH   6   7
ENDBRANCH   5   6
ENDBRANCH   4   5
ENDBRANCH   3   4
ENDBRANCH   2   3
ENDBRANCH   1   2
BRANCH   1  10
ATOM     10  C   UNL     1     -46.539   7.736 -29.998  1.00  0.00     0.000 C 
BRANCH  10  11
ATOM     11  C   UNL     1     -47.507   6.859 -30.807  1.00  0.00    -0.000 C 
BRANCH  11  12
ATOM     12  C   UNL     1     -47.331   7.095 -32.314  1.00  0.00    -0.000 C 
BRANCH  12  13
ATOM     13  C   UNL     1     -48.664   7.372 -33.028  1.00  0.00    -0.000 C 
BRANCH  13  14
ATOM     14  C   UNL     1     -48.851   8.860 -33.374  1.00  0.00    -0.000 C 
BRANCH  14  15
ATOM     15  C   UNL     1     -49.954   9.525 -32.535  1.00  0.00    -0.000 C 
BRANCH  15  16
ATOM     16  C   UNL     1     -50.852   8.503 -31.824  1.00  0.00    -0.003 C 
ATOM     17  C   UNL     1     -51.653   9.161 -30.703  1.00  0.00     0.004 C 
ENDBRANCH  15  16
ENDBRANCH  14  15
ENDBRANCH  13  14
ENDBRANCH  12  13
ENDBRANCH  11  12
ENDBRANCH  10  11
ENDBRANCH   1  10
TORSDOF 13
ENDMDL
