MODEL 1
REMARK VINA RESULT:    -5.871      0.000      0.000
REMARK INTER + INTRA:         -10.509
REMARK INTER:                  -8.617
REMARK INTRA:                  -1.892
REMARK UNBOUND:                -1.892
REMARK SMILES O=c1c(O[C@H]2O[C@H](CO)[C@H](O)[C@H](O)[C@@H]2O)c(-c2ccc(O)c(O)c2)oc2cc(O)cc(O)c12
REMARK SMILES IDX 4 1 3 2 16 3 25 4 2 5 26 6 1 7 33 8 27 9 31 10 28 11 30 12
REMARK SMILES IDX 17 13 18 14 19 15 20 16 24 17 22 18 21 19 23 21 32 23 29 25
REMARK SMILES IDX 5 27 14 28 6 29 12 30 7 31 10 32 15 33 13 35 8 37 9 38 11 40
REMARK H PARENT 21 20 23 22 32 24 29 26 15 34 13 36 9 39 11 41
REMARK Flexibility Score: inf
ROOT
ATOM      1  O   UNL     1       6.931 -34.373  15.074  1.00  0.00    -0.454 OA
ENDROOT
BRANCH   1   2
ATOM      2  C   UNL     1       6.971 -35.338  16.101  1.00  0.00     0.214 A 
ATOM      3  C   UNL     1       6.456 -35.138  17.401  1.00  0.00     0.180 A 
ATOM      4  O   UNL     1       6.402 -36.154  18.253  1.00  0.00    -0.452 OA
ATOM      5  C   UNL     1       7.542 -36.582  15.796  1.00  0.00     0.239 A 
ATOM      6  C   UNL     1       6.890 -37.359  17.986  1.00  0.00     0.146 A 
ATOM      7  O   UNL     1       8.004 -36.758  14.637  1.00  0.00    -0.285 OA
ATOM      8  C   UNL     1       7.547 -37.620  16.757  1.00  0.00     0.111 A 
ATOM      9  C   UNL     1       6.754 -38.364  18.947  1.00  0.00     0.094 A 
ATOM     10  C   UNL     1       8.125 -38.909  16.553  1.00  0.00     0.134 A 
ATOM     11  C   UNL     1       7.270 -39.638  18.713  1.00  0.00     0.123 A 
ATOM     12  C   UNL     1       7.946 -39.906  17.521  1.00  0.00     0.093 A 
BRANCH   3  13
ATOM     13  C   UNL     1       6.010 -33.827  17.895  1.00  0.00     0.025 A 
ATOM     14  C   UNL     1       6.845 -33.065  18.727  1.00  0.00     0.016 A 
ATOM     15  C   UNL     1       6.406 -31.833  19.221  1.00  0.00     0.051 A 
ATOM     16  C   UNL     1       5.131 -31.356  18.899  1.00  0.00     0.157 A 
ATOM     17  C   UNL     1       4.718 -33.369  17.602  1.00  0.00     0.062 A 
ATOM     18  C   UNL     1       4.280 -32.129  18.090  1.00  0.00     0.158 A 
BRANCH  16  19
ATOM     19  O   UNL     1       4.728 -30.116  19.394  1.00  0.00    -0.504 OA
ATOM     20  H   UNL     1       5.360 -29.506  19.897  1.00  0.00     0.293 HD
ENDBRANCH  16  19
BRANCH  18  21
ATOM     21  O   UNL     1       3.000 -31.669  17.784  1.00  0.00    -0.504 OA
ATOM     22  H   UNL     1       2.173 -32.213  17.994  1.00  0.00     0.293 HD
ENDBRANCH  18  21
ENDBRANCH   3  13
BRANCH  10  23
ATOM     23  O   UNL     1       8.902 -39.248  15.442  1.00  0.00    -0.507 OA
ATOM     24  H   UNL     1       9.264 -40.172  15.257  1.00  0.00     0.293 HD
ENDBRANCH  10  23
BRANCH  11  25
ATOM     25  O   UNL     1       7.115 -40.629  19.681  1.00  0.00    -0.508 OA
ATOM     26  H   UNL     1       6.649 -40.444  20.562  1.00  0.00     0.293 HD
ENDBRANCH  11  25
ENDBRANCH   1   2
BRANCH   1  27
ATOM     27  C   UNL     1       8.030 -33.602  14.558  1.00  0.00     0.339 C 
ATOM     28  C   UNL     1       8.850 -32.891  15.679  1.00  0.00     0.214 C 
ATOM     29  O   UNL     1       7.555 -32.652  13.621  1.00  0.00    -0.332 OA
ATOM     30  C   UNL     1       8.476 -31.396  15.816  1.00  0.00     0.180 C 
ATOM     31  C   UNL     1       6.558 -31.800  14.176  1.00  0.00     0.179 C 
ATOM     32  C   UNL     1       6.968 -31.227  15.577  1.00  0.00     0.177 C 
BRANCH  28  33
ATOM     33  O   UNL     1      10.235 -33.041  15.476  1.00  0.00    -0.384 OA
ATOM     34  H   UNL     1      10.414 -33.997  15.279  1.00  0.00     0.211 HD
ENDBRANCH  28  33
BRANCH  30  35
ATOM     35  O   UNL     1       9.181 -30.606  14.890  1.00  0.00    -0.387 OA
ATOM     36  H   UNL     1       8.539 -30.351  14.177  1.00  0.00     0.211 HD
ENDBRANCH  30  35
BRANCH  31  37
ATOM     37  C   UNL     1       6.261 -30.704  13.135  1.00  0.00     0.191 C 
BRANCH  37  38
ATOM     38  O   UNL     1       7.399 -29.923  12.883  1.00  0.00    -0.394 OA
ATOM     39  H   UNL     1       8.138 -30.554  12.676  1.00  0.00     0.210 HD
ENDBRANCH  37  38
ENDBRANCH  31  37
BRANCH  32  40
ATOM     40  O   UNL     1       6.601 -29.877  15.721  1.00  0.00    -0.387 OA
ATOM     41  H   UNL     1       7.435 -29.343  15.664  1.00  0.00     0.211 HD
ENDBRANCH  32  40
ENDBRANCH   1  27
TORSDOF 12
ENDMDL
MODEL 2
REMARK VINA RESULT:    -5.663      1.309      2.061
REMARK INTER + INTRA:         -10.203
REMARK INTER:                  -8.234
REMARK INTRA:                  -1.969
REMARK UNBOUND:                -1.892
REMARK SMILES O=c1c(O[C@H]2O[C@H](CO)[C@H](O)[C@H](O)[C@@H]2O)c(-c2ccc(O)c(O)c2)oc2cc(O)cc(O)c12
REMARK SMILES IDX 4 1 3 2 16 3 25 4 2 5 26 6 1 7 33 8 27 9 31 10 28 11 30 12
REMARK SMILES IDX 17 13 18 14 19 15 20 16 24 17 22 18 21 19 23 21 32 23 29 25
REMARK SMILES IDX 5 27 14 28 6 29 12 30 7 31 10 32 15 33 13 35 8 37 9 38 11 40
REMARK H PARENT 21 20 23 22 32 24 29 26 15 34 13 36 9 39 11 41
REMARK Flexibility Score: inf
ROOT
ATOM      1  O   UNL     1       6.957 -34.169  14.991  1.00  0.00    -0.454 OA
ENDROOT
BRANCH   1   2
ATOM      2  C   UNL     1       6.983 -35.141  16.010  1.00  0.00     0.214 A 
ATOM      3  C   UNL     1       6.457 -34.948  17.307  1.00  0.00     0.180 A 
ATOM      4  O   UNL     1       6.390 -35.970  18.151  1.00  0.00    -0.452 OA
ATOM      5  C   UNL     1       7.550 -36.386  15.700  1.00  0.00     0.239 A 
ATOM      6  C   UNL     1       6.874 -37.176  17.879  1.00  0.00     0.146 A 
ATOM      7  O   UNL     1       8.022 -36.555  14.545  1.00  0.00    -0.285 OA
ATOM      8  C   UNL     1       7.541 -37.431  16.654  1.00  0.00     0.111 A 
ATOM      9  C   UNL     1       6.725 -38.188  18.831  1.00  0.00     0.094 A 
ATOM     10  C   UNL     1       8.113 -38.722  16.445  1.00  0.00     0.134 A 
ATOM     11  C   UNL     1       7.235 -39.462  18.592  1.00  0.00     0.123 A 
ATOM     12  C   UNL     1       7.921 -39.725  17.404  1.00  0.00     0.093 A 
BRANCH   3  13
ATOM     13  C   UNL     1       6.014 -33.639  17.807  1.00  0.00     0.025 A 
ATOM     14  C   UNL     1       6.956 -32.692  18.240  1.00  0.00     0.016 A 
ATOM     15  C   UNL     1       6.531 -31.460  18.744  1.00  0.00     0.051 A 
ATOM     16  C   UNL     1       5.167 -31.165  18.831  1.00  0.00     0.157 A 
ATOM     17  C   UNL     1       4.646 -33.360  17.928  1.00  0.00     0.062 A 
ATOM     18  C   UNL     1       4.219 -32.121  18.426  1.00  0.00     0.158 A 
BRANCH  16  19
ATOM     19  O   UNL     1       4.774 -29.921  19.324  1.00  0.00    -0.504 OA
ATOM     20  H   UNL     1       4.303 -29.820  20.214  1.00  0.00     0.293 HD
ENDBRANCH  16  19
BRANCH  18  21
ATOM     21  O   UNL     1       2.856 -31.840  18.532  1.00  0.00    -0.504 OA
ATOM     22  H   UNL     1       2.398 -31.183  17.913  1.00  0.00     0.293 HD
ENDBRANCH  18  21
ENDBRANCH   3  13
BRANCH  10  23
ATOM     23  O   UNL     1       8.899 -39.057  15.339  1.00  0.00    -0.507 OA
ATOM     24  H   UNL     1       9.758 -39.586  15.385  1.00  0.00     0.293 HD
ENDBRANCH  10  23
BRANCH  11  25
ATOM     25  O   UNL     1       7.066 -40.460  19.550  1.00  0.00    -0.508 OA
ATOM     26  H   UNL     1       7.836 -41.050  19.845  1.00  0.00     0.293 HD
ENDBRANCH  11  25
ENDBRANCH   1   2
BRANCH   1  27
ATOM     27  C   UNL     1       5.834 -33.792  14.173  1.00  0.00     0.339 C 
ATOM     28  C   UNL     1       6.217 -33.593  12.674  1.00  0.00     0.214 C 
ATOM     29  O   UNL     1       5.238 -32.614  14.688  1.00  0.00    -0.332 OA
ATOM     30  C   UNL     1       6.387 -32.100  12.309  1.00  0.00     0.180 C 
ATOM     31  C   UNL     1       6.167 -31.541  14.793  1.00  0.00     0.179 C 
ATOM     32  C   UNL     1       7.024 -31.357  13.492  1.00  0.00     0.177 C 
BRANCH  28  33
ATOM     33  O   UNL     1       5.284 -34.212  11.820  1.00  0.00    -0.384 OA
ATOM     34  H   UNL     1       5.609 -35.129  11.625  1.00  0.00     0.211 HD
ENDBRANCH  28  33
BRANCH  30  35
ATOM     35  O   UNL     1       5.149 -31.505  12.004  1.00  0.00    -0.387 OA
ATOM     36  H   UNL     1       5.180 -31.245  11.045  1.00  0.00     0.211 HD
ENDBRANCH  30  35
BRANCH  31  37
ATOM     37  C   UNL     1       5.369 -30.280  15.177  1.00  0.00     0.191 C 
BRANCH  37  38
ATOM     38  O   UNL     1       4.374 -30.002  14.228  1.00  0.00    -0.394 OA
ATOM     39  H   UNL     1       4.555 -30.586  13.446  1.00  0.00     0.210 HD
ENDBRANCH  37  38
ENDBRANCH  31  37
BRANCH  32  40
ATOM     40  O   UNL     1       7.211 -30.000  13.172  1.00  0.00    -0.387 OA
ATOM     41  H   UNL     1       8.190 -29.838  13.162  1.00  0.00     0.211 HD
ENDBRANCH  32  40
ENDBRANCH   1  27
TORSDOF 12
ENDMDL
MODEL 3
REMARK VINA RESULT:    -5.458      1.998      6.743
REMARK INTER + INTRA:          -9.903
REMARK INTER:                  -9.251
REMARK INTRA:                  -0.652
REMARK UNBOUND:                -1.892
REMARK SMILES O=c1c(O[C@H]2O[C@H](CO)[C@H](O)[C@H](O)[C@@H]2O)c(-c2ccc(O)c(O)c2)oc2cc(O)cc(O)c12
REMARK SMILES IDX 4 1 3 2 16 3 25 4 2 5 26 6 1 7 33 8 27 9 31 10 28 11 30 12
REMARK SMILES IDX 17 13 18 14 19 15 20 16 24 17 22 18 21 19 23 21 32 23 29 25
REMARK SMILES IDX 5 27 14 28 6 29 12 30 7 31 10 32 15 33 13 35 8 37 9 38 11 40
REMARK H PARENT 21 20 23 22 32 24 29 26 15 34 13 36 9 39 11 41
REMARK Flexibility Score: inf
ROOT
ATOM      1  O   UNL     1       8.039 -35.439  15.332  1.00  0.00    -0.454 OA
ENDROOT
BRANCH   1   2
ATOM      2  C   UNL     1       7.283 -34.654  16.225  1.00  0.00     0.214 A 
ATOM      3  C   UNL     1       6.842 -35.093  17.493  1.00  0.00     0.180 A 
ATOM      4  O   UNL     1       6.268 -34.235  18.326  1.00  0.00    -0.452 OA
ATOM      5  C   UNL     1       6.974 -33.344  15.830  1.00  0.00     0.239 A 
ATOM      6  C   UNL     1       5.999 -32.975  18.007  1.00  0.00     0.146 A 
ATOM      7  O   UNL     1       7.365 -32.955  14.698  1.00  0.00    -0.285 OA
ATOM      8  C   UNL     1       6.283 -32.478  16.710  1.00  0.00     0.111 A 
ATOM      9  C   UNL     1       5.417 -32.149  18.973  1.00  0.00     0.094 A 
ATOM     10  C   UNL     1       5.899 -31.140  16.393  1.00  0.00     0.134 A 
ATOM     11  C   UNL     1       5.101 -30.826  18.672  1.00  0.00     0.123 A 
ATOM     12  C   UNL     1       5.346 -30.327  17.390  1.00  0.00     0.093 A 
BRANCH   3  13
ATOM     13  C   UNL     1       6.939 -36.491  17.936  1.00  0.00     0.025 A 
ATOM     14  C   UNL     1       7.016 -37.528  16.992  1.00  0.00     0.016 A 
ATOM     15  C   UNL     1       7.075 -38.858  17.415  1.00  0.00     0.051 A 
ATOM     16  C   UNL     1       7.049 -39.168  18.778  1.00  0.00     0.157 A 
ATOM     17  C   UNL     1       6.874 -36.802  19.301  1.00  0.00     0.062 A 
ATOM     18  C   UNL     1       6.942 -38.136  19.727  1.00  0.00     0.158 A 
BRANCH  16  19
ATOM     19  O   UNL     1       7.126 -40.505  19.171  1.00  0.00    -0.504 OA
ATOM     20  H   UNL     1       8.003 -40.940  19.425  1.00  0.00     0.293 HD
ENDBRANCH  16  19
BRANCH  18  21
ATOM     21  O   UNL     1       6.893 -38.441  21.087  1.00  0.00    -0.504 OA
ATOM     22  H   UNL     1       7.355 -37.866  21.779  1.00  0.00     0.293 HD
ENDBRANCH  18  21
ENDBRANCH   3  13
BRANCH  10  23
ATOM     23  O   UNL     1       6.010 -30.579  15.118  1.00  0.00    -0.507 OA
ATOM     24  H   UNL     1       5.533 -30.922  14.297  1.00  0.00     0.293 HD
ENDBRANCH  10  23
BRANCH  11  25
ATOM     25  O   UNL     1       4.531 -30.016  19.652  1.00  0.00    -0.508 OA
ATOM     26  H   UNL     1       4.053 -30.410  20.455  1.00  0.00     0.293 HD
ENDBRANCH  11  25
ENDBRANCH   1   2
BRANCH   1  27
ATOM     27  C   UNL     1       7.795 -35.643  13.928  1.00  0.00     0.339 C 
ATOM     28  C   UNL     1       6.775 -36.791  13.651  1.00  0.00     0.214 C 
ATOM     29  O   UNL     1       9.017 -35.899  13.259  1.00  0.00    -0.332 OA
ATOM     30  C   UNL     1       7.478 -38.107  13.242  1.00  0.00     0.180 C 
ATOM     31  C   UNL     1       9.713 -37.010  13.815  1.00  0.00     0.179 C 
ATOM     32  C   UNL     1       8.784 -38.254  14.036  1.00  0.00     0.177 C 
BRANCH  28  33
ATOM     33  O   UNL     1       5.825 -36.412  12.683  1.00  0.00    -0.384 OA
ATOM     34  H   UNL     1       6.100 -35.533  12.313  1.00  0.00     0.211 HD
ENDBRANCH  28  33
BRANCH  30  35
ATOM     35  O   UNL     1       7.770 -38.124  11.866  1.00  0.00    -0.387 OA
ATOM     36  H   UNL     1       7.490 -39.012  11.520  1.00  0.00     0.211 HD
ENDBRANCH  30  35
BRANCH  31  37
ATOM     37  C   UNL     1      10.914 -37.304  12.896  1.00  0.00     0.191 C 
BRANCH  37  38
ATOM     38  O   UNL     1      10.497 -37.546  11.579  1.00  0.00    -0.394 OA
ATOM     39  H   UNL     1      10.051 -38.434  11.580  1.00  0.00     0.210 HD
ENDBRANCH  37  38
ENDBRANCH  31  37
BRANCH  32  40
ATOM     40  O   UNL     1       9.428 -39.458  13.697  1.00  0.00    -0.387 OA
ATOM     41  H   UNL     1       8.924 -39.850  12.938  1.00  0.00     0.211 HD
ENDBRANCH  32  40
ENDBRANCH   1  27
TORSDOF 12
ENDMDL
MODEL 4
REMARK VINA RESULT:    -5.430     14.867     17.583
REMARK INTER + INTRA:          -9.862
REMARK INTER:                  -8.058
REMARK INTRA:                  -1.804
REMARK UNBOUND:                -1.892
REMARK SMILES O=c1c(O[C@H]2O[C@H](CO)[C@H](O)[C@H](O)[C@@H]2O)c(-c2ccc(O)c(O)c2)oc2cc(O)cc(O)c12
REMARK SMILES IDX 4 1 3 2 16 3 25 4 2 5 26 6 1 7 33 8 27 9 31 10 28 11 30 12
REMARK SMILES IDX 17 13 18 14 19 15 20 16 24 17 22 18 21 19 23 21 32 23 29 25
REMARK SMILES IDX 5 27 14 28 6 29 12 30 7 31 10 32 15 33 13 35 8 37 9 38 11 40
REMARK H PARENT 21 20 23 22 32 24 29 26 15 34 13 36 9 39 11 41
REMARK Flexibility Score: inf
ROOT
ATOM      1  O   UNL     1      -5.803 -44.602  15.266  1.00  0.00    -0.454 OA
ENDROOT
BRANCH   1   2
ATOM      2  C   UNL     1      -5.261 -45.402  14.241  1.00  0.00     0.214 A 
ATOM      3  C   UNL     1      -4.225 -46.345  14.430  1.00  0.00     0.180 A 
ATOM      4  O   UNL     1      -3.885 -47.160  13.440  1.00  0.00    -0.452 OA
ATOM      5  C   UNL     1      -5.808 -45.264  12.957  1.00  0.00     0.239 A 
ATOM      6  C   UNL     1      -4.411 -47.091  12.224  1.00  0.00     0.146 A 
ATOM      7  O   UNL     1      -6.729 -44.421  12.789  1.00  0.00    -0.285 OA
ATOM      8  C   UNL     1      -5.362 -46.091  11.899  1.00  0.00     0.111 A 
ATOM      9  C   UNL     1      -3.999 -48.018  11.263  1.00  0.00     0.094 A 
ATOM     10  C   UNL     1      -5.835 -46.010  10.554  1.00  0.00     0.134 A 
ATOM     11  C   UNL     1      -4.512 -47.969   9.968  1.00  0.00     0.123 A 
ATOM     12  C   UNL     1      -5.427 -46.972   9.621  1.00  0.00     0.093 A 
BRANCH   3  13
ATOM     13  C   UNL     1      -3.450 -46.444  15.675  1.00  0.00     0.025 A 
ATOM     14  C   UNL     1      -2.493 -45.467  15.991  1.00  0.00     0.016 A 
ATOM     15  C   UNL     1      -1.735 -45.581  17.160  1.00  0.00     0.051 A 
ATOM     16  C   UNL     1      -1.914 -46.673  18.015  1.00  0.00     0.157 A 
ATOM     17  C   UNL     1      -3.605 -47.559  16.511  1.00  0.00     0.062 A 
ATOM     18  C   UNL     1      -2.850 -47.670  17.688  1.00  0.00     0.158 A 
BRANCH  16  19
ATOM     19  O   UNL     1      -1.153 -46.751  19.182  1.00  0.00    -0.504 OA
ATOM     20  H   UNL     1      -0.189 -46.444  19.216  1.00  0.00     0.293 HD
ENDBRANCH  16  19
BRANCH  18  21
ATOM     21  O   UNL     1      -3.017 -48.771  18.526  1.00  0.00    -0.504 OA
ATOM     22  H   UNL     1      -3.680 -48.764  19.291  1.00  0.00     0.293 HD
ENDBRANCH  18  21
ENDBRANCH   3  13
BRANCH  10  23
ATOM     23  O   UNL     1      -6.673 -44.997  10.082  1.00  0.00    -0.507 OA
ATOM     24  H   UNL     1      -6.538 -44.012  10.259  1.00  0.00     0.293 HD
ENDBRANCH  10  23
BRANCH  11  25
ATOM     25  O   UNL     1      -4.096 -48.909   9.028  1.00  0.00    -0.508 OA
ATOM     26  H   UNL     1      -4.517 -48.963   8.107  1.00  0.00     0.293 HD
ENDBRANCH  11  25
ENDBRANCH   1   2
BRANCH   1  27
ATOM     27  C   UNL     1      -6.730 -45.005  16.290  1.00  0.00     0.339 C 
ATOM     28  C   UNL     1      -7.851 -43.950  16.541  1.00  0.00     0.214 C 
ATOM     29  O   UNL     1      -6.031 -45.275  17.493  1.00  0.00    -0.332 OA
ATOM     30  C   UNL     1      -7.568 -43.086  17.793  1.00  0.00     0.180 C 
ATOM     31  C   UNL     1      -5.254 -44.163  17.926  1.00  0.00     0.179 C 
ATOM     32  C   UNL     1      -6.059 -42.817  17.894  1.00  0.00     0.177 C 
BRANCH  28  33
ATOM     33  O   UNL     1      -9.118 -44.559  16.633  1.00  0.00    -0.384 OA
ATOM     34  H   UNL     1      -9.782 -43.944  16.225  1.00  0.00     0.211 HD
ENDBRANCH  28  33
BRANCH  30  35
ATOM     35  O   UNL     1      -8.002 -43.729  18.967  1.00  0.00    -0.387 OA
ATOM     36  H   UNL     1      -7.939 -43.064  19.702  1.00  0.00     0.211 HD
ENDBRANCH  30  35
BRANCH  31  37
ATOM     37  C   UNL     1      -4.702 -44.507  19.323  1.00  0.00     0.191 C 
BRANCH  37  38
ATOM     38  O   UNL     1      -3.559 -43.748  19.616  1.00  0.00    -0.394 OA
ATOM     39  H   UNL     1      -3.733 -43.293  20.481  1.00  0.00     0.210 HD
ENDBRANCH  37  38
ENDBRANCH  31  37
BRANCH  32  40
ATOM     40  O   UNL     1      -5.782 -42.011  19.012  1.00  0.00    -0.387 OA
ATOM     41  H   UNL     1      -6.602 -42.000  19.571  1.00  0.00     0.211 HD
ENDBRANCH  32  40
ENDBRANCH   1  27
TORSDOF 12
ENDMDL
MODEL 5
REMARK VINA RESULT:    -5.379      2.265      6.900
REMARK INTER + INTRA:          -9.787
REMARK INTER:                  -8.477
REMARK INTRA:                  -1.310
REMARK UNBOUND:                -1.892
REMARK SMILES O=c1c(O[C@H]2O[C@H](CO)[C@H](O)[C@H](O)[C@@H]2O)c(-c2ccc(O)c(O)c2)oc2cc(O)cc(O)c12
REMARK SMILES IDX 4 1 3 2 16 3 25 4 2 5 26 6 1 7 33 8 27 9 31 10 28 11 30 12
REMARK SMILES IDX 17 13 18 14 19 15 20 16 24 17 22 18 21 19 23 21 32 23 29 25
REMARK SMILES IDX 5 27 14 28 6 29 12 30 7 31 10 32 15 33 13 35 8 37 9 38 11 40
REMARK H PARENT 21 20 23 22 32 24 29 26 15 34 13 36 9 39 11 41
REMARK Flexibility Score: inf
ROOT
ATOM      1  O   UNL     1       4.737 -34.693  17.652  1.00  0.00    -0.454 OA
ENDROOT
BRANCH   1   2
ATOM      2  C   UNL     1       6.015 -34.353  17.165  1.00  0.00     0.214 A 
ATOM      3  C   UNL     1       7.106 -35.248  17.101  1.00  0.00     0.180 A 
ATOM      4  O   UNL     1       8.225 -34.882  16.488  1.00  0.00    -0.452 OA
ATOM      5  C   UNL     1       6.199 -33.044  16.693  1.00  0.00     0.239 A 
ATOM      6  C   UNL     1       8.422 -33.669  15.988  1.00  0.00     0.146 A 
ATOM      7  O   UNL     1       5.226 -32.247  16.754  1.00  0.00    -0.285 OA
ATOM      8  C   UNL     1       7.434 -32.659  16.122  1.00  0.00     0.111 A 
ATOM      9  C   UNL     1       9.629 -33.400  15.338  1.00  0.00     0.094 A 
ATOM     10  C   UNL     1       7.729 -31.349  15.639  1.00  0.00     0.134 A 
ATOM     11  C   UNL     1       9.882 -32.133  14.816  1.00  0.00     0.123 A 
ATOM     12  C   UNL     1       8.934 -31.118  14.964  1.00  0.00     0.093 A 
BRANCH   3  13
ATOM     13  C   UNL     1       7.093 -36.574  17.733  1.00  0.00     0.025 A 
ATOM     14  C   UNL     1       7.071 -37.734  16.942  1.00  0.00     0.016 A 
ATOM     15  C   UNL     1       7.027 -38.993  17.546  1.00  0.00     0.051 A 
ATOM     16  C   UNL     1       6.993 -39.109  18.939  1.00  0.00     0.157 A 
ATOM     17  C   UNL     1       7.021 -36.686  19.129  1.00  0.00     0.062 A 
ATOM     18  C   UNL     1       6.985 -37.951  19.736  1.00  0.00     0.158 A 
BRANCH  16  19
ATOM     19  O   UNL     1       6.965 -40.380  19.512  1.00  0.00    -0.504 OA
ATOM     20  H   UNL     1       6.153 -40.728  20.008  1.00  0.00     0.293 HD
ENDBRANCH  16  19
BRANCH  18  21
ATOM     21  O   UNL     1       6.929 -38.059  21.125  1.00  0.00    -0.504 OA
ATOM     22  H   UNL     1       7.542 -38.681  21.636  1.00  0.00     0.293 HD
ENDBRANCH  18  21
ENDBRANCH   3  13
BRANCH  10  23
ATOM     23  O   UNL     1       6.893 -30.244  15.823  1.00  0.00    -0.507 OA
ATOM     24  H   UNL     1       6.798 -29.482  15.167  1.00  0.00     0.293 HD
ENDBRANCH  10  23
BRANCH  11  25
ATOM     25  O   UNL     1      11.088 -31.889  14.161  1.00  0.00    -0.508 OA
ATOM     26  H   UNL     1      11.819 -32.590  14.115  1.00  0.00     0.293 HD
ENDBRANCH  11  25
ENDBRANCH   1   2
BRANCH   1  27
ATOM     27  C   UNL     1       3.693 -35.391  16.949  1.00  0.00     0.339 C 
ATOM     28  C   UNL     1       3.396 -34.782  15.544  1.00  0.00     0.214 C 
ATOM     29  O   UNL     1       2.514 -35.412  17.735  1.00  0.00    -0.332 OA
ATOM     30  C   UNL     1       2.141 -33.877  15.555  1.00  0.00     0.180 C 
ATOM     31  C   UNL     1       2.087 -34.103  18.100  1.00  0.00     0.179 C 
ATOM     32  C   UNL     1       2.079 -33.112  16.885  1.00  0.00     0.177 C 
BRANCH  28  33
ATOM     33  O   UNL     1       3.278 -35.785  14.564  1.00  0.00    -0.384 OA
ATOM     34  H   UNL     1       3.711 -36.607  14.914  1.00  0.00     0.211 HD
ENDBRANCH  28  33
BRANCH  30  35
ATOM     35  O   UNL     1       0.965 -34.634  15.403  1.00  0.00    -0.387 OA
ATOM     36  H   UNL     1       0.782 -35.066  16.279  1.00  0.00     0.211 HD
ENDBRANCH  30  35
BRANCH  31  37
ATOM     37  C   UNL     1       0.711 -34.244  18.779  1.00  0.00     0.191 C 
BRANCH  37  38
ATOM     38  O   UNL     1       0.548 -33.290  19.794  1.00  0.00    -0.394 OA
ATOM     39  H   UNL     1      -0.408 -33.021  19.782  1.00  0.00     0.210 HD
ENDBRANCH  37  38
ENDBRANCH  31  37
BRANCH  32  40
ATOM     40  O   UNL     1       0.957 -32.263  16.907  1.00  0.00    -0.387 OA
ATOM     41  H   UNL     1       0.326 -32.636  17.576  1.00  0.00     0.211 HD
ENDBRANCH  32  40
ENDBRANCH   1  27
TORSDOF 12
ENDMDL
MODEL 6
REMARK VINA RESULT:    -5.373      2.871      5.662
REMARK INTER + INTRA:          -9.778
REMARK INTER:                  -8.826
REMARK INTRA:                  -0.952
REMARK UNBOUND:                -1.892
REMARK SMILES O=c1c(O[C@H]2O[C@H](CO)[C@H](O)[C@H](O)[C@@H]2O)c(-c2ccc(O)c(O)c2)oc2cc(O)cc(O)c12
REMARK SMILES IDX 4 1 3 2 16 3 25 4 2 5 26 6 1 7 33 8 27 9 31 10 28 11 30 12
REMARK SMILES IDX 17 13 18 14 19 15 20 16 24 17 22 18 21 19 23 21 32 23 29 25
REMARK SMILES IDX 5 27 14 28 6 29 12 30 7 31 10 32 15 33 13 35 8 37 9 38 11 40
REMARK H PARENT 21 20 23 22 32 24 29 26 15 34 13 36 9 39 11 41
REMARK Flexibility Score: inf
ROOT
ATOM      1  O   UNL     1       8.432 -35.592  15.717  1.00  0.00    -0.454 OA
ENDROOT
BRANCH   1   2
ATOM      2  C   UNL     1       7.611 -36.459  14.968  1.00  0.00     0.214 A 
ATOM      3  C   UNL     1       6.749 -37.425  15.533  1.00  0.00     0.180 A 
ATOM      4  O   UNL     1       5.903 -38.090  14.757  1.00  0.00    -0.452 OA
ATOM      5  C   UNL     1       7.643 -36.332  13.571  1.00  0.00     0.239 A 
ATOM      6  C   UNL     1       5.871 -37.965  13.436  1.00  0.00     0.146 A 
ATOM      7  O   UNL     1       8.415 -35.474  13.068  1.00  0.00    -0.285 OA
ATOM      8  C   UNL     1       6.790 -37.120  12.764  1.00  0.00     0.111 A 
ATOM      9  C   UNL     1       4.920 -38.695  12.717  1.00  0.00     0.094 A 
ATOM     10  C   UNL     1       6.765 -37.084  11.337  1.00  0.00     0.134 A 
ATOM     11  C   UNL     1       4.865 -38.607  11.328  1.00  0.00     0.123 A 
ATOM     12  C   UNL     1       5.781 -37.802  10.646  1.00  0.00     0.093 A 
BRANCH   3  13
ATOM     13  C   UNL     1       6.767 -37.779  16.959  1.00  0.00     0.025 A 
ATOM     14  C   UNL     1       6.457 -36.815  17.931  1.00  0.00     0.016 A 
ATOM     15  C   UNL     1       6.507 -37.146  19.288  1.00  0.00     0.051 A 
ATOM     16  C   UNL     1       6.874 -38.435  19.688  1.00  0.00     0.157 A 
ATOM     17  C   UNL     1       7.173 -39.060  17.359  1.00  0.00     0.062 A 
ATOM     18  C   UNL     1       7.215 -39.396  18.720  1.00  0.00     0.158 A 
BRANCH  16  19
ATOM     19  O   UNL     1       6.899 -38.740  21.049  1.00  0.00    -0.504 OA
ATOM     20  H   UNL     1       7.374 -39.559  21.407  1.00  0.00     0.293 HD
ENDBRANCH  16  19
BRANCH  18  21
ATOM     21  O   UNL     1       7.604 -40.676  19.114  1.00  0.00    -0.504 OA
ATOM     22  H   UNL     1       7.132 -41.504  18.775  1.00  0.00     0.293 HD
ENDBRANCH  18  21
ENDBRANCH   3  13
BRANCH  10  23
ATOM     23  O   UNL     1       7.696 -36.391  10.558  1.00  0.00    -0.507 OA
ATOM     24  H   UNL     1       8.464 -35.850  10.929  1.00  0.00     0.293 HD
ENDBRANCH  10  23
BRANCH  11  25
ATOM     25  O   UNL     1       3.902 -39.335  10.631  1.00  0.00    -0.508 OA
ATOM     26  H   UNL     1       4.055 -39.640   9.676  1.00  0.00     0.293 HD
ENDBRANCH  11  25
ENDBRANCH   1   2
BRANCH   1  27
ATOM     27  C   UNL     1       8.338 -34.158  15.801  1.00  0.00     0.339 C 
ATOM     28  C   UNL     1       9.706 -33.447  15.565  1.00  0.00     0.214 C 
ATOM     29  O   UNL     1       7.800 -33.784  17.056  1.00  0.00    -0.332 OA
ATOM     30  C   UNL     1      10.373 -33.014  16.891  1.00  0.00     0.180 C 
ATOM     31  C   UNL     1       8.557 -34.303  18.144  1.00  0.00     0.179 C 
ATOM     32  C   UNL     1      10.099 -34.074  17.968  1.00  0.00     0.177 C 
BRANCH  28  33
ATOM     33  O   UNL     1       9.572 -32.350  14.693  1.00  0.00    -0.384 OA
ATOM     34  H   UNL     1       9.695 -32.680  13.765  1.00  0.00     0.211 HD
ENDBRANCH  28  33
BRANCH  30  35
ATOM     35  O   UNL     1       9.878 -31.772  17.330  1.00  0.00    -0.387 OA
ATOM     36  H   UNL     1       9.223 -31.959  18.052  1.00  0.00     0.211 HD
ENDBRANCH  30  35
BRANCH  31  37
ATOM     37  C   UNL     1       7.994 -33.678  19.435  1.00  0.00     0.191 C 
BRANCH  37  38
ATOM     38  O   UNL     1       8.359 -34.429  20.562  1.00  0.00    -0.394 OA
ATOM     39  H   UNL     1       8.232 -33.838  21.351  1.00  0.00     0.210 HD
ENDBRANCH  37  38
ENDBRANCH  31  37
BRANCH  32  40
ATOM     40  O   UNL     1      10.718 -33.711  19.178  1.00  0.00    -0.387 OA
ATOM     41  H   UNL     1      10.295 -32.864  19.476  1.00  0.00     0.211 HD
ENDBRANCH  32  40
ENDBRANCH   1  27
TORSDOF 12
ENDMDL
MODEL 7
REMARK VINA RESULT:    -5.168     14.572     17.005
REMARK INTER + INTRA:          -9.477
REMARK INTER:                  -7.615
REMARK INTRA:                  -1.861
REMARK UNBOUND:                -1.892
REMARK SMILES O=c1c(O[C@H]2O[C@H](CO)[C@H](O)[C@H](O)[C@@H]2O)c(-c2ccc(O)c(O)c2)oc2cc(O)cc(O)c12
REMARK SMILES IDX 4 1 3 2 16 3 25 4 2 5 26 6 1 7 33 8 27 9 31 10 28 11 30 12
REMARK SMILES IDX 17 13 18 14 19 15 20 16 24 17 22 18 21 19 23 21 32 23 29 25
REMARK SMILES IDX 5 27 14 28 6 29 12 30 7 31 10 32 15 33 13 35 8 37 9 38 11 40
REMARK H PARENT 21 20 23 22 32 24 29 26 15 34 13 36 9 39 11 41
REMARK Flexibility Score: inf
ROOT
ATOM      1  O   UNL     1      -5.275 -43.327  16.267  1.00  0.00    -0.454 OA
ENDROOT
BRANCH   1   2
ATOM      2  C   UNL     1      -4.844 -43.290  14.926  1.00  0.00     0.214 A 
ATOM      3  C   UNL     1      -4.004 -44.260  14.333  1.00  0.00     0.180 A 
ATOM      4  O   UNL     1      -3.775 -44.225  13.027  1.00  0.00    -0.452 OA
ATOM      5  C   UNL     1      -5.304 -42.232  14.128  1.00  0.00     0.239 A 
ATOM      6  C   UNL     1      -4.229 -43.266  12.230  1.00  0.00     0.146 A 
ATOM      7  O   UNL     1      -6.050 -41.367  14.658  1.00  0.00    -0.285 OA
ATOM      8  C   UNL     1      -4.970 -42.176  12.755  1.00  0.00     0.111 A 
ATOM      9  C   UNL     1      -3.951 -43.343  10.863  1.00  0.00     0.094 A 
ATOM     10  C   UNL     1      -5.365 -41.130  11.867  1.00  0.00     0.134 A 
ATOM     11  C   UNL     1      -4.393 -42.346   9.996  1.00  0.00     0.123 A 
ATOM     12  C   UNL     1      -5.098 -41.250  10.498  1.00  0.00     0.093 A 
BRANCH   3  13
ATOM     13  C   UNL     1      -3.312 -45.300  15.106  1.00  0.00     0.025 A 
ATOM     14  C   UNL     1      -2.228 -44.963  15.933  1.00  0.00     0.016 A 
ATOM     15  C   UNL     1      -1.551 -45.959  16.642  1.00  0.00     0.051 A 
ATOM     16  C   UNL     1      -1.940 -47.297  16.526  1.00  0.00     0.157 A 
ATOM     17  C   UNL     1      -3.679 -46.645  14.959  1.00  0.00     0.062 A 
ATOM     18  C   UNL     1      -3.005 -47.644  15.677  1.00  0.00     0.158 A 
BRANCH  16  19
ATOM     19  O   UNL     1      -1.255 -48.267  17.258  1.00  0.00    -0.504 OA
ATOM     20  H   UNL     1      -0.387 -48.674  16.932  1.00  0.00     0.293 HD
ENDBRANCH  16  19
BRANCH  18  21
ATOM     21  O   UNL     1      -3.383 -48.980  15.541  1.00  0.00    -0.504 OA
ATOM     22  H   UNL     1      -4.348 -49.273  15.627  1.00  0.00     0.293 HD
ENDBRANCH  18  21
ENDBRANCH   3  13
BRANCH  10  23
ATOM     23  O   UNL     1      -5.987 -39.949  12.282  1.00  0.00    -0.507 OA
ATOM     24  H   UNL     1      -6.420 -39.816  13.184  1.00  0.00     0.293 HD
ENDBRANCH  10  23
BRANCH  11  25
ATOM     25  O   UNL     1      -4.113 -42.448   8.634  1.00  0.00    -0.508 OA
ATOM     26  H   UNL     1      -4.356 -43.276   8.102  1.00  0.00     0.293 HD
ENDBRANCH  11  25
ENDBRANCH   1   2
BRANCH   1  27
ATOM     27  C   UNL     1      -6.198 -44.257  16.862  1.00  0.00     0.339 C 
ATOM     28  C   UNL     1      -7.344 -43.552  17.651  1.00  0.00     0.214 C 
ATOM     29  O   UNL     1      -5.500 -45.155  17.706  1.00  0.00    -0.332 OA
ATOM     30  C   UNL     1      -7.086 -43.553  19.177  1.00  0.00     0.180 C 
ATOM     31  C   UNL     1      -4.750 -44.478  18.710  1.00  0.00     0.179 C 
ATOM     32  C   UNL     1      -5.584 -43.367  19.438  1.00  0.00     0.177 C 
BRANCH  28  33
ATOM     33  O   UNL     1      -8.597 -44.123  17.358  1.00  0.00    -0.384 OA
ATOM     34  H   UNL     1      -8.448 -44.889  16.744  1.00  0.00     0.211 HD
ENDBRANCH  28  33
BRANCH  30  35
ATOM     35  O   UNL     1      -7.511 -44.759  19.765  1.00  0.00    -0.387 OA
ATOM     36  H   UNL     1      -6.835 -45.000  20.452  1.00  0.00     0.211 HD
ENDBRANCH  30  35
BRANCH  31  37
ATOM     37  C   UNL     1      -4.197 -45.549  19.669  1.00  0.00     0.191 C 
BRANCH  37  38
ATOM     38  O   UNL     1      -5.235 -46.283  20.261  1.00  0.00    -0.394 OA
ATOM     39  H   UNL     1      -4.928 -47.226  20.305  1.00  0.00     0.210 HD
ENDBRANCH  37  38
ENDBRANCH  31  37
BRANCH  32  40
ATOM     40  O   UNL     1      -5.330 -43.340  20.821  1.00  0.00    -0.387 OA
ATOM     41  H   UNL     1      -4.781 -42.532  20.998  1.00  0.00     0.211 HD
ENDBRANCH  32  40
ENDBRANCH   1  27
TORSDOF 12
ENDMDL
MODEL 8
REMARK VINA RESULT:    -5.160     15.282     16.874
REMARK INTER + INTRA:          -9.466
REMARK INTER:                  -8.326
REMARK INTRA:                  -1.139
REMARK UNBOUND:                -1.892
REMARK SMILES O=c1c(O[C@H]2O[C@H](CO)[C@H](O)[C@H](O)[C@@H]2O)c(-c2ccc(O)c(O)c2)oc2cc(O)cc(O)c12
REMARK SMILES IDX 4 1 3 2 16 3 25 4 2 5 26 6 1 7 33 8 27 9 31 10 28 11 30 12
REMARK SMILES IDX 17 13 18 14 19 15 20 16 24 17 22 18 21 19 23 21 32 23 29 25
REMARK SMILES IDX 5 27 14 28 6 29 12 30 7 31 10 32 15 33 13 35 8 37 9 38 11 40
REMARK H PARENT 21 20 23 22 32 24 29 26 15 34 13 36 9 39 11 41
REMARK Flexibility Score: inf
ROOT
ATOM      1  O   UNL     1      -3.643 -44.748  17.849  1.00  0.00    -0.454 OA
ENDROOT
BRANCH   1   2
ATOM      2  C   UNL     1      -3.594 -45.704  16.815  1.00  0.00     0.214 A 
ATOM      3  C   UNL     1      -4.457 -45.711  15.696  1.00  0.00     0.180 A 
ATOM      4  O   UNL     1      -4.239 -46.559  14.699  1.00  0.00    -0.452 OA
ATOM      5  C   UNL     1      -2.606 -46.696  16.898  1.00  0.00     0.239 A 
ATOM      6  C   UNL     1      -3.286 -47.482  14.720  1.00  0.00     0.146 A 
ATOM      7  O   UNL     1      -1.839 -46.690  17.898  1.00  0.00    -0.285 OA
ATOM      8  C   UNL     1      -2.454 -47.641  15.857  1.00  0.00     0.111 A 
ATOM      9  C   UNL     1      -3.126 -48.305  13.602  1.00  0.00     0.094 A 
ATOM     10  C   UNL     1      -1.499 -48.702  15.861  1.00  0.00     0.134 A 
ATOM     11  C   UNL     1      -2.150 -49.300  13.592  1.00  0.00     0.123 A 
ATOM     12  C   UNL     1      -1.341 -49.491  14.714  1.00  0.00     0.093 A 
BRANCH   3  13
ATOM     13  C   UNL     1      -5.642 -44.847  15.592  1.00  0.00     0.025 A 
ATOM     14  C   UNL     1      -6.921 -45.370  15.838  1.00  0.00     0.016 A 
ATOM     15  C   UNL     1      -8.049 -44.554  15.707  1.00  0.00     0.051 A 
ATOM     16  C   UNL     1      -7.913 -43.218  15.320  1.00  0.00     0.157 A 
ATOM     17  C   UNL     1      -5.507 -43.518  15.167  1.00  0.00     0.062 A 
ATOM     18  C   UNL     1      -6.637 -42.697  15.043  1.00  0.00     0.158 A 
BRANCH  16  19
ATOM     19  O   UNL     1      -9.055 -42.424  15.213  1.00  0.00    -0.504 OA
ATOM     20  H   UNL     1      -9.962 -42.743  15.531  1.00  0.00     0.293 HD
ENDBRANCH  16  19
BRANCH  18  21
ATOM     21  O   UNL     1      -6.498 -41.371  14.635  1.00  0.00    -0.504 OA
ATOM     22  H   UNL     1      -7.143 -40.651  14.934  1.00  0.00     0.293 HD
ENDBRANCH  18  21
ENDBRANCH   3  13
BRANCH  10  23
ATOM     23  O   UNL     1      -0.711 -49.038  16.965  1.00  0.00    -0.507 OA
ATOM     24  H   UNL     1      -1.022 -49.608  17.738  1.00  0.00     0.293 HD
ENDBRANCH  10  23
BRANCH  11  25
ATOM     25  O   UNL     1      -2.000 -50.103  12.463  1.00  0.00    -0.508 OA
ATOM     26  H   UNL     1      -1.771 -49.710  11.557  1.00  0.00     0.293 HD
ENDBRANCH  11  25
ENDBRANCH   1   2
BRANCH   1  27
ATOM     27  C   UNL     1      -3.929 -44.981  19.240  1.00  0.00     0.339 C 
ATOM     28  C   UNL     1      -5.024 -46.069  19.459  1.00  0.00     0.214 C 
ATOM     29  O   UNL     1      -4.311 -43.767  19.863  1.00  0.00    -0.332 OA
ATOM     30  C   UNL     1      -6.409 -45.449  19.760  1.00  0.00     0.180 C 
ATOM     31  C   UNL     1      -5.422 -43.156  19.216  1.00  0.00     0.179 C 
ATOM     32  C   UNL     1      -6.585 -44.169  18.929  1.00  0.00     0.177 C 
BRANCH  28  33
ATOM     33  O   UNL     1      -4.654 -46.975  20.470  1.00  0.00    -0.384 OA
ATOM     34  H   UNL     1      -3.664 -46.960  20.547  1.00  0.00     0.211 HD
ENDBRANCH  28  33
BRANCH  30  35
ATOM     35  O   UNL     1      -6.542 -45.135  21.125  1.00  0.00    -0.387 OA
ATOM     36  H   UNL     1      -6.021 -44.304  21.283  1.00  0.00     0.211 HD
ENDBRANCH  30  35
BRANCH  31  37
ATOM     37  C   UNL     1      -5.859 -41.961  20.086  1.00  0.00     0.191 C 
BRANCH  37  38
ATOM     38  O   UNL     1      -4.942 -41.728  21.122  1.00  0.00    -0.394 OA
ATOM     39  H   UNL     1      -5.476 -41.592  21.949  1.00  0.00     0.210 HD
ENDBRANCH  37  38
ENDBRANCH  31  37
BRANCH  32  40
ATOM     40  O   UNL     1      -7.849 -43.601  19.170  1.00  0.00    -0.387 OA
ATOM     41  H   UNL     1      -7.828 -43.230  20.090  1.00  0.00     0.211 HD
ENDBRANCH  32  40
ENDBRANCH   1  27
TORSDOF 12
ENDMDL
MODEL 9
REMARK VINA RESULT:    -5.113      3.299      5.235
REMARK INTER + INTRA:          -9.396
REMARK INTER:                  -7.588
REMARK INTRA:                  -1.808
REMARK UNBOUND:                -1.892
REMARK SMILES O=c1c(O[C@H]2O[C@H](CO)[C@H](O)[C@H](O)[C@@H]2O)c(-c2ccc(O)c(O)c2)oc2cc(O)cc(O)c12
REMARK SMILES IDX 4 1 3 2 16 3 25 4 2 5 26 6 1 7 33 8 27 9 31 10 28 11 30 12
REMARK SMILES IDX 17 13 18 14 19 15 20 16 24 17 22 18 21 19 23 21 32 23 29 25
REMARK SMILES IDX 5 27 14 28 6 29 12 30 7 31 10 32 15 33 13 35 8 37 9 38 11 40
REMARK H PARENT 21 20 23 22 32 24 29 26 15 34 13 36 9 39 11 41
REMARK Flexibility Score: inf
ROOT
ATOM      1  O   UNL     1       6.833 -35.152  15.826  1.00  0.00    -0.454 OA
ENDROOT
BRANCH   1   2
ATOM      2  C   UNL     1       5.587 -35.313  15.187  1.00  0.00     0.214 A 
ATOM      3  C   UNL     1       4.533 -34.375  15.249  1.00  0.00     0.180 A 
ATOM      4  O   UNL     1       3.456 -34.541  14.493  1.00  0.00    -0.452 OA
ATOM      5  C   UNL     1       5.400 -36.474  14.422  1.00  0.00     0.239 A 
ATOM      6  C   UNL     1       3.261 -35.603  13.721  1.00  0.00     0.146 A 
ATOM      7  O   UNL     1       6.340 -37.312  14.370  1.00  0.00    -0.285 OA
ATOM      8  C   UNL     1       4.202 -36.664  13.695  1.00  0.00     0.111 A 
ATOM      9  C   UNL     1       2.101 -35.663  12.944  1.00  0.00     0.094 A 
ATOM     10  C   UNL     1       3.905 -37.819  12.910  1.00  0.00     0.134 A 
ATOM     11  C   UNL     1       1.850 -36.769  12.135  1.00  0.00     0.123 A 
ATOM     12  C   UNL     1       2.750 -37.837  12.118  1.00  0.00     0.093 A 
BRANCH   3  13
ATOM     13  C   UNL     1       4.538 -33.223  16.162  1.00  0.00     0.025 A 
ATOM     14  C   UNL     1       3.693 -33.206  17.283  1.00  0.00     0.016 A 
ATOM     15  C   UNL     1       3.677 -32.096  18.131  1.00  0.00     0.051 A 
ATOM     16  C   UNL     1       4.491 -30.991  17.866  1.00  0.00     0.157 A 
ATOM     17  C   UNL     1       5.327 -32.101  15.872  1.00  0.00     0.062 A 
ATOM     18  C   UNL     1       5.317 -30.990  16.728  1.00  0.00     0.158 A 
BRANCH  16  19
ATOM     19  O   UNL     1       4.464 -29.904  18.739  1.00  0.00    -0.504 OA
ATOM     20  H   UNL     1       3.804 -29.845  19.504  1.00  0.00     0.293 HD
ENDBRANCH  16  19
BRANCH  18  21
ATOM     21  O   UNL     1       6.115 -29.881  16.446  1.00  0.00    -0.504 OA
ATOM     22  H   UNL     1       6.373 -29.214  17.162  1.00  0.00     0.293 HD
ENDBRANCH  18  21
ENDBRANCH   3  13
BRANCH  10  23
ATOM     23  O   UNL     1       4.689 -38.976  12.900  1.00  0.00    -0.507 OA
ATOM     24  H   UNL     1       4.716 -39.656  13.646  1.00  0.00     0.293 HD
ENDBRANCH  10  23
BRANCH  11  25
ATOM     25  O   UNL     1       0.692 -36.804  11.360  1.00  0.00    -0.508 OA
ATOM     26  H   UNL     1       0.269 -35.956  10.999  1.00  0.00     0.293 HD
ENDBRANCH  11  25
ENDBRANCH   1   2
BRANCH   1  27
ATOM     27  C   UNL     1       7.335 -35.886  16.957  1.00  0.00     0.339 C 
ATOM     28  C   UNL     1       6.281 -36.037  18.097  1.00  0.00     0.214 C 
ATOM     29  O   UNL     1       8.508 -35.265  17.452  1.00  0.00    -0.332 OA
ATOM     30  C   UNL     1       6.514 -35.024  19.243  1.00  0.00     0.180 C 
ATOM     31  C   UNL     1       8.292 -33.899  17.794  1.00  0.00     0.179 C 
ATOM     32  C   UNL     1       6.997 -33.691  18.654  1.00  0.00     0.177 C 
BRANCH  28  33
ATOM     33  O   UNL     1       6.247 -37.354  18.595  1.00  0.00    -0.384 OA
ATOM     34  H   UNL     1       6.973 -37.445  19.265  1.00  0.00     0.211 HD
ENDBRANCH  28  33
BRANCH  30  35
ATOM     35  O   UNL     1       7.473 -35.499  20.157  1.00  0.00    -0.387 OA
ATOM     36  H   UNL     1       8.352 -35.471  19.696  1.00  0.00     0.211 HD
ENDBRANCH  30  35
BRANCH  31  37
ATOM     37  C   UNL     1       9.570 -33.393  18.489  1.00  0.00     0.191 C 
BRANCH  37  38
ATOM     38  O   UNL     1       9.744 -34.007  19.738  1.00  0.00    -0.394 OA
ATOM     39  H   UNL     1       9.138 -34.794  19.756  1.00  0.00     0.210 HD
ENDBRANCH  37  38
ENDBRANCH  31  37
BRANCH  32  40
ATOM     40  O   UNL     1       7.191 -32.747  19.678  1.00  0.00    -0.387 OA
ATOM     41  H   UNL     1       7.750 -33.185  20.372  1.00  0.00     0.211 HD
ENDBRANCH  32  40
ENDBRANCH   1  27
TORSDOF 12
ENDMDL
