MODEL 1
REMARK VINA RESULT:    -6.931      0.000      0.000
REMARK INTER + INTRA:          -8.445
REMARK INTER:                  -8.147
REMARK INTRA:                  -0.298
REMARK UNBOUND:                -0.298
REMARK SMILES O=c1c(O)c(-c2ccc(O)cc2)oc2cc(O)cc(O)c12
REMARK SMILES IDX 5 1 3 2 2 3 1 4 21 5 19 6 18 7 16 8 15 9 14 10 13 11 6 12
REMARK SMILES IDX 7 13 8 14 9 15 12 16 11 17 10 18 4 20 20 22 17 24
REMARK H PARENT 10 19 4 21 20 23 17 25
REMARK Flexibility Score: inf
ROOT
ATOM      1  C   UNL     1      46.088 -29.166  17.907  1.00  0.00     0.180 A 
ATOM      2  C   UNL     1      46.691 -29.457  19.142  1.00  0.00     0.208 A 
ATOM      3  C   UNL     1      46.114 -30.436  19.968  1.00  0.00     0.238 A 
ATOM      4  O   UNL     1      46.616 -30.637  21.104  1.00  0.00    -0.285 OA
ATOM      5  C   UNL     1      44.976 -31.151  19.525  1.00  0.00     0.111 A 
ATOM      6  C   UNL     1      44.335 -32.196  20.259  1.00  0.00     0.134 A 
ATOM      7  C   UNL     1      43.152 -32.759  19.767  1.00  0.00     0.093 A 
ATOM      8  C   UNL     1      42.621 -32.365  18.540  1.00  0.00     0.123 A 
ATOM      9  C   UNL     1      43.269 -31.384  17.788  1.00  0.00     0.094 A 
ATOM     10  C   UNL     1      44.430 -30.775  18.270  1.00  0.00     0.146 A 
ATOM     11  O   UNL     1      45.002 -29.831  17.532  1.00  0.00    -0.452 OA
ENDROOT
BRANCH   1  12
ATOM     12  C   UNL     1      46.628 -28.138  16.988  1.00  0.00     0.021 A 
ATOM     13  C   UNL     1      47.487 -28.525  15.946  1.00  0.00     0.016 A 
ATOM     14  C   UNL     1      47.991 -27.575  15.053  1.00  0.00     0.047 A 
ATOM     15  C   UNL     1      47.629 -26.227  15.182  1.00  0.00     0.115 A 
ATOM     16  C   UNL     1      46.253 -26.787  17.099  1.00  0.00     0.016 A 
ATOM     17  C   UNL     1      46.758 -25.838  16.203  1.00  0.00     0.047 A 
BRANCH  15  18
ATOM     18  O   UNL     1      48.125 -25.271  14.298  1.00  0.00    -0.508 OA
ATOM     19  H   UNL     1      47.752 -25.171  13.362  1.00  0.00     0.293 HD
ENDBRANCH  15  18
ENDBRANCH   1  12
BRANCH   2  20
ATOM     20  O   UNL     1      47.859 -28.794  19.528  1.00  0.00    -0.502 OA
ATOM     21  H   UNL     1      48.076 -28.594  20.498  1.00  0.00     0.293 HD
ENDBRANCH   2  20
BRANCH   6  22
ATOM     22  O   UNL     1      44.829 -32.729  21.453  1.00  0.00    -0.507 OA
ATOM     23  H   UNL     1      44.332 -32.743  22.330  1.00  0.00     0.293 HD
ENDBRANCH   6  22
BRANCH   8  24
ATOM     24  O   UNL     1      41.451 -32.961  18.074  1.00  0.00    -0.508 OA
ATOM     25  H   UNL     1      41.460 -33.609  17.295  1.00  0.00     0.293 HD
ENDBRANCH   8  24
TORSDOF 5
ENDMDL
MODEL 2
REMARK VINA RESULT:    -6.513      3.924      4.721
REMARK INTER + INTRA:          -7.953
REMARK INTER:                  -7.661
REMARK INTRA:                  -0.292
REMARK UNBOUND:                -0.298
REMARK SMILES O=c1c(O)c(-c2ccc(O)cc2)oc2cc(O)cc(O)c12
REMARK SMILES IDX 5 1 3 2 2 3 1 4 21 5 19 6 18 7 16 8 15 9 14 10 13 11 6 12
REMARK SMILES IDX 7 13 8 14 9 15 12 16 11 17 10 18 4 20 20 22 17 24
REMARK H PARENT 10 19 4 21 20 23 17 25
REMARK Flexibility Score: inf
ROOT
ATOM      1  C   UNL     1      48.018 -26.109  20.394  1.00  0.00     0.180 A 
ATOM      2  C   UNL     1      48.493 -27.206  21.132  1.00  0.00     0.208 A 
ATOM      3  C   UNL     1      47.749 -28.397  21.138  1.00  0.00     0.238 A 
ATOM      4  O   UNL     1      48.141 -29.349  21.862  1.00  0.00    -0.285 OA
ATOM      5  C   UNL     1      46.568 -28.495  20.363  1.00  0.00     0.111 A 
ATOM      6  C   UNL     1      45.759 -29.667  20.259  1.00  0.00     0.134 A 
ATOM      7  C   UNL     1      44.555 -29.614  19.545  1.00  0.00     0.093 A 
ATOM      8  C   UNL     1      44.163 -28.455  18.880  1.00  0.00     0.123 A 
ATOM      9  C   UNL     1      44.973 -27.319  18.928  1.00  0.00     0.094 A 
ATOM     10  C   UNL     1      46.161 -27.329  19.664  1.00  0.00     0.146 A 
ATOM     11  O   UNL     1      46.891 -26.221  19.701  1.00  0.00    -0.452 OA
ENDROOT
BRANCH   1  12
ATOM     12  C   UNL     1      48.739 -24.816  20.350  1.00  0.00     0.021 A 
ATOM     13  C   UNL     1      49.572 -24.527  19.256  1.00  0.00     0.016 A 
ATOM     14  C   UNL     1      50.245 -23.304  19.182  1.00  0.00     0.047 A 
ATOM     15  C   UNL     1      50.080 -22.348  20.193  1.00  0.00     0.115 A 
ATOM     16  C   UNL     1      48.562 -23.844  21.350  1.00  0.00     0.016 A 
ATOM     17  C   UNL     1      49.235 -22.620  21.273  1.00  0.00     0.047 A 
BRANCH  15  18
ATOM     18  O   UNL     1      50.745 -21.126  20.130  1.00  0.00    -0.508 OA
ATOM     19  H   UNL     1      50.978 -20.694  19.243  1.00  0.00     0.293 HD
ENDBRANCH  15  18
ENDBRANCH   1  12
BRANCH   2  20
ATOM     20  O   UNL     1      49.700 -27.114  21.830  1.00  0.00    -0.502 OA
ATOM     21  H   UNL     1      50.269 -26.275  21.826  1.00  0.00     0.293 HD
ENDBRANCH   2  20
BRANCH   6  22
ATOM     22  O   UNL     1      46.101 -30.906  20.811  1.00  0.00    -0.507 OA
ATOM     23  H   UNL     1      45.612 -31.356  21.569  1.00  0.00     0.293 HD
ENDBRANCH   6  22
BRANCH   8  24
ATOM     24  O   UNL     1      42.967 -28.444  18.165  1.00  0.00    -0.508 OA
ATOM     25  H   UNL     1      42.694 -27.648  17.599  1.00  0.00     0.293 HD
ENDBRANCH   8  24
TORSDOF 5
ENDMDL
MODEL 3
REMARK VINA RESULT:    -6.378      1.942      6.752
REMARK INTER + INTRA:          -7.795
REMARK INTER:                  -7.534
REMARK INTRA:                  -0.261
REMARK UNBOUND:                -0.298
REMARK SMILES O=c1c(O)c(-c2ccc(O)cc2)oc2cc(O)cc(O)c12
REMARK SMILES IDX 5 1 3 2 2 3 1 4 21 5 19 6 18 7 16 8 15 9 14 10 13 11 6 12
REMARK SMILES IDX 7 13 8 14 9 15 12 16 11 17 10 18 4 20 20 22 17 24
REMARK H PARENT 10 19 4 21 20 23 17 25
REMARK Flexibility Score: inf
ROOT
ATOM      1  C   UNL     1      45.886 -28.324  18.361  1.00  0.00     0.180 A 
ATOM      2  C   UNL     1      46.255 -27.592  19.502  1.00  0.00     0.208 A 
ATOM      3  C   UNL     1      47.023 -26.427  19.345  1.00  0.00     0.238 A 
ATOM      4  O   UNL     1      47.413 -25.819  20.375  1.00  0.00    -0.285 OA
ATOM      5  C   UNL     1      47.366 -25.978  18.047  1.00  0.00     0.111 A 
ATOM      6  C   UNL     1      48.103 -24.787  17.766  1.00  0.00     0.134 A 
ATOM      7  C   UNL     1      48.475 -24.500  16.447  1.00  0.00     0.093 A 
ATOM      8  C   UNL     1      48.083 -25.322  15.393  1.00  0.00     0.123 A 
ATOM      9  C   UNL     1      47.315 -26.459  15.648  1.00  0.00     0.094 A 
ATOM     10  C   UNL     1      46.962 -26.794  16.957  1.00  0.00     0.146 A 
ATOM     11  O   UNL     1      46.249 -27.896  17.158  1.00  0.00    -0.452 OA
ENDROOT
BRANCH   1  12
ATOM     12  C   UNL     1      45.089 -29.570  18.447  1.00  0.00     0.021 A 
ATOM     13  C   UNL     1      45.726 -30.774  18.791  1.00  0.00     0.016 A 
ATOM     14  C   UNL     1      44.990 -31.958  18.900  1.00  0.00     0.047 A 
ATOM     15  C   UNL     1      43.606 -31.949  18.682  1.00  0.00     0.115 A 
ATOM     16  C   UNL     1      43.697 -29.564  18.249  1.00  0.00     0.016 A 
ATOM     17  C   UNL     1      42.963 -30.750  18.361  1.00  0.00     0.047 A 
BRANCH  15  18
ATOM     18  O   UNL     1      42.863 -33.122  18.787  1.00  0.00    -0.508 OA
ATOM     19  H   UNL     1      42.559 -33.479  19.686  1.00  0.00     0.293 HD
ENDBRANCH  15  18
ENDBRANCH   1  12
BRANCH   2  20
ATOM     20  O   UNL     1      45.842 -28.010  20.770  1.00  0.00    -0.502 OA
ATOM     21  H   UNL     1      44.909 -27.834  21.124  1.00  0.00     0.293 HD
ENDBRANCH   2  20
BRANCH   6  22
ATOM     22  O   UNL     1      48.470 -23.848  18.735  1.00  0.00    -0.507 OA
ATOM     23  H   UNL     1      49.413 -23.537  18.911  1.00  0.00     0.293 HD
ENDBRANCH   6  22
BRANCH   8  24
ATOM     24  O   UNL     1      48.456 -24.995  14.091  1.00  0.00    -0.508 OA
ATOM     25  H   UNL     1      47.767 -24.841  13.364  1.00  0.00     0.293 HD
ENDBRANCH   8  24
TORSDOF 5
ENDMDL
MODEL 4
REMARK VINA RESULT:    -6.328      1.651      6.708
REMARK INTER + INTRA:          -7.736
REMARK INTER:                  -7.446
REMARK INTRA:                  -0.290
REMARK UNBOUND:                -0.298
REMARK SMILES O=c1c(O)c(-c2ccc(O)cc2)oc2cc(O)cc(O)c12
REMARK SMILES IDX 5 1 3 2 2 3 1 4 21 5 19 6 18 7 16 8 15 9 14 10 13 11 6 12
REMARK SMILES IDX 7 13 8 14 9 15 12 16 11 17 10 18 4 20 20 22 17 24
REMARK H PARENT 10 19 4 21 20 23 17 25
REMARK Flexibility Score: inf
ROOT
ATOM      1  C   UNL     1      46.110 -28.747  18.540  1.00  0.00     0.180 A 
ATOM      2  C   UNL     1      47.015 -28.039  19.349  1.00  0.00     0.208 A 
ATOM      3  C   UNL     1      47.737 -26.973  18.791  1.00  0.00     0.238 A 
ATOM      4  O   UNL     1      48.599 -26.392  19.500  1.00  0.00    -0.285 OA
ATOM      5  C   UNL     1      47.507 -26.591  17.447  1.00  0.00     0.111 A 
ATOM      6  C   UNL     1      48.150 -25.498  16.790  1.00  0.00     0.134 A 
ATOM      7  C   UNL     1      47.921 -25.281  15.426  1.00  0.00     0.093 A 
ATOM      8  C   UNL     1      47.027 -26.074  14.710  1.00  0.00     0.123 A 
ATOM      9  C   UNL     1      46.351 -27.111  15.355  1.00  0.00     0.094 A 
ATOM     10  C   UNL     1      46.587 -27.377  16.705  1.00  0.00     0.146 A 
ATOM     11  O   UNL     1      45.939 -28.387  17.274  1.00  0.00    -0.452 OA
ENDROOT
BRANCH   1  12
ATOM     12  C   UNL     1      45.323 -29.893  19.052  1.00  0.00     0.021 A 
ATOM     13  C   UNL     1      44.071 -29.659  19.646  1.00  0.00     0.016 A 
ATOM     14  C   UNL     1      43.300 -30.726  20.117  1.00  0.00     0.047 A 
ATOM     15  C   UNL     1      43.764 -32.042  19.984  1.00  0.00     0.115 A 
ATOM     16  C   UNL     1      45.773 -31.217  18.904  1.00  0.00     0.016 A 
ATOM     17  C   UNL     1      44.999 -32.282  19.374  1.00  0.00     0.047 A 
BRANCH  15  18
ATOM     18  O   UNL     1      43.005 -33.112  20.449  1.00  0.00    -0.508 OA
ATOM     19  H   UNL     1      43.409 -34.033  20.576  1.00  0.00     0.293 HD
ENDBRANCH  15  18
ENDBRANCH   1  12
BRANCH   2  20
ATOM     20  O   UNL     1      47.172 -28.382  20.695  1.00  0.00    -0.502 OA
ATOM     21  H   UNL     1      46.384 -28.558  21.307  1.00  0.00     0.293 HD
ENDBRANCH   2  20
BRANCH   6  22
ATOM     22  O   UNL     1      48.995 -24.587  17.432  1.00  0.00    -0.507 OA
ATOM     23  H   UNL     1      49.940 -24.379  17.152  1.00  0.00     0.293 HD
ENDBRANCH   6  22
BRANCH   8  24
ATOM     24  O   UNL     1      46.811 -25.817  13.358  1.00  0.00    -0.508 OA
ATOM     25  H   UNL     1      47.582 -25.715  12.708  1.00  0.00     0.293 HD
ENDBRANCH   8  24
TORSDOF 5
ENDMDL
MODEL 5
REMARK VINA RESULT:    -6.249      3.720      7.927
REMARK INTER + INTRA:          -7.643
REMARK INTER:                  -7.371
REMARK INTRA:                  -0.272
REMARK UNBOUND:                -0.298
REMARK SMILES O=c1c(O)c(-c2ccc(O)cc2)oc2cc(O)cc(O)c12
REMARK SMILES IDX 5 1 3 2 2 3 1 4 21 5 19 6 18 7 16 8 15 9 14 10 13 11 6 12
REMARK SMILES IDX 7 13 8 14 9 15 12 16 11 17 10 18 4 20 20 22 17 24
REMARK H PARENT 10 19 4 21 20 23 17 25
REMARK Flexibility Score: inf
ROOT
ATOM      1  C   UNL     1      47.239 -26.683  18.945  1.00  0.00     0.180 A 
ATOM      2  C   UNL     1      47.992 -26.695  17.759  1.00  0.00     0.208 A 
ATOM      3  C   UNL     1      48.958 -25.697  17.556  1.00  0.00     0.238 A 
ATOM      4  O   UNL     1      49.575 -25.671  16.459  1.00  0.00    -0.285 OA
ATOM      5  C   UNL     1      49.200 -24.733  18.564  1.00  0.00     0.111 A 
ATOM      6  C   UNL     1      50.186 -23.703  18.485  1.00  0.00     0.134 A 
ATOM      7  C   UNL     1      50.262 -22.741  19.499  1.00  0.00     0.093 A 
ATOM      8  C   UNL     1      49.435 -22.806  20.618  1.00  0.00     0.123 A 
ATOM      9  C   UNL     1      48.505 -23.840  20.733  1.00  0.00     0.094 A 
ATOM     10  C   UNL     1      48.378 -24.793  19.720  1.00  0.00     0.146 A 
ATOM     11  O   UNL     1      47.465 -25.747  19.859  1.00  0.00    -0.452 OA
ENDROOT
BRANCH   1  12
ATOM     12  C   UNL     1      46.191 -27.692  19.225  1.00  0.00     0.021 A 
ATOM     13  C   UNL     1      46.463 -28.736  20.126  1.00  0.00     0.016 A 
ATOM     14  C   UNL     1      45.482 -29.688  20.422  1.00  0.00     0.047 A 
ATOM     15  C   UNL     1      44.213 -29.597  19.835  1.00  0.00     0.115 A 
ATOM     16  C   UNL     1      44.909 -27.596  18.655  1.00  0.00     0.016 A 
ATOM     17  C   UNL     1      43.930 -28.549  18.955  1.00  0.00     0.047 A 
BRANCH  15  18
ATOM     18  O   UNL     1      43.229 -30.540  20.123  1.00  0.00    -0.508 OA
ATOM     19  H   UNL     1      43.190 -31.430  19.640  1.00  0.00     0.293 HD
ENDBRANCH  15  18
ENDBRANCH   1  12
BRANCH   2  20
ATOM     20  O   UNL     1      47.791 -27.700  16.809  1.00  0.00    -0.502 OA
ATOM     21  H   UNL     1      47.096 -28.429  16.926  1.00  0.00     0.293 HD
ENDBRANCH   2  20
BRANCH   6  22
ATOM     22  O   UNL     1      51.124 -23.596  17.453  1.00  0.00    -0.507 OA
ATOM     23  H   UNL     1      50.980 -23.908  16.505  1.00  0.00     0.293 HD
ENDBRANCH   6  22
BRANCH   8  24
ATOM     24  O   UNL     1      49.551 -21.840  21.616  1.00  0.00    -0.508 OA
ATOM     25  H   UNL     1      48.819 -21.160  21.783  1.00  0.00     0.293 HD
ENDBRANCH   8  24
TORSDOF 5
ENDMDL
MODEL 6
REMARK VINA RESULT:    -6.171      3.764      4.869
REMARK INTER + INTRA:          -7.551
REMARK INTER:                  -7.320
REMARK INTRA:                  -0.231
REMARK UNBOUND:                -0.298
REMARK SMILES O=c1c(O)c(-c2ccc(O)cc2)oc2cc(O)cc(O)c12
REMARK SMILES IDX 5 1 3 2 2 3 1 4 21 5 19 6 18 7 16 8 15 9 14 10 13 11 6 12
REMARK SMILES IDX 7 13 8 14 9 15 12 16 11 17 10 18 4 20 20 22 17 24
REMARK H PARENT 10 19 4 21 20 23 17 25
REMARK Flexibility Score: inf
ROOT
ATOM      1  C   UNL     1      48.500 -26.083  19.064  1.00  0.00     0.180 A 
ATOM      2  C   UNL     1      49.281 -27.241  18.912  1.00  0.00     0.208 A 
ATOM      3  C   UNL     1      48.644 -28.462  18.639  1.00  0.00     0.238 A 
ATOM      4  O   UNL     1      49.343 -29.506  18.580  1.00  0.00    -0.285 OA
ATOM      5  C   UNL     1      47.239 -28.501  18.466  1.00  0.00     0.111 A 
ATOM      6  C   UNL     1      46.492 -29.674  18.142  1.00  0.00     0.134 A 
ATOM      7  C   UNL     1      45.094 -29.612  18.099  1.00  0.00     0.093 A 
ATOM      8  C   UNL     1      44.419 -28.410  18.303  1.00  0.00     0.123 A 
ATOM      9  C   UNL     1      45.142 -27.245  18.566  1.00  0.00     0.094 A 
ATOM     10  C   UNL     1      46.535 -27.282  18.653  1.00  0.00     0.146 A 
ATOM     11  O   UNL     1      47.182 -26.155  18.926  1.00  0.00    -0.452 OA
ENDROOT
BRANCH   1  12
ATOM     12  C   UNL     1      49.098 -24.762  19.367  1.00  0.00     0.021 A 
ATOM     13  C   UNL     1      49.734 -24.041  18.342  1.00  0.00     0.016 A 
ATOM     14  C   UNL     1      50.286 -22.782  18.599  1.00  0.00     0.047 A 
ATOM     15  C   UNL     1      50.194 -22.222  19.881  1.00  0.00     0.115 A 
ATOM     16  C   UNL     1      48.992 -24.185  20.645  1.00  0.00     0.016 A 
ATOM     17  C   UNL     1      49.544 -22.925  20.899  1.00  0.00     0.047 A 
BRANCH  15  18
ATOM     18  O   UNL     1      50.741 -20.969  20.149  1.00  0.00    -0.508 OA
ATOM     19  H   UNL     1      50.990 -20.330  19.403  1.00  0.00     0.293 HD
ENDBRANCH  15  18
ENDBRANCH   1  12
BRANCH   2  20
ATOM     20  O   UNL     1      50.674 -27.168  19.012  1.00  0.00    -0.502 OA
ATOM     21  H   UNL     1      51.247 -26.716  18.309  1.00  0.00     0.293 HD
ENDBRANCH   2  20
BRANCH   6  22
ATOM     22  O   UNL     1      47.070 -30.908  17.831  1.00  0.00    -0.507 OA
ATOM     23  H   UNL     1      46.634 -31.628  17.275  1.00  0.00     0.293 HD
ENDBRANCH   6  22
BRANCH   8  24
ATOM     24  O   UNL     1      43.028 -28.384  18.236  1.00  0.00    -0.508 OA
ATOM     25  H   UNL     1      42.538 -27.728  17.636  1.00  0.00     0.293 HD
ENDBRANCH   8  24
TORSDOF 5
ENDMDL
MODEL 7
REMARK VINA RESULT:    -6.083      5.346      6.558
REMARK INTER + INTRA:          -7.448
REMARK INTER:                  -7.162
REMARK INTRA:                  -0.286
REMARK UNBOUND:                -0.298
REMARK SMILES O=c1c(O)c(-c2ccc(O)cc2)oc2cc(O)cc(O)c12
REMARK SMILES IDX 5 1 3 2 2 3 1 4 21 5 19 6 18 7 16 8 15 9 14 10 13 11 6 12
REMARK SMILES IDX 7 13 8 14 9 15 12 16 11 17 10 18 4 20 20 22 17 24
REMARK H PARENT 10 19 4 21 20 23 17 25
REMARK Flexibility Score: inf
ROOT
ATOM      1  C   UNL     1      48.907 -25.500  17.878  1.00  0.00     0.180 A 
ATOM      2  C   UNL     1      49.790 -26.586  17.753  1.00  0.00     0.208 A 
ATOM      3  C   UNL     1      49.554 -27.544  16.754  1.00  0.00     0.238 A 
ATOM      4  O   UNL     1      50.305 -28.553  16.698  1.00  0.00    -0.285 OA
ATOM      5  C   UNL     1      48.471 -27.377  15.858  1.00  0.00     0.111 A 
ATOM      6  C   UNL     1      48.164 -28.262  14.780  1.00  0.00     0.134 A 
ATOM      7  C   UNL     1      47.004 -28.052  14.024  1.00  0.00     0.093 A 
ATOM      8  C   UNL     1      46.177 -26.956  14.262  1.00  0.00     0.123 A 
ATOM      9  C   UNL     1      46.497 -26.053  15.277  1.00  0.00     0.094 A 
ATOM     10  C   UNL     1      47.626 -26.257  16.074  1.00  0.00     0.146 A 
ATOM     11  O   UNL     1      47.882 -25.386  17.042  1.00  0.00    -0.452 OA
ENDROOT
BRANCH   1  12
ATOM     12  C   UNL     1      49.082 -24.456  18.914  1.00  0.00     0.021 A 
ATOM     13  C   UNL     1      49.904 -23.348  18.647  1.00  0.00     0.016 A 
ATOM     14  C   UNL     1      50.066 -22.340  19.602  1.00  0.00     0.047 A 
ATOM     15  C   UNL     1      49.394 -22.419  20.830  1.00  0.00     0.115 A 
ATOM     16  C   UNL     1      48.396 -24.519  20.140  1.00  0.00     0.016 A 
ATOM     17  C   UNL     1      48.558 -23.508  21.093  1.00  0.00     0.047 A 
BRANCH  15  18
ATOM     18  O   UNL     1      49.548 -21.421  21.788  1.00  0.00    -0.508 OA
ATOM     19  H   UNL     1      49.174 -20.490  21.649  1.00  0.00     0.293 HD
ENDBRANCH  15  18
ENDBRANCH   1  12
BRANCH   2  20
ATOM     20  O   UNL     1      50.897 -26.693  18.599  1.00  0.00    -0.502 OA
ATOM     21  H   UNL     1      51.021 -27.470  19.237  1.00  0.00     0.293 HD
ENDBRANCH   2  20
BRANCH   6  22
ATOM     22  O   UNL     1      48.970 -29.338  14.397  1.00  0.00    -0.507 OA
ATOM     23  H   UNL     1      49.599 -29.339  13.609  1.00  0.00     0.293 HD
ENDBRANCH   6  22
BRANCH   8  24
ATOM     24  O   UNL     1      45.041 -26.770  13.477  1.00  0.00    -0.508 OA
ATOM     25  H   UNL     1      44.356 -26.055  13.697  1.00  0.00     0.293 HD
ENDBRANCH   8  24
TORSDOF 5
ENDMDL
MODEL 8
REMARK VINA RESULT:    -6.045      2.590      7.374
REMARK INTER + INTRA:          -7.404
REMARK INTER:                  -7.133
REMARK INTRA:                  -0.270
REMARK UNBOUND:                -0.298
REMARK SMILES O=c1c(O)c(-c2ccc(O)cc2)oc2cc(O)cc(O)c12
REMARK SMILES IDX 5 1 3 2 2 3 1 4 21 5 19 6 18 7 16 8 15 9 14 10 13 11 6 12
REMARK SMILES IDX 7 13 8 14 9 15 12 16 11 17 10 18 4 20 20 22 17 24
REMARK H PARENT 10 19 4 21 20 23 17 25
REMARK Flexibility Score: inf
ROOT
ATOM      1  C   UNL     1      46.099 -28.231  19.033  1.00  0.00     0.180 A 
ATOM      2  C   UNL     1      45.939 -27.719  17.734  1.00  0.00     0.208 A 
ATOM      3  C   UNL     1      46.540 -26.494  17.406  1.00  0.00     0.238 A 
ATOM      4  O   UNL     1      46.330 -26.006  16.265  1.00  0.00    -0.285 OA
ATOM      5  C   UNL     1      47.340 -25.821  18.361  1.00  0.00     0.111 A 
ATOM      6  C   UNL     1      48.033 -24.596  18.124  1.00  0.00     0.134 A 
ATOM      7  C   UNL     1      48.708 -23.969  19.179  1.00  0.00     0.093 A 
ATOM      8  C   UNL     1      48.770 -24.552  20.442  1.00  0.00     0.123 A 
ATOM      9  C   UNL     1      48.142 -25.777  20.672  1.00  0.00     0.094 A 
ATOM     10  C   UNL     1      47.429 -26.408  19.651  1.00  0.00     0.146 A 
ATOM     11  O   UNL     1      46.828 -27.562  19.918  1.00  0.00    -0.452 OA
ENDROOT
BRANCH   1  12
ATOM     12  C   UNL     1      45.484 -29.509  19.459  1.00  0.00     0.021 A 
ATOM     13  C   UNL     1      44.134 -29.530  19.848  1.00  0.00     0.016 A 
ATOM     14  C   UNL     1      43.526 -30.729  20.233  1.00  0.00     0.047 A 
ATOM     15  C   UNL     1      44.257 -31.925  20.217  1.00  0.00     0.115 A 
ATOM     16  C   UNL     1      46.205 -30.716  19.426  1.00  0.00     0.016 A 
ATOM     17  C   UNL     1      45.594 -31.914  19.810  1.00  0.00     0.047 A 
BRANCH  15  18
ATOM     18  O   UNL     1      43.662 -33.125  20.598  1.00  0.00    -0.508 OA
ATOM     19  H   UNL     1      42.706 -33.346  20.347  1.00  0.00     0.293 HD
ENDBRANCH  15  18
ENDBRANCH   1  12
BRANCH   2  20
ATOM     20  O   UNL     1      45.209 -28.435  16.781  1.00  0.00    -0.502 OA
ATOM     21  H   UNL     1      44.560 -27.988  16.144  1.00  0.00     0.293 HD
ENDBRANCH   2  20
BRANCH   6  22
ATOM     22  O   UNL     1      48.112 -23.971  16.876  1.00  0.00    -0.507 OA
ATOM     23  H   UNL     1      47.583 -24.238  16.060  1.00  0.00     0.293 HD
ENDBRANCH   6  22
BRANCH   8  24
ATOM     24  O   UNL     1      49.466 -23.907  21.463  1.00  0.00    -0.508 OA
ATOM     25  H   UNL     1      50.092 -24.413  22.080  1.00  0.00     0.293 HD
ENDBRANCH   8  24
TORSDOF 5
ENDMDL
MODEL 9
REMARK VINA RESULT:    -5.935      3.503      5.339
REMARK INTER + INTRA:          -7.273
REMARK INTER:                  -7.205
REMARK INTRA:                  -0.068
REMARK UNBOUND:                -0.298
REMARK SMILES O=c1c(O)c(-c2ccc(O)cc2)oc2cc(O)cc(O)c12
REMARK SMILES IDX 5 1 3 2 2 3 1 4 21 5 19 6 18 7 16 8 15 9 14 10 13 11 6 12
REMARK SMILES IDX 7 13 8 14 9 15 12 16 11 17 10 18 4 20 20 22 17 24
REMARK H PARENT 10 19 4 21 20 23 17 25
REMARK Flexibility Score: inf
ROOT
ATOM      1  C   UNL     1      48.112 -25.771  18.787  1.00  0.00     0.180 A 
ATOM      2  C   UNL     1      47.428 -25.948  17.573  1.00  0.00     0.208 A 
ATOM      3  C   UNL     1      46.721 -27.142  17.357  1.00  0.00     0.238 A 
ATOM      4  O   UNL     1      46.174 -27.324  16.238  1.00  0.00    -0.285 OA
ATOM      5  C   UNL     1      46.661 -28.121  18.378  1.00  0.00     0.111 A 
ATOM      6  C   UNL     1      45.938 -29.349  18.285  1.00  0.00     0.134 A 
ATOM      7  C   UNL     1      46.037 -30.288  19.319  1.00  0.00     0.093 A 
ATOM      8  C   UNL     1      46.779 -30.020  20.467  1.00  0.00     0.123 A 
ATOM      9  C   UNL     1      47.446 -28.800  20.593  1.00  0.00     0.094 A 
ATOM     10  C   UNL     1      47.397 -27.859  19.563  1.00  0.00     0.146 A 
ATOM     11  O   UNL     1      48.063 -26.720  19.714  1.00  0.00    -0.452 OA
ENDROOT
BRANCH   1  12
ATOM     12  C   UNL     1      48.890 -24.546  19.083  1.00  0.00     0.021 A 
ATOM     13  C   UNL     1      48.624 -23.827  20.261  1.00  0.00     0.016 A 
ATOM     14  C   UNL     1      49.362 -22.680  20.572  1.00  0.00     0.047 A 
ATOM     15  C   UNL     1      50.385 -22.248  19.717  1.00  0.00     0.115 A 
ATOM     16  C   UNL     1      49.931 -24.118  18.240  1.00  0.00     0.016 A 
ATOM     17  C   UNL     1      50.668 -22.971  18.555  1.00  0.00     0.047 A 
BRANCH  15  18
ATOM     18  O   UNL     1      51.125 -21.107  20.017  1.00  0.00    -0.508 OA
ATOM     19  H   UNL     1      51.650 -20.614  19.304  1.00  0.00     0.293 HD
ENDBRANCH  15  18
ENDBRANCH   1  12
BRANCH   2  20
ATOM     20  O   UNL     1      47.436 -24.938  16.607  1.00  0.00    -0.502 OA
ATOM     21  H   UNL     1      48.293 -24.579  16.201  1.00  0.00     0.293 HD
ENDBRANCH   2  20
BRANCH   6  22
ATOM     22  O   UNL     1      45.094 -29.681  17.222  1.00  0.00    -0.507 OA
ATOM     23  H   UNL     1      44.121 -29.425  17.153  1.00  0.00     0.293 HD
ENDBRANCH   6  22
BRANCH   8  24
ATOM     24  O   UNL     1      46.841 -30.972  21.483  1.00  0.00    -0.508 OA
ATOM     25  H   UNL     1      47.493 -30.882  22.255  1.00  0.00     0.293 HD
ENDBRANCH   8  24
TORSDOF 5
ENDMDL
