MODEL 1
REMARK VINA RESULT:    -3.859      0.000      0.000
REMARK INTER + INTRA:          -4.232
REMARK INTER:                  -4.197
REMARK INTRA:                  -0.035
REMARK UNBOUND:                -0.035
REMARK SMILES CC1(C)[C@H]2CC=C(CO)[C@@H]1C2
REMARK SMILES IDX 8 1 7 2 1 3 2 4 4 5 3 6 10 7 5 8 11 9 6 10 9 11
REMARK H PARENT 9 12
REMARK Flexibility Score: inf
ROOT
ATOM      1  C   UNL     1     422.265 -91.397 120.993  1.00  0.00     0.187 C 
ENDROOT
BRANCH   1   2
ATOM      2  C   UNL     1     422.047 -89.919 120.823  1.00  0.00    -0.045 C 
ATOM      3  C   UNL     1     422.612 -87.980 122.981  1.00  0.00     0.012 C 
ATOM      4  C   UNL     1     421.292 -87.925 122.161  1.00  0.00    -0.026 C 
ATOM      5  C   UNL     1     421.315 -87.269 120.753  1.00  0.00    -0.000 C 
ATOM      6  C   UNL     1     420.183 -87.331 123.066  1.00  0.00     0.012 C 
ATOM      7  C   UNL     1     420.827 -89.211 121.428  1.00  0.00     0.023 C 
ATOM      8  C   UNL     1     422.645 -87.631 120.005  1.00  0.00     0.031 C 
ATOM      9  C   UNL     1     420.281 -88.318 120.296  1.00  0.00     0.013 C 
ATOM     10  C   UNL     1     422.916 -89.145 120.110  1.00  0.00    -0.025 C 
ENDBRANCH   1   2
BRANCH   1  11
ATOM     11  O   UNL     1     421.532 -92.110 120.036  1.00  0.00    -0.392 OA
ATOM     12  H   UNL     1     421.576 -93.066 120.298  1.00  0.00     0.211 HD
ENDBRANCH   1  11
TORSDOF 2
ENDMDL
MODEL 2
REMARK VINA RESULT:    -3.669     14.295     15.774
REMARK INTER + INTRA:          -4.025
REMARK INTER:                  -3.963
REMARK INTRA:                  -0.062
REMARK UNBOUND:                -0.035
REMARK SMILES CC1(C)[C@H]2CC=C(CO)[C@@H]1C2
REMARK SMILES IDX 8 1 7 2 1 3 2 4 4 5 3 6 10 7 5 8 11 9 6 10 9 11
REMARK H PARENT 9 12
REMARK Flexibility Score: inf
ROOT
ATOM      1  C   UNL     1     410.172 -85.755 114.855  1.00  0.00     0.187 C 
ENDROOT
BRANCH   1   2
ATOM      2  C   UNL     1     408.739 -85.337 114.676  1.00  0.00    -0.045 C 
ATOM      3  C   UNL     1     407.246 -83.875 116.766  1.00  0.00     0.012 C 
ATOM      4  C   UNL     1     406.627 -85.094 116.024  1.00  0.00    -0.026 C 
ATOM      5  C   UNL     1     406.028 -84.879 114.607  1.00  0.00    -0.000 C 
ATOM      6  C   UNL     1     405.629 -85.790 116.983  1.00  0.00     0.012 C 
ATOM      7  C   UNL     1     407.587 -86.103 115.340  1.00  0.00     0.023 C 
ATOM      8  C   UNL     1     406.911 -83.875 113.788  1.00  0.00     0.031 C 
ATOM      9  C   UNL     1     406.535 -86.285 114.228  1.00  0.00     0.013 C 
ATOM     10  C   UNL     1     408.399 -84.265 113.900  1.00  0.00    -0.025 C 
ENDBRANCH   1   2
BRANCH   1  11
ATOM     11  O   UNL     1     410.627 -85.396 116.131  1.00  0.00    -0.392 OA
ATOM     12  H   UNL     1     411.608 -85.262 116.055  1.00  0.00     0.211 HD
ENDBRANCH   1  11
TORSDOF 2
ENDMDL
MODEL 3
REMARK VINA RESULT:    -3.471      1.241      1.874
REMARK INTER + INTRA:          -3.810
REMARK INTER:                  -3.787
REMARK INTRA:                  -0.023
REMARK UNBOUND:                -0.035
REMARK SMILES CC1(C)[C@H]2CC=C(CO)[C@@H]1C2
REMARK SMILES IDX 8 1 7 2 1 3 2 4 4 5 3 6 10 7 5 8 11 9 6 10 9 11
REMARK H PARENT 9 12
REMARK Flexibility Score: inf
ROOT
ATOM      1  C   UNL     1     419.820 -90.238 120.181  1.00  0.00     0.187 C 
ENDROOT
BRANCH   1   2
ATOM      2  C   UNL     1     420.734 -89.145 120.662  1.00  0.00    -0.045 C 
ATOM      3  C   UNL     1     420.213 -87.626 123.143  1.00  0.00     0.012 C 
ATOM      4  C   UNL     1     420.613 -86.913 121.820  1.00  0.00    -0.026 C 
ATOM      5  C   UNL     1     422.112 -86.887 121.412  1.00  0.00    -0.000 C 
ATOM      6  C   UNL     1     419.980 -85.499 121.820  1.00  0.00     0.012 C 
ATOM      7  C   UNL     1     420.381 -87.663 120.481  1.00  0.00     0.023 C 
ATOM      8  C   UNL     1     422.797 -88.253 121.762  1.00  0.00     0.031 C 
ATOM      9  C   UNL     1     421.668 -87.008 119.940  1.00  0.00     0.013 C 
ATOM     10  C   UNL     1     421.926 -89.424 121.266  1.00  0.00    -0.025 C 
ENDBRANCH   1   2
BRANCH   1  11
ATOM     11  O   UNL     1     420.502 -91.461 120.143  1.00  0.00    -0.392 OA
ATOM     12  H   UNL     1     420.424 -91.858 121.050  1.00  0.00     0.211 HD
ENDBRANCH   1  11
TORSDOF 2
ENDMDL
MODEL 4
REMARK VINA RESULT:    -3.442      1.210      2.895
REMARK INTER + INTRA:          -3.778
REMARK INTER:                  -3.738
REMARK INTRA:                  -0.041
REMARK UNBOUND:                -0.035
REMARK SMILES CC1(C)[C@H]2CC=C(CO)[C@@H]1C2
REMARK SMILES IDX 8 1 7 2 1 3 2 4 4 5 3 6 10 7 5 8 11 9 6 10 9 11
REMARK H PARENT 9 12
REMARK Flexibility Score: inf
ROOT
ATOM      1  C   UNL     1     419.907 -90.133 120.231  1.00  0.00     0.187 C 
ENDROOT
BRANCH   1   2
ATOM      2  C   UNL     1     420.842 -89.185 120.931  1.00  0.00    -0.045 C 
ATOM      3  C   UNL     1     421.535 -86.538 119.816  1.00  0.00     0.012 C 
ATOM      4  C   UNL     1     422.623 -87.493 120.382  1.00  0.00    -0.026 C 
ATOM      5  C   UNL     1     422.828 -87.561 121.921  1.00  0.00    -0.000 C 
ATOM      6  C   UNL     1     423.948 -87.223 119.626  1.00  0.00     0.012 C 
ATOM      7  C   UNL     1     422.297 -89.007 120.475  1.00  0.00     0.023 C 
ATOM      8  C   UNL     1     421.447 -87.479 122.659  1.00  0.00     0.031 C 
ATOM      9  C   UNL     1     423.132 -89.065 121.770  1.00  0.00     0.013 C 
ATOM     10  C   UNL     1     420.443 -88.454 122.012  1.00  0.00    -0.025 C 
ENDBRANCH   1   2
BRANCH   1  11
ATOM     11  O   UNL     1     420.463 -91.418 120.186  1.00  0.00    -0.392 OA
ATOM     12  H   UNL     1     421.104 -91.477 120.941  1.00  0.00     0.211 HD
ENDBRANCH   1  11
TORSDOF 2
ENDMDL
MODEL 5
REMARK VINA RESULT:    -3.225     16.135     17.725
REMARK INTER + INTRA:          -3.543
REMARK INTER:                  -3.479
REMARK INTRA:                  -0.064
REMARK UNBOUND:                -0.035
REMARK SMILES CC1(C)[C@H]2CC=C(CO)[C@@H]1C2
REMARK SMILES IDX 8 1 7 2 1 3 2 4 4 5 3 6 10 7 5 8 11 9 6 10 9 11
REMARK H PARENT 9 12
REMARK Flexibility Score: inf
ROOT
ATOM      1  C   UNL     1     404.261 -86.896 113.129  1.00  0.00     0.187 C 
ENDROOT
BRANCH   1   2
ATOM      2  C   UNL     1     404.976 -85.925 114.026  1.00  0.00    -0.045 C 
ATOM      3  C   UNL     1     406.829 -83.875 112.978  1.00  0.00     0.012 C 
ATOM      4  C   UNL     1     407.198 -84.756 114.205  1.00  0.00    -0.026 C 
ATOM      5  C   UNL     1     406.619 -84.376 115.597  1.00  0.00    -0.000 C 
ATOM      6  C   UNL     1     408.738 -84.923 114.237  1.00  0.00     0.012 C 
ATOM      7  C   UNL     1     406.455 -86.105 114.393  1.00  0.00     0.023 C 
ATOM      8  C   UNL     1     405.141 -83.875 115.453  1.00  0.00     0.031 C 
ATOM      9  C   UNL     1     406.520 -85.881 115.916  1.00  0.00     0.013 C 
ATOM     10  C   UNL     1     404.335 -84.847 114.568  1.00  0.00    -0.025 C 
ENDBRANCH   1   2
BRANCH   1  11
ATOM     11  O   UNL     1     404.764 -86.813 111.824  1.00  0.00    -0.392 OA
ATOM     12  H   UNL     1     405.728 -86.589 111.906  1.00  0.00     0.211 HD
ENDBRANCH   1  11
TORSDOF 2
ENDMDL
MODEL 6
REMARK VINA RESULT:    -3.204      2.183      3.531
REMARK INTER + INTRA:          -3.520
REMARK INTER:                  -3.497
REMARK INTRA:                  -0.023
REMARK UNBOUND:                -0.035
REMARK SMILES CC1(C)[C@H]2CC=C(CO)[C@@H]1C2
REMARK SMILES IDX 8 1 7 2 1 3 2 4 4 5 3 6 10 7 5 8 11 9 6 10 9 11
REMARK H PARENT 9 12
REMARK Flexibility Score: inf
ROOT
ATOM      1  C   UNL     1     420.208 -85.894 119.474  1.00  0.00     0.187 C 
ENDROOT
BRANCH   1   2
ATOM      2  C   UNL     1     420.761 -87.115 120.154  1.00  0.00    -0.045 C 
ATOM      3  C   UNL     1     420.802 -87.403 123.095  1.00  0.00     0.012 C 
ATOM      4  C   UNL     1     422.047 -87.740 122.227  1.00  0.00    -0.026 C 
ATOM      5  C   UNL     1     422.097 -89.110 121.495  1.00  0.00    -0.000 C 
ATOM      6  C   UNL     1     423.316 -87.482 123.077  1.00  0.00     0.012 C 
ATOM      7  C   UNL     1     422.148 -87.111 120.812  1.00  0.00     0.023 C 
ATOM      8  C   UNL     1     420.678 -89.487 120.947  1.00  0.00     0.031 C 
ATOM      9  C   UNL     1     422.823 -88.410 120.329  1.00  0.00     0.013 C 
ATOM     10  C   UNL     1     420.061 -88.286 120.203  1.00  0.00    -0.025 C 
ENDBRANCH   1   2
BRANCH   1  11
ATOM     11  O   UNL     1     419.276 -86.263 118.495  1.00  0.00    -0.392 OA
ATOM     12  H   UNL     1     418.718 -86.982 118.892  1.00  0.00     0.211 HD
ENDBRANCH   1  11
TORSDOF 2
ENDMDL
MODEL 7
REMARK VINA RESULT:    -3.167      2.155      3.739
REMARK INTER + INTRA:          -3.479
REMARK INTER:                  -3.416
REMARK INTRA:                  -0.063
REMARK UNBOUND:                -0.035
REMARK SMILES CC1(C)[C@H]2CC=C(CO)[C@@H]1C2
REMARK SMILES IDX 8 1 7 2 1 3 2 4 4 5 3 6 10 7 5 8 11 9 6 10 9 11
REMARK H PARENT 9 12
REMARK Flexibility Score: inf
ROOT
ATOM      1  C   UNL     1     419.775 -86.620 123.508  1.00  0.00     0.187 C 
ENDROOT
BRANCH   1   2
ATOM      2  C   UNL     1     420.580 -86.892 122.268  1.00  0.00    -0.045 C 
ATOM      3  C   UNL     1     420.395 -89.446 120.793  1.00  0.00     0.012 C 
ATOM      4  C   UNL     1     421.767 -88.799 121.131  1.00  0.00    -0.026 C 
ATOM      5  C   UNL     1     422.283 -87.635 120.240  1.00  0.00    -0.000 C 
ATOM      6  C   UNL     1     422.815 -89.931 121.281  1.00  0.00     0.012 C 
ATOM      7  C   UNL     1     421.832 -87.780 122.300  1.00  0.00     0.023 C 
ATOM      8  C   UNL     1     421.096 -86.698 119.826  1.00  0.00     0.031 C 
ATOM      9  C   UNL     1     422.896 -86.998 121.503  1.00  0.00     0.013 C 
ATOM     10  C   UNL     1     420.242 -86.349 121.062  1.00  0.00    -0.025 C 
ENDBRANCH   1   2
BRANCH   1  11
ATOM     11  O   UNL     1     419.551 -87.810 124.213  1.00  0.00    -0.392 OA
ATOM     12  H   UNL     1     418.666 -87.717 124.653  1.00  0.00     0.211 HD
ENDBRANCH   1  11
TORSDOF 2
ENDMDL
MODEL 8
REMARK VINA RESULT:    -3.096      0.997      2.011
REMARK INTER + INTRA:          -3.403
REMARK INTER:                  -3.340
REMARK INTRA:                  -0.062
REMARK UNBOUND:                -0.035
REMARK SMILES CC1(C)[C@H]2CC=C(CO)[C@@H]1C2
REMARK SMILES IDX 8 1 7 2 1 3 2 4 4 5 3 6 10 7 5 8 11 9 6 10 9 11
REMARK H PARENT 9 12
REMARK Flexibility Score: inf
ROOT
ATOM      1  C   UNL     1     422.794 -91.235 120.993  1.00  0.00     0.187 C 
ENDROOT
BRANCH   1   2
ATOM      2  C   UNL     1     422.857 -89.749 121.212  1.00  0.00    -0.045 C 
ATOM      3  C   UNL     1     420.555 -88.201 122.232  1.00  0.00     0.012 C 
ATOM      4  C   UNL     1     421.386 -87.715 121.012  1.00  0.00    -0.026 C 
ATOM      5  C   UNL     1     422.742 -87.002 121.270  1.00  0.00    -0.000 C 
ATOM      6  C   UNL     1     420.456 -86.890 120.088  1.00  0.00     0.012 C 
ATOM      7  C   UNL     1     422.219 -88.762 120.224  1.00  0.00     0.023 C 
ATOM      8  C   UNL     1     423.496 -87.679 122.466  1.00  0.00     0.031 C 
ATOM      9  C   UNL     1     423.289 -87.676 119.996  1.00  0.00     0.013 C 
ATOM     10  C   UNL     1     423.499 -89.211 122.290  1.00  0.00    -0.025 C 
ENDBRANCH   1   2
BRANCH   1  11
ATOM     11  O   UNL     1     421.500 -91.615 120.612  1.00  0.00    -0.392 OA
ATOM     12  H   UNL     1     421.578 -92.018 119.708  1.00  0.00     0.211 HD
ENDBRANCH   1  11
TORSDOF 2
ENDMDL
MODEL 9
REMARK VINA RESULT:    -3.003     16.725     18.349
REMARK INTER + INTRA:          -3.301
REMARK INTER:                  -3.277
REMARK INTRA:                  -0.024
REMARK UNBOUND:                -0.035
REMARK SMILES CC1(C)[C@H]2CC=C(CO)[C@@H]1C2
REMARK SMILES IDX 8 1 7 2 1 3 2 4 4 5 3 6 10 7 5 8 11 9 6 10 9 11
REMARK H PARENT 9 12
REMARK Flexibility Score: inf
ROOT
ATOM      1  C   UNL     1     407.574 -86.183 115.012  1.00  0.00     0.187 C 
ENDROOT
BRANCH   1   2
ATOM      2  C   UNL     1     406.340 -85.454 114.557  1.00  0.00    -0.045 C 
ATOM      3  C   UNL     1     403.876 -86.871 113.748  1.00  0.00     0.012 C 
ATOM      4  C   UNL     1     404.463 -85.708 112.899  1.00  0.00    -0.026 C 
ATOM      5  C   UNL     1     404.188 -84.246 113.345  1.00  0.00    -0.000 C 
ATOM      6  C   UNL     1     404.084 -85.950 111.416  1.00  0.00     0.012 C 
ATOM      7  C   UNL     1     405.965 -85.356 113.072  1.00  0.00     0.023 C 
ATOM      8  C   UNL     1     404.244 -84.133 114.908  1.00  0.00     0.031 C 
ATOM      9  C   UNL     1     405.600 -83.875 112.849  1.00  0.00     0.013 C 
ATOM     10  C   UNL     1     405.508 -84.833 115.444  1.00  0.00    -0.025 C 
ENDBRANCH   1   2
BRANCH   1  11
ATOM     11  O   UNL     1     408.422 -85.313 115.710  1.00  0.00    -0.392 OA
ATOM     12  H   UNL     1     408.266 -85.479 116.676  1.00  0.00     0.211 HD
ENDBRANCH   1  11
TORSDOF 2
ENDMDL
