MODEL 1
REMARK VINA RESULT:    -3.624      0.000      0.000
REMARK INTER + INTRA:          -4.491
REMARK INTER:                  -4.365
REMARK INTRA:                  -0.126
REMARK UNBOUND:                -0.126
REMARK SMILES CC[C@H](C)[C@@H]([NH3+])C(=O)[O-]
REMARK SMILES IDX 3 1 4 2 5 3 6 4 7 8 8 9 9 10 2 11 1 12
REMARK H PARENT 6 5 6 6 6 7
REMARK Flexibility Score: inf
ROOT
ATOM      1  C   UNL     1      28.456   5.947  27.239  1.00  0.00     0.050 C 
ATOM      2  C   UNL     1      27.349   5.318  26.375  1.00  0.00     0.014 C 
ENDROOT
BRANCH   1   3
ATOM      3  C   UNL     1      27.952   7.258  27.921  1.00  0.00     0.230 C 
BRANCH   3   4
ATOM      4  N   UNL     1      26.728   7.770  27.291  1.00  0.00    -0.350 N 
ATOM      5  H   UNL     1      26.040   8.040  28.031  1.00  0.00     0.345 HD
ATOM      6  H   UNL     1      26.288   7.048  26.675  1.00  0.00     0.345 HD
ATOM      7  H   UNL     1      26.946   8.622  26.725  1.00  0.00     0.345 HD
ENDBRANCH   3   4
BRANCH   3   8
ATOM      8  C   UNL     1      27.772   7.115  29.415  1.00  0.00     0.099 C 
ATOM      9  O   UNL     1      28.729   6.762  30.154  1.00  0.00    -0.544 OA
ATOM     10  O   UNL     1      26.539   7.397  29.991  1.00  0.00    -0.544 OA
ENDBRANCH   3   8
ENDBRANCH   1   3
BRANCH   1  11
ATOM     11  C   UNL     1      29.761   6.121  26.409  1.00  0.00     0.006 C 
ATOM     12  C   UNL     1      30.904   6.717  27.234  1.00  0.00     0.004 C 
ENDBRANCH   1  11
TORSDOF 4
ENDMDL
MODEL 2
REMARK VINA RESULT:    -3.600      1.719      2.662
REMARK INTER + INTRA:          -4.462
REMARK INTER:                  -4.325
REMARK INTRA:                  -0.137
REMARK UNBOUND:                -0.126
REMARK SMILES CC[C@H](C)[C@@H]([NH3+])C(=O)[O-]
REMARK SMILES IDX 3 1 4 2 5 3 6 4 7 8 8 9 9 10 2 11 1 12
REMARK H PARENT 6 5 6 6 6 7
REMARK Flexibility Score: inf
ROOT
ATOM      1  C   UNL     1      28.779   7.106  27.701  1.00  0.00     0.050 C 
ATOM      2  C   UNL     1      30.186   7.356  28.272  1.00  0.00     0.014 C 
ENDROOT
BRANCH   1   3
ATOM      3  C   UNL     1      27.737   6.927  28.851  1.00  0.00     0.230 C 
BRANCH   3   4
ATOM      4  N   UNL     1      28.382   6.620  30.135  1.00  0.00    -0.350 N 
ATOM      5  H   UNL     1      28.873   7.473  30.492  1.00  0.00     0.345 HD
ATOM      6  H   UNL     1      29.082   5.851  30.033  1.00  0.00     0.345 HD
ATOM      7  H   UNL     1      27.661   6.343  30.840  1.00  0.00     0.345 HD
ENDBRANCH   3   4
BRANCH   3   8
ATOM      8  C   UNL     1      26.797   8.103  28.985  1.00  0.00     0.099 C 
ATOM      9  O   UNL     1      26.249   8.373  30.086  1.00  0.00    -0.544 OA
ATOM     10  O   UNL     1      26.546   8.913  27.885  1.00  0.00    -0.544 OA
ENDBRANCH   3   8
ENDBRANCH   1   3
BRANCH   1  11
ATOM     11  C   UNL     1      28.807   5.934  26.678  1.00  0.00     0.006 C 
ATOM     12  C   UNL     1      27.469   5.195  26.597  1.00  0.00     0.004 C 
ENDBRANCH   1  11
TORSDOF 4
ENDMDL
MODEL 3
REMARK VINA RESULT:    -3.534      1.195      1.563
REMARK INTER + INTRA:          -4.382
REMARK INTER:                  -4.291
REMARK INTRA:                  -0.091
REMARK UNBOUND:                -0.126
REMARK SMILES CC[C@H](C)[C@@H]([NH3+])C(=O)[O-]
REMARK SMILES IDX 3 1 4 2 5 3 6 4 7 8 8 9 9 10 2 11 1 12
REMARK H PARENT 6 5 6 6 6 7
REMARK Flexibility Score: inf
ROOT
ATOM      1  C   UNL     1      28.272   6.836  28.329  1.00  0.00     0.050 C 
ATOM      2  C   UNL     1      27.780   5.813  27.289  1.00  0.00     0.014 C 
ENDROOT
BRANCH   1   3
ATOM      3  C   UNL     1      27.370   8.111  28.324  1.00  0.00     0.230 C 
BRANCH   3   4
ATOM      4  N   UNL     1      26.628   8.254  27.064  1.00  0.00    -0.350 N 
ATOM      5  H   UNL     1      26.342   9.252  26.938  1.00  0.00     0.345 HD
ATOM      6  H   UNL     1      25.768   7.659  27.061  1.00  0.00     0.345 HD
ATOM      7  H   UNL     1      27.237   7.987  26.258  1.00  0.00     0.345 HD
ENDBRANCH   3   4
BRANCH   3   8
ATOM      8  C   UNL     1      26.438   8.181  29.512  1.00  0.00     0.099 C 
ATOM      9  O   UNL     1      26.541   7.367  30.466  1.00  0.00    -0.544 OA
ATOM     10  O   UNL     1      25.463   9.170  29.565  1.00  0.00    -0.544 OA
ENDBRANCH   3   8
ENDBRANCH   1   3
BRANCH   1  11
ATOM     11  C   UNL     1      29.788   7.126  28.134  1.00  0.00     0.006 C 
ATOM     12  C   UNL     1      30.314   6.611  26.792  1.00  0.00     0.004 C 
ENDBRANCH   1  11
TORSDOF 4
ENDMDL
MODEL 4
REMARK VINA RESULT:    -3.377      0.721      2.016
REMARK INTER + INTRA:          -4.193
REMARK INTER:                  -4.242
REMARK INTRA:                   0.048
REMARK UNBOUND:                -0.126
REMARK SMILES CC[C@H](C)[C@@H]([NH3+])C(=O)[O-]
REMARK SMILES IDX 3 1 4 2 5 3 6 4 7 8 8 9 9 10 2 11 1 12
REMARK H PARENT 6 5 6 6 6 7
REMARK Flexibility Score: inf
ROOT
ATOM      1  C   UNL     1      28.370   6.881  27.063  1.00  0.00     0.050 C 
ATOM      2  C   UNL     1      29.896   6.705  27.149  1.00  0.00     0.014 C 
ENDROOT
BRANCH   1   3
ATOM      3  C   UNL     1      27.865   7.888  28.145  1.00  0.00     0.230 C 
BRANCH   3   4
ATOM      4  N   UNL     1      26.601   8.527  27.754  1.00  0.00    -0.350 N 
ATOM      5  H   UNL     1      25.855   7.798  27.660  1.00  0.00     0.345 HD
ATOM      6  H   UNL     1      26.695   9.026  26.840  1.00  0.00     0.345 HD
ATOM      7  H   UNL     1      26.300   9.205  28.490  1.00  0.00     0.345 HD
ENDBRANCH   3   4
BRANCH   3   8
ATOM      8  C   UNL     1      27.756   7.273  29.521  1.00  0.00     0.099 C 
ATOM      9  O   UNL     1      28.768   6.796  30.100  1.00  0.00    -0.544 OA
ATOM     10  O   UNL     1      26.528   7.248  30.170  1.00  0.00    -0.544 OA
ENDBRANCH   3   8
ENDBRANCH   1   3
BRANCH   1  11
ATOM     11  C   UNL     1      27.658   5.498  27.099  1.00  0.00     0.006 C 
ATOM     12  C   UNL     1      26.973   5.158  25.773  1.00  0.00     0.004 C 
ENDBRANCH   1  11
TORSDOF 4
ENDMDL
MODEL 5
REMARK VINA RESULT:    -3.258      2.650      3.858
REMARK INTER + INTRA:          -4.051
REMARK INTER:                  -3.992
REMARK INTRA:                  -0.059
REMARK UNBOUND:                -0.126
REMARK SMILES CC[C@H](C)[C@@H]([NH3+])C(=O)[O-]
REMARK SMILES IDX 3 1 4 2 5 3 6 4 7 8 8 9 9 10 2 11 1 12
REMARK H PARENT 6 5 6 6 6 7
REMARK Flexibility Score: inf
ROOT
ATOM      1  C   UNL     1      27.027   8.525  28.428  1.00  0.00     0.050 C 
ATOM      2  C   UNL     1      26.069   8.837  29.592  1.00  0.00     0.014 C 
ENDROOT
BRANCH   1   3
ATOM      3  C   UNL     1      28.015   7.378  28.813  1.00  0.00     0.230 C 
BRANCH   3   4
ATOM      4  N   UNL     1      27.559   6.635  29.995  1.00  0.00    -0.350 N 
ATOM      5  H   UNL     1      26.771   7.150  30.450  1.00  0.00     0.345 HD
ATOM      6  H   UNL     1      28.330   6.523  30.693  1.00  0.00     0.345 HD
ATOM      7  H   UNL     1      27.209   5.692  29.712  1.00  0.00     0.345 HD
ENDBRANCH   3   4
BRANCH   3   8
ATOM      8  C   UNL     1      28.308   6.440  27.664  1.00  0.00     0.099 C 
ATOM      9  O   UNL     1      27.500   5.528  27.349  1.00  0.00    -0.544 OA
ATOM     10  O   UNL     1      29.477   6.595  26.929  1.00  0.00    -0.544 OA
ENDBRANCH   3   8
ENDBRANCH   1   3
BRANCH   1  11
ATOM     11  C   UNL     1      27.722   9.826  27.931  1.00  0.00     0.006 C 
ATOM     12  C   UNL     1      26.971  11.090  28.356  1.00  0.00     0.004 C 
ENDBRANCH   1  11
TORSDOF 4
ENDMDL
MODEL 6
REMARK VINA RESULT:    -3.210      1.852      1.951
REMARK INTER + INTRA:          -3.992
REMARK INTER:                  -3.855
REMARK INTRA:                  -0.137
REMARK UNBOUND:                -0.126
REMARK SMILES CC[C@H](C)[C@@H]([NH3+])C(=O)[O-]
REMARK SMILES IDX 3 1 4 2 5 3 6 4 7 8 8 9 9 10 2 11 1 12
REMARK H PARENT 6 5 6 6 6 7
REMARK Flexibility Score: inf
ROOT
ATOM      1  C   UNL     1      28.346   5.860  27.226  1.00  0.00     0.050 C 
ATOM      2  C   UNL     1      27.378   5.136  26.273  1.00  0.00     0.014 C 
ENDROOT
BRANCH   1   3
ATOM      3  C   UNL     1      27.565   6.772  28.224  1.00  0.00     0.230 C 
BRANCH   3   4
ATOM      4  N   UNL     1      28.090   6.668  29.592  1.00  0.00    -0.350 N 
ATOM      5  H   UNL     1      29.118   6.861  29.587  1.00  0.00     0.345 HD
ATOM      6  H   UNL     1      27.933   5.712  29.986  1.00  0.00     0.345 HD
ATOM      7  H   UNL     1      27.630   7.377  30.207  1.00  0.00     0.345 HD
ENDBRANCH   3   4
BRANCH   3   8
ATOM      8  C   UNL     1      27.500   8.216  27.779  1.00  0.00     0.099 C 
ATOM      9  O   UNL     1      28.221   9.094  28.320  1.00  0.00    -0.544 OA
ATOM     10  O   UNL     1      26.648   8.580  26.743  1.00  0.00    -0.544 OA
ENDBRANCH   3   8
ENDBRANCH   1   3
BRANCH   1  11
ATOM     11  C   UNL     1      29.454   6.598  26.421  1.00  0.00     0.006 C 
ATOM     12  C   UNL     1      30.805   6.588  27.140  1.00  0.00     0.004 C 
ENDBRANCH   1  11
TORSDOF 4
ENDMDL
MODEL 7
REMARK VINA RESULT:    -3.162      2.121      2.921
REMARK INTER + INTRA:          -3.935
REMARK INTER:                  -3.840
REMARK INTRA:                  -0.096
REMARK UNBOUND:                -0.126
REMARK SMILES CC[C@H](C)[C@@H]([NH3+])C(=O)[O-]
REMARK SMILES IDX 3 1 4 2 5 3 6 4 7 8 8 9 9 10 2 11 1 12
REMARK H PARENT 6 5 6 6 6 7
REMARK Flexibility Score: inf
ROOT
ATOM      1  C   UNL     1      28.578   6.895  27.732  1.00  0.00     0.050 C 
ATOM      2  C   UNL     1      27.750   6.272  28.871  1.00  0.00     0.014 C 
ENDROOT
BRANCH   1   3
ATOM      3  C   UNL     1      27.978   8.270  27.298  1.00  0.00     0.230 C 
BRANCH   3   4
ATOM      4  N   UNL     1      26.582   8.423  27.732  1.00  0.00    -0.350 N 
ATOM      5  H   UNL     1      26.078   9.058  27.071  1.00  0.00     0.345 HD
ATOM      6  H   UNL     1      26.526   8.830  28.693  1.00  0.00     0.345 HD
ATOM      7  H   UNL     1      26.101   7.495  27.720  1.00  0.00     0.345 HD
ENDBRANCH   3   4
BRANCH   3   8
ATOM      8  C   UNL     1      28.814   9.448  27.745  1.00  0.00     0.099 C 
ATOM      9  O   UNL     1      28.286  10.566  27.981  1.00  0.00    -0.544 OA
ATOM     10  O   UNL     1      30.184   9.294  27.918  1.00  0.00    -0.544 OA
ENDBRANCH   3   8
ENDBRANCH   1   3
BRANCH   1  11
ATOM     11  C   UNL     1      28.753   5.880  26.567  1.00  0.00     0.006 C 
ATOM     12  C   UNL     1      27.489   5.053  26.316  1.00  0.00     0.004 C 
ENDBRANCH   1  11
TORSDOF 4
ENDMDL
MODEL 8
REMARK VINA RESULT:    -3.122     14.678     15.600
REMARK INTER + INTRA:          -3.887
REMARK INTER:                  -3.764
REMARK INTRA:                  -0.123
REMARK UNBOUND:                -0.126
REMARK SMILES CC[C@H](C)[C@@H]([NH3+])C(=O)[O-]
REMARK SMILES IDX 3 1 4 2 5 3 6 4 7 8 8 9 9 10 2 11 1 12
REMARK H PARENT 6 5 6 6 6 7
REMARK Flexibility Score: inf
ROOT
ATOM      1  C   UNL     1      14.923  10.551  33.440  1.00  0.00     0.050 C 
ATOM      2  C   UNL     1      15.383   9.715  34.647  1.00  0.00     0.014 C 
ENDROOT
BRANCH   1   3
ATOM      3  C   UNL     1      13.931   9.741  32.548  1.00  0.00     0.230 C 
BRANCH   3   4
ATOM      4  N   UNL     1      14.079   8.291  32.737  1.00  0.00    -0.350 N 
ATOM      5  H   UNL     1      14.944   7.961  32.248  1.00  0.00     0.345 HD
ATOM      6  H   UNL     1      13.259   7.772  32.350  1.00  0.00     0.345 HD
ATOM      7  H   UNL     1      14.180   8.072  33.755  1.00  0.00     0.345 HD
ENDBRANCH   3   4
BRANCH   3   8
ATOM      8  C   UNL     1      12.491  10.164  32.729  1.00  0.00     0.099 C 
ATOM      9  O   UNL     1      11.616   9.872  31.873  1.00  0.00    -0.544 OA
ATOM     10  O   UNL     1      12.119  10.870  33.867  1.00  0.00    -0.544 OA
ENDBRANCH   3   8
ENDBRANCH   1   3
BRANCH   1  11
ATOM     11  C   UNL     1      16.151  11.121  32.672  1.00  0.00     0.006 C 
ATOM     12  C   UNL     1      15.943  11.124  31.156  1.00  0.00     0.004 C 
ENDBRANCH   1  11
TORSDOF 4
ENDMDL
MODEL 9
REMARK VINA RESULT:    -3.037      2.142      3.365
REMARK INTER + INTRA:          -3.784
REMARK INTER:                  -3.660
REMARK INTRA:                  -0.124
REMARK UNBOUND:                -0.126
REMARK SMILES CC[C@H](C)[C@@H]([NH3+])C(=O)[O-]
REMARK SMILES IDX 3 1 4 2 5 3 6 4 7 8 8 9 9 10 2 11 1 12
REMARK H PARENT 6 5 6 6 6 7
REMARK Flexibility Score: inf
ROOT
ATOM      1  C   UNL     1      27.410   8.665  27.813  1.00  0.00     0.050 C 
ATOM      2  C   UNL     1      26.883   8.475  26.380  1.00  0.00     0.014 C 
ENDROOT
BRANCH   1   3
ATOM      3  C   UNL     1      27.650   7.286  28.505  1.00  0.00     0.230 C 
BRANCH   3   4
ATOM      4  N   UNL     1      27.422   6.163  27.585  1.00  0.00    -0.350 N 
ATOM      5  H   UNL     1      27.123   6.530  26.652  1.00  0.00     0.345 HD
ATOM      6  H   UNL     1      26.679   5.522  27.945  1.00  0.00     0.345 HD
ATOM      7  H   UNL     1      28.309   5.625  27.451  1.00  0.00     0.345 HD
ENDBRANCH   3   4
BRANCH   3   8
ATOM      8  C   UNL     1      29.007   7.181  29.161  1.00  0.00     0.099 C 
ATOM      9  O   UNL     1      30.053   7.516  28.545  1.00  0.00    -0.544 OA
ATOM     10  O   UNL     1      29.107   6.728  30.471  1.00  0.00    -0.544 OA
ENDBRANCH   3   8
ENDBRANCH   1   3
BRANCH   1  11
ATOM     11  C   UNL     1      26.483   9.627  28.612  1.00  0.00     0.006 C 
ATOM     12  C   UNL     1      25.772   8.925  29.772  1.00  0.00     0.004 C 
ENDBRANCH   1  11
TORSDOF 4
ENDMDL
