MODEL 1
REMARK VINA RESULT:    -2.166      0.000      0.000
REMARK INTER + INTRA:          -2.609
REMARK INTER:                  -2.546
REMARK INTRA:                  -0.064
REMARK UNBOUND:                -0.064
REMARK SMILES O=C([O-])CCC(=O)[O-]
REMARK SMILES IDX 4 1 2 2 1 3 3 4 5 5 6 6 7 7 8 8
REMARK H PARENT
REMARK Flexibility Score: inf
ROOT
ATOM      1  C   UNL     1       0.992  -0.308 -15.662  1.00  0.00     0.059 C 
ENDROOT
BRANCH   1   2
ATOM      2  C   UNL     1       0.241   0.672 -14.814  1.00  0.00     0.042 C 
ATOM      3  O   UNL     1      -0.125   1.777 -15.294  1.00  0.00    -0.550 OA
ATOM      4  O   UNL     1      -0.092   0.347 -13.505  1.00  0.00    -0.550 OA
ENDBRANCH   1   2
BRANCH   1   5
ATOM      5  C   UNL     1       0.474  -0.319 -17.105  1.00  0.00     0.059 C 
BRANCH   5   6
ATOM      6  C   UNL     1       0.070  -1.697 -17.533  1.00  0.00     0.042 C 
ATOM      7  O   UNL     1      -0.123  -2.597 -16.674  1.00  0.00    -0.550 OA
ATOM      8  O   UNL     1      -0.056  -1.996 -18.884  1.00  0.00    -0.550 OA
ENDBRANCH   5   6
ENDBRANCH   1   5
TORSDOF 3
ENDMDL
MODEL 2
REMARK VINA RESULT:    -1.749      0.682      3.890
REMARK INTER + INTRA:          -2.120
REMARK INTER:                  -2.010
REMARK INTRA:                  -0.110
REMARK UNBOUND:                -0.064
REMARK SMILES O=C([O-])CCC(=O)[O-]
REMARK SMILES IDX 4 1 2 2 1 3 3 4 5 5 6 6 7 7 8 8
REMARK H PARENT
REMARK Flexibility Score: inf
ROOT
ATOM      1  C   UNL     1       0.952  -0.509 -16.810  1.00  0.00     0.059 C 
ENDROOT
BRANCH   1   2
ATOM      2  C   UNL     1       0.217  -1.733 -17.261  1.00  0.00     0.042 C 
ATOM      3  O   UNL     1      -0.069  -1.889 -18.477  1.00  0.00    -0.550 OA
ATOM      4  O   UNL     1      -0.116  -2.722 -16.343  1.00  0.00    -0.550 OA
ENDBRANCH   1   2
BRANCH   1   5
ATOM      5  C   UNL     1      -0.008   0.647 -16.506  1.00  0.00     0.059 C 
BRANCH   5   6
ATOM      6  C   UNL     1      -0.100   0.913 -15.034  1.00  0.00     0.042 C 
ATOM      7  O   UNL     1      -0.119   2.096 -14.603  1.00  0.00    -0.550 OA
ATOM      8  O   UNL     1      -0.125  -0.147 -14.136  1.00  0.00    -0.550 OA
ENDBRANCH   5   6
ENDBRANCH   1   5
TORSDOF 3
ENDMDL
MODEL 3
REMARK VINA RESULT:    -0.075      1.216      4.100
REMARK INTER + INTRA:          -0.152
REMARK INTER:                  -0.093
REMARK INTRA:                  -0.059
REMARK UNBOUND:                -0.064
REMARK SMILES O=C([O-])CCC(=O)[O-]
REMARK SMILES IDX 4 1 2 2 1 3 3 4 5 5 6 6 7 7 8 8
REMARK H PARENT
REMARK Flexibility Score: inf
ROOT
ATOM      1  C   UNL     1      -0.089   0.051 -16.358  1.00  0.00     0.059 C 
ENDROOT
BRANCH   1   2
ATOM      2  C   UNL     1       0.256  -1.039 -17.326  1.00  0.00     0.042 C 
ATOM      3  O   UNL     1       0.213  -0.822 -18.566  1.00  0.00    -0.550 OA
ATOM      4  O   UNL     1       0.665  -2.281 -16.858  1.00  0.00    -0.550 OA
ENDBRANCH   1   2
BRANCH   1   5
ATOM      5  C   UNL     1      -0.119  -0.464 -14.915  1.00  0.00     0.059 C 
BRANCH   5   6
ATOM      6  C   UNL     1       0.603   0.462 -13.984  1.00  0.00     0.042 C 
ATOM      7  O   UNL     1       1.859   0.429 -13.905  1.00  0.00    -0.550 OA
ATOM      8  O   UNL     1      -0.115   1.336 -13.177  1.00  0.00    -0.550 OA
ENDBRANCH   5   6
ENDBRANCH   1   5
TORSDOF 3
ENDMDL
