MODEL 1
REMARK VINA RESULT:    -3.962      0.000      0.000
REMARK INTER + INTRA:          -6.051
REMARK INTER:                  -5.584
REMARK INTRA:                  -0.468
REMARK UNBOUND:                -0.468
REMARK SMILES C=CCCCCCCC(=O)[O-]
REMARK SMILES IDX 6 1 7 2 8 3 9 4 10 5 11 6 5 7 4 8 3 9 2 10 1 11
REMARK H PARENT
REMARK Flexibility Score: inf
ROOT
ATOM      1  C   UNL     1       5.050  -2.899   3.002  1.00  0.00     0.000 C 
ENDROOT
BRANCH   1   2
ATOM      2  C   UNL     1       4.133  -4.131   2.890  1.00  0.00     0.006 C 
BRANCH   2   3
ATOM      3  C   UNL     1       4.783  -5.346   2.209  1.00  0.00     0.053 C 
BRANCH   3   4
ATOM      4  C   UNL     1       3.912  -5.923   1.136  1.00  0.00     0.041 C 
ATOM      5  O   UNL     1       2.929  -5.269   0.699  1.00  0.00    -0.550 OA
ATOM      6  O   UNL     1       4.164  -7.198   0.644  1.00  0.00    -0.550 OA
ENDBRANCH   3   4
ENDBRANCH   2   3
ENDBRANCH   1   2
BRANCH   1   7
ATOM      7  C   UNL     1       4.272  -1.575   3.000  1.00  0.00     0.000 C 
BRANCH   7   8
ATOM      8  C   UNL     1       4.272  -0.937   4.397  1.00  0.00     0.004 C 
BRANCH   8   9
ATOM      9  C   UNL     1       2.855  -0.598   4.877  1.00  0.00     0.027 C 
BRANCH   9  10
ATOM     10  C   UNL     1       2.391  -1.550   5.946  1.00  0.00    -0.035 C 
ATOM     11  C   UNL     1       3.180  -2.519   6.420  1.00  0.00     0.004 C 
ENDBRANCH   9  10
ENDBRANCH   8   9
ENDBRANCH   7   8
ENDBRANCH   1   7
TORSDOF 7
ENDMDL
MODEL 2
REMARK VINA RESULT:    -3.870      3.366      5.672
REMARK INTER + INTRA:          -5.921
REMARK INTER:                  -5.463
REMARK INTRA:                  -0.458
REMARK UNBOUND:                -0.468
REMARK SMILES C=CCCCCCCC(=O)[O-]
REMARK SMILES IDX 6 1 7 2 8 3 9 4 10 5 11 6 5 7 4 8 3 9 2 10 1 11
REMARK H PARENT
REMARK Flexibility Score: inf
ROOT
ATOM      1  C   UNL     1       4.866  -3.017   2.994  1.00  0.00     0.000 C 
ENDROOT
BRANCH   1   2
ATOM      2  C   UNL     1       4.097  -1.809   3.560  1.00  0.00     0.006 C 
BRANCH   2   3
ATOM      3  C   UNL     1       3.816  -1.887   5.069  1.00  0.00     0.053 C 
BRANCH   3   4
ATOM      4  C   UNL     1       2.643  -1.044   5.467  1.00  0.00     0.041 C 
ATOM      5  O   UNL     1       2.314  -0.048   4.771  1.00  0.00    -0.550 OA
ATOM      6  O   UNL     1       1.935  -1.338   6.626  1.00  0.00    -0.550 OA
ENDBRANCH   3   4
ENDBRANCH   2   3
ENDBRANCH   1   2
BRANCH   1   7
ATOM      7  C   UNL     1       4.791  -4.251   3.904  1.00  0.00     0.000 C 
BRANCH   7   8
ATOM      8  C   UNL     1       4.085  -5.415   3.194  1.00  0.00     0.004 C 
BRANCH   8   9
ATOM      9  C   UNL     1       3.674  -5.053   1.761  1.00  0.00     0.027 C 
BRANCH   9  10
ATOM     10  C   UNL     1       4.146  -6.086   0.772  1.00  0.00    -0.035 C 
ATOM     11  C   UNL     1       5.409  -6.522   0.756  1.00  0.00     0.004 C 
ENDBRANCH   9  10
ENDBRANCH   8   9
ENDBRANCH   7   8
ENDBRANCH   1   7
TORSDOF 7
ENDMDL
MODEL 3
REMARK VINA RESULT:    -3.850      3.545      5.270
REMARK INTER + INTRA:          -5.892
REMARK INTER:                  -5.238
REMARK INTRA:                  -0.655
REMARK UNBOUND:                -0.468
REMARK SMILES C=CCCCCCCC(=O)[O-]
REMARK SMILES IDX 6 1 7 2 8 3 9 4 10 5 11 6 5 7 4 8 3 9 2 10 1 11
REMARK H PARENT
REMARK Flexibility Score: inf
ROOT
ATOM      1  C   UNL     1       6.238  -1.345   5.290  1.00  0.00     0.000 C 
ENDROOT
BRANCH   1   2
ATOM      2  C   UNL     1       5.180  -1.179   6.395  1.00  0.00     0.006 C 
BRANCH   2   3
ATOM      3  C   UNL     1       4.219   0.001   6.182  1.00  0.00     0.053 C 
BRANCH   3   4
ATOM      4  C   UNL     1       2.828  -0.457   5.864  1.00  0.00     0.041 C 
ATOM      5  O   UNL     1       2.273  -0.098   4.792  1.00  0.00    -0.550 OA
ATOM      6  O   UNL     1       2.132  -1.251   6.767  1.00  0.00    -0.550 OA
ENDBRANCH   3   4
ENDBRANCH   2   3
ENDBRANCH   1   2
BRANCH   1   7
ATOM      7  C   UNL     1       5.929  -0.509   4.039  1.00  0.00     0.000 C 
BRANCH   7   8
ATOM      8  C   UNL     1       5.694  -1.412   2.820  1.00  0.00     0.004 C 
BRANCH   8   9
ATOM      9  C   UNL     1       4.296  -2.044   2.830  1.00  0.00     0.027 C 
BRANCH   9  10
ATOM     10  C   UNL     1       4.369  -3.547   2.886  1.00  0.00    -0.035 C 
ATOM     11  C   UNL     1       5.533  -4.194   2.993  1.00  0.00     0.004 C 
ENDBRANCH   9  10
ENDBRANCH   8   9
ENDBRANCH   7   8
ENDBRANCH   1   7
TORSDOF 7
ENDMDL
MODEL 4
REMARK VINA RESULT:    -3.761      2.928      5.291
REMARK INTER + INTRA:          -5.767
REMARK INTER:                  -5.307
REMARK INTRA:                  -0.460
REMARK UNBOUND:                -0.468
REMARK SMILES C=CCCCCCCC(=O)[O-]
REMARK SMILES IDX 6 1 7 2 8 3 9 4 10 5 11 6 5 7 4 8 3 9 2 10 1 11
REMARK H PARENT
REMARK Flexibility Score: inf
ROOT
ATOM      1  C   UNL     1       5.213  -0.755   3.881  1.00  0.00     0.000 C 
ENDROOT
BRANCH   1   2
ATOM      2  C   UNL     1       4.469  -0.470   5.199  1.00  0.00     0.006 C 
BRANCH   2   3
ATOM      3  C   UNL     1       2.963  -0.770   5.155  1.00  0.00     0.053 C 
BRANCH   3   4
ATOM      4  C   UNL     1       2.560  -1.779   6.186  1.00  0.00     0.041 C 
ATOM      5  O   UNL     1       1.761  -1.460   7.105  1.00  0.00    -0.550 OA
ATOM      6  O   UNL     1       3.094  -3.061   6.152  1.00  0.00    -0.550 OA
ENDBRANCH   3   4
ENDBRANCH   2   3
ENDBRANCH   1   2
BRANCH   1   7
ATOM      7  C   UNL     1       4.480  -1.769   2.991  1.00  0.00     0.000 C 
BRANCH   7   8
ATOM      8  C   UNL     1       5.118  -3.161   3.105  1.00  0.00     0.004 C 
BRANCH   8   9
ATOM      9  C   UNL     1       4.082  -4.284   2.974  1.00  0.00     0.027 C 
BRANCH   9  10
ATOM     10  C   UNL     1       4.506  -5.312   1.960  1.00  0.00    -0.035 C 
ATOM     11  C   UNL     1       3.697  -5.710   0.974  1.00  0.00     0.004 C 
ENDBRANCH   9  10
ENDBRANCH   8   9
ENDBRANCH   7   8
ENDBRANCH   1   7
TORSDOF 7
ENDMDL
MODEL 5
REMARK VINA RESULT:    -3.725     12.331     13.583
REMARK INTER + INTRA:          -5.717
REMARK INTER:                  -5.380
REMARK INTRA:                  -0.337
REMARK UNBOUND:                -0.468
REMARK SMILES C=CCCCCCCC(=O)[O-]
REMARK SMILES IDX 6 1 7 2 8 3 9 4 10 5 11 6 5 7 4 8 3 9 2 10 1 11
REMARK H PARENT
REMARK Flexibility Score: inf
ROOT
ATOM      1  C   UNL     1      -2.694   5.046  -4.479  1.00  0.00     0.000 C 
ENDROOT
BRANCH   1   2
ATOM      2  C   UNL     1      -3.197   4.587  -3.098  1.00  0.00     0.006 C 
BRANCH   2   3
ATOM      3  C   UNL     1      -4.593   3.945  -3.112  1.00  0.00     0.053 C 
BRANCH   3   4
ATOM      4  C   UNL     1      -4.638   2.677  -2.315  1.00  0.00     0.041 C 
ATOM      5  O   UNL     1      -4.410   1.572  -2.873  1.00  0.00    -0.550 OA
ATOM      6  O   UNL     1      -4.965   2.714  -0.966  1.00  0.00    -0.550 OA
ENDBRANCH   3   4
ENDBRANCH   2   3
ENDBRANCH   1   2
BRANCH   1   7
ATOM      7  C   UNL     1      -2.359   6.544  -4.524  1.00  0.00     0.000 C 
BRANCH   7   8
ATOM      8  C   UNL     1      -2.527   7.185  -3.138  1.00  0.00     0.004 C 
BRANCH   8   9
ATOM      9  C   UNL     1      -1.980   8.617  -3.094  1.00  0.00     0.027 C 
BRANCH   9  10
ATOM     10  C   UNL     1      -1.338   9.004  -4.400  1.00  0.00    -0.035 C 
ATOM     11  C   UNL     1      -0.371   9.924  -4.466  1.00  0.00     0.004 C 
ENDBRANCH   9  10
ENDBRANCH   8   9
ENDBRANCH   7   8
ENDBRANCH   1   7
TORSDOF 7
ENDMDL
MODEL 6
REMARK VINA RESULT:    -3.692      3.850      4.624
REMARK INTER + INTRA:          -5.670
REMARK INTER:                  -5.213
REMARK INTRA:                  -0.458
REMARK UNBOUND:                -0.468
REMARK SMILES C=CCCCCCCC(=O)[O-]
REMARK SMILES IDX 6 1 7 2 8 3 9 4 10 5 11 6 5 7 4 8 3 9 2 10 1 11
REMARK H PARENT
REMARK Flexibility Score: inf
ROOT
ATOM      1  C   UNL     1       4.203  -2.475   3.571  1.00  0.00     0.000 C 
ENDROOT
BRANCH   1   2
ATOM      2  C   UNL     1       5.663  -2.330   3.104  1.00  0.00     0.006 C 
BRANCH   2   3
ATOM      3  C   UNL     1       6.032  -0.925   2.602  1.00  0.00     0.053 C 
BRANCH   3   4
ATOM      4  C   UNL     1       7.160  -0.326   3.385  1.00  0.00     0.041 C 
ATOM      5  O   UNL     1       7.819   0.636   2.911  1.00  0.00    -0.550 OA
ATOM      6  O   UNL     1       7.506  -0.854   4.623  1.00  0.00    -0.550 OA
ENDBRANCH   3   4
ENDBRANCH   2   3
ENDBRANCH   1   2
BRANCH   1   7
ATOM      7  C   UNL     1       3.519  -1.122   3.816  1.00  0.00     0.000 C 
BRANCH   7   8
ATOM      8  C   UNL     1       3.202  -0.930   5.307  1.00  0.00     0.004 C 
BRANCH   8   9
ATOM      9  C   UNL     1       4.242  -0.046   6.009  1.00  0.00     0.027 C 
BRANCH   9  10
ATOM     10  C   UNL     1       3.608   0.819   7.065  1.00  0.00    -0.035 C 
ATOM     11  C   UNL     1       3.805   0.600   8.369  1.00  0.00     0.004 C 
ENDBRANCH   9  10
ENDBRANCH   8   9
ENDBRANCH   7   8
ENDBRANCH   1   7
TORSDOF 7
ENDMDL
MODEL 7
REMARK VINA RESULT:    -3.663      4.341      5.907
REMARK INTER + INTRA:          -5.630
REMARK INTER:                  -5.027
REMARK INTRA:                  -0.603
REMARK UNBOUND:                -0.468
REMARK SMILES C=CCCCCCCC(=O)[O-]
REMARK SMILES IDX 6 1 7 2 8 3 9 4 10 5 11 6 5 7 4 8 3 9 2 10 1 11
REMARK H PARENT
REMARK Flexibility Score: inf
ROOT
ATOM      1  C   UNL     1       5.754  -0.705   4.243  1.00  0.00     0.000 C 
ENDROOT
BRANCH   1   2
ATOM      2  C   UNL     1       4.496  -0.328   5.047  1.00  0.00     0.006 C 
BRANCH   2   3
ATOM      3  C   UNL     1       4.650  -0.475   6.570  1.00  0.00     0.053 C 
BRANCH   3   4
ATOM      4  C   UNL     1       3.615   0.309   7.318  1.00  0.00     0.041 C 
ATOM      5  O   UNL     1       3.702   1.563   7.390  1.00  0.00    -0.550 OA
ATOM      6  O   UNL     1       2.575  -0.348   7.963  1.00  0.00    -0.550 OA
ENDBRANCH   3   4
ENDBRANCH   2   3
ENDBRANCH   1   2
BRANCH   1   7
ATOM      7  C   UNL     1       5.423  -1.366   2.897  1.00  0.00     0.000 C 
BRANCH   7   8
ATOM      8  C   UNL     1       4.202  -2.288   3.023  1.00  0.00     0.004 C 
BRANCH   8   9
ATOM      9  C   UNL     1       4.572  -3.766   2.838  1.00  0.00     0.027 C 
BRANCH   9  10
ATOM     10  C   UNL     1       4.455  -4.531   4.129  1.00  0.00    -0.035 C 
ATOM     11  C   UNL     1       4.057  -3.947   5.263  1.00  0.00     0.004 C 
ENDBRANCH   9  10
ENDBRANCH   8   9
ENDBRANCH   7   8
ENDBRANCH   1   7
TORSDOF 7
ENDMDL
MODEL 8
REMARK VINA RESULT:    -3.604      3.656      5.589
REMARK INTER + INTRA:          -5.546
REMARK INTER:                  -4.828
REMARK INTRA:                  -0.718
REMARK UNBOUND:                -0.468
REMARK SMILES C=CCCCCCCC(=O)[O-]
REMARK SMILES IDX 6 1 7 2 8 3 9 4 10 5 11 6 5 7 4 8 3 9 2 10 1 11
REMARK H PARENT
REMARK Flexibility Score: inf
ROOT
ATOM      1  C   UNL     1       3.981  -3.812   5.667  1.00  0.00     0.000 C 
ENDROOT
BRANCH   1   2
ATOM      2  C   UNL     1       3.168  -2.680   6.321  1.00  0.00     0.006 C 
BRANCH   2   3
ATOM      3  C   UNL     1       3.971  -1.398   6.592  1.00  0.00     0.053 C 
BRANCH   3   4
ATOM      4  C   UNL     1       3.194  -0.164   6.246  1.00  0.00     0.041 C 
ATOM      5  O   UNL     1       2.565  -0.098   5.157  1.00  0.00    -0.550 OA
ATOM      6  O   UNL     1       3.194   0.924   7.109  1.00  0.00    -0.550 OA
ENDBRANCH   3   4
ENDBRANCH   2   3
ENDBRANCH   1   2
BRANCH   1   7
ATOM      7  C   UNL     1       5.025  -3.294   4.667  1.00  0.00     0.000 C 
BRANCH   7   8
ATOM      8  C   UNL     1       4.430  -3.195   3.254  1.00  0.00     0.004 C 
BRANCH   8   9
ATOM      9  C   UNL     1       4.408  -1.752   2.736  1.00  0.00     0.027 C 
BRANCH   9  10
ATOM     10  C   UNL     1       5.561  -0.951   3.280  1.00  0.00    -0.035 C 
ATOM     11  C   UNL     1       6.642  -0.679   2.543  1.00  0.00     0.004 C 
ENDBRANCH   9  10
ENDBRANCH   8   9
ENDBRANCH   7   8
ENDBRANCH   1   7
TORSDOF 7
ENDMDL
MODEL 9
REMARK VINA RESULT:    -3.584      4.394      6.236
REMARK INTER + INTRA:          -5.518
REMARK INTER:                  -4.931
REMARK INTRA:                  -0.587
REMARK UNBOUND:                -0.468
REMARK SMILES C=CCCCCCCC(=O)[O-]
REMARK SMILES IDX 6 1 7 2 8 3 9 4 10 5 11 6 5 7 4 8 3 9 2 10 1 11
REMARK H PARENT
REMARK Flexibility Score: inf
ROOT
ATOM      1  C   UNL     1       3.351  -1.162   4.271  1.00  0.00     0.000 C 
ENDROOT
BRANCH   1   2
ATOM      2  C   UNL     1       4.039  -1.558   5.591  1.00  0.00     0.006 C 
BRANCH   2   3
ATOM      3  C   UNL     1       4.651  -0.380   6.365  1.00  0.00     0.053 C 
BRANCH   3   4
ATOM      4  C   UNL     1       3.630   0.341   7.192  1.00  0.00     0.041 C 
ATOM      5  O   UNL     1       3.729   1.581   7.379  1.00  0.00    -0.550 OA
ATOM      6  O   UNL     1       2.588  -0.364   7.782  1.00  0.00    -0.550 OA
ENDBRANCH   3   4
ENDBRANCH   2   3
ENDBRANCH   1   2
BRANCH   1   7
ATOM      7  C   UNL     1       4.181  -1.531   3.033  1.00  0.00     0.000 C 
BRANCH   7   8
ATOM      8  C   UNL     1       5.227  -2.603   3.373  1.00  0.00     0.004 C 
BRANCH   8   9
ATOM      9  C   UNL     1       6.659  -2.115   3.118  1.00  0.00     0.027 C 
BRANCH   9  10
ATOM     10  C   UNL     1       6.678  -0.695   2.620  1.00  0.00    -0.035 C 
ATOM     11  C   UNL     1       7.761   0.080   2.734  1.00  0.00     0.004 C 
ENDBRANCH   9  10
ENDBRANCH   8   9
ENDBRANCH   7   8
ENDBRANCH   1   7
TORSDOF 7
ENDMDL
