MODEL 1
REMARK VINA RESULT:    -4.746      0.000      0.000
REMARK INTER + INTRA:          -5.903
REMARK INTER:                  -5.717
REMARK INTRA:                  -0.186
REMARK UNBOUND:                -0.186
REMARK SMILES O=c1c(O)c(-c2ccc(O)c(O)c2)oc2cc(O)cc(O)c12
REMARK SMILES IDX 5 1 3 2 2 3 1 4 22 5 20 6 19 7 17 8 16 9 15 10 14 11 6 12
REMARK SMILES IDX 7 13 8 14 9 15 13 16 11 17 10 18 12 20 4 22 21 24 18 26
REMARK H PARENT 10 19 12 21 4 23 21 25 18 27
REMARK Flexibility Score: inf
ROOT
ATOM      1  C   UNL     1     -26.088  51.489  42.103  1.00  0.00     0.180 A 
ATOM      2  C   UNL     1     -25.197  52.265  41.336  1.00  0.00     0.208 A 
ATOM      3  C   UNL     1     -24.863  53.554  41.783  1.00  0.00     0.238 A 
ATOM      4  O   UNL     1     -24.075  54.262  41.098  1.00  0.00    -0.285 OA
ATOM      5  C   UNL     1     -25.405  54.035  42.992  1.00  0.00     0.111 A 
ATOM      6  C   UNL     1     -25.115  55.319  43.513  1.00  0.00     0.134 A 
ATOM      7  C   UNL     1     -25.688  55.721  44.729  1.00  0.00     0.093 A 
ATOM      8  C   UNL     1     -26.543  54.864  45.432  1.00  0.00     0.123 A 
ATOM      9  C   UNL     1     -26.831  53.598  44.921  1.00  0.00     0.094 A 
ATOM     10  C   UNL     1     -26.272  53.179  43.711  1.00  0.00     0.146 A 
ATOM     11  O   UNL     1     -26.567  51.970  43.246  1.00  0.00    -0.452 OA
ENDROOT
BRANCH   1  12
ATOM     12  C   UNL     1     -26.502  50.130  41.689  1.00  0.00     0.025 A 
ATOM     13  C   UNL     1     -26.090  48.990  42.401  1.00  0.00     0.016 A 
ATOM     14  C   UNL     1     -26.474  47.715  41.978  1.00  0.00     0.051 A 
ATOM     15  C   UNL     1     -27.264  47.559  40.830  1.00  0.00     0.157 A 
ATOM     16  C   UNL     1     -27.275  49.967  40.529  1.00  0.00     0.062 A 
ATOM     17  C   UNL     1     -27.663  48.690  40.102  1.00  0.00     0.158 A 
BRANCH  15  18
ATOM     18  O   UNL     1     -27.646  46.286  40.412  1.00  0.00    -0.504 OA
ATOM     19  H   UNL     1     -27.235  45.848  39.596  1.00  0.00     0.293 HD
ENDBRANCH  15  18
BRANCH  17  20
ATOM     20  O   UNL     1     -28.442  48.569  38.952  1.00  0.00    -0.504 OA
ATOM     21  H   UNL     1     -28.050  48.668  38.023  1.00  0.00     0.293 HD
ENDBRANCH  17  20
ENDBRANCH   1  12
BRANCH   2  22
ATOM     22  O   UNL     1     -24.636  51.747  40.167  1.00  0.00    -0.502 OA
ATOM     23  H   UNL     1     -23.670  51.446  40.116  1.00  0.00     0.293 HD
ENDBRANCH   2  22
BRANCH   6  24
ATOM     24  O   UNL     1     -24.267  56.196  42.835  1.00  0.00    -0.507 OA
ATOM     25  H   UNL     1     -23.539  55.861  42.216  1.00  0.00     0.293 HD
ENDBRANCH   6  24
BRANCH   8  26
ATOM     26  O   UNL     1     -27.110  55.263  46.640  1.00  0.00    -0.508 OA
ATOM     27  H   UNL     1     -26.548  55.652  47.388  1.00  0.00     0.293 HD
ENDBRANCH   8  26
TORSDOF 6
ENDMDL
MODEL 2
REMARK VINA RESULT:    -4.714      0.726      1.509
REMARK INTER + INTRA:          -5.864
REMARK INTER:                  -5.691
REMARK INTRA:                  -0.173
REMARK UNBOUND:                -0.186
REMARK SMILES O=c1c(O)c(-c2ccc(O)c(O)c2)oc2cc(O)cc(O)c12
REMARK SMILES IDX 5 1 3 2 2 3 1 4 22 5 20 6 19 7 17 8 16 9 15 10 14 11 6 12
REMARK SMILES IDX 7 13 8 14 9 15 13 16 11 17 10 18 12 20 4 22 21 24 18 26
REMARK H PARENT 10 19 12 21 4 23 21 25 18 27
REMARK Flexibility Score: inf
ROOT
ATOM      1  C   UNL     1     -26.160  51.261  41.972  1.00  0.00     0.180 A 
ATOM      2  C   UNL     1     -25.273  52.013  41.177  1.00  0.00     0.208 A 
ATOM      3  C   UNL     1     -24.921  53.307  41.594  1.00  0.00     0.238 A 
ATOM      4  O   UNL     1     -24.137  53.994  40.884  1.00  0.00    -0.285 OA
ATOM      5  C   UNL     1     -25.443  53.818  42.800  1.00  0.00     0.111 A 
ATOM      6  C   UNL     1     -25.135  55.109  43.290  1.00  0.00     0.134 A 
ATOM      7  C   UNL     1     -25.688  55.542  44.506  1.00  0.00     0.093 A 
ATOM      8  C   UNL     1     -26.541  54.707  45.237  1.00  0.00     0.123 A 
ATOM      9  C   UNL     1     -26.847  53.433  44.756  1.00  0.00     0.094 A 
ATOM     10  C   UNL     1     -26.308  52.985  43.547  1.00  0.00     0.146 A 
ATOM     11  O   UNL     1     -26.620  51.770  43.111  1.00  0.00    -0.452 OA
ENDROOT
BRANCH   1  12
ATOM     12  C   UNL     1     -26.593  49.897  41.592  1.00  0.00     0.025 A 
ATOM     13  C   UNL     1     -27.328  49.663  40.417  1.00  0.00     0.016 A 
ATOM     14  C   UNL     1     -27.747  48.371  40.090  1.00  0.00     0.051 A 
ATOM     15  C   UNL     1     -27.449  47.296  40.940  1.00  0.00     0.157 A 
ATOM     16  C   UNL     1     -26.316  48.821  42.449  1.00  0.00     0.062 A 
ATOM     17  C   UNL     1     -26.734  47.524  42.126  1.00  0.00     0.158 A 
BRANCH  15  18
ATOM     18  O   UNL     1     -27.867  46.007  40.610  1.00  0.00    -0.504 OA
ATOM     19  H   UNL     1     -27.958  45.708  39.646  1.00  0.00     0.293 HD
ENDBRANCH  15  18
BRANCH  17  20
ATOM     20  O   UNL     1     -26.428  46.478  42.996  1.00  0.00    -0.504 OA
ATOM     21  H   UNL     1     -27.148  45.917  43.437  1.00  0.00     0.293 HD
ENDBRANCH  17  20
ENDBRANCH   1  12
BRANCH   2  22
ATOM     22  O   UNL     1     -24.732  51.465  40.012  1.00  0.00    -0.502 OA
ATOM     23  H   UNL     1     -23.949  51.888  39.527  1.00  0.00     0.293 HD
ENDBRANCH   2  22
BRANCH   6  24
ATOM     24  O   UNL     1     -24.288  55.964  42.584  1.00  0.00    -0.507 OA
ATOM     25  H   UNL     1     -23.706  56.648  43.054  1.00  0.00     0.293 HD
ENDBRANCH   6  24
BRANCH   8  26
ATOM     26  O   UNL     1     -27.088  55.136  46.444  1.00  0.00    -0.508 OA
ATOM     27  H   UNL     1     -27.037  56.105  46.736  1.00  0.00     0.293 HD
ENDBRANCH   8  26
TORSDOF 6
ENDMDL
MODEL 3
REMARK VINA RESULT:    -4.458      1.861      6.856
REMARK INTER + INTRA:          -5.556
REMARK INTER:                  -5.394
REMARK INTRA:                  -0.162
REMARK UNBOUND:                -0.186
REMARK SMILES O=c1c(O)c(-c2ccc(O)c(O)c2)oc2cc(O)cc(O)c12
REMARK SMILES IDX 5 1 3 2 2 3 1 4 22 5 20 6 19 7 17 8 16 9 15 10 14 11 6 12
REMARK SMILES IDX 7 13 8 14 9 15 13 16 11 17 10 18 12 20 4 22 21 24 18 26
REMARK H PARENT 10 19 12 21 4 23 21 25 18 27
REMARK Flexibility Score: inf
ROOT
ATOM      1  C   UNL     1     -25.823  52.154  43.443  1.00  0.00     0.180 A 
ATOM      2  C   UNL     1     -26.059  51.945  42.071  1.00  0.00     0.208 A 
ATOM      3  C   UNL     1     -26.129  50.629  41.587  1.00  0.00     0.238 A 
ATOM      4  O   UNL     1     -26.329  50.430  40.358  1.00  0.00    -0.285 OA
ATOM      5  C   UNL     1     -25.981  49.549  42.481  1.00  0.00     0.111 A 
ATOM      6  C   UNL     1     -26.042  48.194  42.075  1.00  0.00     0.134 A 
ATOM      7  C   UNL     1     -25.895  47.175  43.028  1.00  0.00     0.093 A 
ATOM      8  C   UNL     1     -25.689  47.485  44.377  1.00  0.00     0.123 A 
ATOM      9  C   UNL     1     -25.629  48.820  44.781  1.00  0.00     0.094 A 
ATOM     10  C   UNL     1     -25.771  49.849  43.847  1.00  0.00     0.146 A 
ATOM     11  O   UNL     1     -25.704  51.111  44.259  1.00  0.00    -0.452 OA
ENDROOT
BRANCH   1  12
ATOM     12  C   UNL     1     -25.718  53.510  44.026  1.00  0.00     0.025 A 
ATOM     13  C   UNL     1     -24.714  54.406  43.619  1.00  0.00     0.016 A 
ATOM     14  C   UNL     1     -24.619  55.674  44.201  1.00  0.00     0.051 A 
ATOM     15  C   UNL     1     -25.517  56.059  45.205  1.00  0.00     0.157 A 
ATOM     16  C   UNL     1     -26.602  53.893  45.047  1.00  0.00     0.062 A 
ATOM     17  C   UNL     1     -26.510  55.163  45.632  1.00  0.00     0.158 A 
BRANCH  15  18
ATOM     18  O   UNL     1     -25.421  57.324  45.782  1.00  0.00    -0.504 OA
ATOM     19  H   UNL     1     -26.136  58.029  45.639  1.00  0.00     0.293 HD
ENDBRANCH  15  18
BRANCH  17  20
ATOM     20  O   UNL     1     -27.415  55.512  46.635  1.00  0.00    -0.504 OA
ATOM     21  H   UNL     1     -28.359  55.148  46.658  1.00  0.00     0.293 HD
ENDBRANCH  17  20
ENDBRANCH   1  12
BRANCH   2  22
ATOM     22  O   UNL     1     -26.251  53.032  41.214  1.00  0.00    -0.502 OA
ATOM     23  H   UNL     1     -26.153  52.954  40.209  1.00  0.00     0.293 HD
ENDBRANCH   2  22
BRANCH   6  24
ATOM     24  O   UNL     1     -26.246  47.852  40.737  1.00  0.00    -0.507 OA
ATOM     25  H   UNL     1     -26.220  48.546  39.999  1.00  0.00     0.293 HD
ENDBRANCH   6  24
BRANCH   8  26
ATOM     26  O   UNL     1     -25.544  46.474  45.324  1.00  0.00    -0.508 OA
ATOM     27  H   UNL     1     -24.700  46.382  45.877  1.00  0.00     0.293 HD
ENDBRANCH   8  26
TORSDOF 6
ENDMDL
MODEL 4
REMARK VINA RESULT:    -4.455      1.176      1.176
REMARK INTER + INTRA:          -5.553
REMARK INTER:                  -5.230
REMARK INTRA:                  -0.322
REMARK UNBOUND:                -0.186
REMARK SMILES O=c1c(O)c(-c2ccc(O)c(O)c2)oc2cc(O)cc(O)c12
REMARK SMILES IDX 5 1 3 2 2 3 1 4 22 5 20 6 19 7 17 8 16 9 15 10 14 11 6 12
REMARK SMILES IDX 7 13 8 14 9 15 13 16 11 17 10 18 12 20 4 22 21 24 18 26
REMARK H PARENT 10 19 12 21 4 23 21 25 18 27
REMARK Flexibility Score: inf
ROOT
ATOM      1  C   UNL     1     -25.842  51.043  42.559  1.00  0.00     0.180 A 
ATOM      2  C   UNL     1     -24.489  51.360  42.331  1.00  0.00     0.208 A 
ATOM      3  C   UNL     1     -23.944  52.493  42.954  1.00  0.00     0.238 A 
ATOM      4  O   UNL     1     -22.736  52.793  42.748  1.00  0.00    -0.285 OA
ATOM      5  C   UNL     1     -24.750  53.277  43.805  1.00  0.00     0.111 A 
ATOM      6  C   UNL     1     -24.275  54.431  44.474  1.00  0.00     0.134 A 
ATOM      7  C   UNL     1     -25.139  55.153  45.312  1.00  0.00     0.093 A 
ATOM      8  C   UNL     1     -26.463  54.741  45.496  1.00  0.00     0.123 A 
ATOM      9  C   UNL     1     -26.934  53.603  44.838  1.00  0.00     0.094 A 
ATOM     10  C   UNL     1     -26.091  52.872  43.997  1.00  0.00     0.146 A 
ATOM     11  O   UNL     1     -26.568  51.796  43.380  1.00  0.00    -0.452 OA
ENDROOT
BRANCH   1  12
ATOM     12  C   UNL     1     -26.494  49.875  41.924  1.00  0.00     0.025 A 
ATOM     13  C   UNL     1     -26.527  48.621  42.558  1.00  0.00     0.016 A 
ATOM     14  C   UNL     1     -27.127  47.527  41.929  1.00  0.00     0.051 A 
ATOM     15  C   UNL     1     -27.690  47.666  40.653  1.00  0.00     0.157 A 
ATOM     16  C   UNL     1     -27.041  50.004  40.638  1.00  0.00     0.062 A 
ATOM     17  C   UNL     1     -27.643  48.910  40.004  1.00  0.00     0.158 A 
BRANCH  15  18
ATOM     18  O   UNL     1     -28.289  46.573  40.030  1.00  0.00    -0.504 OA
ATOM     19  H   UNL     1     -28.927  46.689  39.251  1.00  0.00     0.293 HD
ENDBRANCH  15  18
BRANCH  17  20
ATOM     20  O   UNL     1     -28.187  49.080  38.731  1.00  0.00    -0.504 OA
ATOM     21  H   UNL     1     -27.639  48.948  37.890  1.00  0.00     0.293 HD
ENDBRANCH  17  20
ENDBRANCH   1  12
BRANCH   2  22
ATOM     22  O   UNL     1     -23.699  50.540  41.522  1.00  0.00    -0.502 OA
ATOM     23  H   UNL     1     -23.238  50.882  40.687  1.00  0.00     0.293 HD
ENDBRANCH   2  22
BRANCH   6  24
ATOM     24  O   UNL     1     -22.960  54.867  44.311  1.00  0.00    -0.507 OA
ATOM     25  H   UNL     1     -22.313  54.912  45.089  1.00  0.00     0.293 HD
ENDBRANCH   6  24
BRANCH   8  26
ATOM     26  O   UNL     1     -27.320  55.456  46.330  1.00  0.00    -0.508 OA
ATOM     27  H   UNL     1     -26.971  56.158  46.972  1.00  0.00     0.293 HD
ENDBRANCH   8  26
TORSDOF 6
ENDMDL
MODEL 5
REMARK VINA RESULT:    -4.451      1.692      7.246
REMARK INTER + INTRA:          -5.547
REMARK INTER:                  -5.380
REMARK INTRA:                  -0.168
REMARK UNBOUND:                -0.186
REMARK SMILES O=c1c(O)c(-c2ccc(O)c(O)c2)oc2cc(O)cc(O)c12
REMARK SMILES IDX 5 1 3 2 2 3 1 4 22 5 20 6 19 7 17 8 16 9 15 10 14 11 6 12
REMARK SMILES IDX 7 13 8 14 9 15 13 16 11 17 10 18 12 20 4 22 21 24 18 26
REMARK H PARENT 10 19 12 21 4 23 21 25 18 27
REMARK Flexibility Score: inf
ROOT
ATOM      1  C   UNL     1     -25.891  51.903  43.830  1.00  0.00     0.180 A 
ATOM      2  C   UNL     1     -25.586  50.820  44.677  1.00  0.00     0.208 A 
ATOM      3  C   UNL     1     -25.726  49.513  44.184  1.00  0.00     0.238 A 
ATOM      4  O   UNL     1     -25.466  48.535  44.937  1.00  0.00    -0.285 OA
ATOM      5  C   UNL     1     -26.147  49.311  42.853  1.00  0.00     0.111 A 
ATOM      6  C   UNL     1     -26.309  48.027  42.279  1.00  0.00     0.134 A 
ATOM      7  C   UNL     1     -26.723  47.910  40.944  1.00  0.00     0.093 A 
ATOM      8  C   UNL     1     -26.977  49.050  40.174  1.00  0.00     0.123 A 
ATOM      9  C   UNL     1     -26.819  50.318  40.737  1.00  0.00     0.094 A 
ATOM     10  C   UNL     1     -26.409  50.456  42.066  1.00  0.00     0.146 A 
ATOM     11  O   UNL     1     -26.271  51.674  42.577  1.00  0.00    -0.452 OA
ENDROOT
BRANCH   1  12
ATOM     12  C   UNL     1     -25.787  53.308  44.282  1.00  0.00     0.025 A 
ATOM     13  C   UNL     1     -24.820  54.178  43.750  1.00  0.00     0.016 A 
ATOM     14  C   UNL     1     -24.723  55.495  44.209  1.00  0.00     0.051 A 
ATOM     15  C   UNL     1     -25.582  55.956  45.217  1.00  0.00     0.157 A 
ATOM     16  C   UNL     1     -26.629  53.769  45.306  1.00  0.00     0.062 A 
ATOM     17  C   UNL     1     -26.536  55.087  45.769  1.00  0.00     0.158 A 
BRANCH  15  18
ATOM     18  O   UNL     1     -25.484  57.270  45.672  1.00  0.00    -0.504 OA
ATOM     19  H   UNL     1     -26.230  57.705  46.203  1.00  0.00     0.293 HD
ENDBRANCH  15  18
BRANCH  17  20
ATOM     20  O   UNL     1     -27.400  55.513  46.778  1.00  0.00    -0.504 OA
ATOM     21  H   UNL     1     -28.150  54.928  47.126  1.00  0.00     0.293 HD
ENDBRANCH  17  20
ENDBRANCH   1  12
BRANCH   2  22
ATOM     22  O   UNL     1     -25.124  51.047  45.976  1.00  0.00    -0.502 OA
ATOM     23  H   UNL     1     -25.659  51.570  46.659  1.00  0.00     0.293 HD
ENDBRANCH   2  22
BRANCH   6  24
ATOM     24  O   UNL     1     -26.063  46.871  43.021  1.00  0.00    -0.507 OA
ATOM     25  H   UNL     1     -26.679  46.577  43.770  1.00  0.00     0.293 HD
ENDBRANCH   6  24
BRANCH   8  26
ATOM     26  O   UNL     1     -27.387  48.934  38.848  1.00  0.00    -0.508 OA
ATOM     27  H   UNL     1     -28.259  48.482  38.599  1.00  0.00     0.293 HD
ENDBRANCH   8  26
TORSDOF 6
ENDMDL
MODEL 6
REMARK VINA RESULT:    -4.068      1.846      7.043
REMARK INTER + INTRA:          -5.085
REMARK INTER:                  -4.757
REMARK INTRA:                  -0.328
REMARK UNBOUND:                -0.186
REMARK SMILES O=c1c(O)c(-c2ccc(O)c(O)c2)oc2cc(O)cc(O)c12
REMARK SMILES IDX 5 1 3 2 2 3 1 4 22 5 20 6 19 7 17 8 16 9 15 10 14 11 6 12
REMARK SMILES IDX 7 13 8 14 9 15 13 16 11 17 10 18 12 20 4 22 21 24 18 26
REMARK H PARENT 10 19 12 21 4 23 21 25 18 27
REMARK Flexibility Score: inf
ROOT
ATOM      1  C   UNL     1     -26.196  50.292  42.618  1.00  0.00     0.180 A 
ATOM      2  C   UNL     1     -26.468  50.251  41.237  1.00  0.00     0.208 A 
ATOM      3  C   UNL     1     -26.894  49.042  40.665  1.00  0.00     0.238 A 
ATOM      4  O   UNL     1     -27.130  48.991  39.427  1.00  0.00    -0.285 OA
ATOM      5  C   UNL     1     -27.057  47.904  41.481  1.00  0.00     0.111 A 
ATOM      6  C   UNL     1     -27.485  46.650  40.984  1.00  0.00     0.134 A 
ATOM      7  C   UNL     1     -27.633  45.566  41.863  1.00  0.00     0.093 A 
ATOM      8  C   UNL     1     -27.361  45.714  43.228  1.00  0.00     0.123 A 
ATOM      9  C   UNL     1     -26.939  46.950  43.722  1.00  0.00     0.094 A 
ATOM     10  C   UNL     1     -26.784  48.040  42.862  1.00  0.00     0.146 A 
ATOM     11  O   UNL     1     -26.376  49.203  43.359  1.00  0.00    -0.452 OA
ENDROOT
BRANCH   1  12
ATOM     12  C   UNL     1     -25.727  51.524  43.291  1.00  0.00     0.025 A 
ATOM     13  C   UNL     1     -24.366  51.875  43.310  1.00  0.00     0.016 A 
ATOM     14  C   UNL     1     -23.942  53.031  43.972  1.00  0.00     0.051 A 
ATOM     15  C   UNL     1     -24.870  53.844  44.638  1.00  0.00     0.157 A 
ATOM     16  C   UNL     1     -26.649  52.330  43.977  1.00  0.00     0.062 A 
ATOM     17  C   UNL     1     -26.229  53.489  44.642  1.00  0.00     0.158 A 
BRANCH  15  18
ATOM     18  O   UNL     1     -24.445  54.996  45.296  1.00  0.00    -0.504 OA
ATOM     19  H   UNL     1     -24.208  54.988  46.281  1.00  0.00     0.293 HD
ENDBRANCH  15  18
BRANCH  17  20
ATOM     20  O   UNL     1     -27.176  54.272  45.301  1.00  0.00    -0.504 OA
ATOM     21  H   UNL     1     -27.955  54.698  44.813  1.00  0.00     0.293 HD
ENDBRANCH  17  20
ENDBRANCH   1  12
BRANCH   2  22
ATOM     22  O   UNL     1     -26.346  51.405  40.459  1.00  0.00    -0.502 OA
ATOM     23  H   UNL     1     -25.800  51.429  39.606  1.00  0.00     0.293 HD
ENDBRANCH   2  22
BRANCH   6  24
ATOM     24  O   UNL     1     -27.764  46.471  39.628  1.00  0.00    -0.507 OA
ATOM     25  H   UNL     1     -27.233  46.945  38.907  1.00  0.00     0.293 HD
ENDBRANCH   6  24
BRANCH   8  26
ATOM     26  O   UNL     1     -27.509  44.639  44.101  1.00  0.00    -0.508 OA
ATOM     27  H   UNL     1     -28.300  44.573  44.732  1.00  0.00     0.293 HD
ENDBRANCH   8  26
TORSDOF 6
ENDMDL
MODEL 7
REMARK VINA RESULT:    -4.061      1.839      6.979
REMARK INTER + INTRA:          -5.077
REMARK INTER:                  -4.745
REMARK INTRA:                  -0.332
REMARK UNBOUND:                -0.186
REMARK SMILES O=c1c(O)c(-c2ccc(O)c(O)c2)oc2cc(O)cc(O)c12
REMARK SMILES IDX 5 1 3 2 2 3 1 4 22 5 20 6 19 7 17 8 16 9 15 10 14 11 6 12
REMARK SMILES IDX 7 13 8 14 9 15 13 16 11 17 10 18 12 20 4 22 21 24 18 26
REMARK H PARENT 10 19 12 21 4 23 21 25 18 27
REMARK Flexibility Score: inf
ROOT
ATOM      1  C   UNL     1     -25.410  53.486  44.562  1.00  0.00     0.180 A 
ATOM      2  C   UNL     1     -25.121  54.082  43.319  1.00  0.00     0.208 A 
ATOM      3  C   UNL     1     -25.131  53.282  42.165  1.00  0.00     0.238 A 
ATOM      4  O   UNL     1     -24.863  53.803  41.048  1.00  0.00    -0.285 OA
ATOM      5  C   UNL     1     -25.446  51.912  42.270  1.00  0.00     0.111 A 
ATOM      6  C   UNL     1     -25.481  51.039  41.156  1.00  0.00     0.134 A 
ATOM      7  C   UNL     1     -25.812  49.688  41.341  1.00  0.00     0.093 A 
ATOM      8  C   UNL     1     -26.110  49.196  42.616  1.00  0.00     0.123 A 
ATOM      9  C   UNL     1     -26.077  50.053  43.717  1.00  0.00     0.094 A 
ATOM     10  C   UNL     1     -25.746  51.402  43.554  1.00  0.00     0.146 A 
ATOM     11  O   UNL     1     -25.717  52.194  44.620  1.00  0.00    -0.452 OA
ENDROOT
BRANCH   1  12
ATOM     12  C   UNL     1     -25.402  54.258  45.825  1.00  0.00     0.025 A 
ATOM     13  C   UNL     1     -24.238  54.377  46.604  1.00  0.00     0.016 A 
ATOM     14  C   UNL     1     -24.260  55.091  47.805  1.00  0.00     0.051 A 
ATOM     15  C   UNL     1     -25.448  55.684  48.253  1.00  0.00     0.157 A 
ATOM     16  C   UNL     1     -26.594  54.836  46.289  1.00  0.00     0.062 A 
ATOM     17  C   UNL     1     -26.621  55.553  47.492  1.00  0.00     0.158 A 
BRANCH  15  18
ATOM     18  O   UNL     1     -25.466  56.397  49.450  1.00  0.00    -0.504 OA
ATOM     19  H   UNL     1     -24.611  56.684  49.911  1.00  0.00     0.293 HD
ENDBRANCH  15  18
BRANCH  17  20
ATOM     20  O   UNL     1     -27.821  56.125  47.913  1.00  0.00    -0.504 OA
ATOM     21  H   UNL     1     -28.689  55.603  47.929  1.00  0.00     0.293 HD
ENDBRANCH  17  20
ENDBRANCH   1  12
BRANCH   2  22
ATOM     22  O   UNL     1     -24.861  55.452  43.237  1.00  0.00    -0.502 OA
ATOM     23  H   UNL     1     -25.366  56.135  43.789  1.00  0.00     0.293 HD
ENDBRANCH   2  22
BRANCH   6  24
ATOM     24  O   UNL     1     -25.189  51.500  39.871  1.00  0.00    -0.507 OA
ATOM     25  H   UNL     1     -25.459  50.981  39.044  1.00  0.00     0.293 HD
ENDBRANCH   6  24
BRANCH   8  26
ATOM     26  O   UNL     1     -26.441  47.855  42.800  1.00  0.00    -0.508 OA
ATOM     27  H   UNL     1     -27.365  47.574  43.107  1.00  0.00     0.293 HD
ENDBRANCH   8  26
TORSDOF 6
ENDMDL
MODEL 8
REMARK VINA RESULT:    -4.026      7.899      8.809
REMARK INTER + INTRA:          -5.035
REMARK INTER:                  -4.752
REMARK INTRA:                  -0.283
REMARK UNBOUND:                -0.186
REMARK SMILES O=c1c(O)c(-c2ccc(O)c(O)c2)oc2cc(O)cc(O)c12
REMARK SMILES IDX 5 1 3 2 2 3 1 4 22 5 20 6 19 7 17 8 16 9 15 10 14 11 6 12
REMARK SMILES IDX 7 13 8 14 9 15 13 16 11 17 10 18 12 20 4 22 21 24 18 26
REMARK H PARENT 10 19 12 21 4 23 21 25 18 27
REMARK Flexibility Score: inf
ROOT
ATOM      1  C   UNL     1     -27.136  55.017  34.306  1.00  0.00     0.180 A 
ATOM      2  C   UNL     1     -27.411  55.770  33.148  1.00  0.00     0.208 A 
ATOM      3  C   UNL     1     -27.738  57.129  33.284  1.00  0.00     0.238 A 
ATOM      4  O   UNL     1     -27.997  57.810  32.255  1.00  0.00    -0.285 OA
ATOM      5  C   UNL     1     -27.765  57.714  34.567  1.00  0.00     0.111 A 
ATOM      6  C   UNL     1     -28.081  59.076  34.789  1.00  0.00     0.134 A 
ATOM      7  C   UNL     1     -28.078  59.586  36.097  1.00  0.00     0.093 A 
ATOM      8  C   UNL     1     -27.764  58.761  37.182  1.00  0.00     0.123 A 
ATOM      9  C   UNL     1     -27.452  57.417  36.967  1.00  0.00     0.094 A 
ATOM     10  C   UNL     1     -27.452  56.890  35.672  1.00  0.00     0.146 A 
ATOM     11  O   UNL     1     -27.156  55.606  35.498  1.00  0.00    -0.452 OA
ENDROOT
BRANCH   1  12
ATOM     12  C   UNL     1     -26.801  53.576  34.246  1.00  0.00     0.025 A 
ATOM     13  C   UNL     1     -25.471  53.129  34.330  1.00  0.00     0.016 A 
ATOM     14  C   UNL     1     -25.177  51.766  34.247  1.00  0.00     0.051 A 
ATOM     15  C   UNL     1     -26.205  50.831  34.064  1.00  0.00     0.157 A 
ATOM     16  C   UNL     1     -27.825  52.638  34.041  1.00  0.00     0.062 A 
ATOM     17  C   UNL     1     -27.534  51.270  33.957  1.00  0.00     0.158 A 
BRANCH  15  18
ATOM     18  O   UNL     1     -25.909  49.471  33.983  1.00  0.00    -0.504 OA
ATOM     19  H   UNL     1     -25.870  48.885  34.809  1.00  0.00     0.293 HD
ENDBRANCH  15  18
BRANCH  17  20
ATOM     20  O   UNL     1     -28.580  50.367  33.767  1.00  0.00    -0.504 OA
ATOM     21  H   UNL     1     -28.813  49.999  32.853  1.00  0.00     0.293 HD
ENDBRANCH  17  20
ENDBRANCH   1  12
BRANCH   2  22
ATOM     22  O   UNL     1     -27.329  55.178  31.885  1.00  0.00    -0.502 OA
ATOM     23  H   UNL     1     -26.552  54.589  31.611  1.00  0.00     0.293 HD
ENDBRANCH   2  22
BRANCH   6  24
ATOM     24  O   UNL     1     -28.398  59.924  33.727  1.00  0.00    -0.507 OA
ATOM     25  H   UNL     1     -27.817  60.718  33.487  1.00  0.00     0.293 HD
ENDBRANCH   6  24
BRANCH   8  26
ATOM     26  O   UNL     1     -27.759  59.267  38.480  1.00  0.00    -0.508 OA
ATOM     27  H   UNL     1     -26.952  59.751  38.857  1.00  0.00     0.293 HD
ENDBRANCH   8  26
TORSDOF 6
ENDMDL
MODEL 9
REMARK VINA RESULT:    -4.009      7.898      8.885
REMARK INTER + INTRA:          -5.014
REMARK INTER:                  -4.716
REMARK INTRA:                  -0.298
REMARK UNBOUND:                -0.186
REMARK SMILES O=c1c(O)c(-c2ccc(O)c(O)c2)oc2cc(O)cc(O)c12
REMARK SMILES IDX 5 1 3 2 2 3 1 4 22 5 20 6 19 7 17 8 16 9 15 10 14 11 6 12
REMARK SMILES IDX 7 13 8 14 9 15 13 16 11 17 10 18 12 20 4 22 21 24 18 26
REMARK H PARENT 10 19 12 21 4 23 21 25 18 27
REMARK Flexibility Score: inf
ROOT
ATOM      1  C   UNL     1     -27.112  54.974  34.270  1.00  0.00     0.180 A 
ATOM      2  C   UNL     1     -27.402  55.721  33.112  1.00  0.00     0.208 A 
ATOM      3  C   UNL     1     -27.742  57.077  33.247  1.00  0.00     0.238 A 
ATOM      4  O   UNL     1     -28.016  57.752  32.218  1.00  0.00    -0.285 OA
ATOM      5  C   UNL     1     -27.768  57.665  34.528  1.00  0.00     0.111 A 
ATOM      6  C   UNL     1     -28.096  59.024  34.749  1.00  0.00     0.134 A 
ATOM      7  C   UNL     1     -28.090  59.538  36.055  1.00  0.00     0.093 A 
ATOM      8  C   UNL     1     -27.760  58.719  37.141  1.00  0.00     0.123 A 
ATOM      9  C   UNL     1     -27.435  57.378  36.927  1.00  0.00     0.094 A 
ATOM     10  C   UNL     1     -27.439  56.847  35.634  1.00  0.00     0.146 A 
ATOM     11  O   UNL     1     -27.130  55.567  35.461  1.00  0.00    -0.452 OA
ENDROOT
BRANCH   1  12
ATOM     12  C   UNL     1     -26.762  53.537  34.212  1.00  0.00     0.025 A 
ATOM     13  C   UNL     1     -27.748  52.551  34.035  1.00  0.00     0.016 A 
ATOM     14  C   UNL     1     -27.398  51.198  34.007  1.00  0.00     0.051 A 
ATOM     15  C   UNL     1     -26.061  50.811  34.170  1.00  0.00     0.157 A 
ATOM     16  C   UNL     1     -25.428  53.143  34.395  1.00  0.00     0.062 A 
ATOM     17  C   UNL     1     -25.073  51.788  34.368  1.00  0.00     0.158 A 
BRANCH  15  18
ATOM     18  O   UNL     1     -25.715  49.461  34.140  1.00  0.00    -0.504 OA
ATOM     19  H   UNL     1     -24.891  49.134  33.649  1.00  0.00     0.293 HD
ENDBRANCH  15  18
BRANCH  17  20
ATOM     20  O   UNL     1     -23.734  51.436  34.540  1.00  0.00    -0.504 OA
ATOM     21  H   UNL     1     -23.365  50.550  34.216  1.00  0.00     0.293 HD
ENDBRANCH  17  20
ENDBRANCH   1  12
BRANCH   2  22
ATOM     22  O   UNL     1     -27.323  55.127  31.851  1.00  0.00    -0.502 OA
ATOM     23  H   UNL     1     -27.155  55.664  31.008  1.00  0.00     0.293 HD
ENDBRANCH   2  22
BRANCH   6  24
ATOM     24  O   UNL     1     -28.429  59.866  33.687  1.00  0.00    -0.507 OA
ATOM     25  H   UNL     1     -28.635  59.503  32.764  1.00  0.00     0.293 HD
ENDBRANCH   6  24
BRANCH   8  26
ATOM     26  O   UNL     1     -27.752  59.229  38.437  1.00  0.00    -0.508 OA
ATOM     27  H   UNL     1     -27.122  58.870  39.145  1.00  0.00     0.293 HD
ENDBRANCH   8  26
TORSDOF 6
ENDMDL
