MODEL 1
REMARK VINA RESULT:     0.283      0.000      0.000
REMARK INTER + INTRA:           0.123
REMARK INTER:                   0.308
REMARK INTRA:                  -0.186
REMARK UNBOUND:                -0.186
REMARK SMILES CC(=O)[C@H]1CC[C@H]2[C@@H]3CC=C4C[C@@H](O)CC[C@]4(C)[C@@H]3CC[C@]12C
REMARK SMILES IDX 4 1 5 2 6 3 7 4 22 5 21 6 20 7 19 8 8 9 9 10 10 11 11 12
REMARK SMILES IDX 17 13 16 14 15 15 13 16 12 17 18 18 23 19 2 20 1 21 3 22
REMARK SMILES IDX 14 23
REMARK H PARENT 14 24
REMARK Flexibility Score: inf
ROOT
ATOM      1  C   UNL     1     -17.203  39.886  16.757  1.00  0.00     0.062 C 
ATOM      2  C   UNL     1     -15.671  40.078  16.743  1.00  0.00     0.012 C 
ATOM      3  C   UNL     1     -15.129  39.141  15.649  1.00  0.00     0.005 C 
ATOM      4  C   UNL     1     -16.378  38.574  14.972  1.00  0.00    -0.001 C 
ATOM      5  C   UNL     1     -17.435  38.510  16.082  1.00  0.00    -0.020 C 
ATOM      6  C   UNL     1     -18.839  38.348  15.432  1.00  0.00     0.008 C 
ATOM      7  C   UNL     1     -18.806  37.663  14.038  1.00  0.00     0.005 C 
ATOM      8  C   UNL     1     -17.664  36.604  13.880  1.00  0.00     0.003 C 
ATOM      9  C   UNL     1     -16.239  37.251  14.172  1.00  0.00     0.000 C 
ATOM     10  C   UNL     1     -15.372  37.494  12.900  1.00  0.00     0.031 C 
ATOM     11  C   UNL     1     -16.174  37.581  11.634  1.00  0.00    -0.027 C 
ATOM     12  C   UNL     1     -17.244  36.797  11.403  1.00  0.00    -0.065 C 
ATOM     13  C   UNL     1     -17.721  35.834  12.504  1.00  0.00    -0.008 C 
ATOM     14  C   UNL     1     -19.154  35.237  12.238  1.00  0.00     0.014 C 
ATOM     15  C   UNL     1     -20.000  36.024  11.234  1.00  0.00     0.033 C 
ATOM     16  C   UNL     1     -19.248  36.177   9.917  1.00  0.00     0.118 C 
ATOM     17  C   UNL     1     -18.009  37.054  10.116  1.00  0.00     0.063 C 
ATOM     18  C   UNL     1     -16.765  34.609  12.557  1.00  0.00     0.016 C 
ATOM     19  C   UNL     1     -17.172  37.352  17.099  1.00  0.00     0.012 C 
ENDROOT
BRANCH   1  20
ATOM     20  C   UNL     1     -17.827  40.060  18.130  1.00  0.00     0.133 C 
ATOM     21  C   UNL     1     -16.955  40.123  19.347  1.00  0.00     0.088 C 
ATOM     22  O   UNL     1     -19.041  40.125  18.258  1.00  0.00    -0.300 OA
ENDBRANCH   1  20
BRANCH  16  23
ATOM     23  O   UNL     1     -18.883  34.916   9.414  1.00  0.00    -0.393 OA
ATOM     24  H   UNL     1     -19.381  34.788   8.564  1.00  0.00     0.210 HD
ENDBRANCH  16  23
TORSDOF 2
ENDMDL
MODEL 2
REMARK VINA RESULT:     2.905      1.466      3.067
REMARK INTER + INTRA:           2.974
REMARK INTER:                   2.207
REMARK INTRA:                   0.767
REMARK UNBOUND:                -0.186
REMARK SMILES CC(=O)[C@H]1CC[C@H]2[C@@H]3CC=C4C[C@@H](O)CC[C@]4(C)[C@@H]3CC[C@]12C
REMARK SMILES IDX 4 1 5 2 6 3 7 4 22 5 21 6 20 7 19 8 8 9 9 10 10 11 11 12
REMARK SMILES IDX 17 13 16 14 15 15 13 16 12 17 18 18 23 19 2 20 1 21 3 22
REMARK SMILES IDX 14 23
REMARK H PARENT 14 24
REMARK Flexibility Score: inf
ROOT
ATOM      1  C   UNL     1     -16.574  38.854  17.023  1.00  0.00     0.062 C 
ATOM      2  C   UNL     1     -17.956  39.355  17.496  1.00  0.00     0.012 C 
ATOM      3  C   UNL     1     -18.961  38.939  16.407  1.00  0.00     0.005 C 
ATOM      4  C   UNL     1     -18.148  38.080  15.438  1.00  0.00    -0.001 C 
ATOM      5  C   UNL     1     -16.727  38.657  15.493  1.00  0.00    -0.020 C 
ATOM      6  C   UNL     1     -15.739  37.623  14.881  1.00  0.00     0.008 C 
ATOM      7  C   UNL     1     -16.395  36.671  13.844  1.00  0.00     0.005 C 
ATOM      8  C   UNL     1     -17.556  37.329  13.026  1.00  0.00     0.003 C 
ATOM      9  C   UNL     1     -18.686  37.897  13.993  1.00  0.00     0.000 C 
ATOM     10  C   UNL     1     -19.993  37.048  14.022  1.00  0.00     0.031 C 
ATOM     11  C   UNL     1     -19.794  35.626  13.584  1.00  0.00    -0.027 C 
ATOM     12  C   UNL     1     -18.967  35.291  12.574  1.00  0.00    -0.065 C 
ATOM     13  C   UNL     1     -18.128  36.388  11.897  1.00  0.00    -0.008 C 
ATOM     14  C   UNL     1     -16.977  35.823  10.982  1.00  0.00     0.014 C 
ATOM     15  C   UNL     1     -16.588  34.370  11.266  1.00  0.00     0.033 C 
ATOM     16  C   UNL     1     -17.814  33.468  11.176  1.00  0.00     0.118 C 
ATOM     17  C   UNL     1     -18.802  33.807  12.296  1.00  0.00     0.063 C 
ATOM     18  C   UNL     1     -19.042  37.215  10.949  1.00  0.00     0.016 C 
ATOM     19  C   UNL     1     -16.605  40.028  14.751  1.00  0.00     0.012 C 
ENDROOT
BRANCH   1  20
ATOM     20  C   UNL     1     -15.422  39.739  17.461  1.00  0.00     0.133 C 
ATOM     21  C   UNL     1     -14.357  40.124  16.480  1.00  0.00     0.088 C 
ATOM     22  O   UNL     1     -15.337  40.123  18.619  1.00  0.00    -0.300 OA
ENDBRANCH   1  20
BRANCH  16  23
ATOM     23  O   UNL     1     -18.429  33.606   9.919  1.00  0.00    -0.393 OA
ATOM     24  H   UNL     1     -18.762  34.539   9.861  1.00  0.00     0.210 HD
ENDBRANCH  16  23
TORSDOF 2
ENDMDL
