MODEL 1
REMARK VINA RESULT:    36.372      0.000      0.000
REMARK INTER + INTRA:          44.316
REMARK INTER:                  43.814
REMARK INTRA:                   0.502
REMARK UNBOUND:                 0.502
REMARK SMILES O=c1c(O)c(-c2ccc(O)c(O)c2)oc2cc(O)cc(O)c12
REMARK SMILES IDX 5 1 3 2 2 3 1 4 22 5 20 6 19 7 17 8 16 9 15 10 14 11 6 12
REMARK SMILES IDX 7 13 8 14 9 15 13 16 11 17 10 18 12 20 4 22 21 24 18 26
REMARK H PARENT 10 19 12 21 4 23 21 25 18 27
REMARK Flexibility Score: inf
ROOT
ATOM      1  C   UNL     1      22.338   0.028  46.905  1.00  0.00     0.180 A 
ATOM      2  C   UNL     1      22.992   0.479  45.742  1.00  0.00     0.208 A 
ATOM      3  C   UNL     1      24.339   0.866  45.827  1.00  0.00     0.238 A 
ATOM      4  O   UNL     1      24.931   1.282  44.795  1.00  0.00    -0.285 OA
ATOM      5  C   UNL     1      25.013   0.776  47.063  1.00  0.00     0.111 A 
ATOM      6  C   UNL     1      26.370   1.142  47.233  1.00  0.00     0.134 A 
ATOM      7  C   UNL     1      26.972   1.015  48.493  1.00  0.00     0.093 A 
ATOM      8  C   UNL     1      26.246   0.531  49.583  1.00  0.00     0.123 A 
ATOM      9  C   UNL     1      24.905   0.168  49.422  1.00  0.00     0.094 A 
ATOM     10  C   UNL     1      24.286   0.289  48.174  1.00  0.00     0.146 A 
ATOM     11  O   UNL     1      23.011  -0.057  48.050  1.00  0.00    -0.452 OA
ENDROOT
BRANCH   1  12
ATOM     12  C   UNL     1      20.915  -0.379  46.900  1.00  0.00     0.025 A 
ATOM     13  C   UNL     1      20.119  -0.091  45.780  1.00  0.00     0.016 A 
ATOM     14  C   UNL     1      18.778  -0.483  45.745  1.00  0.00     0.051 A 
ATOM     15  C   UNL     1      18.218  -1.183  46.821  1.00  0.00     0.157 A 
ATOM     16  C   UNL     1      20.354  -1.099  47.970  1.00  0.00     0.062 A 
ATOM     17  C   UNL     1      19.012  -1.495  47.937  1.00  0.00     0.158 A 
BRANCH  15  18
ATOM     18  O   UNL     1      16.879  -1.571  46.784  1.00  0.00    -0.504 OA
ATOM     19  H   UNL     1      16.164  -0.972  46.386  1.00  0.00     0.293 HD
ENDBRANCH  15  18
BRANCH  17  20
ATOM     20  O   UNL     1      18.488  -2.203  49.018  1.00  0.00    -0.504 OA
ATOM     21  H   UNL     1      18.641  -1.914  49.977  1.00  0.00     0.293 HD
ENDBRANCH  17  20
ENDBRANCH   1  12
BRANCH   2  22
ATOM     22  O   UNL     1      22.315   0.512  44.519  1.00  0.00    -0.502 OA
ATOM     23  H   UNL     1      22.738   0.879  43.675  1.00  0.00     0.293 HD
ENDBRANCH   2  22
BRANCH   6  24
ATOM     24  O   UNL     1      27.122   1.628  46.162  1.00  0.00    -0.507 OA
ATOM     25  H   UNL     1      27.447   1.019  45.419  1.00  0.00     0.293 HD
ENDBRANCH   6  24
BRANCH   8  26
ATOM     26  O   UNL     1      26.868   0.414  50.824  1.00  0.00    -0.508 OA
ATOM     27  H   UNL     1      26.333   0.386  51.684  1.00  0.00     0.293 HD
ENDBRANCH   8  26
TORSDOF 6
ENDMDL
MODEL 2
REMARK VINA RESULT:    36.739      3.691      5.604
REMARK INTER + INTRA:          44.758
REMARK INTER:                  44.926
REMARK INTRA:                  -0.167
REMARK UNBOUND:                 0.502
REMARK SMILES O=c1c(O)c(-c2ccc(O)c(O)c2)oc2cc(O)cc(O)c12
REMARK SMILES IDX 5 1 3 2 2 3 1 4 22 5 20 6 19 7 17 8 16 9 15 10 14 11 6 12
REMARK SMILES IDX 7 13 8 14 9 15 13 16 11 17 10 18 12 20 4 22 21 24 18 26
REMARK H PARENT 10 19 12 21 4 23 21 25 18 27
REMARK Flexibility Score: inf
ROOT
ATOM      1  C   UNL     1      23.141   1.594  50.339  1.00  0.00     0.180 A 
ATOM      2  C   UNL     1      24.461   1.166  50.587  1.00  0.00     0.208 A 
ATOM      3  C   UNL     1      25.203   0.614  49.532  1.00  0.00     0.238 A 
ATOM      4  O   UNL     1      26.381   0.218  49.745  1.00  0.00    -0.285 OA
ATOM      5  C   UNL     1      24.627   0.516  48.249  1.00  0.00     0.111 A 
ATOM      6  C   UNL     1      25.309  -0.024  47.132  1.00  0.00     0.134 A 
ATOM      7  C   UNL     1      24.669  -0.078  45.885  1.00  0.00     0.093 A 
ATOM      8  C   UNL     1      23.364   0.397  45.734  1.00  0.00     0.123 A 
ATOM      9  C   UNL     1      22.685   0.931  46.833  1.00  0.00     0.094 A 
ATOM     10  C   UNL     1      23.305   0.992  48.085  1.00  0.00     0.146 A 
ATOM     11  O   UNL     1      22.636   1.500  49.113  1.00  0.00    -0.452 OA
ENDROOT
BRANCH   1  12
ATOM     12  C   UNL     1      22.288   2.168  51.404  1.00  0.00     0.025 A 
ATOM     13  C   UNL     1      22.625   3.411  51.963  1.00  0.00     0.016 A 
ATOM     14  C   UNL     1      21.823   3.982  52.954  1.00  0.00     0.051 A 
ATOM     15  C   UNL     1      20.664   3.328  53.390  1.00  0.00     0.157 A 
ATOM     16  C   UNL     1      21.112   1.524  51.829  1.00  0.00     0.062 A 
ATOM     17  C   UNL     1      20.305   2.094  52.820  1.00  0.00     0.158 A 
BRANCH  15  18
ATOM     18  O   UNL     1      19.866   3.898  54.381  1.00  0.00    -0.504 OA
ATOM     19  H   UNL     1      20.163   4.723  54.890  1.00  0.00     0.293 HD
ENDBRANCH  15  18
BRANCH  17  20
ATOM     20  O   UNL     1      19.150   1.424  53.222  1.00  0.00    -0.504 OA
ATOM     21  H   UNL     1      18.347   1.322  52.613  1.00  0.00     0.293 HD
ENDBRANCH  17  20
ENDBRANCH   1  12
BRANCH   2  22
ATOM     22  O   UNL     1      25.026   1.319  51.856  1.00  0.00    -0.502 OA
ATOM     23  H   UNL     1      26.014   1.185  52.029  1.00  0.00     0.293 HD
ENDBRANCH   2  22
BRANCH   6  24
ATOM     24  O   UNL     1      26.614  -0.505  47.252  1.00  0.00    -0.507 OA
ATOM     25  H   UNL     1      27.081  -0.975  46.485  1.00  0.00     0.293 HD
ENDBRANCH   6  24
BRANCH   8  26
ATOM     26  O   UNL     1      22.752   0.333  44.484  1.00  0.00    -0.508 OA
ATOM     27  H   UNL     1      22.489   1.172  43.979  1.00  0.00     0.293 HD
ENDBRANCH   8  26
TORSDOF 6
ENDMDL
MODEL 3
REMARK VINA RESULT:    37.079      3.801      5.616
REMARK INTER + INTRA:          45.168
REMARK INTER:                  45.353
REMARK INTRA:                  -0.185
REMARK UNBOUND:                 0.502
REMARK SMILES O=c1c(O)c(-c2ccc(O)c(O)c2)oc2cc(O)cc(O)c12
REMARK SMILES IDX 5 1 3 2 2 3 1 4 22 5 20 6 19 7 17 8 16 9 15 10 14 11 6 12
REMARK SMILES IDX 7 13 8 14 9 15 13 16 11 17 10 18 12 20 4 22 21 24 18 26
REMARK H PARENT 10 19 12 21 4 23 21 25 18 27
REMARK Flexibility Score: inf
ROOT
ATOM      1  C   UNL     1      22.787   1.409  50.375  1.00  0.00     0.180 A 
ATOM      2  C   UNL     1      24.104   1.047  50.720  1.00  0.00     0.208 A 
ATOM      3  C   UNL     1      24.970   0.596  49.712  1.00  0.00     0.238 A 
ATOM      4  O   UNL     1      26.148   0.259  50.011  1.00  0.00    -0.285 OA
ATOM      5  C   UNL     1      24.515   0.533  48.379  1.00  0.00     0.111 A 
ATOM      6  C   UNL     1      25.324   0.093  47.303  1.00  0.00     0.134 A 
ATOM      7  C   UNL     1      24.801   0.068  46.003  1.00  0.00     0.093 A 
ATOM      8  C   UNL     1      23.486   0.473  45.757  1.00  0.00     0.123 A 
ATOM      9  C   UNL     1      22.681   0.907  46.814  1.00  0.00     0.094 A 
ATOM     10  C   UNL     1      23.185   0.938  48.119  1.00  0.00     0.146 A 
ATOM     11  O   UNL     1      22.398   1.350  49.105  1.00  0.00    -0.452 OA
ENDROOT
BRANCH   1  12
ATOM     12  C   UNL     1      21.810   1.875  51.385  1.00  0.00     0.025 A 
ATOM     13  C   UNL     1      20.713   1.062  51.710  1.00  0.00     0.016 A 
ATOM     14  C   UNL     1      19.789   1.473  52.675  1.00  0.00     0.051 A 
ATOM     15  C   UNL     1      19.956   2.694  53.339  1.00  0.00     0.157 A 
ATOM     16  C   UNL     1      21.986   3.092  52.068  1.00  0.00     0.062 A 
ATOM     17  C   UNL     1      21.063   3.505  53.036  1.00  0.00     0.158 A 
BRANCH  15  18
ATOM     18  O   UNL     1      19.032   3.103  54.299  1.00  0.00    -0.504 OA
ATOM     19  H   UNL     1      18.245   3.696  54.059  1.00  0.00     0.293 HD
ENDBRANCH  15  18
BRANCH  17  20
ATOM     20  O   UNL     1      21.265   4.720  53.690  1.00  0.00    -0.504 OA
ATOM     21  H   UNL     1      21.203   4.807  54.697  1.00  0.00     0.293 HD
ENDBRANCH  17  20
ENDBRANCH   1  12
BRANCH   2  22
ATOM     22  O   UNL     1      24.546   1.165  52.041  1.00  0.00    -0.502 OA
ATOM     23  H   UNL     1      24.157   1.844  52.684  1.00  0.00     0.293 HD
ENDBRANCH   2  22
BRANCH   6  24
ATOM     24  O   UNL     1      26.641  -0.316  47.518  1.00  0.00    -0.507 OA
ATOM     25  H   UNL     1      27.205  -0.709  46.772  1.00  0.00     0.293 HD
ENDBRANCH   6  24
BRANCH   8  26
ATOM     26  O   UNL     1      22.991   0.439  44.455  1.00  0.00    -0.508 OA
ATOM     27  H   UNL     1      22.282  -0.229  44.176  1.00  0.00     0.293 HD
ENDBRANCH   8  26
TORSDOF 6
ENDMDL
MODEL 4
REMARK VINA RESULT:    37.527      4.566      7.493
REMARK INTER + INTRA:          45.707
REMARK INTER:                  45.966
REMARK INTRA:                  -0.259
REMARK UNBOUND:                 0.502
REMARK SMILES O=c1c(O)c(-c2ccc(O)c(O)c2)oc2cc(O)cc(O)c12
REMARK SMILES IDX 5 1 3 2 2 3 1 4 22 5 20 6 19 7 17 8 16 9 15 10 14 11 6 12
REMARK SMILES IDX 7 13 8 14 9 15 13 16 11 17 10 18 12 20 4 22 21 24 18 26
REMARK H PARENT 10 19 12 21 4 23 21 25 18 27
REMARK Flexibility Score: inf
ROOT
ATOM      1  C   UNL     1      23.202   2.072  50.868  1.00  0.00     0.180 A 
ATOM      2  C   UNL     1      23.381   3.373  51.378  1.00  0.00     0.208 A 
ATOM      3  C   UNL     1      22.433   3.884  52.278  1.00  0.00     0.238 A 
ATOM      4  O   UNL     1      22.577   5.052  52.733  1.00  0.00    -0.285 OA
ATOM      5  C   UNL     1      21.338   3.085  52.668  1.00  0.00     0.111 A 
ATOM      6  C   UNL     1      20.341   3.524  53.572  1.00  0.00     0.134 A 
ATOM      7  C   UNL     1      19.287   2.666  53.917  1.00  0.00     0.093 A 
ATOM      8  C   UNL     1      19.212   1.379  53.377  1.00  0.00     0.123 A 
ATOM      9  C   UNL     1      20.192   0.940  52.482  1.00  0.00     0.094 A 
ATOM     10  C   UNL     1      21.250   1.782  52.124  1.00  0.00     0.146 A 
ATOM     11  O   UNL     1      22.165   1.341  51.270  1.00  0.00    -0.452 OA
ENDROOT
BRANCH   1  12
ATOM     12  C   UNL     1      24.147   1.469  49.901  1.00  0.00     0.025 A 
ATOM     13  C   UNL     1      25.387   0.992  50.354  1.00  0.00     0.016 A 
ATOM     14  C   UNL     1      26.286   0.401  49.462  1.00  0.00     0.051 A 
ATOM     15  C   UNL     1      25.953   0.264  48.109  1.00  0.00     0.157 A 
ATOM     16  C   UNL     1      23.807   1.312  48.545  1.00  0.00     0.062 A 
ATOM     17  C   UNL     1      24.705   0.719  47.650  1.00  0.00     0.158 A 
BRANCH  15  18
ATOM     18  O   UNL     1      26.853  -0.323  47.221  1.00  0.00    -0.504 OA
ATOM     19  H   UNL     1      26.712  -0.280  46.217  1.00  0.00     0.293 HD
ENDBRANCH  15  18
BRANCH  17  20
ATOM     20  O   UNL     1      24.338   0.585  46.311  1.00  0.00    -0.504 OA
ATOM     21  H   UNL     1      23.371   0.493  46.024  1.00  0.00     0.293 HD
ENDBRANCH  17  20
ENDBRANCH   1  12
BRANCH   2  22
ATOM     22  O   UNL     1      24.500   4.126  51.015  1.00  0.00    -0.502 OA
ATOM     23  H   UNL     1      25.394   4.029  51.481  1.00  0.00     0.293 HD
ENDBRANCH   2  22
BRANCH   6  24
ATOM     24  O   UNL     1      20.391   4.803  54.129  1.00  0.00    -0.507 OA
ATOM     25  H   UNL     1      19.551   5.291  54.419  1.00  0.00     0.293 HD
ENDBRANCH   6  24
BRANCH   8  26
ATOM     26  O   UNL     1      18.155   0.546  53.737  1.00  0.00    -0.508 OA
ATOM     27  H   UNL     1      17.190   0.831  53.614  1.00  0.00     0.293 HD
ENDBRANCH   8  26
TORSDOF 6
ENDMDL
MODEL 5
REMARK VINA RESULT:    38.317     10.058     12.392
REMARK INTER + INTRA:          46.659
REMARK INTER:                  46.896
REMARK INTRA:                  -0.237
REMARK UNBOUND:                 0.502
REMARK SMILES O=c1c(O)c(-c2ccc(O)c(O)c2)oc2cc(O)cc(O)c12
REMARK SMILES IDX 5 1 3 2 2 3 1 4 22 5 20 6 19 7 17 8 16 9 15 10 14 11 6 12
REMARK SMILES IDX 7 13 8 14 9 15 13 16 11 17 10 18 12 20 4 22 21 24 18 26
REMARK H PARENT 10 19 12 21 4 23 21 25 18 27
REMARK Flexibility Score: inf
ROOT
ATOM      1  C   UNL     1      22.092  10.632  46.635  1.00  0.00     0.180 A 
ATOM      2  C   UNL     1      21.717  11.523  45.610  1.00  0.00     0.208 A 
ATOM      3  C   UNL     1      20.456  11.377  45.012  1.00  0.00     0.238 A 
ATOM      4  O   UNL     1      20.114  12.161  44.086  1.00  0.00    -0.285 OA
ATOM      5  C   UNL     1      19.585  10.361  45.459  1.00  0.00     0.111 A 
ATOM      6  C   UNL     1      18.296  10.150  44.913  1.00  0.00     0.134 A 
ATOM      7  C   UNL     1      17.486   9.123  45.419  1.00  0.00     0.093 A 
ATOM      8  C   UNL     1      17.938   8.307  46.459  1.00  0.00     0.123 A 
ATOM      9  C   UNL     1      19.210   8.510  47.002  1.00  0.00     0.094 A 
ATOM     10  C   UNL     1      20.034   9.527  46.510  1.00  0.00     0.146 A 
ATOM     11  O   UNL     1      21.239   9.696  47.041  1.00  0.00    -0.452 OA
ENDROOT
BRANCH   1  12
ATOM     12  C   UNL     1      23.412  10.709  47.300  1.00  0.00     0.025 A 
ATOM     13  C   UNL     1      23.482  11.066  48.656  1.00  0.00     0.016 A 
ATOM     14  C   UNL     1      24.715  11.126  49.309  1.00  0.00     0.051 A 
ATOM     15  C   UNL     1      25.895  10.813  48.623  1.00  0.00     0.157 A 
ATOM     16  C   UNL     1      24.597  10.376  46.619  1.00  0.00     0.062 A 
ATOM     17  C   UNL     1      25.834  10.432  47.271  1.00  0.00     0.158 A 
BRANCH  15  18
ATOM     18  O   UNL     1      27.125  10.875  49.277  1.00  0.00    -0.504 OA
ATOM     19  H   UNL     1      27.335  10.278  50.069  1.00  0.00     0.293 HD
ENDBRANCH  15  18
BRANCH  17  20
ATOM     20  O   UNL     1      26.989  10.101  46.564  1.00  0.00    -0.504 OA
ATOM     21  H   UNL     1      27.021   9.321  45.918  1.00  0.00     0.293 HD
ENDBRANCH  17  20
ENDBRANCH   1  12
BRANCH   2  22
ATOM     22  O   UNL     1      22.579  12.551  45.219  1.00  0.00    -0.502 OA
ATOM     23  H   UNL     1      22.690  12.826  44.250  1.00  0.00     0.293 HD
ENDBRANCH   2  22
BRANCH   6  24
ATOM     24  O   UNL     1      17.817  10.950  43.875  1.00  0.00    -0.507 OA
ATOM     25  H   UNL     1      17.512  10.553  42.993  1.00  0.00     0.293 HD
ENDBRANCH   6  24
BRANCH   8  26
ATOM     26  O   UNL     1      17.112   7.294  46.944  1.00  0.00    -0.508 OA
ATOM     27  H   UNL     1      17.492   6.417  47.281  1.00  0.00     0.293 HD
ENDBRANCH   8  26
TORSDOF 6
ENDMDL
