MODEL 1
REMARK VINA RESULT:     5.367      0.000      0.000
REMARK INTER + INTRA:           5.961
REMARK INTER:                   5.838
REMARK INTRA:                   0.124
REMARK UNBOUND:                 0.124
REMARK SMILES C[C@@H]1[C@@H](C)CC[C@]2(C(=O)[O-])CC[C@@]3(C)C(=CC[C@H]4[C@]5(C)CC[C@H](O)C(C)(C)[C@@H]5CC[C@]43C)[C@@H]12
REMARK SMILES IDX 7 1 6 2 11 3 33 4 5 5 12 6 15 7 2 8 3 9 13 10 16 11 1 12
REMARK SMILES IDX 4 13 14 14 31 15 17 16 18 17 30 18 32 19 19 20 29 21 28 22
REMARK SMILES IDX 21 23 20 24 25 25 22 26 23 27 26 28 27 29 8 30 9 31 10 32
REMARK SMILES IDX 24 33
REMARK H PARENT 24 34
REMARK Flexibility Score: inf
ROOT
ATOM      1  C   UNL     1       5.737  24.116  43.455  1.00  0.00     0.017 C 
ATOM      2  C   UNL     1       7.133  23.948  44.105  1.00  0.00     0.014 C 
ATOM      3  C   UNL     1       5.887  25.007  42.168  1.00  0.00     0.014 C 
ATOM      4  C   UNL     1       4.776  24.829  44.459  1.00  0.00     0.030 C 
ATOM      5  C   UNL     1       7.057  23.170  45.416  1.00  0.00     0.004 C 
ATOM      6  C   UNL     1       4.823  26.124  41.999  1.00  0.00     0.013 C 
ATOM      7  C   UNL     1       3.410  25.023  43.760  1.00  0.00    -0.063 C 
ATOM      8  C   UNL     1       4.768  24.223  45.912  1.00  0.00    -0.003 C 
ATOM      9  C   UNL     1       6.209  23.931  46.442  1.00  0.00    -0.011 C 
ATOM     10  C   UNL     1       3.360  25.697  42.389  1.00  0.00    -0.006 C 
ATOM     11  C   UNL     1       2.253  24.654  44.325  1.00  0.00    -0.027 C 
ATOM     12  C   UNL     1       4.070  25.194  46.903  1.00  0.00     0.008 C 
ATOM     13  C   UNL     1       6.184  23.139  47.761  1.00  0.00     0.008 C 
ATOM     14  C   UNL     1       2.902  24.642  41.332  1.00  0.00     0.017 C 
ATOM     15  C   UNL     1       2.307  26.914  42.453  1.00  0.00    -0.020 C 
ATOM     16  C   UNL     1       0.928  25.252  43.954  1.00  0.00     0.032 C 
ATOM     17  C   UNL     1       0.863  26.356  42.824  1.00  0.00     0.006 C 
ATOM     18  C   UNL     1       2.705  27.927  43.563  1.00  0.00     0.008 C 
ATOM     19  C   UNL     1       2.286  27.636  41.061  1.00  0.00     0.012 C 
ATOM     20  C   UNL     1      -0.285  27.439  43.152  1.00  0.00    -0.025 C 
ATOM     21  C   UNL     1       1.656  29.011  43.843  1.00  0.00     0.005 C 
ATOM     22  C   UNL     1       0.235  28.488  44.220  1.00  0.00     0.003 C 
ATOM     23  C   UNL     1      -0.767  28.205  41.878  1.00  0.00     0.010 C 
ATOM     24  C   UNL     1      -1.532  26.631  43.670  1.00  0.00     0.012 C 
ATOM     25  C   UNL     1      -0.774  29.695  44.507  1.00  0.00    -0.006 C 
ATOM     26  C   UNL     1      -1.798  29.318  42.154  1.00  0.00     0.033 C 
ATOM     27  C   UNL     1      -1.298  30.347  43.180  1.00  0.00     0.120 C 
ATOM     28  C   UNL     1      -1.985  29.221  45.363  1.00  0.00     0.014 C 
ATOM     29  C   UNL     1      -0.097  30.799  45.374  1.00  0.00     0.014 C 
ENDROOT
BRANCH   1  30
ATOM     30  C   UNL     1       5.232  22.727  43.054  1.00  0.00     0.048 C 
ATOM     31  O   UNL     1       5.496  22.269  41.910  1.00  0.00    -0.550 OA
ATOM     32  O   UNL     1       4.507  21.934  43.936  1.00  0.00    -0.550 OA
ENDBRANCH   1  30
BRANCH  27  33
ATOM     33  O   UNL     1      -0.305  31.134  42.566  1.00  0.00    -0.393 OA
ATOM     34  H   UNL     1      -0.016  30.665  41.740  1.00  0.00     0.210 HD
ENDBRANCH  27  33
TORSDOF 2
ENDMDL
MODEL 2
REMARK VINA RESULT:     5.451      1.749      3.854
REMARK INTER + INTRA:           6.053
REMARK INTER:                   5.926
REMARK INTRA:                   0.127
REMARK UNBOUND:                 0.124
REMARK SMILES C[C@@H]1[C@@H](C)CC[C@]2(C(=O)[O-])CC[C@@]3(C)C(=CC[C@H]4[C@]5(C)CC[C@H](O)C(C)(C)[C@@H]5CC[C@]43C)[C@@H]12
REMARK SMILES IDX 7 1 6 2 11 3 33 4 5 5 12 6 15 7 2 8 3 9 13 10 16 11 1 12
REMARK SMILES IDX 4 13 14 14 31 15 17 16 18 17 30 18 32 19 19 20 29 21 28 22
REMARK SMILES IDX 21 23 20 24 25 25 22 26 23 27 26 28 27 29 8 30 9 31 10 32
REMARK SMILES IDX 24 33
REMARK H PARENT 24 34
REMARK Flexibility Score: inf
ROOT
ATOM      1  C   UNL     1       4.474  23.270  44.430  1.00  0.00     0.017 C 
ATOM      2  C   UNL     1       4.793  21.781  44.145  1.00  0.00     0.014 C 
ATOM      3  C   UNL     1       3.320  23.340  45.496  1.00  0.00     0.014 C 
ATOM      4  C   UNL     1       3.994  23.962  43.114  1.00  0.00     0.030 C 
ATOM      5  C   UNL     1       5.843  21.627  43.047  1.00  0.00     0.004 C 
ATOM      6  C   UNL     1       2.185  24.353  45.189  1.00  0.00     0.013 C 
ATOM      7  C   UNL     1       3.639  25.429  43.446  1.00  0.00    -0.063 C 
ATOM      8  C   UNL     1       4.908  23.703  41.859  1.00  0.00    -0.003 C 
ATOM      9  C   UNL     1       5.322  22.201  41.725  1.00  0.00    -0.011 C 
ATOM     10  C   UNL     1       2.677  25.725  44.596  1.00  0.00    -0.006 C 
ATOM     11  C   UNL     1       4.115  26.464  42.740  1.00  0.00    -0.027 C 
ATOM     12  C   UNL     1       4.177  24.126  40.556  1.00  0.00     0.008 C 
ATOM     13  C   UNL     1       6.388  21.996  40.633  1.00  0.00     0.008 C 
ATOM     14  C   UNL     1       3.467  26.449  45.733  1.00  0.00     0.017 C 
ATOM     15  C   UNL     1       1.497  26.674  44.048  1.00  0.00    -0.020 C 
ATOM     16  C   UNL     1       3.440  27.801  42.681  1.00  0.00     0.032 C 
ATOM     17  C   UNL     1       2.111  28.038  43.506  1.00  0.00     0.006 C 
ATOM     18  C   UNL     1       0.758  25.999  42.857  1.00  0.00     0.008 C 
ATOM     19  C   UNL     1       0.483  26.942  45.213  1.00  0.00     0.012 C 
ATOM     20  C   UNL     1       1.120  29.032  42.714  1.00  0.00    -0.025 C 
ATOM     21  C   UNL     1      -0.244  26.907  42.132  1.00  0.00     0.005 C 
ATOM     22  C   UNL     1       0.339  28.246  41.582  1.00  0.00     0.003 C 
ATOM     23  C   UNL     1       0.085  29.724  43.660  1.00  0.00     0.010 C 
ATOM     24  C   UNL     1       2.013  30.187  42.128  1.00  0.00     0.012 C 
ATOM     25  C   UNL     1      -0.783  29.105  40.832  1.00  0.00    -0.006 C 
ATOM     26  C   UNL     1      -0.946  30.613  42.936  1.00  0.00     0.033 C 
ATOM     27  C   UNL     1      -1.717  29.856  41.844  1.00  0.00     0.120 C 
ATOM     28  C   UNL     1      -0.139  30.137  39.860  1.00  0.00     0.014 C 
ATOM     29  C   UNL     1      -1.660  28.204  39.912  1.00  0.00     0.014 C 
ENDROOT
BRANCH   1  30
ATOM     30  C   UNL     1       5.735  23.922  45.003  1.00  0.00     0.048 C 
ATOM     31  O   UNL     1       5.963  23.866  46.242  1.00  0.00    -0.550 OA
ATOM     32  O   UNL     1       6.662  24.557  44.185  1.00  0.00    -0.550 OA
ENDBRANCH   1  30
BRANCH  27  33
ATOM     33  O   UNL     1      -2.613  28.970  42.471  1.00  0.00    -0.393 OA
ATOM     34  H   UNL     1      -3.395  29.499  42.778  1.00  0.00     0.210 HD
ENDBRANCH  27  33
TORSDOF 2
ENDMDL
MODEL 3
REMARK VINA RESULT:     5.723      1.249      7.635
REMARK INTER + INTRA:           6.349
REMARK INTER:                   6.021
REMARK INTRA:                   0.328
REMARK UNBOUND:                 0.124
REMARK SMILES C[C@@H]1[C@@H](C)CC[C@]2(C(=O)[O-])CC[C@@]3(C)C(=CC[C@H]4[C@]5(C)CC[C@H](O)C(C)(C)[C@@H]5CC[C@]43C)[C@@H]12
REMARK SMILES IDX 7 1 6 2 11 3 33 4 5 5 12 6 15 7 2 8 3 9 13 10 16 11 1 12
REMARK SMILES IDX 4 13 14 14 31 15 17 16 18 17 30 18 32 19 19 20 29 21 28 22
REMARK SMILES IDX 21 23 20 24 25 25 22 26 23 27 26 28 27 29 8 30 9 31 10 32
REMARK SMILES IDX 24 33
REMARK H PARENT 24 34
REMARK Flexibility Score: inf
ROOT
ATOM      1  C   UNL     1      -0.825  28.810  42.115  1.00  0.00     0.017 C 
ATOM      2  C   UNL     1      -2.282  29.126  42.536  1.00  0.00     0.014 C 
ATOM      3  C   UNL     1      -0.858  27.733  40.969  1.00  0.00     0.014 C 
ATOM      4  C   UNL     1      -0.042  28.229  43.337  1.00  0.00     0.030 C 
ATOM      5  C   UNL     1      -2.332  30.098  43.714  1.00  0.00     0.004 C 
ATOM      6  C   UNL     1       0.156  26.567  41.117  1.00  0.00     0.013 C 
ATOM      7  C   UNL     1       1.389  27.881  42.867  1.00  0.00    -0.063 C 
ATOM      8  C   UNL     1      -0.188  29.056  44.669  1.00  0.00    -0.003 C 
ATOM      9  C   UNL     1      -1.666  29.478  44.948  1.00  0.00    -0.011 C 
ATOM     10  C   UNL     1       1.578  26.999  41.633  1.00  0.00    -0.006 C 
ATOM     11  C   UNL     1       2.483  28.293  43.522  1.00  0.00    -0.027 C 
ATOM     12  C   UNL     1       0.321  28.229  45.881  1.00  0.00     0.008 C 
ATOM     13  C   UNL     1      -1.768  30.466  46.124  1.00  0.00     0.008 C 
ATOM     14  C   UNL     1       2.226  27.858  40.501  1.00  0.00     0.017 C 
ATOM     15  C   UNL     1       2.545  25.771  42.022  1.00  0.00    -0.020 C 
ATOM     16  C   UNL     1       3.809  27.599  43.429  1.00  0.00     0.032 C 
ATOM     17  C   UNL     1       3.957  26.329  42.498  1.00  0.00     0.006 C 
ATOM     18  C   UNL     1       1.951  24.959  43.209  1.00  0.00     0.008 C 
ATOM     19  C   UNL     1       2.704  24.839  40.772  1.00  0.00     0.012 C 
ATOM     20  C   UNL     1       4.992  25.272  43.139  1.00  0.00    -0.025 C 
ATOM     21  C   UNL     1       2.894  23.896  43.789  1.00  0.00     0.005 C 
ATOM     22  C   UNL     1       4.281  24.422  44.272  1.00  0.00     0.003 C 
ATOM     23  C   UNL     1       5.591  24.298  42.072  1.00  0.00     0.010 C 
ATOM     24  C   UNL     1       6.204  26.107  43.693  1.00  0.00     0.012 C 
ATOM     25  C   UNL     1       5.176  23.240  44.872  1.00  0.00    -0.006 C 
ATOM     26  C   UNL     1       6.514  23.207  42.651  1.00  0.00     0.033 C 
ATOM     27  C   UNL     1       5.829  22.370  43.743  1.00  0.00     0.120 C 
ATOM     28  C   UNL     1       6.291  23.800  45.803  1.00  0.00     0.014 C 
ATOM     29  C   UNL     1       4.333  22.311  45.797  1.00  0.00     0.014 C 
ENDROOT
BRANCH   1  30
ATOM     30  C   UNL     1      -0.196  30.100  41.582  1.00  0.00     0.048 C 
ATOM     31  O   UNL     1       0.247  30.962  42.386  1.00  0.00    -0.550 OA
ATOM     32  O   UNL     1      -0.072  30.338  40.218  1.00  0.00    -0.550 OA
ENDBRANCH   1  30
BRANCH  27  33
ATOM     33  O   UNL     1       4.882  21.532  43.126  1.00  0.00    -0.393 OA
ATOM     34  H   UNL     1       4.172  21.338  43.792  1.00  0.00     0.210 HD
ENDBRANCH  27  33
TORSDOF 2
ENDMDL
MODEL 4
REMARK VINA RESULT:     5.986      2.062      7.887
REMARK INTER + INTRA:           6.635
REMARK INTER:                   6.490
REMARK INTRA:                   0.145
REMARK UNBOUND:                 0.124
REMARK SMILES C[C@@H]1[C@@H](C)CC[C@]2(C(=O)[O-])CC[C@@]3(C)C(=CC[C@H]4[C@]5(C)CC[C@H](O)C(C)(C)[C@@H]5CC[C@]43C)[C@@H]12
REMARK SMILES IDX 7 1 6 2 11 3 33 4 5 5 12 6 15 7 2 8 3 9 13 10 16 11 1 12
REMARK SMILES IDX 4 13 14 14 31 15 17 16 18 17 30 18 32 19 19 20 29 21 28 22
REMARK SMILES IDX 21 23 20 24 25 25 22 26 23 27 26 28 27 29 8 30 9 31 10 32
REMARK SMILES IDX 24 33
REMARK H PARENT 24 34
REMARK Flexibility Score: inf
ROOT
ATOM      1  C   UNL     1       0.555  27.667  44.000  1.00  0.00     0.017 C 
ATOM      2  C   UNL     1       0.061  29.116  44.239  1.00  0.00     0.014 C 
ATOM      3  C   UNL     1       0.727  26.961  45.396  1.00  0.00     0.014 C 
ATOM      4  C   UNL     1       1.937  27.699  43.273  1.00  0.00     0.030 C 
ATOM      5  C   UNL     1      -0.041  29.901  42.932  1.00  0.00     0.004 C 
ATOM      6  C   UNL     1       2.035  26.147  45.577  1.00  0.00     0.013 C 
ATOM      7  C   UNL     1       2.420  26.241  43.097  1.00  0.00    -0.063 C 
ATOM      8  C   UNL     1       1.999  28.641  42.013  1.00  0.00    -0.003 C 
ATOM      9  C   UNL     1       1.338  30.033  42.278  1.00  0.00    -0.011 C 
ATOM     10  C   UNL     1       2.469  25.317  44.313  1.00  0.00    -0.006 C 
ATOM     11  C   UNL     1       2.836  25.757  41.919  1.00  0.00    -0.027 C 
ATOM     12  C   UNL     1       3.473  28.875  41.580  1.00  0.00     0.008 C 
ATOM     13  C   UNL     1       1.206  30.860  40.987  1.00  0.00     0.008 C 
ATOM     14  C   UNL     1       1.403  24.191  44.126  1.00  0.00     0.017 C 
ATOM     15  C   UNL     1       3.943  24.676  44.412  1.00  0.00    -0.020 C 
ATOM     16  C   UNL     1       3.756  24.580  41.791  1.00  0.00     0.032 C 
ATOM     17  C   UNL     1       4.255  23.838  43.095  1.00  0.00     0.006 C 
ATOM     18  C   UNL     1       5.022  25.792  44.511  1.00  0.00     0.008 C 
ATOM     19  C   UNL     1       4.011  23.763  45.685  1.00  0.00     0.012 C 
ATOM     20  C   UNL     1       5.762  23.300  42.902  1.00  0.00    -0.025 C 
ATOM     21  C   UNL     1       6.468  25.292  44.401  1.00  0.00     0.005 C 
ATOM     22  C   UNL     1       6.800  24.477  43.112  1.00  0.00     0.003 C 
ATOM     23  C   UNL     1       6.110  22.132  43.883  1.00  0.00     0.010 C 
ATOM     24  C   UNL     1       5.839  22.688  41.455  1.00  0.00     0.012 C 
ATOM     25  C   UNL     1       8.333  24.020  43.090  1.00  0.00    -0.006 C 
ATOM     26  C   UNL     1       7.571  21.645  43.801  1.00  0.00     0.033 C 
ATOM     27  C   UNL     1       8.586  22.779  44.015  1.00  0.00     0.120 C 
ATOM     28  C   UNL     1       8.797  23.688  41.642  1.00  0.00     0.014 C 
ATOM     29  C   UNL     1       9.272  25.180  43.539  1.00  0.00     0.014 C 
ENDROOT
BRANCH   1  30
ATOM     30  C   UNL     1      -0.514  26.931  43.188  1.00  0.00     0.048 C 
ATOM     31  O   UNL     1      -1.383  26.234  43.778  1.00  0.00    -0.550 OA
ATOM     32  O   UNL     1      -0.573  27.033  41.803  1.00  0.00    -0.550 OA
ENDBRANCH   1  30
BRANCH  27  33
ATOM     33  O   UNL     1       8.564  23.138  45.376  1.00  0.00    -0.393 OA
ATOM     34  H   UNL     1       8.796  22.331  45.905  1.00  0.00     0.210 HD
ENDBRANCH  27  33
TORSDOF 2
ENDMDL
MODEL 5
REMARK VINA RESULT:     6.116      7.275     13.609
REMARK INTER + INTRA:           6.776
REMARK INTER:                   6.652
REMARK INTRA:                   0.124
REMARK UNBOUND:                 0.124
REMARK SMILES C[C@@H]1[C@@H](C)CC[C@]2(C(=O)[O-])CC[C@@]3(C)C(=CC[C@H]4[C@]5(C)CC[C@H](O)C(C)(C)[C@@H]5CC[C@]43C)[C@@H]12
REMARK SMILES IDX 7 1 6 2 11 3 33 4 5 5 12 6 15 7 2 8 3 9 13 10 16 11 1 12
REMARK SMILES IDX 4 13 14 14 31 15 17 16 18 17 30 18 32 19 19 20 29 21 28 22
REMARK SMILES IDX 21 23 20 24 25 25 22 26 23 27 26 28 27 29 8 30 9 31 10 32
REMARK SMILES IDX 24 33
REMARK H PARENT 24 34
REMARK Flexibility Score: inf
ROOT
ATOM      1  C   UNL     1       7.752  20.409  43.908  1.00  0.00     0.017 C 
ATOM      2  C   UNL     1       6.214  20.564  44.013  1.00  0.00     0.014 C 
ATOM      3  C   UNL     1       8.079  19.475  42.685  1.00  0.00     0.014 C 
ATOM      4  C   UNL     1       8.302  19.750  45.213  1.00  0.00     0.030 C 
ATOM      5  C   UNL     1       5.811  21.385  45.236  1.00  0.00     0.004 C 
ATOM      6  C   UNL     1       9.145  18.378  42.947  1.00  0.00     0.013 C 
ATOM      7  C   UNL     1       9.828  19.567  45.052  1.00  0.00    -0.063 C 
ATOM      8  C   UNL     1       7.786  20.401  46.550  1.00  0.00    -0.003 C 
ATOM      9  C   UNL     1       6.248  20.676  46.523  1.00  0.00    -0.011 C 
ATOM     10  C   UNL     1      10.370  18.852  43.814  1.00  0.00    -0.006 C 
ATOM     11  C   UNL     1      10.705  19.980  45.976  1.00  0.00    -0.027 C 
ATOM     12  C   UNL     1       8.097  19.479  47.760  1.00  0.00     0.008 C 
ATOM     13  C   UNL     1       5.793  21.510  47.735  1.00  0.00     0.008 C 
ATOM     14  C   UNL     1      11.162  19.884  42.950  1.00  0.00     0.017 C 
ATOM     15  C   UNL     1      11.345  17.663  44.293  1.00  0.00    -0.020 C 
ATOM     16  C   UNL     1      12.082  19.403  46.123  1.00  0.00     0.032 C 
ATOM     17  C   UNL     1      12.556  18.265  45.131  1.00  0.00     0.006 C 
ATOM     18  C   UNL     1      10.589  16.675  45.227  1.00  0.00     0.008 C 
ATOM     19  C   UNL     1      11.866  16.898  43.028  1.00  0.00     0.012 C 
ATOM     20  C   UNL     1      13.524  17.221  45.886  1.00  0.00    -0.025 C 
ATOM     21  C   UNL     1      11.482  15.625  45.902  1.00  0.00     0.005 C 
ATOM     22  C   UNL     1      12.670  16.194  46.738  1.00  0.00     0.003 C 
ATOM     23  C   UNL     1      14.436  16.426  44.895  1.00  0.00     0.010 C 
ATOM     24  C   UNL     1      14.497  18.074  46.781  1.00  0.00     0.012 C 
ATOM     25  C   UNL     1      13.524  15.020  47.409  1.00  0.00    -0.006 C 
ATOM     26  C   UNL     1      15.314  15.347  45.561  1.00  0.00     0.033 C 
ATOM     27  C   UNL     1      14.493  14.339  46.380  1.00  0.00     0.120 C 
ATOM     28  C   UNL     1      14.347  15.549  48.621  1.00  0.00     0.014 C 
ATOM     29  C   UNL     1      12.596  13.928  48.021  1.00  0.00     0.014 C 
ENDROOT
BRANCH   1  30
ATOM     30  C   UNL     1       8.351  21.796  43.660  1.00  0.00     0.048 C 
ATOM     31  O   UNL     1       8.506  22.212  42.480  1.00  0.00    -0.550 OA
ATOM     32  O   UNL     1       8.707  22.634  44.711  1.00  0.00    -0.550 OA
ENDBRANCH   1  30
BRANCH  27  33
ATOM     33  O   UNL     1      13.792  13.510  45.484  1.00  0.00    -0.393 OA
ATOM     34  H   UNL     1      13.831  13.934  44.587  1.00  0.00     0.210 HD
ENDBRANCH  27  33
TORSDOF 2
ENDMDL
MODEL 6
REMARK VINA RESULT:     6.275      1.807      7.890
REMARK INTER + INTRA:           6.948
REMARK INTER:                   6.556
REMARK INTRA:                   0.392
REMARK UNBOUND:                 0.124
REMARK SMILES C[C@@H]1[C@@H](C)CC[C@]2(C(=O)[O-])CC[C@@]3(C)C(=CC[C@H]4[C@]5(C)CC[C@H](O)C(C)(C)[C@@H]5CC[C@]43C)[C@@H]12
REMARK SMILES IDX 7 1 6 2 11 3 33 4 5 5 12 6 15 7 2 8 3 9 13 10 16 11 1 12
REMARK SMILES IDX 4 13 14 14 31 15 17 16 18 17 30 18 32 19 19 20 29 21 28 22
REMARK SMILES IDX 21 23 20 24 25 25 22 26 23 27 26 28 27 29 8 30 9 31 10 32
REMARK SMILES IDX 24 33
REMARK H PARENT 24 34
REMARK Flexibility Score: inf
ROOT
ATOM      1  C   UNL     1      -0.368  29.492  43.478  1.00  0.00     0.017 C 
ATOM      2  C   UNL     1      -0.634  30.817  42.721  1.00  0.00     0.014 C 
ATOM      3  C   UNL     1       0.438  29.818  44.789  1.00  0.00     0.014 C 
ATOM      4  C   UNL     1       0.486  28.540  42.580  1.00  0.00     0.030 C 
ATOM      5  C   UNL     1      -1.333  30.575  41.385  1.00  0.00     0.004 C 
ATOM      6  C   UNL     1       1.641  28.884  45.085  1.00  0.00     0.013 C 
ATOM      7  C   UNL     1       0.773  27.252  43.385  1.00  0.00    -0.063 C 
ATOM      8  C   UNL     1      -0.042  28.373  41.106  1.00  0.00    -0.003 C 
ATOM      9  C   UNL     1      -0.443  29.738  40.460  1.00  0.00    -0.011 C 
ATOM     10  C   UNL     1       1.377  27.362  44.784  1.00  0.00    -0.006 C 
ATOM     11  C   UNL     1       0.546  26.027  42.890  1.00  0.00    -0.027 C 
ATOM     12  C   UNL     1       1.041  27.709  40.213  1.00  0.00     0.008 C 
ATOM     13  C   UNL     1      -1.160  29.545  39.111  1.00  0.00     0.008 C 
ATOM     14  C   UNL     1       0.317  26.875  45.824  1.00  0.00     0.017 C 
ATOM     15  C   UNL     1       2.690  26.433  44.852  1.00  0.00    -0.020 C 
ATOM     16  C   UNL     1       1.248  24.797  43.382  1.00  0.00     0.032 C 
ATOM     17  C   UNL     1       2.293  24.919  44.562  1.00  0.00     0.006 C 
ATOM     18  C   UNL     1       3.717  26.853  43.762  1.00  0.00     0.008 C 
ATOM     19  C   UNL     1       3.338  26.579  46.272  1.00  0.00     0.012 C 
ATOM     20  C   UNL     1       3.496  23.864  44.367  1.00  0.00    -0.025 C 
ATOM     21  C   UNL     1       4.909  25.900  43.608  1.00  0.00     0.005 C 
ATOM     22  C   UNL     1       4.544  24.412  43.313  1.00  0.00     0.003 C 
ATOM     23  C   UNL     1       4.239  23.549  45.707  1.00  0.00     0.010 C 
ATOM     24  C   UNL     1       2.839  22.511  43.907  1.00  0.00     0.012 C 
ATOM     25  C   UNL     1       5.856  23.510  43.155  1.00  0.00    -0.006 C 
ATOM     26  C   UNL     1       5.458  22.617  45.556  1.00  0.00     0.033 C 
ATOM     27  C   UNL     1       6.486  23.145  44.544  1.00  0.00     0.120 C 
ATOM     28  C   UNL     1       5.545  22.203  42.369  1.00  0.00     0.014 C 
ATOM     29  C   UNL     1       6.933  24.232  42.290  1.00  0.00     0.014 C 
ENDROOT
BRANCH   1  30
ATOM     30  C   UNL     1      -1.720  28.881  43.852  1.00  0.00     0.048 C 
ATOM     31  O   UNL     1      -2.419  28.312  42.971  1.00  0.00    -0.550 OA
ATOM     32  O   UNL     1      -2.195  28.909  45.159  1.00  0.00    -0.550 OA
ENDBRANCH   1  30
BRANCH  27  33
ATOM     33  O   UNL     1       7.142  24.251  45.118  1.00  0.00    -0.393 OA
ATOM     34  H   UNL     1       6.481  24.736  45.678  1.00  0.00     0.210 HD
ENDBRANCH  27  33
TORSDOF 2
ENDMDL
MODEL 7
REMARK VINA RESULT:     6.377      1.815      7.740
REMARK INTER + INTRA:           7.060
REMARK INTER:                   6.917
REMARK INTRA:                   0.143
REMARK UNBOUND:                 0.124
REMARK SMILES C[C@@H]1[C@@H](C)CC[C@]2(C(=O)[O-])CC[C@@]3(C)C(=CC[C@H]4[C@]5(C)CC[C@H](O)C(C)(C)[C@@H]5CC[C@]43C)[C@@H]12
REMARK SMILES IDX 7 1 6 2 11 3 33 4 5 5 12 6 15 7 2 8 3 9 13 10 16 11 1 12
REMARK SMILES IDX 4 13 14 14 31 15 17 16 18 17 30 18 32 19 19 20 29 21 28 22
REMARK SMILES IDX 21 23 20 24 25 25 22 26 23 27 26 28 27 29 8 30 9 31 10 32
REMARK SMILES IDX 24 33
REMARK H PARENT 24 34
REMARK Flexibility Score: inf
ROOT
ATOM      1  C   UNL     1       1.334  27.769  42.064  1.00  0.00     0.017 C 
ATOM      2  C   UNL     1      -0.031  28.080  41.401  1.00  0.00     0.014 C 
ATOM      3  C   UNL     1       2.354  27.357  40.940  1.00  0.00     0.014 C 
ATOM      4  C   UNL     1       1.170  26.579  43.063  1.00  0.00     0.030 C 
ATOM      5  C   UNL     1      -1.104  28.399  42.440  1.00  0.00     0.004 C 
ATOM      6  C   UNL     1       3.225  26.110  41.249  1.00  0.00     0.013 C 
ATOM      7  C   UNL     1       2.559  26.265  43.666  1.00  0.00    -0.063 C 
ATOM      8  C   UNL     1      -0.040  26.714  44.060  1.00  0.00    -0.003 C 
ATOM      9  C   UNL     1      -1.348  27.187  43.347  1.00  0.00    -0.011 C 
ATOM     10  C   UNL     1       3.745  26.029  42.732  1.00  0.00    -0.006 C 
ATOM     11  C   UNL     1       2.763  26.154  44.986  1.00  0.00    -0.027 C 
ATOM     12  C   UNL     1      -0.327  25.355  44.756  1.00  0.00     0.008 C 
ATOM     13  C   UNL     1      -2.460  27.529  44.355  1.00  0.00     0.008 C 
ATOM     14  C   UNL     1       4.764  27.198  42.917  1.00  0.00     0.017 C 
ATOM     15  C   UNL     1       4.433  24.625  43.119  1.00  0.00    -0.020 C 
ATOM     16  C   UNL     1       3.902  25.381  45.581  1.00  0.00     0.032 C 
ATOM     17  C   UNL     1       4.944  24.674  44.625  1.00  0.00     0.006 C 
ATOM     18  C   UNL     1       3.402  23.464  43.023  1.00  0.00     0.008 C 
ATOM     19  C   UNL     1       5.622  24.358  42.133  1.00  0.00     0.012 C 
ATOM     20  C   UNL     1       5.465  23.293  45.274  1.00  0.00    -0.025 C 
ATOM     21  C   UNL     1       3.903  22.120  43.570  1.00  0.00     0.005 C 
ATOM     22  C   UNL     1       4.400  22.142  45.049  1.00  0.00     0.003 C 
ATOM     23  C   UNL     1       6.840  22.836  44.686  1.00  0.00     0.010 C 
ATOM     24  C   UNL     1       5.719  23.580  46.800  1.00  0.00     0.012 C 
ATOM     25  C   UNL     1       4.882  20.693  45.524  1.00  0.00    -0.006 C 
ATOM     26  C   UNL     1       7.335  21.472  45.206  1.00  0.00     0.033 C 
ATOM     27  C   UNL     1       6.313  20.347  44.983  1.00  0.00     0.120 C 
ATOM     28  C   UNL     1       4.876  20.581  47.076  1.00  0.00     0.014 C 
ATOM     29  C   UNL     1       3.888  19.588  45.054  1.00  0.00     0.014 C 
ENDROOT
BRANCH   1  30
ATOM     30  C   UNL     1       1.827  29.043  42.754  1.00  0.00     0.048 C 
ATOM     31  O   UNL     1       2.624  29.814  42.154  1.00  0.00    -0.550 OA
ATOM     32  O   UNL     1       1.394  29.396  44.027  1.00  0.00    -0.550 OA
ENDBRANCH   1  30
BRANCH  27  33
ATOM     33  O   UNL     1       6.285  20.044  43.608  1.00  0.00    -0.393 OA
ATOM     34  H   UNL     1       7.160  19.641  43.370  1.00  0.00     0.210 HD
ENDBRANCH  27  33
TORSDOF 2
ENDMDL
MODEL 8
REMARK VINA RESULT:     7.160      8.019     12.165
REMARK INTER + INTRA:           7.911
REMARK INTER:                   7.636
REMARK INTRA:                   0.275
REMARK UNBOUND:                 0.124
REMARK SMILES C[C@@H]1[C@@H](C)CC[C@]2(C(=O)[O-])CC[C@@]3(C)C(=CC[C@H]4[C@]5(C)CC[C@H](O)C(C)(C)[C@@H]5CC[C@]43C)[C@@H]12
REMARK SMILES IDX 7 1 6 2 11 3 33 4 5 5 12 6 15 7 2 8 3 9 13 10 16 11 1 12
REMARK SMILES IDX 4 13 14 14 31 15 17 16 18 17 30 18 32 19 19 20 29 21 28 22
REMARK SMILES IDX 21 23 20 24 25 25 22 26 23 27 26 28 27 29 8 30 9 31 10 32
REMARK SMILES IDX 24 33
REMARK H PARENT 24 34
REMARK Flexibility Score: inf
ROOT
ATOM      1  C   UNL     1      14.445  15.710  45.125  1.00  0.00     0.017 C 
ATOM      2  C   UNL     1      15.684  15.448  46.018  1.00  0.00     0.014 C 
ATOM      3  C   UNL     1      14.852  16.717  43.987  1.00  0.00     0.014 C 
ATOM      4  C   UNL     1      13.307  16.348  45.985  1.00  0.00     0.030 C 
ATOM      5  C   UNL     1      15.344  14.550  47.206  1.00  0.00     0.004 C 
ATOM      6  C   UNL     1      13.849  17.870  43.722  1.00  0.00     0.013 C 
ATOM      7  C   UNL     1      12.109  16.641  45.053  1.00  0.00    -0.063 C 
ATOM      8  C   UNL     1      13.008  15.607  47.341  1.00  0.00    -0.003 C 
ATOM      9  C   UNL     1      14.313  15.230  48.113  1.00  0.00    -0.011 C 
ATOM     10  C   UNL     1      12.335  17.443  43.772  1.00  0.00    -0.006 C 
ATOM     11  C   UNL     1      10.860  16.248  45.339  1.00  0.00    -0.027 C 
ATOM     12  C   UNL     1      12.132  16.495  48.265  1.00  0.00     0.008 C 
ATOM     13  C   UNL     1      14.023  14.317  49.318  1.00  0.00     0.008 C 
ATOM     14  C   UNL     1      12.091  16.505  42.547  1.00  0.00     0.017 C 
ATOM     15  C   UNL     1      11.296  18.673  43.746  1.00  0.00    -0.020 C 
ATOM     16  C   UNL     1       9.638  16.910  44.775  1.00  0.00     0.032 C 
ATOM     17  C   UNL     1       9.805  18.118  43.768  1.00  0.00     0.006 C 
ATOM     18  C   UNL     1      11.471  19.567  45.007  1.00  0.00     0.008 C 
ATOM     19  C   UNL     1      11.556  19.525  42.455  1.00  0.00     0.012 C 
ATOM     20  C   UNL     1       8.619  19.192  43.968  1.00  0.00    -0.025 C 
ATOM     21  C   UNL     1      10.392  20.644  45.179  1.00  0.00     0.005 C 
ATOM     22  C   UNL     1       8.922  20.121  45.215  1.00  0.00     0.003 C 
ATOM     23  C   UNL     1       8.404  20.088  42.705  1.00  0.00     0.010 C 
ATOM     24  C   UNL     1       7.291  18.368  44.148  1.00  0.00     0.012 C 
ATOM     25  C   UNL     1       7.882  21.320  45.415  1.00  0.00    -0.006 C 
ATOM     26  C   UNL     1       7.344  21.194  42.881  1.00  0.00     0.033 C 
ATOM     27  C   UNL     1       7.635  22.108  44.081  1.00  0.00     0.120 C 
ATOM     28  C   UNL     1       6.523  20.796  45.964  1.00  0.00     0.014 C 
ATOM     29  C   UNL     1       8.378  22.320  46.503  1.00  0.00     0.014 C 
ENDROOT
BRANCH   1  30
ATOM     30  C   UNL     1      14.024  14.379  44.498  1.00  0.00     0.048 C 
ATOM     31  O   UNL     1      14.258  14.156  43.280  1.00  0.00    -0.550 OA
ATOM     32  O   UNL     1      13.408  13.384  45.248  1.00  0.00    -0.550 OA
ENDBRANCH   1  30
BRANCH  27  33
ATOM     33  O   UNL     1       8.734  22.926  43.755  1.00  0.00    -0.393 OA
ATOM     34  H   UNL     1       9.089  22.619  42.881  1.00  0.00     0.210 HD
ENDBRANCH  27  33
TORSDOF 2
ENDMDL
MODEL 9
REMARK VINA RESULT:     7.243      8.025     12.700
REMARK INTER + INTRA:           8.001
REMARK INTER:                   7.658
REMARK INTRA:                   0.344
REMARK UNBOUND:                 0.124
REMARK SMILES C[C@@H]1[C@@H](C)CC[C@]2(C(=O)[O-])CC[C@@]3(C)C(=CC[C@H]4[C@]5(C)CC[C@H](O)C(C)(C)[C@@H]5CC[C@]43C)[C@@H]12
REMARK SMILES IDX 7 1 6 2 11 3 33 4 5 5 12 6 15 7 2 8 3 9 13 10 16 11 1 12
REMARK SMILES IDX 4 13 14 14 31 15 17 16 18 17 30 18 32 19 19 20 29 21 28 22
REMARK SMILES IDX 21 23 20 24 25 25 22 26 23 27 26 28 27 29 8 30 9 31 10 32
REMARK SMILES IDX 24 33
REMARK H PARENT 24 34
REMARK Flexibility Score: inf
ROOT
ATOM      1  C   UNL     1      13.559  15.007  46.303  1.00  0.00     0.017 C 
ATOM      2  C   UNL     1      14.070  13.658  45.739  1.00  0.00     0.014 C 
ATOM      3  C   UNL     1      12.340  14.721  47.256  1.00  0.00     0.014 C 
ATOM      4  C   UNL     1      13.082  15.918  45.127  1.00  0.00     0.030 C 
ATOM      5  C   UNL     1      15.197  13.859  44.728  1.00  0.00     0.004 C 
ATOM      6  C   UNL     1      11.114  15.654  47.073  1.00  0.00     0.013 C 
ATOM      7  C   UNL     1      12.534  17.232  45.730  1.00  0.00    -0.063 C 
ATOM      8  C   UNL     1      14.096  16.037  43.929  1.00  0.00    -0.003 C 
ATOM      9  C   UNL     1      14.695  14.653  43.517  1.00  0.00    -0.011 C 
ATOM     10  C   UNL     1      11.474  17.167  46.829  1.00  0.00    -0.006 C 
ATOM     11  C   UNL     1      12.926  18.440  45.302  1.00  0.00    -0.027 C 
ATOM     12  C   UNL     1      13.402  16.659  42.687  1.00  0.00     0.008 C 
ATOM     13  C   UNL     1      15.843  14.804  42.503  1.00  0.00     0.008 C 
ATOM     14  C   UNL     1      12.099  17.700  48.157  1.00  0.00     0.017 C 
ATOM     15  C   UNL     1      10.225  18.085  46.394  1.00  0.00    -0.020 C 
ATOM     16  C   UNL     1      12.100  19.681  45.469  1.00  0.00     0.032 C 
ATOM     17  C   UNL     1      10.704  19.591  46.207  1.00  0.00     0.006 C 
ATOM     18  C   UNL     1       9.648  17.616  45.027  1.00  0.00     0.008 C 
ATOM     19  C   UNL     1       9.116  17.984  47.497  1.00  0.00     0.012 C 
ATOM     20  C   UNL     1       9.652  20.627  45.561  1.00  0.00    -0.025 C 
ATOM     21  C   UNL     1       8.591  18.553  44.427  1.00  0.00     0.005 C 
ATOM     22  C   UNL     1       9.042  20.033  44.225  1.00  0.00     0.003 C 
ATOM     23  C   UNL     1       8.486  20.984  46.539  1.00  0.00     0.010 C 
ATOM     24  C   UNL     1      10.436  21.969  45.313  1.00  0.00     0.012 C 
ATOM     25  C   UNL     1       7.875  20.916  43.580  1.00  0.00    -0.006 C 
ATOM     26  C   UNL     1       7.402  21.899  45.933  1.00  0.00     0.033 C 
ATOM     27  C   UNL     1       6.796  21.325  44.643  1.00  0.00     0.120 C 
ATOM     28  C   UNL     1       8.449  22.197  42.908  1.00  0.00     0.014 C 
ATOM     29  C   UNL     1       7.170  20.153  42.418  1.00  0.00     0.014 C 
ENDROOT
BRANCH   1  30
ATOM     30  C   UNL     1      14.694  15.644  47.108  1.00  0.00     0.048 C 
ATOM     31  O   UNL     1      15.623  16.252  46.512  1.00  0.00    -0.550 OA
ATOM     32  O   UNL     1      14.717  15.596  48.498  1.00  0.00    -0.550 OA
ENDBRANCH   1  30
BRANCH  27  33
ATOM     33  O   UNL     1       5.975  20.234  44.989  1.00  0.00    -0.393 OA
ATOM     34  H   UNL     1       5.920  20.201  45.980  1.00  0.00     0.210 HD
ENDBRANCH  27  33
TORSDOF 2
ENDMDL
