MODEL 1
REMARK VINA RESULT:    -4.329      0.000      0.000
REMARK INTER + INTRA:          -8.954
REMARK INTER:                  -7.366
REMARK INTRA:                  -1.588
REMARK UNBOUND:                -1.588
REMARK SMILES CCCCCCCCCCCCCC(=O)[O-]
REMARK SMILES IDX 8 1 9 2 10 3 11 4 12 5 13 6 14 7 15 8 16 9 7 10 6 11 5 12
REMARK SMILES IDX 4 13 3 14 2 15 1 16
REMARK H PARENT
REMARK Flexibility Score: inf
ROOT
ATOM      1  C   UNL     1       2.056 -20.443  -1.922  1.00  0.00     0.000 C 
ENDROOT
BRANCH   1   2
ATOM      2  C   UNL     1       0.638 -20.743  -2.433  1.00  0.00     0.000 C 
BRANCH   2   3
ATOM      3  C   UNL     1       0.350 -19.979  -3.731  1.00  0.00     0.000 C 
BRANCH   3   4
ATOM      4  C   UNL     1       0.589 -20.868  -4.958  1.00  0.00     0.000 C 
BRANCH   4   5
ATOM      5  C   UNL     1       1.583 -20.212  -5.928  1.00  0.00     0.006 C 
BRANCH   5   6
ATOM      6  C   UNL     1       2.270 -21.239  -6.838  1.00  0.00     0.053 C 
BRANCH   6   7
ATOM      7  C   UNL     1       1.346 -21.736  -7.908  1.00  0.00     0.041 C 
ATOM      8  O   UNL     1       0.759 -22.842  -7.774  1.00  0.00    -0.550 OA
ATOM      9  O   UNL     1       1.160 -20.992  -9.065  1.00  0.00    -0.550 OA
ENDBRANCH   6   7
ENDBRANCH   5   6
ENDBRANCH   4   5
ENDBRANCH   3   4
ENDBRANCH   2   3
ENDBRANCH   1   2
BRANCH   1  10
ATOM     10  C   UNL     1       2.516 -19.018  -2.264  1.00  0.00     0.000 C 
BRANCH  10  11
ATOM     11  C   UNL     1       3.895 -18.988  -2.944  1.00  0.00    -0.000 C 
BRANCH  11  12
ATOM     12  C   UNL     1       4.355 -20.389  -3.402  1.00  0.00    -0.000 C 
BRANCH  12  13
ATOM     13  C   UNL     1       5.140 -20.382  -4.727  1.00  0.00    -0.000 C 
BRANCH  13  14
ATOM     14  C   UNL     1       5.476 -21.775  -5.292  1.00  0.00    -0.000 C 
BRANCH  14  15
ATOM     15  C   UNL     1       6.160 -21.763  -6.671  1.00  0.00    -0.003 C 
ATOM     16  C   UNL     1       5.964 -20.448  -7.424  1.00  0.00     0.004 C 
ENDBRANCH  14  15
ENDBRANCH  13  14
ENDBRANCH  12  13
ENDBRANCH  11  12
ENDBRANCH  10  11
ENDBRANCH   1  10
TORSDOF 12
ENDMDL
MODEL 2
REMARK VINA RESULT:    -4.306      3.320      4.958
REMARK INTER + INTRA:          -8.915
REMARK INTER:                  -7.252
REMARK INTRA:                  -1.664
REMARK UNBOUND:                -1.588
REMARK SMILES CCCCCCCCCCCCCC(=O)[O-]
REMARK SMILES IDX 8 1 9 2 10 3 11 4 12 5 13 6 14 7 15 8 16 9 7 10 6 11 5 12
REMARK SMILES IDX 4 13 3 14 2 15 1 16
REMARK H PARENT
REMARK Flexibility Score: inf
ROOT
ATOM      1  C   UNL     1       1.126 -21.939  -6.077  1.00  0.00     0.000 C 
ENDROOT
BRANCH   1   2
ATOM      2  C   UNL     1       0.112 -21.264  -5.140  1.00  0.00     0.000 C 
BRANCH   2   3
ATOM      3  C   UNL     1       0.818 -20.626  -3.937  1.00  0.00     0.000 C 
BRANCH   3   4
ATOM      4  C   UNL     1       1.000 -19.118  -4.140  1.00  0.00     0.000 C 
BRANCH   4   5
ATOM      5  C   UNL     1       2.480 -18.721  -4.026  1.00  0.00     0.006 C 
BRANCH   5   6
ATOM      6  C   UNL     1       3.051 -19.005  -2.631  1.00  0.00     0.053 C 
BRANCH   6   7
ATOM      7  C   UNL     1       3.348 -17.739  -1.886  1.00  0.00     0.041 C 
ATOM      8  O   UNL     1       2.413 -16.964  -1.555  1.00  0.00    -0.550 OA
ATOM      9  O   UNL     1       4.662 -17.403  -1.584  1.00  0.00    -0.550 OA
ENDBRANCH   6   7
ENDBRANCH   5   6
ENDBRANCH   4   5
ENDBRANCH   3   4
ENDBRANCH   2   3
ENDBRANCH   1   2
BRANCH   1  10
ATOM     10  C   UNL     1       0.831 -21.664  -7.560  1.00  0.00     0.000 C 
BRANCH  10  11
ATOM     11  C   UNL     1       2.000 -20.965  -8.275  1.00  0.00    -0.000 C 
BRANCH  11  12
ATOM     12  C   UNL     1       2.792 -20.031  -7.333  1.00  0.00    -0.000 C 
BRANCH  12  13
ATOM     13  C   UNL     1       4.320 -20.197  -7.436  1.00  0.00    -0.000 C 
BRANCH  13  14
ATOM     14  C   UNL     1       4.887 -21.449  -6.740  1.00  0.00    -0.000 C 
BRANCH  14  15
ATOM     15  C   UNL     1       4.561 -21.555  -5.239  1.00  0.00    -0.003 C 
ATOM     16  C   UNL     1       5.759 -21.233  -4.345  1.00  0.00     0.004 C 
ENDBRANCH  14  15
ENDBRANCH  13  14
ENDBRANCH  12  13
ENDBRANCH  11  12
ENDBRANCH  10  11
ENDBRANCH   1  10
TORSDOF 12
ENDMDL
MODEL 3
REMARK VINA RESULT:    -4.264      2.602      4.220
REMARK INTER + INTRA:          -8.844
REMARK INTER:                  -7.474
REMARK INTRA:                  -1.370
REMARK UNBOUND:                -1.588
REMARK SMILES CCCCCCCCCCCCCC(=O)[O-]
REMARK SMILES IDX 8 1 9 2 10 3 11 4 12 5 13 6 14 7 15 8 16 9 7 10 6 11 5 12
REMARK SMILES IDX 4 13 3 14 2 15 1 16
REMARK H PARENT
REMARK Flexibility Score: inf
ROOT
ATOM      1  C   UNL     1       3.035 -20.674  -7.901  1.00  0.00     0.000 C 
ENDROOT
BRANCH   1   2
ATOM      2  C   UNL     1       1.526 -20.576  -7.630  1.00  0.00     0.000 C 
BRANCH   2   3
ATOM      3  C   UNL     1       0.974 -21.911  -7.113  1.00  0.00     0.000 C 
BRANCH   3   4
ATOM      4  C   UNL     1       0.294 -21.735  -5.750  1.00  0.00     0.000 C 
BRANCH   4   5
ATOM      5  C   UNL     1       0.829 -20.491  -5.024  1.00  0.00     0.006 C 
BRANCH   5   6
ATOM      6  C   UNL     1       0.411 -20.455  -3.549  1.00  0.00     0.053 C 
BRANCH   6   7
ATOM      7  C   UNL     1       1.573 -20.158  -2.651  1.00  0.00     0.041 C 
ATOM      8  O   UNL     1       2.386 -19.244  -2.947  1.00  0.00    -0.550 OA
ATOM      9  O   UNL     1       1.774 -20.914  -1.503  1.00  0.00    -0.550 OA
ENDBRANCH   6   7
ENDBRANCH   5   6
ENDBRANCH   4   5
ENDBRANCH   3   4
ENDBRANCH   2   3
ENDBRANCH   1   2
BRANCH   1  10
ATOM     10  C   UNL     1       3.819 -19.498  -7.299  1.00  0.00     0.000 C 
BRANCH  10  11
ATOM     11  C   UNL     1       4.333 -19.793  -5.880  1.00  0.00    -0.000 C 
BRANCH  11  12
ATOM     12  C   UNL     1       4.336 -21.304  -5.559  1.00  0.00    -0.000 C 
BRANCH  12  13
ATOM     13  C   UNL     1       5.727 -21.958  -5.660  1.00  0.00    -0.000 C 
BRANCH  13  14
ATOM     14  C   UNL     1       6.264 -22.129  -7.093  1.00  0.00    -0.000 C 
BRANCH  14  15
ATOM     15  C   UNL     1       7.563 -21.358  -7.391  1.00  0.00    -0.003 C 
ATOM     16  C   UNL     1       8.361 -21.023  -6.132  1.00  0.00     0.004 C 
ENDBRANCH  14  15
ENDBRANCH  13  14
ENDBRANCH  12  13
ENDBRANCH  11  12
ENDBRANCH  10  11
ENDBRANCH   1  10
TORSDOF 12
ENDMDL
MODEL 4
REMARK VINA RESULT:    -4.246      2.838      5.112
REMARK INTER + INTRA:          -8.813
REMARK INTER:                  -6.943
REMARK INTRA:                  -1.870
REMARK UNBOUND:                -1.588
REMARK SMILES CCCCCCCCCCCCCC(=O)[O-]
REMARK SMILES IDX 8 1 9 2 10 3 11 4 12 5 13 6 14 7 15 8 16 9 7 10 6 11 5 12
REMARK SMILES IDX 4 13 3 14 2 15 1 16
REMARK H PARENT
REMARK Flexibility Score: inf
ROOT
ATOM      1  C   UNL     1       0.978 -22.302  -7.493  1.00  0.00     0.000 C 
ENDROOT
BRANCH   1   2
ATOM      2  C   UNL     1       1.191 -21.020  -8.313  1.00  0.00     0.000 C 
BRANCH   2   3
ATOM      3  C   UNL     1       2.648 -20.549  -8.225  1.00  0.00     0.000 C 
BRANCH   3   4
ATOM      4  C   UNL     1       3.382 -21.243  -7.071  1.00  0.00     0.000 C 
BRANCH   4   5
ATOM      5  C   UNL     1       4.738 -20.574  -6.800  1.00  0.00     0.006 C 
BRANCH   5   6
ATOM      6  C   UNL     1       4.932 -19.297  -7.627  1.00  0.00     0.053 C 
BRANCH   6   7
ATOM      7  C   UNL     1       6.287 -19.249  -8.264  1.00  0.00     0.041 C 
ATOM      8  O   UNL     1       7.310 -19.572  -7.604  1.00  0.00    -0.550 OA
ATOM      9  O   UNL     1       6.423 -18.817  -9.577  1.00  0.00    -0.550 OA
ENDBRANCH   6   7
ENDBRANCH   5   6
ENDBRANCH   4   5
ENDBRANCH   3   4
ENDBRANCH   2   3
ENDBRANCH   1   2
BRANCH   1  10
ATOM     10  C   UNL     1      -0.097 -22.135  -6.408  1.00  0.00     0.000 C 
BRANCH  10  11
ATOM     11  C   UNL     1       0.503 -21.856  -5.019  1.00  0.00    -0.000 C 
BRANCH  11  12
ATOM     12  C   UNL     1       0.561 -20.346  -4.697  1.00  0.00    -0.000 C 
BRANCH  12  13
ATOM     13  C   UNL     1       1.851 -19.915  -3.975  1.00  0.00    -0.000 C 
BRANCH  13  14
ATOM     14  C   UNL     1       2.391 -18.530  -4.377  1.00  0.00    -0.000 C 
BRANCH  14  15
ATOM     15  C   UNL     1       1.880 -18.007  -5.732  1.00  0.00    -0.003 C 
ATOM     16  C   UNL     1       2.325 -16.574  -6.025  1.00  0.00     0.004 C 
ENDBRANCH  14  15
ENDBRANCH  13  14
ENDBRANCH  12  13
ENDBRANCH  11  12
ENDBRANCH  10  11
ENDBRANCH   1  10
TORSDOF 12
ENDMDL
MODEL 5
REMARK VINA RESULT:    -4.229      2.601      4.554
REMARK INTER + INTRA:          -8.784
REMARK INTER:                  -7.296
REMARK INTRA:                  -1.488
REMARK UNBOUND:                -1.588
REMARK SMILES CCCCCCCCCCCCCC(=O)[O-]
REMARK SMILES IDX 8 1 9 2 10 3 11 4 12 5 13 6 14 7 15 8 16 9 7 10 6 11 5 12
REMARK SMILES IDX 4 13 3 14 2 15 1 16
REMARK H PARENT
REMARK Flexibility Score: inf
ROOT
ATOM      1  C   UNL     1       2.874 -20.662  -8.163  1.00  0.00     0.000 C 
ENDROOT
BRANCH   1   2
ATOM      2  C   UNL     1       1.444 -20.565  -7.609  1.00  0.00     0.000 C 
BRANCH   2   3
ATOM      3  C   UNL     1       0.945 -21.935  -7.135  1.00  0.00     0.000 C 
BRANCH   3   4
ATOM      4  C   UNL     1       0.466 -21.874  -5.680  1.00  0.00     0.000 C 
BRANCH   4   5
ATOM      5  C   UNL     1       0.875 -20.548  -5.021  1.00  0.00     0.006 C 
BRANCH   5   6
ATOM      6  C   UNL     1       0.319 -20.411  -3.598  1.00  0.00     0.053 C 
BRANCH   6   7
ATOM      7  C   UNL     1       1.374 -19.971  -2.630  1.00  0.00     0.041 C 
ATOM      8  O   UNL     1       1.886 -18.824  -2.728  1.00  0.00    -0.550 OA
ATOM      9  O   UNL     1       1.814 -20.839  -1.639  1.00  0.00    -0.550 OA
ENDBRANCH   6   7
ENDBRANCH   5   6
ENDBRANCH   4   5
ENDBRANCH   3   4
ENDBRANCH   2   3
ENDBRANCH   1   2
BRANCH   1  10
ATOM     10  C   UNL     1       3.940 -20.344  -7.103  1.00  0.00     0.000 C 
BRANCH  10  11
ATOM     11  C   UNL     1       4.965 -21.478  -6.935  1.00  0.00    -0.000 C 
BRANCH  11  12
ATOM     12  C   UNL     1       5.286 -21.765  -5.451  1.00  0.00    -0.000 C 
BRANCH  12  13
ATOM     13  C   UNL     1       4.415 -20.967  -4.463  1.00  0.00    -0.000 C 
BRANCH  13  14
ATOM     14  C   UNL     1       5.084 -20.654  -3.111  1.00  0.00    -0.000 C 
BRANCH  14  15
ATOM     15  C   UNL     1       5.464 -19.176  -2.906  1.00  0.00    -0.003 C 
ATOM     16  C   UNL     1       6.478 -18.672  -3.933  1.00  0.00     0.004 C 
ENDBRANCH  14  15
ENDBRANCH  13  14
ENDBRANCH  12  13
ENDBRANCH  11  12
ENDBRANCH  10  11
ENDBRANCH   1  10
TORSDOF 12
ENDMDL
MODEL 6
REMARK VINA RESULT:    -4.185     11.150     13.725
REMARK INTER + INTRA:          -8.708
REMARK INTER:                  -6.973
REMARK INTRA:                  -1.735
REMARK UNBOUND:                -1.588
REMARK SMILES CCCCCCCCCCCCCC(=O)[O-]
REMARK SMILES IDX 8 1 9 2 10 3 11 4 12 5 13 6 14 7 15 8 16 9 7 10 6 11 5 12
REMARK SMILES IDX 4 13 3 14 2 15 1 16
REMARK H PARENT
REMARK Flexibility Score: inf
ROOT
ATOM      1  C   UNL     1      -5.281 -28.303  -3.527  1.00  0.00     0.000 C 
ENDROOT
BRANCH   1   2
ATOM      2  C   UNL     1      -5.367 -27.051  -2.640  1.00  0.00     0.000 C 
BRANCH   2   3
ATOM      3  C   UNL     1      -6.055 -27.369  -1.307  1.00  0.00     0.000 C 
BRANCH   3   4
ATOM      4  C   UNL     1      -7.361 -26.579  -1.160  1.00  0.00     0.000 C 
BRANCH   4   5
ATOM      5  C   UNL     1      -7.345 -25.318  -2.037  1.00  0.00     0.006 C 
BRANCH   5   6
ATOM      6  C   UNL     1      -8.531 -24.391  -1.744  1.00  0.00     0.053 C 
BRANCH   6   7
ATOM      7  C   UNL     1      -8.081 -22.996  -1.434  1.00  0.00     0.041 C 
ATOM      8  O   UNL     1      -7.056 -22.522  -1.990  1.00  0.00    -0.550 OA
ATOM      9  O   UNL     1      -8.779 -22.232  -0.507  1.00  0.00    -0.550 OA
ENDBRANCH   6   7
ENDBRANCH   5   6
ENDBRANCH   4   5
ENDBRANCH   3   4
ENDBRANCH   2   3
ENDBRANCH   1   2
BRANCH   1  10
ATOM     10  C   UNL     1      -6.597 -28.593  -4.265  1.00  0.00     0.000 C 
BRANCH  10  11
ATOM     11  C   UNL     1      -7.028 -30.065  -4.151  1.00  0.00    -0.000 C 
BRANCH  11  12
ATOM     12  C   UNL     1      -7.549 -30.418  -2.740  1.00  0.00    -0.000 C 
BRANCH  12  13
ATOM     13  C   UNL     1      -9.085 -30.431  -2.632  1.00  0.00    -0.000 C 
BRANCH  13  14
ATOM     14  C   UNL     1      -9.693 -29.242  -1.863  1.00  0.00    -0.000 C 
BRANCH  14  15
ATOM     15  C   UNL     1     -10.710 -28.409  -2.663  1.00  0.00    -0.003 C 
ATOM     16  C   UNL     1     -10.049 -27.370  -3.568  1.00  0.00     0.004 C 
ENDBRANCH  14  15
ENDBRANCH  13  14
ENDBRANCH  12  13
ENDBRANCH  11  12
ENDBRANCH  10  11
ENDBRANCH   1  10
TORSDOF 12
ENDMDL
MODEL 7
REMARK VINA RESULT:    -4.117     12.247     14.594
REMARK INTER + INTRA:          -8.593
REMARK INTER:                  -6.378
REMARK INTRA:                  -2.216
REMARK UNBOUND:                -1.588
REMARK SMILES CCCCCCCCCCCCCC(=O)[O-]
REMARK SMILES IDX 8 1 9 2 10 3 11 4 12 5 13 6 14 7 15 8 16 9 7 10 6 11 5 12
REMARK SMILES IDX 4 13 3 14 2 15 1 16
REMARK H PARENT
REMARK Flexibility Score: inf
ROOT
ATOM      1  C   UNL     1      -5.277 -28.499  -3.615  1.00  0.00     0.000 C 
ENDROOT
BRANCH   1   2
ATOM      2  C   UNL     1      -6.601 -29.114  -4.094  1.00  0.00     0.000 C 
BRANCH   2   3
ATOM      3  C   UNL     1      -6.961 -30.355  -3.268  1.00  0.00     0.000 C 
BRANCH   3   4
ATOM      4  C   UNL     1      -8.469 -30.417  -2.997  1.00  0.00     0.000 C 
BRANCH   4   5
ATOM      5  C   UNL     1      -8.750 -30.776  -1.530  1.00  0.00     0.006 C 
BRANCH   5   6
ATOM      6  C   UNL     1      -7.479 -31.199  -0.781  1.00  0.00     0.053 C 
BRANCH   6   7
ATOM      7  C   UNL     1      -7.781 -32.171   0.319  1.00  0.00     0.041 C 
ATOM      8  O   UNL     1      -8.884 -32.120   0.924  1.00  0.00    -0.550 OA
ATOM      9  O   UNL     1      -6.830 -33.111   0.695  1.00  0.00    -0.550 OA
ENDBRANCH   6   7
ENDBRANCH   5   6
ENDBRANCH   4   5
ENDBRANCH   3   4
ENDBRANCH   2   3
ENDBRANCH   1   2
BRANCH   1  10
ATOM     10  C   UNL     1      -5.488 -27.316  -2.659  1.00  0.00     0.000 C 
BRANCH  10  11
ATOM     11  C   UNL     1      -5.457 -27.736  -1.180  1.00  0.00    -0.000 C 
BRANCH  11  12
ATOM     12  C   UNL     1      -6.844 -27.629  -0.508  1.00  0.00    -0.000 C 
BRANCH  12  13
ATOM     13  C   UNL     1      -7.792 -26.630  -1.198  1.00  0.00    -0.000 C 
BRANCH  13  14
ATOM     14  C   UNL     1      -9.250 -27.105  -1.336  1.00  0.00    -0.000 C 
BRANCH  14  15
ATOM     15  C   UNL     1      -9.827 -27.013  -2.760  1.00  0.00    -0.003 C 
ATOM     16  C   UNL     1      -8.905 -26.275  -3.731  1.00  0.00     0.004 C 
ENDBRANCH  14  15
ENDBRANCH  13  14
ENDBRANCH  12  13
ENDBRANCH  11  12
ENDBRANCH  10  11
ENDBRANCH   1  10
TORSDOF 12
ENDMDL
MODEL 8
REMARK VINA RESULT:    -4.101      2.440      4.912
REMARK INTER + INTRA:          -8.566
REMARK INTER:                  -7.368
REMARK INTRA:                  -1.198
REMARK UNBOUND:                -1.588
REMARK SMILES CCCCCCCCCCCCCC(=O)[O-]
REMARK SMILES IDX 8 1 9 2 10 3 11 4 12 5 13 6 14 7 15 8 16 9 7 10 6 11 5 12
REMARK SMILES IDX 4 13 3 14 2 15 1 16
REMARK H PARENT
REMARK Flexibility Score: inf
ROOT
ATOM      1  C   UNL     1       0.884 -22.016  -7.471  1.00  0.00     0.000 C 
ENDROOT
BRANCH   1   2
ATOM      2  C   UNL     1       1.576 -20.725  -7.936  1.00  0.00     0.000 C 
BRANCH   2   3
ATOM      3  C   UNL     1       3.101 -20.890  -7.938  1.00  0.00     0.000 C 
BRANCH   3   4
ATOM      4  C   UNL     1       3.786 -19.688  -7.277  1.00  0.00     0.000 C 
BRANCH   4   5
ATOM      5  C   UNL     1       5.131 -19.382  -7.951  1.00  0.00     0.006 C 
BRANCH   5   6
ATOM      6  C   UNL     1       6.324 -19.820  -7.093  1.00  0.00     0.053 C 
BRANCH   6   7
ATOM      7  C   UNL     1       6.837 -21.167  -7.502  1.00  0.00     0.041 C 
ATOM      8  O   UNL     1       7.865 -21.261  -8.223  1.00  0.00    -0.550 OA
ATOM      9  O   UNL     1       6.161 -22.315  -7.112  1.00  0.00    -0.550 OA
ENDBRANCH   6   7
ENDBRANCH   5   6
ENDBRANCH   4   5
ENDBRANCH   3   4
ENDBRANCH   2   3
ENDBRANCH   1   2
BRANCH   1  10
ATOM     10  C   UNL     1       0.473 -21.965  -5.991  1.00  0.00     0.000 C 
BRANCH  10  11
ATOM     11  C   UNL     1       0.809 -20.617  -5.330  1.00  0.00    -0.000 C 
BRANCH  11  12
ATOM     12  C   UNL     1       0.487 -20.607  -3.819  1.00  0.00    -0.000 C 
BRANCH  12  13
ATOM     13  C   UNL     1       1.376 -19.651  -3.002  1.00  0.00    -0.000 C 
BRANCH  13  14
ATOM     14  C   UNL     1       2.763 -20.210  -2.629  1.00  0.00    -0.000 C 
BRANCH  14  15
ATOM     15  C   UNL     1       3.906 -19.773  -3.563  1.00  0.00    -0.003 C 
ATOM     16  C   UNL     1       4.863 -20.914  -3.907  1.00  0.00     0.004 C 
ENDBRANCH  14  15
ENDBRANCH  13  14
ENDBRANCH  12  13
ENDBRANCH  11  12
ENDBRANCH  10  11
ENDBRANCH   1  10
TORSDOF 12
ENDMDL
MODEL 9
REMARK VINA RESULT:    -4.095      3.600      5.202
REMARK INTER + INTRA:          -8.555
REMARK INTER:                  -6.689
REMARK INTRA:                  -1.866
REMARK UNBOUND:                -1.588
REMARK SMILES CCCCCCCCCCCCCC(=O)[O-]
REMARK SMILES IDX 8 1 9 2 10 3 11 4 12 5 13 6 14 7 15 8 16 9 7 10 6 11 5 12
REMARK SMILES IDX 4 13 3 14 2 15 1 16
REMARK H PARENT
REMARK Flexibility Score: inf
ROOT
ATOM      1  C   UNL     1       0.187 -21.010  -5.401  1.00  0.00     0.000 C 
ENDROOT
BRANCH   1   2
ATOM      2  C   UNL     1       0.501 -21.107  -3.900  1.00  0.00     0.000 C 
BRANCH   2   3
ATOM      3  C   UNL     1       0.908 -19.741  -3.335  1.00  0.00     0.000 C 
BRANCH   3   4
ATOM      4  C   UNL     1       1.351 -18.792  -4.454  1.00  0.00     0.000 C 
BRANCH   4   5
ATOM      5  C   UNL     1       2.250 -17.674  -3.905  1.00  0.00     0.006 C 
BRANCH   5   6
ATOM      6  C   UNL     1       1.545 -16.312  -3.899  1.00  0.00     0.053 C 
BRANCH   6   7
ATOM      7  C   UNL     1       1.165 -15.889  -2.513  1.00  0.00     0.041 C 
ATOM      8  O   UNL     1       1.951 -16.092  -1.551  1.00  0.00    -0.550 OA
ATOM      9  O   UNL     1      -0.071 -15.300  -2.281  1.00  0.00    -0.550 OA
ENDBRANCH   6   7
ENDBRANCH   5   6
ENDBRANCH   4   5
ENDBRANCH   3   4
ENDBRANCH   2   3
ENDBRANCH   1   2
BRANCH   1  10
ATOM     10  C   UNL     1       0.507 -22.309  -6.156  1.00  0.00     0.000 C 
BRANCH  10  11
ATOM     11  C   UNL     1       0.993 -22.055  -7.593  1.00  0.00    -0.000 C 
BRANCH  11  12
ATOM     12  C   UNL     1       1.591 -20.641  -7.770  1.00  0.00    -0.000 C 
BRANCH  12  13
ATOM     13  C   UNL     1       3.128 -20.624  -7.859  1.00  0.00    -0.000 C 
BRANCH  13  14
ATOM     14  C   UNL     1       3.851 -20.187  -6.571  1.00  0.00    -0.000 C 
BRANCH  14  15
ATOM     15  C   UNL     1       4.016 -21.297  -5.516  1.00  0.00    -0.003 C 
ATOM     16  C   UNL     1       4.552 -20.777  -4.183  1.00  0.00     0.004 C 
ENDBRANCH  14  15
ENDBRANCH  13  14
ENDBRANCH  12  13
ENDBRANCH  11  12
ENDBRANCH  10  11
ENDBRANCH   1  10
TORSDOF 12
ENDMDL
