MODEL 1
REMARK VINA RESULT:    -3.062      0.000      0.000
REMARK INTER + INTRA:          -5.216
REMARK INTER:                  -4.225
REMARK INTRA:                  -0.990
REMARK UNBOUND:                -0.990
REMARK SMILES OC[C@H](O)C(O)[C@@H](O)CO
REMARK SMILES IDX 5 1 7 2 9 3 10 4 8 6 3 8 2 9 1 10 4 12 6 14
REMARK H PARENT 10 5 8 7 1 11 4 13 6 15
REMARK Flexibility Score: inf
ROOT
ATOM      1  C   UNL     1      19.322  12.791  36.941  1.00  0.00     0.176 C 
ENDROOT
BRANCH   1   2
ATOM      2  C   UNL     1      19.580  12.962  38.464  1.00  0.00     0.171 C 
BRANCH   2   3
ATOM      3  C   UNL     1      20.300  11.737  39.060  1.00  0.00     0.190 C 
BRANCH   3   4
ATOM      4  O   UNL     1      19.428  10.646  39.193  1.00  0.00    -0.394 OA
ATOM      5  H   UNL     1      19.021  10.495  38.301  1.00  0.00     0.210 HD
ENDBRANCH   3   4
ENDBRANCH   2   3
BRANCH   2   6
ATOM      6  O   UNL     1      18.371  13.183  39.146  1.00  0.00    -0.388 OA
ATOM      7  H   UNL     1      18.061  12.300  39.478  1.00  0.00     0.211 HD
ENDBRANCH   2   6
ENDBRANCH   1   2
BRANCH   1   8
ATOM      8  C   UNL     1      17.823  12.825  36.531  1.00  0.00     0.171 C 
BRANCH   8   9
ATOM      9  C   UNL     1      17.227  11.418  36.298  1.00  0.00     0.190 C 
BRANCH   9  10
ATOM     10  O   UNL     1      17.217  10.689  37.496  1.00  0.00    -0.394 OA
ATOM     11  H   UNL     1      18.085  10.210  37.546  1.00  0.00     0.210 HD
ENDBRANCH   9  10
ENDBRANCH   8   9
BRANCH   8  12
ATOM     12  O   UNL     1      17.604  13.670  35.428  1.00  0.00    -0.388 OA
ATOM     13  H   UNL     1      18.223  13.394  34.703  1.00  0.00     0.211 HD
ENDBRANCH   8  12
ENDBRANCH   1   8
BRANCH   1  14
ATOM     14  O   UNL     1      19.935  11.621  36.455  1.00  0.00    -0.388 OA
ATOM     15  H   UNL     1      19.572  11.442  35.549  1.00  0.00     0.211 HD
ENDBRANCH   1  14
TORSDOF 9
ENDMDL
MODEL 2
REMARK VINA RESULT:    -3.007      1.156      3.405
REMARK INTER + INTRA:          -5.140
REMARK INTER:                  -4.157
REMARK INTRA:                  -0.983
REMARK UNBOUND:                -0.990
REMARK SMILES OC[C@H](O)C(O)[C@@H](O)CO
REMARK SMILES IDX 5 1 7 2 9 3 10 4 8 6 3 8 2 9 1 10 4 12 6 14
REMARK H PARENT 10 5 8 7 1 11 4 13 6 15
REMARK Flexibility Score: inf
ROOT
ATOM      1  C   UNL     1      19.039  13.204  37.809  1.00  0.00     0.176 C 
ENDROOT
BRANCH   1   2
ATOM      2  C   UNL     1      18.743  12.473  36.469  1.00  0.00     0.171 C 
BRANCH   2   3
ATOM      3  C   UNL     1      17.351  11.813  36.477  1.00  0.00     0.190 C 
BRANCH   3   4
ATOM      4  O   UNL     1      17.316  10.702  37.331  1.00  0.00    -0.394 OA
ATOM      5  H   UNL     1      16.485  10.779  37.868  1.00  0.00     0.210 HD
ENDBRANCH   3   4
ENDBRANCH   2   3
BRANCH   2   6
ATOM      6  O   UNL     1      19.728  11.505  36.209  1.00  0.00    -0.388 OA
ATOM      7  H   UNL     1      19.695  10.852  36.955  1.00  0.00     0.211 HD
ENDBRANCH   2   6
ENDBRANCH   1   2
BRANCH   1   8
ATOM      8  C   UNL     1      20.315  12.709  38.547  1.00  0.00     0.171 C 
BRANCH   8   9
ATOM      9  C   UNL     1      20.003  11.746  39.715  1.00  0.00     0.190 C 
BRANCH   9  10
ATOM     10  O   UNL     1      19.314  10.619  39.245  1.00  0.00    -0.394 OA
ATOM     11  H   UNL     1      18.817  10.244  40.019  1.00  0.00     0.210 HD
ENDBRANCH   9  10
ENDBRANCH   8   9
BRANCH   8  12
ATOM     12  O   UNL     1      21.125  13.782  38.962  1.00  0.00    -0.388 OA
ATOM     13  H   UNL     1      20.780  14.609  38.537  1.00  0.00     0.211 HD
ENDBRANCH   8  12
ENDBRANCH   1   8
BRANCH   1  14
ATOM     14  O   UNL     1      17.926  13.150  38.668  1.00  0.00    -0.388 OA
ATOM     15  H   UNL     1      17.518  14.055  38.694  1.00  0.00     0.211 HD
ENDBRANCH   1  14
TORSDOF 9
ENDMDL
MODEL 3
REMARK VINA RESULT:    -2.876     15.158     16.437
REMARK INTER + INTRA:          -4.959
REMARK INTER:                  -4.449
REMARK INTRA:                  -0.510
REMARK UNBOUND:                -0.990
REMARK SMILES OC[C@H](O)C(O)[C@@H](O)CO
REMARK SMILES IDX 5 1 7 2 9 3 10 4 8 6 3 8 2 9 1 10 4 12 6 14
REMARK H PARENT 10 5 8 7 1 11 4 13 6 15
REMARK Flexibility Score: inf
ROOT
ATOM      1  C   UNL     1      16.411  13.003  21.827  1.00  0.00     0.176 C 
ENDROOT
BRANCH   1   2
ATOM      2  C   UNL     1      15.361  13.266  20.712  1.00  0.00     0.171 C 
BRANCH   2   3
ATOM      3  C   UNL     1      13.985  13.629  21.302  1.00  0.00     0.190 C 
BRANCH   3   4
ATOM      4  O   UNL     1      14.055  13.814  22.690  1.00  0.00    -0.394 OA
ATOM      5  H   UNL     1      13.231  14.297  22.956  1.00  0.00     0.210 HD
ENDBRANCH   3   4
ENDBRANCH   2   3
BRANCH   2   6
ATOM      6  O   UNL     1      15.240  12.143  19.875  1.00  0.00    -0.388 OA
ATOM      7  H   UNL     1      14.305  12.130  19.543  1.00  0.00     0.211 HD
ENDBRANCH   2   6
ENDBRANCH   1   2
BRANCH   1   8
ATOM      8  C   UNL     1      17.891  13.133  21.367  1.00  0.00     0.171 C 
BRANCH   8   9
ATOM      9  C   UNL     1      18.904  12.761  22.472  1.00  0.00     0.190 C 
BRANCH   9  10
ATOM     10  O   UNL     1      19.107  11.374  22.499  1.00  0.00    -0.394 OA
ATOM     11  H   UNL     1      19.416  11.148  23.414  1.00  0.00     0.210 HD
ENDBRANCH   9  10
ENDBRANCH   8   9
BRANCH   8  12
ATOM     12  O   UNL     1      18.157  14.405  20.826  1.00  0.00    -0.388 OA
ATOM     13  H   UNL     1      18.076  14.342  19.839  1.00  0.00     0.211 HD
ENDBRANCH   8  12
ENDBRANCH   1   8
BRANCH   1  14
ATOM     14  O   UNL     1      16.198  11.751  22.435  1.00  0.00    -0.388 OA
ATOM     15  H   UNL     1      15.287  11.757  22.828  1.00  0.00     0.211 HD
ENDBRANCH   1  14
TORSDOF 9
ENDMDL
MODEL 4
REMARK VINA RESULT:    -2.863     15.311     16.395
REMARK INTER + INTRA:          -4.942
REMARK INTER:                  -3.934
REMARK INTRA:                  -1.007
REMARK UNBOUND:                -0.990
REMARK SMILES OC[C@H](O)C(O)[C@@H](O)CO
REMARK SMILES IDX 5 1 7 2 9 3 10 4 8 6 3 8 2 9 1 10 4 12 6 14
REMARK H PARENT 10 5 8 7 1 11 4 13 6 15
REMARK Flexibility Score: inf
ROOT
ATOM      1  C   UNL     1      12.016  16.304  22.861  1.00  0.00     0.176 C 
ENDROOT
BRANCH   1   2
ATOM      2  C   UNL     1      12.008  17.835  23.129  1.00  0.00     0.171 C 
BRANCH   2   3
ATOM      3  C   UNL     1      12.828  18.197  24.382  1.00  0.00     0.190 C 
BRANCH   3   4
ATOM      4  O   UNL     1      12.127  17.894  25.558  1.00  0.00    -0.394 OA
ATOM      5  H   UNL     1      11.794  18.754  25.923  1.00  0.00     0.210 HD
ENDBRANCH   3   4
ENDBRANCH   2   3
BRANCH   2   6
ATOM      6  O   UNL     1      10.690  18.303  23.270  1.00  0.00    -0.388 OA
ATOM      7  H   UNL     1      10.723  19.073  23.895  1.00  0.00     0.211 HD
ENDBRANCH   2   6
ENDBRANCH   1   2
BRANCH   1   8
ATOM      8  C   UNL     1      10.606  15.664  22.721  1.00  0.00     0.171 C 
BRANCH   8   9
ATOM      9  C   UNL     1      10.160  14.898  23.987  1.00  0.00     0.190 C 
BRANCH   9  10
ATOM     10  O   UNL     1      10.082  15.771  25.082  1.00  0.00    -0.394 OA
ATOM     11  H   UNL     1       9.343  16.405  24.889  1.00  0.00     0.210 HD
ENDBRANCH   9  10
ENDBRANCH   8   9
BRANCH   8  12
ATOM     12  O   UNL     1      10.510  14.862  21.569  1.00  0.00    -0.388 OA
ATOM     13  H   UNL     1      11.396  14.862  21.121  1.00  0.00     0.211 HD
ENDBRANCH   8  12
ENDBRANCH   1   8
BRANCH   1  14
ATOM     14  O   UNL     1      12.764  15.625  23.841  1.00  0.00    -0.388 OA
ATOM     15  H   UNL     1      13.384  16.279  24.258  1.00  0.00     0.211 HD
ENDBRANCH   1  14
TORSDOF 9
ENDMDL
MODEL 5
REMARK VINA RESULT:    -2.831     15.220     17.220
REMARK INTER + INTRA:          -4.898
REMARK INTER:                  -3.911
REMARK INTRA:                  -0.986
REMARK UNBOUND:                -0.990
REMARK SMILES OC[C@H](O)C(O)[C@@H](O)CO
REMARK SMILES IDX 5 1 7 2 9 3 10 4 8 6 3 8 2 9 1 10 4 12 6 14
REMARK H PARENT 10 5 8 7 1 11 4 13 6 15
REMARK Flexibility Score: inf
ROOT
ATOM      1  C   UNL     1      10.610  13.657  22.152  1.00  0.00     0.176 C 
ENDROOT
BRANCH   1   2
ATOM      2  C   UNL     1      10.463  12.642  20.984  1.00  0.00     0.171 C 
BRANCH   2   3
ATOM      3  C   UNL     1       9.594  11.435  21.386  1.00  0.00     0.190 C 
BRANCH   3   4
ATOM      4  O   UNL     1      10.283  10.573  22.251  1.00  0.00    -0.394 OA
ATOM      5  H   UNL     1      10.328  11.027  23.132  1.00  0.00     0.210 HD
ENDBRANCH   3   4
ENDBRANCH   2   3
BRANCH   2   6
ATOM      6  O   UNL     1      11.726  12.199  20.556  1.00  0.00    -0.388 OA
ATOM      7  H   UNL     1      11.982  11.443  21.146  1.00  0.00     0.211 HD
ENDBRANCH   2   6
ENDBRANCH   1   2
BRANCH   1   8
ATOM      8  C   UNL     1      12.071  13.881  22.634  1.00  0.00     0.171 C 
BRANCH   8   9
ATOM      9  C   UNL     1      12.413  13.092  23.917  1.00  0.00     0.190 C 
BRANCH   9  10
ATOM     10  O   UNL     1      12.405  11.714  23.658  1.00  0.00    -0.394 OA
ATOM     11  H   UNL     1      12.025  11.274  24.462  1.00  0.00     0.210 HD
ENDBRANCH   9  10
ENDBRANCH   8   9
BRANCH   8  12
ATOM     12  O   UNL     1      12.369  15.250  22.772  1.00  0.00    -0.388 OA
ATOM     13  H   UNL     1      13.290  15.328  23.133  1.00  0.00     0.211 HD
ENDBRANCH   8  12
ENDBRANCH   1   8
BRANCH   1  14
ATOM     14  O   UNL     1       9.788  13.298  23.237  1.00  0.00    -0.388 OA
ATOM     15  H   UNL     1      10.061  13.846  24.019  1.00  0.00     0.211 HD
ENDBRANCH   1  14
TORSDOF 9
ENDMDL
MODEL 6
REMARK VINA RESULT:    -2.816     15.338     16.603
REMARK INTER + INTRA:          -4.876
REMARK INTER:                  -4.361
REMARK INTRA:                  -0.515
REMARK UNBOUND:                -0.990
REMARK SMILES OC[C@H](O)C(O)[C@@H](O)CO
REMARK SMILES IDX 5 1 7 2 9 3 10 4 8 6 3 8 2 9 1 10 4 12 6 14
REMARK H PARENT 10 5 8 7 1 11 4 13 6 15
REMARK Flexibility Score: inf
ROOT
ATOM      1  C   UNL     1      11.937  12.932  23.394  1.00  0.00     0.176 C 
ENDROOT
BRANCH   1   2
ATOM      2  C   UNL     1      11.060  12.824  22.115  1.00  0.00     0.171 C 
BRANCH   2   3
ATOM      3  C   UNL     1       9.880  11.854  22.315  1.00  0.00     0.190 C 
BRANCH   3   4
ATOM      4  O   UNL     1      10.308  10.519  22.311  1.00  0.00    -0.394 OA
ATOM      5  H   UNL     1      11.014  10.447  21.618  1.00  0.00     0.210 HD
ENDBRANCH   3   4
ENDBRANCH   2   3
BRANCH   2   6
ATOM      6  O   UNL     1      11.837  12.410  21.020  1.00  0.00    -0.388 OA
ATOM      7  H   UNL     1      12.780  12.635  21.233  1.00  0.00     0.211 HD
ENDBRANCH   2   6
ENDBRANCH   1   2
BRANCH   1   8
ATOM      8  C   UNL     1      13.067  13.997  23.317  1.00  0.00     0.171 C 
BRANCH   8   9
ATOM      9  C   UNL     1      12.564  15.379  22.845  1.00  0.00     0.190 C 
BRANCH   9  10
ATOM     10  O   UNL     1      12.596  16.297  23.905  1.00  0.00    -0.394 OA
ATOM     11  H   UNL     1      11.663  16.393  24.229  1.00  0.00     0.210 HD
ENDBRANCH   9  10
ENDBRANCH   8   9
BRANCH   8  12
ATOM     12  O   UNL     1      14.152  13.548  22.542  1.00  0.00    -0.388 OA
ATOM     13  H   UNL     1      13.862  12.739  22.046  1.00  0.00     0.211 HD
ENDBRANCH   8  12
ENDBRANCH   1   8
BRANCH   1  14
ATOM     14  O   UNL     1      12.472  11.678  23.745  1.00  0.00    -0.388 OA
ATOM     15  H   UNL     1      12.297  11.052  22.994  1.00  0.00     0.211 HD
ENDBRANCH   1  14
TORSDOF 9
ENDMDL
MODEL 7
REMARK VINA RESULT:    -2.814     16.203     17.387
REMARK INTER + INTRA:          -4.873
REMARK INTER:                  -3.859
REMARK INTRA:                  -1.015
REMARK UNBOUND:                -0.990
REMARK SMILES OC[C@H](O)C(O)[C@@H](O)CO
REMARK SMILES IDX 5 1 7 2 9 3 10 4 8 6 3 8 2 9 1 10 4 12 6 14
REMARK H PARENT 10 5 8 7 1 11 4 13 6 15
REMARK Flexibility Score: inf
ROOT
ATOM      1  C   UNL     1      11.501  12.573  22.905  1.00  0.00     0.176 C 
ENDROOT
BRANCH   1   2
ATOM      2  C   UNL     1      12.821  13.207  22.383  1.00  0.00     0.171 C 
BRANCH   2   3
ATOM      3  C   UNL     1      12.900  14.710  22.717  1.00  0.00     0.190 C 
BRANCH   3   4
ATOM      4  O   UNL     1      12.024  15.458  21.918  1.00  0.00    -0.394 OA
ATOM      5  H   UNL     1      11.234  14.884  21.743  1.00  0.00     0.210 HD
ENDBRANCH   3   4
ENDBRANCH   2   3
BRANCH   2   6
ATOM      6  O   UNL     1      12.941  13.020  20.995  1.00  0.00    -0.388 OA
ATOM      7  H   UNL     1      12.837  12.048  20.825  1.00  0.00     0.211 HD
ENDBRANCH   2   6
ENDBRANCH   1   2
BRANCH   1   8
ATOM      8  C   UNL     1      10.671  11.824  21.824  1.00  0.00     0.171 C 
BRANCH   8   9
ATOM      9  C   UNL     1       9.481  12.654  21.293  1.00  0.00     0.190 C 
BRANCH   9  10
ATOM     10  O   UNL     1       9.945  13.799  20.627  1.00  0.00    -0.394 OA
ATOM     11  H   UNL     1       9.806  14.564  21.244  1.00  0.00     0.210 HD
ENDBRANCH   9  10
ENDBRANCH   8   9
BRANCH   8  12
ATOM     12  O   UNL     1      10.260  10.555  22.271  1.00  0.00    -0.388 OA
ATOM     13  H   UNL     1      11.070   9.995  22.393  1.00  0.00     0.211 HD
ENDBRANCH   8  12
ENDBRANCH   1   8
BRANCH   1  14
ATOM     14  O   UNL     1      10.704  13.533  23.555  1.00  0.00    -0.388 OA
ATOM     15  H   UNL     1      11.309  14.204  23.965  1.00  0.00     0.211 HD
ENDBRANCH   1  14
TORSDOF 9
ENDMDL
MODEL 8
REMARK VINA RESULT:    -2.801     15.423     17.248
REMARK INTER + INTRA:          -4.856
REMARK INTER:                  -4.091
REMARK INTRA:                  -0.766
REMARK UNBOUND:                -0.990
REMARK SMILES OC[C@H](O)C(O)[C@@H](O)CO
REMARK SMILES IDX 5 1 7 2 9 3 10 4 8 6 3 8 2 9 1 10 4 12 6 14
REMARK H PARENT 10 5 8 7 1 11 4 13 6 15
REMARK Flexibility Score: inf
ROOT
ATOM      1  C   UNL     1      11.543  12.617  21.704  1.00  0.00     0.176 C 
ENDROOT
BRANCH   1   2
ATOM      2  C   UNL     1      10.186  11.862  21.786  1.00  0.00     0.171 C 
BRANCH   2   3
ATOM      3  C   UNL     1       9.152  12.642  22.620  1.00  0.00     0.190 C 
BRANCH   3   4
ATOM      4  O   UNL     1       8.696  13.779  21.938  1.00  0.00    -0.394 OA
ATOM      5  H   UNL     1       7.706  13.776  22.005  1.00  0.00     0.210 HD
ENDBRANCH   3   4
ENDBRANCH   2   3
BRANCH   2   6
ATOM      6  O   UNL     1      10.369  10.579  22.331  1.00  0.00    -0.388 OA
ATOM      7  H   UNL     1      10.425  10.690  23.316  1.00  0.00     0.211 HD
ENDBRANCH   2   6
ENDBRANCH   1   2
BRANCH   1   8
ATOM      8  C   UNL     1      12.187  12.941  23.082  1.00  0.00     0.171 C 
BRANCH   8   9
ATOM      9  C   UNL     1      13.312  13.995  22.991  1.00  0.00     0.190 C 
BRANCH   9  10
ATOM     10  O   UNL     1      12.779  15.288  23.100  1.00  0.00    -0.394 OA
ATOM     11  H   UNL     1      12.105  15.258  23.828  1.00  0.00     0.210 HD
ENDBRANCH   9  10
ENDBRANCH   8   9
BRANCH   8  12
ATOM     12  O   UNL     1      12.620  11.775  23.741  1.00  0.00    -0.388 OA
ATOM     13  H   UNL     1      13.408  12.012  24.296  1.00  0.00     0.211 HD
ENDBRANCH   8  12
ENDBRANCH   1   8
BRANCH   1  14
ATOM     14  O   UNL     1      11.421  13.789  20.935  1.00  0.00    -0.388 OA
ATOM     15  H   UNL     1      11.032  13.538  20.057  1.00  0.00     0.211 HD
ENDBRANCH   1  14
TORSDOF 9
ENDMDL
MODEL 9
REMARK VINA RESULT:    -2.784     15.528     17.380
REMARK INTER + INTRA:          -4.833
REMARK INTER:                  -3.834
REMARK INTRA:                  -0.998
REMARK UNBOUND:                -0.990
REMARK SMILES OC[C@H](O)C(O)[C@@H](O)CO
REMARK SMILES IDX 5 1 7 2 9 3 10 4 8 6 3 8 2 9 1 10 4 12 6 14
REMARK H PARENT 10 5 8 7 1 11 4 13 6 15
REMARK Flexibility Score: inf
ROOT
ATOM      1  C   UNL     1      11.185  13.415  21.259  1.00  0.00     0.176 C 
ENDROOT
BRANCH   1   2
ATOM      2  C   UNL     1      11.536  13.859  22.706  1.00  0.00     0.171 C 
BRANCH   2   3
ATOM      3  C   UNL     1      12.809  13.161  23.222  1.00  0.00     0.190 C 
BRANCH   3   4
ATOM      4  O   UNL     1      12.541  11.847  23.633  1.00  0.00    -0.394 OA
ATOM      5  H   UNL     1      13.347  11.528  24.116  1.00  0.00     0.210 HD
ENDBRANCH   3   4
ENDBRANCH   2   3
BRANCH   2   6
ATOM      6  O   UNL     1      10.462  13.597  23.575  1.00  0.00    -0.388 OA
ATOM      7  H   UNL     1      10.294  14.432  24.086  1.00  0.00     0.211 HD
ENDBRANCH   2   6
ENDBRANCH   1   2
BRANCH   1   8
ATOM      8  C   UNL     1       9.778  12.771  21.103  1.00  0.00     0.171 C 
BRANCH   8   9
ATOM      9  C   UNL     1       9.823  11.228  21.039  1.00  0.00     0.190 C 
BRANCH   9  10
ATOM     10  O   UNL     1      10.332  10.705  22.237  1.00  0.00    -0.394 OA
ATOM     11  H   UNL     1       9.554  10.537  22.829  1.00  0.00     0.210 HD
ENDBRANCH   9  10
ENDBRANCH   8   9
BRANCH   8  12
ATOM     12  O   UNL     1       9.075  13.315  20.013  1.00  0.00    -0.388 OA
ATOM     13  H   UNL     1       9.731  13.527  19.299  1.00  0.00     0.211 HD
ENDBRANCH   8  12
ENDBRANCH   1   8
BRANCH   1  14
ATOM     14  O   UNL     1      12.174  12.558  20.741  1.00  0.00    -0.388 OA
ATOM     15  H   UNL     1      12.733  12.246  21.500  1.00  0.00     0.211 HD
ENDBRANCH   1  14
TORSDOF 9
ENDMDL
