MODEL 1
REMARK VINA RESULT:    -1.708      0.000      0.000
REMARK INTER + INTRA:          -1.602
REMARK INTER:                  -2.058
REMARK INTRA:                   0.456
REMARK UNBOUND:                 0.456
REMARK SMILES O=c1c(O)c(-c2ccc(O)c(O)c2)oc2cc(O)cc(O)c12
REMARK SMILES IDX 5 1 3 2 2 3 1 4 22 5 20 6 19 7 17 8 16 9 15 10 14 11 6 12
REMARK SMILES IDX 7 13 8 14 9 15 13 16 11 17 10 18 12 20 4 22 21 24 18 26
REMARK H PARENT 10 19 12 21 4 23 21 25 18 27
REMARK Flexibility Score: inf
ROOT
ATOM      1  C   UNL     1       3.094 -15.040  11.281  1.00  0.00     0.180 A 
ATOM      2  C   UNL     1       1.903 -15.048  12.028  1.00  0.00     0.208 A 
ATOM      3  C   UNL     1       1.979 -15.017  13.430  1.00  0.00     0.238 A 
ATOM      4  O   UNL     1       0.911 -15.080  14.093  1.00  0.00    -0.285 OA
ATOM      5  C   UNL     1       3.241 -14.963  14.066  1.00  0.00     0.111 A 
ATOM      6  C   UNL     1       3.434 -14.888  15.479  1.00  0.00     0.134 A 
ATOM      7  C   UNL     1       4.730 -14.971  16.004  1.00  0.00     0.093 A 
ATOM      8  C   UNL     1       5.842 -15.060  15.168  1.00  0.00     0.123 A 
ATOM      9  C   UNL     1       5.669 -15.074  13.783  1.00  0.00     0.094 A 
ATOM     10  C   UNL     1       4.386 -15.030  13.230  1.00  0.00     0.146 A 
ATOM     11  O   UNL     1       4.265 -15.056  11.909  1.00  0.00    -0.452 OA
ENDROOT
BRANCH   1  12
ATOM     12  C   UNL     1       3.095 -15.046   9.800  1.00  0.00     0.025 A 
ATOM     13  C   UNL     1       4.316 -15.122   9.111  1.00  0.00     0.016 A 
ATOM     14  C   UNL     1       4.341 -15.108   7.714  1.00  0.00     0.051 A 
ATOM     15  C   UNL     1       3.149 -15.002   6.987  1.00  0.00     0.157 A 
ATOM     16  C   UNL     1       1.902 -14.919   9.066  1.00  0.00     0.062 A 
ATOM     17  C   UNL     1       1.927 -14.903   7.664  1.00  0.00     0.158 A 
BRANCH  15  18
ATOM     18  O   UNL     1       3.170 -14.989   5.594  1.00  0.00    -0.504 OA
ATOM     19  H   UNL     1       3.730 -14.321   5.078  1.00  0.00     0.293 HD
ENDBRANCH  15  18
BRANCH  17  20
ATOM     20  O   UNL     1       0.743 -14.782   6.939  1.00  0.00    -0.504 OA
ATOM     21  H   UNL     1      -0.090 -15.300   7.193  1.00  0.00     0.293 HD
ENDBRANCH  17  20
ENDBRANCH   1  12
BRANCH   2  22
ATOM     22  O   UNL     1       0.668 -15.125  11.380  1.00  0.00    -0.502 OA
ATOM     23  H   UNL     1       0.104 -15.966  11.380  1.00  0.00     0.293 HD
ENDBRANCH   2  22
BRANCH   6  24
ATOM     24  O   UNL     1       2.398 -14.706  16.400  1.00  0.00    -0.507 OA
ATOM     25  H   UNL     1       1.861 -13.857  16.500  1.00  0.00     0.293 HD
ENDBRANCH   6  24
BRANCH   8  26
ATOM     26  O   UNL     1       7.117 -15.125  15.725  1.00  0.00    -0.508 OA
ATOM     27  H   UNL     1       7.949 -15.111  15.147  1.00  0.00     0.293 HD
ENDBRANCH   8  26
TORSDOF 6
ENDMDL
MODEL 2
REMARK VINA RESULT:    -0.009      2.068      8.044
REMARK INTER + INTRA:           0.445
REMARK INTER:                  -0.096
REMARK INTRA:                   0.541
REMARK UNBOUND:                 0.456
REMARK SMILES O=c1c(O)c(-c2ccc(O)c(O)c2)oc2cc(O)cc(O)c12
REMARK SMILES IDX 5 1 3 2 2 3 1 4 22 5 20 6 19 7 17 8 16 9 15 10 14 11 6 12
REMARK SMILES IDX 7 13 8 14 9 15 13 16 11 17 10 18 12 20 4 22 21 24 18 26
REMARK H PARENT 10 19 12 21 4 23 21 25 18 27
REMARK Flexibility Score: inf
ROOT
ATOM      1  C   UNL     1       2.539 -14.996   8.567  1.00  0.00     0.180 A 
ATOM      2  C   UNL     1       3.559 -15.033   7.602  1.00  0.00     0.208 A 
ATOM      3  C   UNL     1       3.210 -15.030   6.242  1.00  0.00     0.238 A 
ATOM      4  O   UNL     1       4.126 -15.119   5.383  1.00  0.00    -0.285 OA
ATOM      5  C   UNL     1       1.848 -14.974   5.864  1.00  0.00     0.111 A 
ATOM      6  C   UNL     1       1.382 -14.926   4.515  1.00  0.00     0.134 A 
ATOM      7  C   UNL     1       0.008 -15.004   4.257  1.00  0.00     0.093 A 
ATOM      8  C   UNL     1      -0.919 -15.063   5.296  1.00  0.00     0.123 A 
ATOM      9  C   UNL     1      -0.478 -15.051   6.621  1.00  0.00     0.094 A 
ATOM     10  C   UNL     1       0.889 -15.010   6.910  1.00  0.00     0.146 A 
ATOM     11  O   UNL     1       1.267 -15.010   8.182  1.00  0.00    -0.452 OA
ENDROOT
BRANCH   1  12
ATOM     12  C   UNL     1       2.828 -14.971  10.020  1.00  0.00     0.025 A 
ATOM     13  C   UNL     1       4.152 -15.124  10.462  1.00  0.00     0.016 A 
ATOM     14  C   UNL     1       4.445 -15.125  11.828  1.00  0.00     0.051 A 
ATOM     15  C   UNL     1       3.418 -14.991  12.771  1.00  0.00     0.157 A 
ATOM     16  C   UNL     1       1.798 -14.858  10.970  1.00  0.00     0.062 A 
ATOM     17  C   UNL     1       2.091 -14.861  12.341  1.00  0.00     0.158 A 
BRANCH  15  18
ATOM     18  O   UNL     1       3.706 -14.990  14.134  1.00  0.00    -0.504 OA
ATOM     19  H   UNL     1       2.984 -14.844  14.829  1.00  0.00     0.293 HD
ENDBRANCH  15  18
BRANCH  17  20
ATOM     20  O   UNL     1       1.069 -14.743  13.282  1.00  0.00    -0.504 OA
ATOM     21  H   UNL     1       1.243 -14.866  14.273  1.00  0.00     0.293 HD
ENDBRANCH  17  20
ENDBRANCH   1  12
BRANCH   2  22
ATOM     22  O   UNL     1       4.897 -15.111   7.997  1.00  0.00    -0.502 OA
ATOM     23  H   UNL     1       5.453 -14.289   8.203  1.00  0.00     0.293 HD
ENDBRANCH   2  22
BRANCH   6  24
ATOM     24  O   UNL     1       2.218 -14.775   3.406  1.00  0.00    -0.507 OA
ATOM     25  H   UNL     1       2.114 -14.061   2.700  1.00  0.00     0.293 HD
ENDBRANCH   6  24
BRANCH   8  26
ATOM     26  O   UNL     1      -2.279 -15.125   5.002  1.00  0.00    -0.508 OA
ATOM     27  H   UNL     1      -2.971 -15.293   5.723  1.00  0.00     0.293 HD
ENDBRANCH   8  26
TORSDOF 6
ENDMDL
MODEL 3
REMARK VINA RESULT:     0.799      1.426      7.593
REMARK INTER + INTRA:           1.418
REMARK INTER:                   0.944
REMARK INTRA:                   0.475
REMARK UNBOUND:                 0.456
REMARK SMILES O=c1c(O)c(-c2ccc(O)c(O)c2)oc2cc(O)cc(O)c12
REMARK SMILES IDX 5 1 3 2 2 3 1 4 22 5 20 6 19 7 17 8 16 9 15 10 14 11 6 12
REMARK SMILES IDX 7 13 8 14 9 15 13 16 11 17 10 18 12 20 4 22 21 24 18 26
REMARK H PARENT 10 19 12 21 4 23 21 25 18 27
REMARK Flexibility Score: inf
ROOT
ATOM      1  C   UNL     1       2.834 -15.037  10.256  1.00  0.00     0.180 A 
ATOM      2  C   UNL     1       4.033 -15.041   9.523  1.00  0.00     0.208 A 
ATOM      3  C   UNL     1       3.973 -15.008   8.120  1.00  0.00     0.238 A 
ATOM      4  O   UNL     1       5.049 -15.066   7.469  1.00  0.00    -0.285 OA
ATOM      5  C   UNL     1       2.718 -14.956   7.470  1.00  0.00     0.111 A 
ATOM      6  C   UNL     1       2.541 -14.878   6.055  1.00  0.00     0.134 A 
ATOM      7  C   UNL     1       1.251 -14.964   5.515  1.00  0.00     0.093 A 
ATOM      8  C   UNL     1       0.130 -15.057   6.338  1.00  0.00     0.123 A 
ATOM      9  C   UNL     1       0.287 -15.073   7.726  1.00  0.00     0.094 A 
ATOM     10  C   UNL     1       1.564 -15.027   8.293  1.00  0.00     0.146 A 
ATOM     11  O   UNL     1       1.671 -15.054   9.615  1.00  0.00    -0.452 OA
ENDROOT
BRANCH   1  12
ATOM     12  C   UNL     1       2.817 -15.046  11.737  1.00  0.00     0.025 A 
ATOM     13  C   UNL     1       1.586 -15.042  12.413  1.00  0.00     0.016 A 
ATOM     14  C   UNL     1       1.546 -15.029  13.810  1.00  0.00     0.051 A 
ATOM     15  C   UNL     1       2.735 -15.002  14.550  1.00  0.00     0.157 A 
ATOM     16  C   UNL     1       4.008 -14.998  12.484  1.00  0.00     0.062 A 
ATOM     17  C   UNL     1       3.968 -14.983  13.886  1.00  0.00     0.158 A 
BRANCH  15  18
ATOM     18  O   UNL     1       2.700 -14.991  15.943  1.00  0.00    -0.504 OA
ATOM     19  H   UNL     1       3.285 -15.608  16.493  1.00  0.00     0.293 HD
ENDBRANCH  15  18
BRANCH  17  20
ATOM     20  O   UNL     1       5.149 -14.942  14.624  1.00  0.00    -0.504 OA
ATOM     21  H   UNL     1       5.763 -14.135  14.599  1.00  0.00     0.293 HD
ENDBRANCH  17  20
ENDBRANCH   1  12
BRANCH   2  22
ATOM     22  O   UNL     1       5.261 -15.115  10.185  1.00  0.00    -0.502 OA
ATOM     23  H   UNL     1       6.122 -14.773   9.775  1.00  0.00     0.293 HD
ENDBRANCH   2  22
BRANCH   6  24
ATOM     24  O   UNL     1       3.587 -14.692   5.146  1.00  0.00    -0.507 OA
ATOM     25  H   UNL     1       4.354 -15.333   5.015  1.00  0.00     0.293 HD
ENDBRANCH   6  24
BRANCH   8  26
ATOM     26  O   UNL     1      -1.139 -15.125   5.768  1.00  0.00    -0.508 OA
ATOM     27  H   UNL     1      -1.322 -15.692   4.949  1.00  0.00     0.293 HD
ENDBRANCH   8  26
TORSDOF 6
ENDMDL
MODEL 4
REMARK VINA RESULT:     0.947      2.319      7.932
REMARK INTER + INTRA:           1.596
REMARK INTER:                   1.046
REMARK INTRA:                   0.551
REMARK UNBOUND:                 0.456
REMARK SMILES O=c1c(O)c(-c2ccc(O)c(O)c2)oc2cc(O)cc(O)c12
REMARK SMILES IDX 5 1 3 2 2 3 1 4 22 5 20 6 19 7 17 8 16 9 15 10 14 11 6 12
REMARK SMILES IDX 7 13 8 14 9 15 13 16 11 17 10 18 12 20 4 22 21 24 18 26
REMARK H PARENT 10 19 12 21 4 23 21 25 18 27
REMARK Flexibility Score: inf
ROOT
ATOM      1  C   UNL     1       2.255 -14.981   7.984  1.00  0.00     0.180 A 
ATOM      2  C   UNL     1       0.998 -14.994   7.357  1.00  0.00     0.208 A 
ATOM      3  C   UNL     1       0.937 -14.961   5.954  1.00  0.00     0.238 A 
ATOM      4  O   UNL     1      -0.192 -14.917   5.400  1.00  0.00    -0.285 OA
ATOM      5  C   UNL     1       2.132 -14.932   5.197  1.00  0.00     0.111 A 
ATOM      6  C   UNL     1       2.188 -14.937   3.771  1.00  0.00     0.134 A 
ATOM      7  C   UNL     1       3.422 -14.774   3.128  1.00  0.00     0.093 A 
ATOM      8  C   UNL     1       4.606 -14.672   3.857  1.00  0.00     0.123 A 
ATOM      9  C   UNL     1       4.570 -14.725   5.252  1.00  0.00     0.094 A 
ATOM     10  C   UNL     1       3.350 -14.850   5.922  1.00  0.00     0.146 A 
ATOM     11  O   UNL     1       3.357 -14.887   7.248  1.00  0.00    -0.452 OA
ENDROOT
BRANCH   1  12
ATOM     12  C   UNL     1       2.401 -15.039   9.457  1.00  0.00     0.025 A 
ATOM     13  C   UNL     1       1.253 -15.078  10.263  1.00  0.00     0.016 A 
ATOM     14  C   UNL     1       1.367 -15.111  11.656  1.00  0.00     0.051 A 
ATOM     15  C   UNL     1       2.630 -15.090  12.262  1.00  0.00     0.157 A 
ATOM     16  C   UNL     1       3.666 -14.997  10.070  1.00  0.00     0.062 A 
ATOM     17  C   UNL     1       3.781 -15.028  11.467  1.00  0.00     0.158 A 
BRANCH  15  18
ATOM     18  O   UNL     1       2.748 -15.125  13.649  1.00  0.00    -0.504 OA
ATOM     19  H   UNL     1       3.232 -14.396  14.159  1.00  0.00     0.293 HD
ENDBRANCH  15  18
BRANCH  17  20
ATOM     20  O   UNL     1       5.036 -14.992  12.073  1.00  0.00    -0.504 OA
ATOM     21  H   UNL     1       5.841 -15.445  11.653  1.00  0.00     0.293 HD
ENDBRANCH  17  20
ENDBRANCH   1  12
BRANCH   2  22
ATOM     22  O   UNL     1      -0.170 -15.000   8.123  1.00  0.00    -0.502 OA
ATOM     23  H   UNL     1      -1.091 -14.901   7.713  1.00  0.00     0.293 HD
ENDBRANCH   2  22
BRANCH   6  24
ATOM     24  O   UNL     1       1.076 -15.125   2.946  1.00  0.00    -0.507 OA
ATOM     25  H   UNL     1       0.807 -16.006   2.535  1.00  0.00     0.293 HD
ENDBRANCH   6  24
BRANCH   8  26
ATOM     26  O   UNL     1       5.817 -14.526   3.184  1.00  0.00    -0.508 OA
ATOM     27  H   UNL     1       6.705 -14.615   3.664  1.00  0.00     0.293 HD
ENDBRANCH   8  26
TORSDOF 6
ENDMDL
MODEL 5
REMARK VINA RESULT:     1.087      1.416      7.071
REMARK INTER + INTRA:           1.765
REMARK INTER:                   1.214
REMARK INTRA:                   0.551
REMARK UNBOUND:                 0.456
REMARK SMILES O=c1c(O)c(-c2ccc(O)c(O)c2)oc2cc(O)cc(O)c12
REMARK SMILES IDX 5 1 3 2 2 3 1 4 22 5 20 6 19 7 17 8 16 9 15 10 14 11 6 12
REMARK SMILES IDX 7 13 8 14 9 15 13 16 11 17 10 18 12 20 4 22 21 24 18 26
REMARK H PARENT 10 19 12 21 4 23 21 25 18 27
REMARK Flexibility Score: inf
ROOT
ATOM      1  C   UNL     1       2.739 -15.011   9.976  1.00  0.00     0.180 A 
ATOM      2  C   UNL     1       1.493 -14.894   9.336  1.00  0.00     0.208 A 
ATOM      3  C   UNL     1       1.447 -14.884   7.932  1.00  0.00     0.238 A 
ATOM      4  O   UNL     1       0.335 -14.724   7.366  1.00  0.00    -0.285 OA
ATOM      5  C   UNL     1       2.644 -15.005   7.188  1.00  0.00     0.111 A 
ATOM      6  C   UNL     1       2.711 -15.047   5.762  1.00  0.00     0.134 A 
ATOM      7  C   UNL     1       3.960 -15.038   5.129  1.00  0.00     0.093 A 
ATOM      8  C   UNL     1       5.143 -15.055   5.867  1.00  0.00     0.123 A 
ATOM      9  C   UNL     1       5.089 -15.075   7.263  1.00  0.00     0.094 A 
ATOM     10  C   UNL     1       3.858 -15.047   7.923  1.00  0.00     0.146 A 
ATOM     11  O   UNL     1       3.850 -15.057   9.250  1.00  0.00    -0.452 OA
ENDROOT
BRANCH   1  12
ATOM     12  C   UNL     1       2.866 -15.054  11.451  1.00  0.00     0.025 A 
ATOM     13  C   UNL     1       1.709 -15.010  12.245  1.00  0.00     0.016 A 
ATOM     14  C   UNL     1       1.806 -15.028  13.639  1.00  0.00     0.051 A 
ATOM     15  C   UNL     1       3.062 -15.073  14.259  1.00  0.00     0.157 A 
ATOM     16  C   UNL     1       4.125 -15.078  12.078  1.00  0.00     0.062 A 
ATOM     17  C   UNL     1       4.223 -15.094  13.476  1.00  0.00     0.158 A 
BRANCH  15  18
ATOM     18  O   UNL     1       3.163 -15.094  15.648  1.00  0.00    -0.504 OA
ATOM     19  H   UNL     1       3.366 -15.948  16.152  1.00  0.00     0.293 HD
ENDBRANCH  15  18
BRANCH  17  20
ATOM     20  O   UNL     1       5.472 -15.124  14.095  1.00  0.00    -0.504 OA
ATOM     21  H   UNL     1       6.097 -14.327  14.067  1.00  0.00     0.293 HD
ENDBRANCH  17  20
ENDBRANCH   1  12
BRANCH   2  22
ATOM     22  O   UNL     1       0.326 -14.752  10.091  1.00  0.00    -0.502 OA
ATOM     23  H   UNL     1      -0.027 -15.488  10.691  1.00  0.00     0.293 HD
ENDBRANCH   2  22
BRANCH   6  24
ATOM     24  O   UNL     1       1.590 -15.125   4.930  1.00  0.00    -0.507 OA
ATOM     25  H   UNL     1       0.648 -14.905   5.214  1.00  0.00     0.293 HD
ENDBRANCH   6  24
BRANCH   8  26
ATOM     26  O   UNL     1       6.368 -15.062   5.204  1.00  0.00    -0.508 OA
ATOM     27  H   UNL     1       7.020 -15.831   5.303  1.00  0.00     0.293 HD
ENDBRANCH   8  26
TORSDOF 6
ENDMDL
