MODEL 1
REMARK VINA RESULT:    -4.426      0.000      0.000
REMARK INTER + INTRA:          -4.426
REMARK INTER:                  -4.426
REMARK INTRA:                   0.000
REMARK UNBOUND:                 0.000
REMARK SMILES CC(C)=C1CC[C@H](C)CC1=O
REMARK SMILES IDX 8 1 7 2 6 3 5 4 4 5 2 6 1 7 3 8 10 9 11 10 9 11
REMARK H PARENT
REMARK Flexibility Score: inf
ROOT
ATOM      1  C   UNL     1      46.045  58.283  28.224  1.00  0.00     0.008 C 
ATOM      2  C   UNL     1      45.019  57.304  27.644  1.00  0.00    -0.006 C 
ATOM      3  C   UNL     1      43.864  57.081  28.633  1.00  0.00     0.008 C 
ATOM      4  C   UNL     1      42.879  56.027  28.112  1.00  0.00     0.039 C 
ATOM      5  C   UNL     1      42.390  56.330  26.702  1.00  0.00    -0.006 C 
ATOM      6  C   UNL     1      41.138  55.973  26.293  1.00  0.00    -0.070 C 
ATOM      7  C   UNL     1      40.188  55.246  27.219  1.00  0.00     0.039 C 
ATOM      8  C   UNL     1      40.621  56.318  24.916  1.00  0.00     0.039 C 
ATOM      9  C   UNL     1      43.397  56.926  25.774  1.00  0.00     0.159 C 
ATOM     10  O   UNL     1      43.371  56.684  24.537  1.00  0.00    -0.295 OA
ATOM     11  C   UNL     1      44.471  57.828  26.308  1.00  0.00     0.084 C 
ENDROOT
TORSDOF 0
ENDMDL
MODEL 2
REMARK VINA RESULT:    -4.387      2.891      5.214
REMARK INTER + INTRA:          -4.387
REMARK INTER:                  -4.387
REMARK INTRA:                   0.000
REMARK UNBOUND:                 0.000
REMARK SMILES CC(C)=C1CC[C@H](C)CC1=O
REMARK SMILES IDX 8 1 7 2 6 3 5 4 4 5 2 6 1 7 3 8 10 9 11 10 9 11
REMARK H PARENT
REMARK Flexibility Score: inf
ROOT
ATOM      1  C   UNL     1      42.970  56.786  28.630  1.00  0.00     0.008 C 
ATOM      2  C   UNL     1      44.461  56.734  28.276  1.00  0.00    -0.006 C 
ATOM      3  C   UNL     1      44.682  55.939  26.979  1.00  0.00     0.008 C 
ATOM      4  C   UNL     1      46.176  55.790  26.665  1.00  0.00     0.039 C 
ATOM      5  C   UNL     1      46.909  57.125  26.664  1.00  0.00    -0.006 C 
ATOM      6  C   UNL     1      47.979  57.346  25.845  1.00  0.00    -0.070 C 
ATOM      7  C   UNL     1      48.492  56.269  24.916  1.00  0.00     0.039 C 
ATOM      8  C   UNL     1      48.679  58.684  25.795  1.00  0.00     0.039 C 
ATOM      9  C   UNL     1      46.463  58.117  27.687  1.00  0.00     0.159 C 
ATOM     10  O   UNL     1      47.272  58.934  28.203  1.00  0.00    -0.295 OA
ATOM     11  C   UNL     1      45.028  58.153  28.124  1.00  0.00     0.084 C 
ENDROOT
TORSDOF 0
ENDMDL
MODEL 3
REMARK VINA RESULT:    -4.349      1.844      4.509
REMARK INTER + INTRA:          -4.349
REMARK INTER:                  -4.349
REMARK INTRA:                   0.000
REMARK UNBOUND:                 0.000
REMARK SMILES CC(C)=C1CC[C@H](C)CC1=O
REMARK SMILES IDX 8 1 7 2 6 3 5 4 4 5 2 6 1 7 3 8 10 9 11 10 9 11
REMARK H PARENT
REMARK Flexibility Score: inf
ROOT
ATOM      1  C   UNL     1      41.648  54.467  27.882  1.00  0.00     0.008 C 
ATOM      2  C   UNL     1      42.728  55.443  27.399  1.00  0.00    -0.006 C 
ATOM      3  C   UNL     1      43.198  56.343  28.553  1.00  0.00     0.008 C 
ATOM      4  C   UNL     1      44.204  57.393  28.065  1.00  0.00     0.039 C 
ATOM      5  C   UNL     1      45.364  56.778  27.294  1.00  0.00    -0.006 C 
ATOM      6  C   UNL     1      46.611  57.333  27.325  1.00  0.00    -0.070 C 
ATOM      7  C   UNL     1      46.889  58.593  28.113  1.00  0.00     0.039 C 
ATOM      8  C   UNL     1      47.782  56.699  26.610  1.00  0.00     0.039 C 
ATOM      9  C   UNL     1      45.026  55.615  26.421  1.00  0.00     0.159 C 
ATOM     10  O   UNL     1      45.649  55.399  25.347  1.00  0.00    -0.295 OA
ATOM     11  C   UNL     1      43.922  54.676  26.812  1.00  0.00     0.084 C 
ENDROOT
TORSDOF 0
ENDMDL
MODEL 4
REMARK VINA RESULT:    -4.265      1.993      2.538
REMARK INTER + INTRA:          -4.265
REMARK INTER:                  -4.265
REMARK INTRA:                   0.000
REMARK UNBOUND:                 0.000
REMARK SMILES CC(C)=C1CC[C@H](C)CC1=O
REMARK SMILES IDX 8 1 7 2 6 3 5 4 4 5 2 6 1 7 3 8 10 9 11 10 9 11
REMARK H PARENT
REMARK Flexibility Score: inf
ROOT
ATOM      1  C   UNL     1      48.078  58.620  27.018  1.00  0.00     0.008 C 
ATOM      2  C   UNL     1      46.987  57.631  27.446  1.00  0.00    -0.006 C 
ATOM      3  C   UNL     1      45.712  58.380  27.864  1.00  0.00     0.008 C 
ATOM      4  C   UNL     1      44.645  57.412  28.392  1.00  0.00     0.039 C 
ATOM      5  C   UNL     1      44.362  56.271  27.424  1.00  0.00    -0.006 C 
ATOM      6  C   UNL     1      43.122  55.706  27.335  1.00  0.00    -0.070 C 
ATOM      7  C   UNL     1      41.981  56.179  28.208  1.00  0.00     0.039 C 
ATOM      8  C   UNL     1      42.815  54.612  26.339  1.00  0.00     0.039 C 
ATOM      9  C   UNL     1      45.540  55.739  26.676  1.00  0.00     0.159 C 
ATOM     10  O   UNL     1      45.613  54.525  26.347  1.00  0.00    -0.295 OA
ATOM     11  C   UNL     1      46.670  56.653  26.304  1.00  0.00     0.084 C 
ENDROOT
TORSDOF 0
ENDMDL
MODEL 5
REMARK VINA RESULT:    -4.236      2.160      4.706
REMARK INTER + INTRA:          -4.236
REMARK INTER:                  -4.236
REMARK INTRA:                   0.000
REMARK UNBOUND:                 0.000
REMARK SMILES CC(C)=C1CC[C@H](C)CC1=O
REMARK SMILES IDX 8 1 7 2 6 3 5 4 4 5 2 6 1 7 3 8 10 9 11 10 9 11
REMARK H PARENT
REMARK Flexibility Score: inf
ROOT
ATOM      1  C   UNL     1      40.946  54.509  27.357  1.00  0.00     0.008 C 
ATOM      2  C   UNL     1      42.402  54.894  27.646  1.00  0.00    -0.006 C 
ATOM      3  C   UNL     1      43.254  54.785  26.372  1.00  0.00     0.008 C 
ATOM      4  C   UNL     1      44.733  55.068  26.665  1.00  0.00     0.039 C 
ATOM      5  C   UNL     1      44.942  56.387  27.397  1.00  0.00    -0.006 C 
ATOM      6  C   UNL     1      46.069  57.133  27.207  1.00  0.00    -0.070 C 
ATOM      7  C   UNL     1      47.167  56.672  26.274  1.00  0.00     0.039 C 
ATOM      8  C   UNL     1      46.262  58.470  27.884  1.00  0.00     0.039 C 
ATOM      9  C   UNL     1      43.904  56.745  28.409  1.00  0.00     0.159 C 
ATOM     10  O   UNL     1      44.199  57.400  29.445  1.00  0.00    -0.295 OA
ATOM     11  C   UNL     1      42.479  56.321  28.208  1.00  0.00     0.084 C 
ENDROOT
TORSDOF 0
ENDMDL
MODEL 6
REMARK VINA RESULT:    -4.233      2.522      4.751
REMARK INTER + INTRA:          -4.233
REMARK INTER:                  -4.233
REMARK INTRA:                   0.000
REMARK UNBOUND:                 0.000
REMARK SMILES CC(C)=C1CC[C@H](C)CC1=O
REMARK SMILES IDX 8 1 7 2 6 3 5 4 4 5 2 6 1 7 3 8 10 9 11 10 9 11
REMARK H PARENT
REMARK Flexibility Score: inf
ROOT
ATOM      1  C   UNL     1      43.154  56.495  28.773  1.00  0.00     0.008 C 
ATOM      2  C   UNL     1      44.223  56.768  27.709  1.00  0.00    -0.006 C 
ATOM      3  C   UNL     1      43.570  57.061  26.349  1.00  0.00     0.008 C 
ATOM      4  C   UNL     1      44.625  57.236  25.250  1.00  0.00     0.039 C 
ATOM      5  C   UNL     1      45.690  58.261  25.619  1.00  0.00    -0.006 C 
ATOM      6  C   UNL     1      46.298  59.027  24.667  1.00  0.00    -0.070 C 
ATOM      7  C   UNL     1      45.952  58.879  23.203  1.00  0.00     0.039 C 
ATOM      8  C   UNL     1      47.313  60.086  25.028  1.00  0.00     0.039 C 
ATOM      9  C   UNL     1      46.102  58.287  27.054  1.00  0.00     0.159 C 
ATOM     10  O   UNL     1      47.280  58.586  27.391  1.00  0.00    -0.295 OA
ATOM     11  C   UNL     1      45.111  57.949  28.129  1.00  0.00     0.084 C 
ENDROOT
TORSDOF 0
ENDMDL
MODEL 7
REMARK VINA RESULT:    -4.215      1.864      3.371
REMARK INTER + INTRA:          -4.215
REMARK INTER:                  -4.215
REMARK INTRA:                   0.000
REMARK UNBOUND:                 0.000
REMARK SMILES CC(C)=C1CC[C@H](C)CC1=O
REMARK SMILES IDX 8 1 7 2 6 3 5 4 4 5 2 6 1 7 3 8 10 9 11 10 9 11
REMARK H PARENT
REMARK Flexibility Score: inf
ROOT
ATOM      1  C   UNL     1      45.632  59.347  23.241  1.00  0.00     0.008 C 
ATOM      2  C   UNL     1      45.558  58.430  24.467  1.00  0.00    -0.006 C 
ATOM      3  C   UNL     1      45.265  59.246  25.737  1.00  0.00     0.008 C 
ATOM      4  C   UNL     1      45.287  58.358  26.987  1.00  0.00     0.039 C 
ATOM      5  C   UNL     1      44.384  57.139  26.854  1.00  0.00    -0.006 C 
ATOM      6  C   UNL     1      43.756  56.599  27.940  1.00  0.00    -0.070 C 
ATOM      7  C   UNL     1      43.945  57.180  29.324  1.00  0.00     0.039 C 
ATOM      8  C   UNL     1      42.813  55.426  27.812  1.00  0.00     0.039 C 
ATOM      9  C   UNL     1      44.326  56.511  25.501  1.00  0.00     0.159 C 
ATOM     10  O   UNL     1      44.158  55.270  25.362  1.00  0.00    -0.295 OA
ATOM     11  C   UNL     1      44.475  57.358  24.271  1.00  0.00     0.084 C 
ENDROOT
TORSDOF 0
ENDMDL
MODEL 8
REMARK VINA RESULT:    -4.178      2.730      3.867
REMARK INTER + INTRA:          -4.178
REMARK INTER:                  -4.178
REMARK INTRA:                   0.000
REMARK UNBOUND:                 0.000
REMARK SMILES CC(C)=C1CC[C@H](C)CC1=O
REMARK SMILES IDX 8 1 7 2 6 3 5 4 4 5 2 6 1 7 3 8 10 9 11 10 9 11
REMARK H PARENT
REMARK Flexibility Score: inf
ROOT
ATOM      1  C   UNL     1      48.899  55.427  25.506  1.00  0.00     0.008 C 
ATOM      2  C   UNL     1      47.516  56.001  25.838  1.00  0.00    -0.006 C 
ATOM      3  C   UNL     1      46.487  54.871  26.004  1.00  0.00     0.008 C 
ATOM      4  C   UNL     1      45.078  55.431  26.236  1.00  0.00     0.039 C 
ATOM      5  C   UNL     1      45.030  56.438  27.377  1.00  0.00    -0.006 C 
ATOM      6  C   UNL     1      43.919  56.573  28.159  1.00  0.00    -0.070 C 
ATOM      7  C   UNL     1      42.681  55.739  27.913  1.00  0.00     0.039 C 
ATOM      8  C   UNL     1      43.879  57.528  29.329  1.00  0.00     0.039 C 
ATOM      9  C   UNL     1      46.215  57.337  27.507  1.00  0.00     0.159 C 
ATOM     10  O   UNL     1      46.098  58.517  27.937  1.00  0.00    -0.295 OA
ATOM     11  C   UNL     1      47.579  56.846  27.119  1.00  0.00     0.084 C 
ENDROOT
TORSDOF 0
ENDMDL
