MODEL 1
REMARK VINA RESULT:    -4.271      0.000      0.000
REMARK INTER + INTRA:          -8.661
REMARK INTER:                  -7.516
REMARK INTRA:                  -1.145
REMARK UNBOUND:                -1.145
REMARK SMILES CCCCCCC=CCCCCCCCC(=O)[O-]
REMARK SMILES IDX 10 1 11 2 12 3 13 4 14 5 15 6 16 7 17 8 18 9 9 10 8 11 7 12
REMARK SMILES IDX 6 13 5 14 4 15 3 16 2 17 1 18
REMARK H PARENT
REMARK Flexibility Score: inf
ROOT
ATOM      1  C   UNL     1       0.331  11.730  -2.941  1.00  0.00     0.004 C 
ENDROOT
BRANCH   1   2
ATOM      2  C   UNL     1       1.598  10.904  -3.209  1.00  0.00     0.000 C 
BRANCH   2   3
ATOM      3  C   UNL     1       1.931   9.942  -2.058  1.00  0.00     0.000 C 
BRANCH   3   4
ATOM      4  C   UNL     1       0.840   9.918  -0.973  1.00  0.00     0.000 C 
BRANCH   4   5
ATOM      5  C   UNL     1       1.155   8.930   0.165  1.00  0.00     0.006 C 
BRANCH   5   6
ATOM      6  C   UNL     1       2.209   7.871  -0.193  1.00  0.00     0.053 C 
BRANCH   6   7
ATOM      7  C   UNL     1       3.100   7.553   0.968  1.00  0.00     0.041 C 
ATOM      8  O   UNL     1       4.050   8.323   1.269  1.00  0.00    -0.550 OA
ATOM      9  O   UNL     1       2.860   6.423   1.739  1.00  0.00    -0.550 OA
ENDBRANCH   6   7
ENDBRANCH   5   6
ENDBRANCH   4   5
ENDBRANCH   3   4
ENDBRANCH   2   3
ENDBRANCH   1   2
BRANCH   1  10
ATOM     10  C   UNL     1      -0.341  12.147  -4.254  1.00  0.00     0.027 C 
BRANCH  10  11
ATOM     11  C   UNL     1      -1.685  11.482  -4.400  1.00  0.00    -0.031 C 
ATOM     12  C   UNL     1      -2.759  12.048  -4.983  1.00  0.00    -0.031 C 
BRANCH  12  13
ATOM     13  C   UNL     1      -2.756  13.396  -5.663  1.00  0.00     0.027 C 
BRANCH  13  14
ATOM     14  C   UNL     1      -3.206  14.518  -4.716  1.00  0.00     0.004 C 
BRANCH  14  15
ATOM     15  C   UNL     1      -2.096  15.557  -4.483  1.00  0.00     0.000 C 
BRANCH  15  16
ATOM     16  C   UNL     1      -1.835  15.832  -2.991  1.00  0.00    -0.000 C 
BRANCH  16  17
ATOM     17  C   UNL     1      -0.356  15.783  -2.571  1.00  0.00    -0.003 C 
ATOM     18  C   UNL     1      -0.160  15.880  -1.058  1.00  0.00     0.004 C 
ENDBRANCH  16  17
ENDBRANCH  15  16
ENDBRANCH  14  15
ENDBRANCH  13  14
ENDBRANCH  12  13
ENDBRANCH  10  11
ENDBRANCH   1  10
TORSDOF 13
ENDMDL
MODEL 2
REMARK VINA RESULT:    -4.028      3.405      7.623
REMARK INTER + INTRA:          -8.234
REMARK INTER:                  -7.062
REMARK INTRA:                  -1.172
REMARK UNBOUND:                -1.145
REMARK SMILES CCCCCCC=CCCCCCCCC(=O)[O-]
REMARK SMILES IDX 10 1 11 2 12 3 13 4 14 5 15 6 16 7 17 8 18 9 9 10 8 11 7 12
REMARK SMILES IDX 6 13 5 14 4 15 3 16 2 17 1 18
REMARK H PARENT
REMARK Flexibility Score: inf
ROOT
ATOM      1  C   UNL     1      -3.182  11.874  -4.709  1.00  0.00     0.004 C 
ENDROOT
BRANCH   1   2
ATOM      2  C   UNL     1      -2.844  12.910  -5.790  1.00  0.00     0.000 C 
BRANCH   2   3
ATOM      3  C   UNL     1      -3.404  14.304  -5.470  1.00  0.00     0.000 C 
BRANCH   3   4
ATOM      4  C   UNL     1      -2.554  15.436  -6.074  1.00  0.00     0.000 C 
BRANCH   4   5
ATOM      5  C   UNL     1      -1.329  15.786  -5.210  1.00  0.00     0.006 C 
BRANCH   5   6
ATOM      6  C   UNL     1      -1.606  15.798  -3.699  1.00  0.00     0.053 C 
BRANCH   6   7
ATOM      7  C   UNL     1      -0.375  16.121  -2.907  1.00  0.00     0.041 C 
ATOM      8  O   UNL     1      -0.341  15.898  -1.668  1.00  0.00    -0.550 OA
ATOM      9  O   UNL     1       0.745  16.638  -3.544  1.00  0.00    -0.550 OA
ENDBRANCH   6   7
ENDBRANCH   5   6
ENDBRANCH   4   5
ENDBRANCH   3   4
ENDBRANCH   2   3
ENDBRANCH   1   2
BRANCH   1  10
ATOM     10  C   UNL     1      -1.911  11.215  -4.161  1.00  0.00     0.027 C 
BRANCH  10  11
ATOM     11  C   UNL     1      -0.727  12.135  -4.312  1.00  0.00    -0.031 C 
ATOM     12  C   UNL     1       0.396  12.062  -3.574  1.00  0.00    -0.031 C 
BRANCH  12  13
ATOM     13  C   UNL     1       0.682  10.993  -2.547  1.00  0.00     0.027 C 
BRANCH  13  14
ATOM     14  C   UNL     1       1.988  10.242  -2.849  1.00  0.00     0.004 C 
BRANCH  14  15
ATOM     15  C   UNL     1       2.559   9.552  -1.599  1.00  0.00     0.000 C 
BRANCH  15  16
ATOM     16  C   UNL     1       1.469   9.129  -0.597  1.00  0.00    -0.000 C 
BRANCH  16  17
ATOM     17  C   UNL     1       1.492   7.642  -0.203  1.00  0.00    -0.003 C 
ATOM     18  C   UNL     1       2.343   7.365   1.037  1.00  0.00     0.004 C 
ENDBRANCH  16  17
ENDBRANCH  15  16
ENDBRANCH  14  15
ENDBRANCH  13  14
ENDBRANCH  12  13
ENDBRANCH  10  11
ENDBRANCH   1  10
TORSDOF 13
ENDMDL
MODEL 3
REMARK VINA RESULT:    -3.876      3.428      7.408
REMARK INTER + INTRA:          -7.967
REMARK INTER:                  -6.767
REMARK INTRA:                  -1.201
REMARK UNBOUND:                -1.145
REMARK SMILES CCCCCCC=CCCCCCCCC(=O)[O-]
REMARK SMILES IDX 10 1 11 2 12 3 13 4 14 5 15 6 16 7 17 8 18 9 9 10 8 11 7 12
REMARK SMILES IDX 6 13 5 14 4 15 3 16 2 17 1 18
REMARK H PARENT
REMARK Flexibility Score: inf
ROOT
ATOM      1  C   UNL     1      -3.227  14.408  -5.416  1.00  0.00     0.004 C 
ENDROOT
BRANCH   1   2
ATOM      2  C   UNL     1      -2.991  15.867  -5.835  1.00  0.00     0.000 C 
BRANCH   2   3
ATOM      3  C   UNL     1      -1.499  16.217  -5.944  1.00  0.00     0.000 C 
BRANCH   3   4
ATOM      4  C   UNL     1      -1.153  17.549  -5.256  1.00  0.00     0.000 C 
BRANCH   4   5
ATOM      5  C   UNL     1      -0.083  17.391  -4.160  1.00  0.00     0.006 C 
BRANCH   5   6
ATOM      6  C   UNL     1      -0.032  15.992  -3.525  1.00  0.00     0.053 C 
BRANCH   6   7
ATOM      7  C   UNL     1      -0.833  15.923  -2.261  1.00  0.00     0.041 C 
ATOM      8  O   UNL     1      -2.092  15.896  -2.308  1.00  0.00    -0.550 OA
ATOM      9  O   UNL     1      -0.190  15.855  -1.032  1.00  0.00    -0.550 OA
ENDBRANCH   6   7
ENDBRANCH   5   6
ENDBRANCH   4   5
ENDBRANCH   3   4
ENDBRANCH   2   3
ENDBRANCH   1   2
BRANCH   1  10
ATOM     10  C   UNL     1      -1.914  13.619  -5.410  1.00  0.00     0.027 C 
BRANCH  10  11
ATOM     11  C   UNL     1      -2.102  12.277  -4.751  1.00  0.00    -0.031 C 
ATOM     12  C   UNL     1      -1.143  11.616  -4.074  1.00  0.00    -0.031 C 
BRANCH  12  13
ATOM     13  C   UNL     1       0.238  12.158  -3.792  1.00  0.00     0.027 C 
BRANCH  13  14
ATOM     14  C   UNL     1       1.158  11.093  -3.178  1.00  0.00     0.004 C 
BRANCH  14  15
ATOM     15  C   UNL     1       0.775  10.768  -1.724  1.00  0.00     0.000 C 
BRANCH  15  16
ATOM     16  C   UNL     1       1.642   9.654  -1.110  1.00  0.00    -0.000 C 
BRANCH  16  17
ATOM     17  C   UNL     1       0.962   8.844   0.007  1.00  0.00    -0.003 C 
ATOM     18  C   UNL     1       1.894   7.820   0.655  1.00  0.00     0.004 C 
ENDBRANCH  16  17
ENDBRANCH  15  16
ENDBRANCH  14  15
ENDBRANCH  13  14
ENDBRANCH  12  13
ENDBRANCH  10  11
ENDBRANCH   1  10
TORSDOF 13
ENDMDL
MODEL 4
REMARK VINA RESULT:    -3.868      3.935      8.393
REMARK INTER + INTRA:          -7.952
REMARK INTER:                  -6.863
REMARK INTRA:                  -1.089
REMARK UNBOUND:                -1.145
REMARK SMILES CCCCCCC=CCCCCCCCC(=O)[O-]
REMARK SMILES IDX 10 1 11 2 12 3 13 4 14 5 15 6 16 7 17 8 18 9 9 10 8 11 7 12
REMARK SMILES IDX 6 13 5 14 4 15 3 16 2 17 1 18
REMARK H PARENT
REMARK Flexibility Score: inf
ROOT
ATOM      1  C   UNL     1      -0.427  12.337  -3.904  1.00  0.00     0.004 C 
ENDROOT
BRANCH   1   2
ATOM      2  C   UNL     1      -1.514  11.355  -4.367  1.00  0.00     0.000 C 
BRANCH   2   3
ATOM      3  C   UNL     1      -2.885  12.027  -4.535  1.00  0.00     0.000 C 
BRANCH   3   4
ATOM      4  C   UNL     1      -2.975  12.876  -5.815  1.00  0.00     0.000 C 
BRANCH   4   5
ATOM      5  C   UNL     1      -3.239  14.364  -5.524  1.00  0.00     0.006 C 
BRANCH   5   6
ATOM      6  C   UNL     1      -2.020  15.276  -5.740  1.00  0.00     0.053 C 
BRANCH   6   7
ATOM      7  C   UNL     1      -1.550  15.893  -4.459  1.00  0.00     0.041 C 
ATOM      8  O   UNL     1      -2.100  15.588  -3.367  1.00  0.00    -0.550 OA
ATOM      9  O   UNL     1      -0.483  16.782  -4.466  1.00  0.00    -0.550 OA
ENDBRANCH   6   7
ENDBRANCH   5   6
ENDBRANCH   4   5
ENDBRANCH   3   4
ENDBRANCH   2   3
ENDBRANCH   1   2
BRANCH   1  10
ATOM     10  C   UNL     1       0.852  11.593  -3.506  1.00  0.00     0.027 C 
BRANCH  10  11
ATOM     11  C   UNL     1       0.690  10.937  -2.159  1.00  0.00    -0.031 C 
ATOM     12  C   UNL     1       1.521  10.003  -1.658  1.00  0.00    -0.031 C 
BRANCH  12  13
ATOM     13  C   UNL     1       2.792   9.537  -2.327  1.00  0.00     0.027 C 
BRANCH  13  14
ATOM     14  C   UNL     1       3.918   9.292  -1.310  1.00  0.00     0.004 C 
BRANCH  14  15
ATOM     15  C   UNL     1       3.903   7.852  -0.769  1.00  0.00     0.000 C 
BRANCH  15  16
ATOM     16  C   UNL     1       3.955   7.790   0.769  1.00  0.00    -0.000 C 
BRANCH  16  17
ATOM     17  C   UNL     1       2.866   6.919   1.419  1.00  0.00    -0.003 C 
ATOM     18  C   UNL     1       1.454   7.285   0.961  1.00  0.00     0.004 C 
ENDBRANCH  16  17
ENDBRANCH  15  16
ENDBRANCH  14  15
ENDBRANCH  13  14
ENDBRANCH  12  13
ENDBRANCH  10  11
ENDBRANCH   1  10
TORSDOF 13
ENDMDL
MODEL 5
REMARK VINA RESULT:    -3.783      1.107      2.212
REMARK INTER + INTRA:          -7.804
REMARK INTER:                  -6.619
REMARK INTRA:                  -1.185
REMARK UNBOUND:                -1.145
REMARK SMILES CCCCCCC=CCCCCCCCC(=O)[O-]
REMARK SMILES IDX 10 1 11 2 12 3 13 4 14 5 15 6 16 7 17 8 18 9 9 10 8 11 7 12
REMARK SMILES IDX 6 13 5 14 4 15 3 16 2 17 1 18
REMARK H PARENT
REMARK Flexibility Score: inf
ROOT
ATOM      1  C   UNL     1      -1.519  11.409  -4.433  1.00  0.00     0.004 C 
ENDROOT
BRANCH   1   2
ATOM      2  C   UNL     1      -0.229  12.042  -3.890  1.00  0.00     0.000 C 
BRANCH   2   3
ATOM      3  C   UNL     1       0.377  11.243  -2.726  1.00  0.00     0.000 C 
BRANCH   3   4
ATOM      4  C   UNL     1       1.759  10.660  -3.068  1.00  0.00     0.000 C 
BRANCH   4   5
ATOM      5  C   UNL     1       2.266   9.671  -2.002  1.00  0.00     0.006 C 
BRANCH   5   6
ATOM      6  C   UNL     1       1.358   9.554  -0.767  1.00  0.00     0.053 C 
BRANCH   6   7
ATOM      7  C   UNL     1       1.939   8.641   0.269  1.00  0.00     0.041 C 
ATOM      8  O   UNL     1       1.232   7.736   0.786  1.00  0.00    -0.550 OA
ATOM      9  O   UNL     1       3.271   8.770   0.641  1.00  0.00    -0.550 OA
ENDBRANCH   6   7
ENDBRANCH   5   6
ENDBRANCH   4   5
ENDBRANCH   3   4
ENDBRANCH   2   3
ENDBRANCH   1   2
BRANCH   1  10
ATOM     10  C   UNL     1      -2.683  12.404  -4.382  1.00  0.00     0.027 C 
BRANCH  10  11
ATOM     11  C   UNL     1      -3.020  12.902  -5.763  1.00  0.00    -0.031 C 
ATOM     12  C   UNL     1      -3.040  14.199  -6.124  1.00  0.00    -0.031 C 
BRANCH  12  13
ATOM     13  C   UNL     1      -2.638  15.347  -5.229  1.00  0.00     0.027 C 
BRANCH  13  14
ATOM     14  C   UNL     1      -1.670  16.311  -5.931  1.00  0.00     0.004 C 
BRANCH  14  15
ATOM     15  C   UNL     1      -0.270  16.288  -5.295  1.00  0.00     0.000 C 
BRANCH  15  16
ATOM     16  C   UNL     1      -0.217  15.468  -3.993  1.00  0.00    -0.000 C 
BRANCH  16  17
ATOM     17  C   UNL     1      -0.061  16.301  -2.709  1.00  0.00    -0.003 C 
ATOM     18  C   UNL     1      -1.061  15.913  -1.619  1.00  0.00     0.004 C 
ENDBRANCH  16  17
ENDBRANCH  15  16
ENDBRANCH  14  15
ENDBRANCH  13  14
ENDBRANCH  12  13
ENDBRANCH  10  11
ENDBRANCH   1  10
TORSDOF 13
ENDMDL
MODEL 6
REMARK VINA RESULT:    -3.569      4.099      7.744
REMARK INTER + INTRA:          -7.426
REMARK INTER:                  -6.463
REMARK INTRA:                  -0.963
REMARK UNBOUND:                -1.145
REMARK SMILES CCCCCCC=CCCCCCCCC(=O)[O-]
REMARK SMILES IDX 10 1 11 2 12 3 13 4 14 5 15 6 16 7 17 8 18 9 9 10 8 11 7 12
REMARK SMILES IDX 6 13 5 14 4 15 3 16 2 17 1 18
REMARK H PARENT
REMARK Flexibility Score: inf
ROOT
ATOM      1  C   UNL     1      -2.872  13.799  -6.021  1.00  0.00     0.004 C 
ENDROOT
BRANCH   1   2
ATOM      2  C   UNL     1      -2.845  15.330  -5.913  1.00  0.00     0.000 C 
BRANCH   2   3
ATOM      3  C   UNL     1      -1.425  15.885  -5.719  1.00  0.00     0.000 C 
BRANCH   3   4
ATOM      4  C   UNL     1      -0.982  15.874  -4.246  1.00  0.00     0.000 C 
BRANCH   4   5
ATOM      5  C   UNL     1      -0.236  17.158  -3.840  1.00  0.00     0.006 C 
BRANCH   5   6
ATOM      6  C   UNL     1       0.446  17.888  -5.009  1.00  0.00     0.053 C 
BRANCH   6   7
ATOM      7  C   UNL     1       1.936  17.737  -4.969  1.00  0.00     0.041 C 
ATOM      8  O   UNL     1       2.458  16.591  -4.972  1.00  0.00    -0.550 OA
ATOM      9  O   UNL     1       2.748  18.863  -4.961  1.00  0.00    -0.550 OA
ENDBRANCH   6   7
ENDBRANCH   5   6
ENDBRANCH   4   5
ENDBRANCH   3   4
ENDBRANCH   2   3
ENDBRANCH   1   2
BRANCH   1  10
ATOM     10  C   UNL     1      -3.200  13.158  -4.668  1.00  0.00     0.027 C 
BRANCH  10  11
ATOM     11  C   UNL     1      -2.733  11.725  -4.630  1.00  0.00    -0.031 C 
ATOM     12  C   UNL     1      -1.475  11.339  -4.346  1.00  0.00    -0.031 C 
BRANCH  12  13
ATOM     13  C   UNL     1      -0.362  12.271  -3.931  1.00  0.00     0.027 C 
BRANCH  13  14
ATOM     14  C   UNL     1       0.916  11.508  -3.554  1.00  0.00     0.004 C 
BRANCH  14  15
ATOM     15  C   UNL     1       0.795  10.823  -2.182  1.00  0.00     0.000 C 
BRANCH  15  16
ATOM     16  C   UNL     1       1.977   9.884  -1.874  1.00  0.00    -0.000 C 
BRANCH  16  17
ATOM     17  C   UNL     1       1.892   9.157  -0.521  1.00  0.00    -0.003 C 
ATOM     18  C   UNL     1       0.494   9.206   0.097  1.00  0.00     0.004 C 
ENDBRANCH  16  17
ENDBRANCH  15  16
ENDBRANCH  14  15
ENDBRANCH  13  14
ENDBRANCH  12  13
ENDBRANCH  10  11
ENDBRANCH   1  10
TORSDOF 13
ENDMDL
MODEL 7
REMARK VINA RESULT:    -3.447      3.465      7.850
REMARK INTER + INTRA:          -7.211
REMARK INTER:                  -6.154
REMARK INTRA:                  -1.058
REMARK UNBOUND:                -1.145
REMARK SMILES CCCCCCC=CCCCCCCCC(=O)[O-]
REMARK SMILES IDX 10 1 11 2 12 3 13 4 14 5 15 6 16 7 17 8 18 9 9 10 8 11 7 12
REMARK SMILES IDX 6 13 5 14 4 15 3 16 2 17 1 18
REMARK H PARENT
REMARK Flexibility Score: inf
ROOT
ATOM      1  C   UNL     1       0.077  11.580  -3.397  1.00  0.00     0.004 C 
ENDROOT
BRANCH   1   2
ATOM      2  C   UNL     1       0.444  12.881  -4.126  1.00  0.00     0.000 C 
BRANCH   2   3
ATOM      3  C   UNL     1      -0.791  13.706  -4.522  1.00  0.00     0.000 C 
BRANCH   3   4
ATOM      4  C   UNL     1      -0.420  15.056  -5.160  1.00  0.00     0.000 C 
BRANCH   4   5
ATOM      5  C   UNL     1      -0.895  16.259  -4.323  1.00  0.00     0.006 C 
BRANCH   5   6
ATOM      6  C   UNL     1      -0.048  16.528  -3.069  1.00  0.00     0.053 C 
BRANCH   6   7
ATOM      7  C   UNL     1      -0.720  16.035  -1.824  1.00  0.00     0.041 C 
ATOM      8  O   UNL     1      -0.041  15.783  -0.794  1.00  0.00    -0.550 OA
ATOM      9  O   UNL     1      -2.100  15.883  -1.792  1.00  0.00    -0.550 OA
ENDBRANCH   6   7
ENDBRANCH   5   6
ENDBRANCH   4   5
ENDBRANCH   3   4
ENDBRANCH   2   3
ENDBRANCH   1   2
BRANCH   1  10
ATOM     10  C   UNL     1       1.291  10.999  -2.665  1.00  0.00     0.027 C 
BRANCH  10  11
ATOM     11  C   UNL     1       2.356  10.583  -3.647  1.00  0.00    -0.031 C 
ATOM     12  C   UNL     1       3.533  10.024  -3.306  1.00  0.00    -0.031 C 
BRANCH  12  13
ATOM     13  C   UNL     1       3.929   9.643  -1.900  1.00  0.00     0.027 C 
BRANCH  13  14
ATOM     14  C   UNL     1       3.789   8.133  -1.654  1.00  0.00     0.004 C 
BRANCH  14  15
ATOM     15  C   UNL     1       3.937   7.775  -0.165  1.00  0.00     0.000 C 
BRANCH  15  16
ATOM     16  C   UNL     1       2.720   8.200   0.677  1.00  0.00    -0.000 C 
BRANCH  16  17
ATOM     17  C   UNL     1       1.363   8.070  -0.034  1.00  0.00    -0.003 C 
ATOM     18  C   UNL     1       0.422   9.240   0.253  1.00  0.00     0.004 C 
ENDBRANCH  16  17
ENDBRANCH  15  16
ENDBRANCH  14  15
ENDBRANCH  13  14
ENDBRANCH  12  13
ENDBRANCH  10  11
ENDBRANCH   1  10
TORSDOF 13
ENDMDL
MODEL 8
REMARK VINA RESULT:    -3.380      4.756      8.791
REMARK INTER + INTRA:          -7.094
REMARK INTER:                  -6.087
REMARK INTRA:                  -1.008
REMARK UNBOUND:                -1.145
REMARK SMILES CCCCCCC=CCCCCCCCC(=O)[O-]
REMARK SMILES IDX 10 1 11 2 12 3 13 4 14 5 15 6 16 7 17 8 18 9 9 10 8 11 7 12
REMARK SMILES IDX 6 13 5 14 4 15 3 16 2 17 1 18
REMARK H PARENT
REMARK Flexibility Score: inf
ROOT
ATOM      1  C   UNL     1       0.117  11.834  -3.354  1.00  0.00     0.004 C 
ENDROOT
BRANCH   1   2
ATOM      2  C   UNL     1       0.792  12.908  -4.220  1.00  0.00     0.000 C 
BRANCH   2   3
ATOM      3  C   UNL     1      -0.192  13.985  -4.702  1.00  0.00     0.000 C 
BRANCH   3   4
ATOM      4  C   UNL     1      -0.459  15.061  -3.636  1.00  0.00     0.000 C 
BRANCH   4   5
ATOM      5  C   UNL     1      -1.872  15.665  -3.741  1.00  0.00     0.006 C 
BRANCH   5   6
ATOM      6  C   UNL     1      -2.244  16.156  -5.149  1.00  0.00     0.053 C 
BRANCH   6   7
ATOM      7  C   UNL     1      -2.061  17.636  -5.292  1.00  0.00     0.041 C 
ATOM      8  O   UNL     1      -3.053  18.379  -5.517  1.00  0.00    -0.550 OA
ATOM      9  O   UNL     1      -0.800  18.198  -5.144  1.00  0.00    -0.550 OA
ENDBRANCH   6   7
ENDBRANCH   5   6
ENDBRANCH   4   5
ENDBRANCH   3   4
ENDBRANCH   2   3
ENDBRANCH   1   2
BRANCH   1  10
ATOM     10  C   UNL     1       1.159  10.987  -2.617  1.00  0.00     0.027 C 
BRANCH  10  11
ATOM     11  C   UNL     1       2.231  10.517  -3.566  1.00  0.00    -0.031 C 
ATOM     12  C   UNL     1       3.352   9.870  -3.193  1.00  0.00    -0.031 C 
BRANCH  12  13
ATOM     13  C   UNL     1       3.663   9.434  -1.781  1.00  0.00     0.027 C 
BRANCH  13  14
ATOM     14  C   UNL     1       3.903   7.919  -1.689  1.00  0.00     0.004 C 
BRANCH  14  15
ATOM     15  C   UNL     1       3.695   7.388  -0.260  1.00  0.00     0.000 C 
BRANCH  15  16
ATOM     16  C   UNL     1       2.791   8.298   0.591  1.00  0.00    -0.000 C 
BRANCH  16  17
ATOM     17  C   UNL     1       1.296   7.933   0.565  1.00  0.00    -0.003 C 
ATOM     18  C   UNL     1       0.393   9.132   0.272  1.00  0.00     0.004 C 
ENDBRANCH  16  17
ENDBRANCH  15  16
ENDBRANCH  14  15
ENDBRANCH  13  14
ENDBRANCH  12  13
ENDBRANCH  10  11
ENDBRANCH   1  10
TORSDOF 13
ENDMDL
MODEL 9
REMARK VINA RESULT:    -3.336     13.216     16.451
REMARK INTER + INTRA:          -7.016
REMARK INTER:                  -5.104
REMARK INTRA:                  -1.912
REMARK UNBOUND:                -1.145
REMARK SMILES CCCCCCC=CCCCCCCCC(=O)[O-]
REMARK SMILES IDX 10 1 11 2 12 3 13 4 14 5 15 6 16 7 17 8 18 9 9 10 8 11 7 12
REMARK SMILES IDX 6 13 5 14 4 15 3 16 2 17 1 18
REMARK H PARENT
REMARK Flexibility Score: inf
ROOT
ATOM      1  C   UNL     1     -10.255  23.109  -2.597  1.00  0.00     0.004 C 
ENDROOT
BRANCH   1   2
ATOM      2  C   UNL     1      -8.927  23.804  -2.931  1.00  0.00     0.000 C 
BRANCH   2   3
ATOM      3  C   UNL     1      -8.722  23.993  -4.442  1.00  0.00     0.000 C 
BRANCH   3   4
ATOM      4  C   UNL     1      -9.964  23.600  -5.260  1.00  0.00     0.000 C 
BRANCH   4   5
ATOM      5  C   UNL     1      -9.734  22.346  -6.124  1.00  0.00     0.006 C 
BRANCH   5   6
ATOM      6  C   UNL     1      -8.307  21.780  -6.046  1.00  0.00     0.053 C 
BRANCH   6   7
ATOM      7  C   UNL     1      -8.263  20.470  -5.320  1.00  0.00     0.041 C 
ATOM      8  O   UNL     1      -8.854  20.337  -4.216  1.00  0.00    -0.550 OA
ATOM      9  O   UNL     1      -7.598  19.387  -5.878  1.00  0.00    -0.550 OA
ENDBRANCH   6   7
ENDBRANCH   5   6
ENDBRANCH   4   5
ENDBRANCH   3   4
ENDBRANCH   2   3
ENDBRANCH   1   2
BRANCH   1  10
ATOM     10  C   UNL     1     -11.155  24.021  -1.756  1.00  0.00     0.027 C 
BRANCH  10  11
ATOM     11  C   UNL     1     -12.344  23.257  -1.230  1.00  0.00    -0.031 C 
ATOM     12  C   UNL     1     -13.563  23.254  -1.801  1.00  0.00    -0.031 C 
BRANCH  12  13
ATOM     13  C   UNL     1     -13.904  23.937  -3.103  1.00  0.00     0.027 C 
BRANCH  13  14
ATOM     14  C   UNL     1     -15.106  23.280  -3.799  1.00  0.00     0.004 C 
BRANCH  14  15
ATOM     15  C   UNL     1     -14.767  22.827  -5.230  1.00  0.00     0.000 C 
BRANCH  15  16
ATOM     16  C   UNL     1     -14.495  21.315  -5.330  1.00  0.00    -0.000 C 
BRANCH  16  17
ATOM     17  C   UNL     1     -13.014  20.933  -5.501  1.00  0.00    -0.003 C 
ATOM     18  C   UNL     1     -12.312  20.652  -4.172  1.00  0.00     0.004 C 
ENDBRANCH  16  17
ENDBRANCH  15  16
ENDBRANCH  14  15
ENDBRANCH  13  14
ENDBRANCH  12  13
ENDBRANCH  10  11
ENDBRANCH   1  10
TORSDOF 13
ENDMDL
