MODEL 1
REMARK VINA RESULT:    -6.082      0.000      0.000
REMARK INTER + INTRA:          -7.527
REMARK INTER:                  -7.326
REMARK INTRA:                  -0.201
REMARK UNBOUND:                -0.201
REMARK SMILES Oc1cc(O)c2cc(O)c(-c3ccc(O)c(O)c3)[o+]c2c1
REMARK SMILES IDX 10 1 19 2 20 3 21 4 2 5 3 6 4 7 6 8 7 9 8 10 11 11 12 12
REMARK SMILES IDX 13 13 14 14 18 15 16 16 15 17 17 19 9 21 1 23 5 25
REMARK H PARENT 15 18 17 20 9 22 1 24 5 26
REMARK Flexibility Score: inf
ROOT
ATOM      1  C   UNL     1      55.937 -40.698 -25.894  1.00  0.00     0.402 A 
ATOM      2  O   UNL     1      55.881 -39.992 -27.020  1.00  0.00    -0.202 OA
ATOM      3  C   UNL     1      56.101 -40.515 -28.223  1.00  0.00     0.368 A 
ATOM      4  C   UNL     1      56.023 -39.690 -29.348  1.00  0.00     0.162 A 
ATOM      5  C   UNL     1      56.254 -40.214 -30.623  1.00  0.00     0.128 A 
ATOM      6  C   UNL     1      56.564 -41.568 -30.774  1.00  0.00     0.093 A 
ATOM      7  C   UNL     1      56.648 -42.415 -29.662  1.00  0.00     0.136 A 
ATOM      8  C   UNL     1      56.413 -41.889 -28.364  1.00  0.00     0.125 A 
ATOM      9  C   UNL     1      56.463 -42.666 -27.195  1.00  0.00     0.078 A 
ATOM     10  C   UNL     1      56.214 -42.077 -25.952  1.00  0.00     0.223 A 
ENDROOT
BRANCH   1  11
ATOM     11  C   UNL     1      55.681 -39.998 -24.615  1.00  0.00     0.087 A 
ATOM     12  C   UNL     1      56.545 -38.998 -24.143  1.00  0.00     0.022 A 
ATOM     13  C   UNL     1      56.270 -38.336 -22.944  1.00  0.00     0.051 A 
ATOM     14  C   UNL     1      55.126 -38.646 -22.202  1.00  0.00     0.157 A 
ATOM     15  C   UNL     1      54.521 -40.297 -23.884  1.00  0.00     0.068 A 
ATOM     16  C   UNL     1      54.237 -39.638 -22.681  1.00  0.00     0.158 A 
BRANCH  14  17
ATOM     17  O   UNL     1      54.911 -37.951 -21.010  1.00  0.00    -0.504 OA
ATOM     18  H   UNL     1      55.580 -37.901 -20.258  1.00  0.00     0.293 HD
ENDBRANCH  14  17
BRANCH  16  19
ATOM     19  O   UNL     1      53.071 -39.996 -22.001  1.00  0.00    -0.504 OA
ATOM     20  H   UNL     1      52.200 -40.228 -22.456  1.00  0.00     0.293 HD
ENDBRANCH  16  19
ENDBRANCH   1  11
BRANCH  10  21
ATOM     21  O   UNL     1      56.215 -42.857 -24.796  1.00  0.00    -0.500 OA
ATOM     22  H   UNL     1      57.069 -43.250 -24.418  1.00  0.00     0.294 HD
ENDBRANCH  10  21
BRANCH   5  23
ATOM     23  O   UNL     1      56.177 -39.399 -31.749  1.00  0.00    -0.507 OA
ATOM     24  H   UNL     1      57.000 -39.166 -32.292  1.00  0.00     0.293 HD
ENDBRANCH   5  23
BRANCH   7  25
ATOM     25  O   UNL     1      56.967 -43.755 -29.896  1.00  0.00    -0.507 OA
ATOM     26  H   UNL     1      56.534 -44.536 -29.424  1.00  0.00     0.293 HD
ENDBRANCH   7  25
TORSDOF 6
ENDMDL
MODEL 2
REMARK VINA RESULT:    -5.863     13.175     15.166
REMARK INTER + INTRA:          -7.264
REMARK INTER:                  -6.911
REMARK INTRA:                  -0.353
REMARK UNBOUND:                -0.201
REMARK SMILES Oc1cc(O)c2cc(O)c(-c3ccc(O)c(O)c3)[o+]c2c1
REMARK SMILES IDX 10 1 19 2 20 3 21 4 2 5 3 6 4 7 6 8 7 9 8 10 11 11 12 12
REMARK SMILES IDX 13 13 14 14 18 15 16 16 15 17 17 19 9 21 1 23 5 25
REMARK H PARENT 15 18 17 20 9 22 1 24 5 26
REMARK Flexibility Score: inf
ROOT
ATOM      1  C   UNL     1      52.052 -27.973 -31.029  1.00  0.00     0.402 A 
ATOM      2  O   UNL     1      51.448 -27.163 -30.165  1.00  0.00    -0.202 OA
ATOM      3  C   UNL     1      50.199 -26.733 -30.316  1.00  0.00     0.368 A 
ATOM      4  C   UNL     1      49.652 -25.880 -29.354  1.00  0.00     0.162 A 
ATOM      5  C   UNL     1      48.343 -25.410 -29.491  1.00  0.00     0.128 A 
ATOM      6  C   UNL     1      47.577 -25.796 -30.595  1.00  0.00     0.093 A 
ATOM      7  C   UNL     1      48.103 -26.650 -31.572  1.00  0.00     0.136 A 
ATOM      8  C   UNL     1      49.431 -27.131 -31.437  1.00  0.00     0.125 A 
ATOM      9  C   UNL     1      50.035 -28.001 -32.360  1.00  0.00     0.078 A 
ATOM     10  C   UNL     1      51.348 -28.436 -32.156  1.00  0.00     0.223 A 
ENDROOT
BRANCH   1  11
ATOM     11  C   UNL     1      53.451 -28.374 -30.754  1.00  0.00     0.087 A 
ATOM     12  C   UNL     1      54.535 -27.620 -31.228  1.00  0.00     0.022 A 
ATOM     13  C   UNL     1      55.845 -28.005 -30.936  1.00  0.00     0.051 A 
ATOM     14  C   UNL     1      56.100 -29.138 -30.158  1.00  0.00     0.157 A 
ATOM     15  C   UNL     1      53.702 -29.500 -29.955  1.00  0.00     0.068 A 
ATOM     16  C   UNL     1      55.013 -29.894 -29.657  1.00  0.00     0.158 A 
BRANCH  14  17
ATOM     17  O   UNL     1      57.432 -29.473 -29.905  1.00  0.00    -0.504 OA
ATOM     18  H   UNL     1      58.221 -28.988 -30.305  1.00  0.00     0.293 HD
ENDBRANCH  14  17
BRANCH  16  19
ATOM     19  O   UNL     1      55.187 -31.032 -28.865  1.00  0.00    -0.504 OA
ATOM     20  H   UNL     1      54.850 -31.950 -29.114  1.00  0.00     0.293 HD
ENDBRANCH  16  19
ENDBRANCH   1  11
BRANCH  10  21
ATOM     21  O   UNL     1      51.931 -29.339 -33.046  1.00  0.00    -0.500 OA
ATOM     22  H   UNL     1      51.838 -30.341 -32.926  1.00  0.00     0.294 HD
ENDBRANCH  10  21
BRANCH   5  23
ATOM     23  O   UNL     1      47.791 -24.560 -28.537  1.00  0.00    -0.507 OA
ATOM     24  H   UNL     1      46.965 -24.007 -28.734  1.00  0.00     0.293 HD
ENDBRANCH   5  23
BRANCH   7  25
ATOM     25  O   UNL     1      47.274 -26.986 -32.646  1.00  0.00    -0.507 OA
ATOM     26  H   UNL     1      47.606 -27.253 -33.562  1.00  0.00     0.293 HD
ENDBRANCH   7  25
TORSDOF 6
ENDMDL
MODEL 3
REMARK VINA RESULT:    -5.803     13.112     15.182
REMARK INTER + INTRA:          -7.191
REMARK INTER:                  -7.335
REMARK INTRA:                   0.144
REMARK UNBOUND:                -0.201
REMARK SMILES Oc1cc(O)c2cc(O)c(-c3ccc(O)c(O)c3)[o+]c2c1
REMARK SMILES IDX 10 1 19 2 20 3 21 4 2 5 3 6 4 7 6 8 7 9 8 10 11 11 12 12
REMARK SMILES IDX 13 13 14 14 18 15 16 16 15 17 17 19 9 21 1 23 5 25
REMARK H PARENT 15 18 17 20 9 22 1 24 5 26
REMARK Flexibility Score: inf
ROOT
ATOM      1  C   UNL     1      50.115 -28.516 -31.334  1.00  0.00     0.402 A 
ATOM      2  O   UNL     1      49.371 -28.951 -30.321  1.00  0.00    -0.202 OA
ATOM      3  C   UNL     1      48.042 -28.955 -30.338  1.00  0.00     0.368 A 
ATOM      4  C   UNL     1      47.348 -29.430 -29.223  1.00  0.00     0.162 A 
ATOM      5  C   UNL     1      45.950 -29.440 -29.213  1.00  0.00     0.128 A 
ATOM      6  C   UNL     1      45.244 -28.973 -30.324  1.00  0.00     0.093 A 
ATOM      7  C   UNL     1      45.916 -28.492 -31.454  1.00  0.00     0.136 A 
ATOM      8  C   UNL     1      47.335 -28.481 -31.470  1.00  0.00     0.125 A 
ATOM      9  C   UNL     1      48.092 -28.029 -32.564  1.00  0.00     0.078 A 
ATOM     10  C   UNL     1      49.488 -28.054 -32.507  1.00  0.00     0.223 A 
ENDROOT
BRANCH   1  11
ATOM     11  C   UNL     1      51.588 -28.555 -31.190  1.00  0.00     0.087 A 
ATOM     12  C   UNL     1      52.407 -27.581 -31.782  1.00  0.00     0.022 A 
ATOM     13  C   UNL     1      53.792 -27.626 -31.613  1.00  0.00     0.051 A 
ATOM     14  C   UNL     1      54.386 -28.631 -30.842  1.00  0.00     0.157 A 
ATOM     15  C   UNL     1      52.178 -29.552 -30.398  1.00  0.00     0.068 A 
ATOM     16  C   UNL     1      53.566 -29.605 -30.223  1.00  0.00     0.158 A 
BRANCH  14  17
ATOM     17  O   UNL     1      55.776 -28.623 -30.715  1.00  0.00    -0.504 OA
ATOM     18  H   UNL     1      56.293 -29.256 -30.123  1.00  0.00     0.293 HD
ENDBRANCH  14  17
BRANCH  16  19
ATOM     19  O   UNL     1      54.085 -30.633 -29.431  1.00  0.00    -0.504 OA
ATOM     20  H   UNL     1      53.530 -31.384 -29.046  1.00  0.00     0.293 HD
ENDBRANCH  16  19
ENDBRANCH   1  11
BRANCH  10  21
ATOM     21  O   UNL     1      50.240 -27.652 -33.611  1.00  0.00    -0.500 OA
ATOM     22  H   UNL     1      51.132 -27.183 -33.506  1.00  0.00     0.294 HD
ENDBRANCH  10  21
BRANCH   5  23
ATOM     23  O   UNL     1      45.252 -29.913 -28.105  1.00  0.00    -0.507 OA
ATOM     24  H   UNL     1      45.722 -30.397 -27.350  1.00  0.00     0.293 HD
ENDBRANCH   5  23
BRANCH   7  25
ATOM     25  O   UNL     1      45.136 -28.040 -32.523  1.00  0.00    -0.507 OA
ATOM     26  H   UNL     1      44.727 -28.639 -33.225  1.00  0.00     0.293 HD
ENDBRANCH   7  25
TORSDOF 6
ENDMDL
MODEL 4
REMARK VINA RESULT:    -5.737     14.829     16.592
REMARK INTER + INTRA:          -7.112
REMARK INTER:                  -7.011
REMARK INTRA:                  -0.100
REMARK UNBOUND:                -0.201
REMARK SMILES Oc1cc(O)c2cc(O)c(-c3ccc(O)c(O)c3)[o+]c2c1
REMARK SMILES IDX 10 1 19 2 20 3 21 4 2 5 3 6 4 7 6 8 7 9 8 10 11 11 12 12
REMARK SMILES IDX 13 13 14 14 18 15 16 16 15 17 17 19 9 21 1 23 5 25
REMARK H PARENT 15 18 17 20 9 22 1 24 5 26
REMARK Flexibility Score: inf
ROOT
ATOM      1  C   UNL     1      47.075 -28.791 -30.486  1.00  0.00     0.402 A 
ATOM      2  O   UNL     1      45.939 -28.434 -31.078  1.00  0.00    -0.202 OA
ATOM      3  C   UNL     1      44.744 -28.870 -30.692  1.00  0.00     0.368 A 
ATOM      4  C   UNL     1      43.607 -28.440 -31.381  1.00  0.00     0.162 A 
ATOM      5  C   UNL     1      42.340 -28.886 -30.998  1.00  0.00     0.128 A 
ATOM      6  C   UNL     1      42.208 -29.766 -29.921  1.00  0.00     0.093 A 
ATOM      7  C   UNL     1      43.332 -30.211 -29.214  1.00  0.00     0.136 A 
ATOM      8  C   UNL     1      44.622 -29.760 -29.598  1.00  0.00     0.125 A 
ATOM      9  C   UNL     1      45.802 -30.143 -28.939  1.00  0.00     0.078 A 
ATOM     10  C   UNL     1      47.036 -29.652 -29.373  1.00  0.00     0.223 A 
ENDROOT
BRANCH   1  11
ATOM     11  C   UNL     1      48.344 -28.244 -31.016  1.00  0.00     0.087 A 
ATOM     12  C   UNL     1      49.229 -27.523 -30.199  1.00  0.00     0.022 A 
ATOM     13  C   UNL     1      50.432 -27.037 -30.716  1.00  0.00     0.051 A 
ATOM     14  C   UNL     1      50.782 -27.270 -32.050  1.00  0.00     0.157 A 
ATOM     15  C   UNL     1      48.703 -28.498 -32.349  1.00  0.00     0.068 A 
ATOM     16  C   UNL     1      49.906 -28.015 -32.876  1.00  0.00     0.158 A 
BRANCH  14  17
ATOM     17  O   UNL     1      51.996 -26.754 -32.507  1.00  0.00    -0.504 OA
ATOM     18  H   UNL     1      52.243 -25.777 -32.471  1.00  0.00     0.293 HD
ENDBRANCH  14  17
BRANCH  16  19
ATOM     19  O   UNL     1      50.192 -28.296 -34.215  1.00  0.00    -0.504 OA
ATOM     20  H   UNL     1      51.092 -28.141 -34.645  1.00  0.00     0.293 HD
ENDBRANCH  16  19
ENDBRANCH   1  11
BRANCH  10  21
ATOM     21  O   UNL     1      48.204 -29.993 -28.689  1.00  0.00    -0.500 OA
ATOM     22  H   UNL     1      48.974 -30.463 -29.150  1.00  0.00     0.294 HD
ENDBRANCH  10  21
BRANCH   5  23
ATOM     23  O   UNL     1      41.202 -28.462 -31.680  1.00  0.00    -0.507 OA
ATOM     24  H   UNL     1      40.303 -28.905 -31.538  1.00  0.00     0.293 HD
ENDBRANCH   5  23
BRANCH   7  25
ATOM     25  O   UNL     1      43.116 -31.093 -28.152  1.00  0.00    -0.507 OA
ATOM     26  H   UNL     1      43.846 -31.605 -27.677  1.00  0.00     0.293 HD
ENDBRANCH   7  25
TORSDOF 6
ENDMDL
MODEL 5
REMARK VINA RESULT:    -5.714     15.716     16.977
REMARK INTER + INTRA:          -7.084
REMARK INTER:                  -6.842
REMARK INTRA:                  -0.243
REMARK UNBOUND:                -0.201
REMARK SMILES Oc1cc(O)c2cc(O)c(-c3ccc(O)c(O)c3)[o+]c2c1
REMARK SMILES IDX 10 1 19 2 20 3 21 4 2 5 3 6 4 7 6 8 7 9 8 10 11 11 12 12
REMARK SMILES IDX 13 13 14 14 18 15 16 16 15 17 17 19 9 21 1 23 5 25
REMARK H PARENT 15 18 17 20 9 22 1 24 5 26
REMARK Flexibility Score: inf
ROOT
ATOM      1  C   UNL     1      45.518 -28.084 -30.309  1.00  0.00     0.402 A 
ATOM      2  O   UNL     1      46.262 -28.420 -31.359  1.00  0.00    -0.202 OA
ATOM      3  C   UNL     1      47.517 -28.014 -31.526  1.00  0.00     0.368 A 
ATOM      4  C   UNL     1      48.217 -28.417 -32.666  1.00  0.00     0.162 A 
ATOM      5  C   UNL     1      49.536 -28.001 -32.867  1.00  0.00     0.128 A 
ATOM      6  C   UNL     1      50.157 -27.177 -31.925  1.00  0.00     0.093 A 
ATOM      7  C   UNL     1      49.477 -26.759 -30.775  1.00  0.00     0.136 A 
ATOM      8  C   UNL     1      48.138 -27.181 -30.564  1.00  0.00     0.125 A 
ATOM      9  C   UNL     1      47.384 -26.821 -29.434  1.00  0.00     0.078 A 
ATOM     10  C   UNL     1      46.071 -27.281 -29.294  1.00  0.00     0.223 A 
ENDROOT
BRANCH   1  11
ATOM     11  C   UNL     1      44.130 -28.594 -30.242  1.00  0.00     0.087 A 
ATOM     12  C   UNL     1      43.138 -28.132 -31.121  1.00  0.00     0.022 A 
ATOM     13  C   UNL     1      41.840 -28.645 -31.054  1.00  0.00     0.051 A 
ATOM     14  C   UNL     1      41.510 -29.634 -30.122  1.00  0.00     0.157 A 
ATOM     15  C   UNL     1      43.807 -29.602 -29.320  1.00  0.00     0.068 A 
ATOM     16  C   UNL     1      42.509 -30.122 -29.245  1.00  0.00     0.158 A 
BRANCH  14  17
ATOM     17  O   UNL     1      40.195 -30.102 -30.102  1.00  0.00    -0.504 OA
ATOM     18  H   UNL     1      39.566 -30.051 -30.890  1.00  0.00     0.293 HD
ENDBRANCH  14  17
BRANCH  16  19
ATOM     19  O   UNL     1      42.258 -31.115 -28.295  1.00  0.00    -0.504 OA
ATOM     20  H   UNL     1      41.546 -31.824 -28.394  1.00  0.00     0.293 HD
ENDBRANCH  16  19
ENDBRANCH   1  11
BRANCH  10  21
ATOM     21  O   UNL     1      45.339 -26.966 -28.149  1.00  0.00    -0.500 OA
ATOM     22  H   UNL     1      44.416 -27.350 -27.984  1.00  0.00     0.294 HD
ENDBRANCH  10  21
BRANCH   5  23
ATOM     23  O   UNL     1      50.240 -28.399 -34.001  1.00  0.00    -0.507 OA
ATOM     24  H   UNL     1      49.780 -28.517 -34.896  1.00  0.00     0.293 HD
ENDBRANCH   5  23
BRANCH   7  25
ATOM     25  O   UNL     1      50.167 -25.934 -29.883  1.00  0.00    -0.507 OA
ATOM     26  H   UNL     1      50.194 -26.069 -28.883  1.00  0.00     0.293 HD
ENDBRANCH   7  25
TORSDOF 6
ENDMDL
MODEL 6
REMARK VINA RESULT:    -5.683     13.466     14.902
REMARK INTER + INTRA:          -7.047
REMARK INTER:                  -6.886
REMARK INTRA:                  -0.161
REMARK UNBOUND:                -0.201
REMARK SMILES Oc1cc(O)c2cc(O)c(-c3ccc(O)c(O)c3)[o+]c2c1
REMARK SMILES IDX 10 1 19 2 20 3 21 4 2 5 3 6 4 7 6 8 7 9 8 10 11 11 12 12
REMARK SMILES IDX 13 13 14 14 18 15 16 16 15 17 17 19 9 21 1 23 5 25
REMARK H PARENT 15 18 17 20 9 22 1 24 5 26
REMARK Flexibility Score: inf
ROOT
ATOM      1  C   UNL     1      51.124 -28.371 -30.924  1.00  0.00     0.402 A 
ATOM      2  O   UNL     1      51.641 -27.961 -29.769  1.00  0.00    -0.202 OA
ATOM      3  C   UNL     1      52.947 -27.833 -29.557  1.00  0.00     0.368 A 
ATOM      4  C   UNL     1      53.394 -27.398 -28.307  1.00  0.00     0.162 A 
ATOM      5  C   UNL     1      54.762 -27.258 -28.057  1.00  0.00     0.128 A 
ATOM      6  C   UNL     1      55.687 -27.556 -29.061  1.00  0.00     0.093 A 
ATOM      7  C   UNL     1      55.264 -27.994 -30.322  1.00  0.00     0.136 A 
ATOM      8  C   UNL     1      53.876 -28.135 -30.582  1.00  0.00     0.125 A 
ATOM      9  C   UNL     1      53.361 -28.555 -31.820  1.00  0.00     0.078 A 
ATOM     10  C   UNL     1      51.980 -28.666 -32.002  1.00  0.00     0.223 A 
ENDROOT
BRANCH   1  11
ATOM     11  C   UNL     1      49.652 -28.482 -31.033  1.00  0.00     0.087 A 
ATOM     12  C   UNL     1      48.922 -29.362 -30.219  1.00  0.00     0.022 A 
ATOM     13  C   UNL     1      47.531 -29.432 -30.323  1.00  0.00     0.051 A 
ATOM     14  C   UNL     1      46.841 -28.620 -31.229  1.00  0.00     0.157 A 
ATOM     15  C   UNL     1      48.960 -27.650 -31.927  1.00  0.00     0.068 A 
ATOM     16  C   UNL     1      47.566 -27.714 -32.039  1.00  0.00     0.158 A 
BRANCH  14  17
ATOM     17  O   UNL     1      45.451 -28.741 -31.289  1.00  0.00    -0.504 OA
ATOM     18  H   UNL     1      44.928 -29.468 -30.826  1.00  0.00     0.293 HD
ENDBRANCH  14  17
BRANCH  16  19
ATOM     19  O   UNL     1      46.946 -26.864 -32.960  1.00  0.00    -0.504 OA
ATOM     20  H   UNL     1      46.005 -26.993 -33.302  1.00  0.00     0.293 HD
ENDBRANCH  16  19
ENDBRANCH   1  11
BRANCH  10  21
ATOM     21  O   UNL     1      51.466 -29.035 -33.246  1.00  0.00    -0.500 OA
ATOM     22  H   UNL     1      51.059 -29.949 -33.404  1.00  0.00     0.294 HD
ENDBRANCH  10  21
BRANCH   5  23
ATOM     23  O   UNL     1      55.215 -26.825 -26.814  1.00  0.00    -0.507 OA
ATOM     24  H   UNL     1      55.361 -25.842 -26.616  1.00  0.00     0.293 HD
ENDBRANCH   5  23
BRANCH   7  25
ATOM     25  O   UNL     1      56.252 -28.274 -31.270  1.00  0.00    -0.507 OA
ATOM     26  H   UNL     1      56.695 -29.174 -31.384  1.00  0.00     0.293 HD
ENDBRANCH   7  25
TORSDOF 6
ENDMDL
MODEL 7
REMARK VINA RESULT:    -5.652      1.931      7.446
REMARK INTER + INTRA:          -7.010
REMARK INTER:                  -6.690
REMARK INTRA:                  -0.320
REMARK UNBOUND:                -0.201
REMARK SMILES Oc1cc(O)c2cc(O)c(-c3ccc(O)c(O)c3)[o+]c2c1
REMARK SMILES IDX 10 1 19 2 20 3 21 4 2 5 3 6 4 7 6 8 7 9 8 10 11 11 12 12
REMARK SMILES IDX 13 13 14 14 18 15 16 16 15 17 17 19 9 21 1 23 5 25
REMARK H PARENT 15 18 17 20 9 22 1 24 5 26
REMARK Flexibility Score: inf
ROOT
ATOM      1  C   UNL     1      55.536 -40.223 -24.179  1.00  0.00     0.402 A 
ATOM      2  O   UNL     1      54.344 -40.205 -23.589  1.00  0.00    -0.202 OA
ATOM      3  C   UNL     1      54.029 -39.374 -22.601  1.00  0.00     0.368 A 
ATOM      4  C   UNL     1      52.749 -39.434 -22.043  1.00  0.00     0.162 A 
ATOM      5  C   UNL     1      52.394 -38.575 -21.000  1.00  0.00     0.128 A 
ATOM      6  C   UNL     1      53.322 -37.651 -20.513  1.00  0.00     0.093 A 
ATOM      7  C   UNL     1      54.610 -37.571 -21.055  1.00  0.00     0.136 A 
ATOM      8  C   UNL     1      54.976 -38.440 -22.116  1.00  0.00     0.125 A 
ATOM      9  C   UNL     1      56.240 -38.422 -22.729  1.00  0.00     0.078 A 
ATOM     10  C   UNL     1      56.525 -39.307 -23.772  1.00  0.00     0.223 A 
ENDROOT
BRANCH   1  11
ATOM     11  C   UNL     1      55.768 -41.204 -25.263  1.00  0.00     0.087 A 
ATOM     12  C   UNL     1      56.052 -42.549 -24.985  1.00  0.00     0.022 A 
ATOM     13  C   UNL     1      56.244 -43.461 -26.025  1.00  0.00     0.051 A 
ATOM     14  C   UNL     1      56.143 -43.053 -27.360  1.00  0.00     0.157 A 
ATOM     15  C   UNL     1      55.645 -40.796 -26.601  1.00  0.00     0.068 A 
ATOM     16  C   UNL     1      55.836 -41.703 -27.651  1.00  0.00     0.158 A 
BRANCH  14  17
ATOM     17  O   UNL     1      56.350 -44.012 -28.354  1.00  0.00    -0.504 OA
ATOM     18  H   UNL     1      56.414 -45.003 -28.177  1.00  0.00     0.293 HD
ENDBRANCH  14  17
BRANCH  16  19
ATOM     19  O   UNL     1      55.709 -41.224 -28.957  1.00  0.00    -0.504 OA
ATOM     20  H   UNL     1      56.249 -41.566 -29.739  1.00  0.00     0.293 HD
ENDBRANCH  16  19
ENDBRANCH   1  11
BRANCH  10  21
ATOM     21  O   UNL     1      57.762 -39.256 -24.415  1.00  0.00    -0.500 OA
ATOM     22  H   UNL     1      57.928 -39.736 -25.291  1.00  0.00     0.294 HD
ENDBRANCH  10  21
BRANCH   5  23
ATOM     23  O   UNL     1      51.121 -38.629 -20.439  1.00  0.00    -0.507 OA
ATOM     24  H   UNL     1      50.407 -37.950 -20.678  1.00  0.00     0.293 HD
ENDBRANCH   5  23
BRANCH   7  25
ATOM     25  O   UNL     1      55.480 -36.623 -20.510  1.00  0.00    -0.507 OA
ATOM     26  H   UNL     1      56.348 -36.332 -20.937  1.00  0.00     0.293 HD
ENDBRANCH   7  25
TORSDOF 6
ENDMDL
MODEL 8
REMARK VINA RESULT:    -5.632     12.678     14.034
REMARK INTER + INTRA:          -6.985
REMARK INTER:                  -6.646
REMARK INTRA:                  -0.339
REMARK UNBOUND:                -0.201
REMARK SMILES Oc1cc(O)c2cc(O)c(-c3ccc(O)c(O)c3)[o+]c2c1
REMARK SMILES IDX 10 1 19 2 20 3 21 4 2 5 3 6 4 7 6 8 7 9 8 10 11 11 12 12
REMARK SMILES IDX 13 13 14 14 18 15 16 16 15 17 17 19 9 21 1 23 5 25
REMARK H PARENT 15 18 17 20 9 22 1 24 5 26
REMARK Flexibility Score: inf
ROOT
ATOM      1  C   UNL     1      47.052 -30.727 -29.277  1.00  0.00     0.402 A 
ATOM      2  O   UNL     1      48.318 -30.412 -29.534  1.00  0.00    -0.202 OA
ATOM      3  C   UNL     1      48.675 -29.450 -30.379  1.00  0.00     0.368 A 
ATOM      4  C   UNL     1      50.033 -29.195 -30.586  1.00  0.00     0.162 A 
ATOM      5  C   UNL     1      50.435 -28.192 -31.473  1.00  0.00     0.128 A 
ATOM      6  C   UNL     1      49.475 -27.441 -32.155  1.00  0.00     0.093 A 
ATOM      7  C   UNL     1      48.108 -27.676 -31.964  1.00  0.00     0.136 A 
ATOM      8  C   UNL     1      47.694 -28.693 -31.064  1.00  0.00     0.125 A 
ATOM      9  C   UNL     1      46.346 -28.990 -30.802  1.00  0.00     0.078 A 
ATOM     10  C   UNL     1      46.016 -30.003 -29.897  1.00  0.00     0.223 A 
ENDROOT
BRANCH   1  11
ATOM     11  C   UNL     1      46.783 -31.826 -28.322  1.00  0.00     0.087 A 
ATOM     12  C   UNL     1      46.532 -31.571 -26.965  1.00  0.00     0.022 A 
ATOM     13  C   UNL     1      46.257 -32.623 -26.088  1.00  0.00     0.051 A 
ATOM     14  C   UNL     1      46.216 -33.943 -26.546  1.00  0.00     0.157 A 
ATOM     15  C   UNL     1      46.721 -33.148 -28.789  1.00  0.00     0.068 A 
ATOM     16  C   UNL     1      46.447 -34.209 -27.917  1.00  0.00     0.158 A 
BRANCH  14  17
ATOM     17  O   UNL     1      45.941 -34.950 -25.618  1.00  0.00    -0.504 OA
ATOM     18  H   UNL     1      46.590 -35.257 -24.910  1.00  0.00     0.293 HD
ENDBRANCH  14  17
BRANCH  16  19
ATOM     19  O   UNL     1      46.412 -35.500 -28.451  1.00  0.00    -0.504 OA
ATOM     20  H   UNL     1      47.045 -35.833 -29.164  1.00  0.00     0.293 HD
ENDBRANCH  16  19
ENDBRANCH   1  11
BRANCH  10  21
ATOM     21  O   UNL     1      44.679 -30.265 -29.598  1.00  0.00    -0.500 OA
ATOM     22  H   UNL     1      44.405 -30.725 -28.738  1.00  0.00     0.294 HD
ENDBRANCH  10  21
BRANCH   5  23
ATOM     23  O   UNL     1      51.787 -27.933 -31.684  1.00  0.00    -0.507 OA
ATOM     24  H   UNL     1      52.399 -28.620 -32.106  1.00  0.00     0.293 HD
ENDBRANCH   5  23
BRANCH   7  25
ATOM     25  O   UNL     1      47.212 -26.884 -32.687  1.00  0.00    -0.507 OA
ATOM     26  H   UNL     1      47.468 -26.301 -33.471  1.00  0.00     0.293 HD
ENDBRANCH   7  25
TORSDOF 6
ENDMDL
MODEL 9
REMARK VINA RESULT:    -5.538     14.218     15.573
REMARK INTER + INTRA:          -6.872
REMARK INTER:                  -6.530
REMARK INTRA:                  -0.342
REMARK UNBOUND:                -0.201
REMARK SMILES Oc1cc(O)c2cc(O)c(-c3ccc(O)c(O)c3)[o+]c2c1
REMARK SMILES IDX 10 1 19 2 20 3 21 4 2 5 3 6 4 7 6 8 7 9 8 10 11 11 12 12
REMARK SMILES IDX 13 13 14 14 18 15 16 16 15 17 17 19 9 21 1 23 5 25
REMARK H PARENT 15 18 17 20 9 22 1 24 5 26
REMARK Flexibility Score: inf
ROOT
ATOM      1  C   UNL     1      46.939 -28.647 -30.451  1.00  0.00     0.402 A 
ATOM      2  O   UNL     1      47.969 -29.070 -29.724  1.00  0.00    -0.202 OA
ATOM      3  C   UNL     1      49.215 -29.124 -30.183  1.00  0.00     0.368 A 
ATOM      4  C   UNL     1      50.231 -29.587 -29.343  1.00  0.00     0.162 A 
ATOM      5  C   UNL     1      51.549 -29.658 -29.803  1.00  0.00     0.128 A 
ATOM      6  C   UNL     1      51.852 -29.264 -31.109  1.00  0.00     0.093 A 
ATOM      7  C   UNL     1      50.852 -28.796 -31.970  1.00  0.00     0.136 A 
ATOM      8  C   UNL     1      49.512 -28.721 -31.508  1.00  0.00     0.125 A 
ATOM      9  C   UNL     1      48.448 -28.253 -32.297  1.00  0.00     0.078 A 
ATOM     10  C   UNL     1      47.155 -28.203 -31.769  1.00  0.00     0.223 A 
ENDROOT
BRANCH   1  11
ATOM     11  C   UNL     1      45.596 -28.642 -29.828  1.00  0.00     0.087 A 
ATOM     12  C   UNL     1      45.079 -27.493 -29.211  1.00  0.00     0.022 A 
ATOM     13  C   UNL     1      43.800 -27.506 -28.651  1.00  0.00     0.051 A 
ATOM     14  C   UNL     1      43.008 -28.657 -28.705  1.00  0.00     0.157 A 
ATOM     15  C   UNL     1      44.795 -29.793 -29.903  1.00  0.00     0.068 A 
ATOM     16  C   UNL     1      43.512 -29.816 -29.344  1.00  0.00     0.158 A 
BRANCH  14  17
ATOM     17  O   UNL     1      41.740 -28.607 -28.122  1.00  0.00    -0.504 OA
ATOM     18  H   UNL     1      41.087 -29.376 -28.126  1.00  0.00     0.293 HD
ENDBRANCH  14  17
BRANCH  16  19
ATOM     19  O   UNL     1      42.777 -30.999 -29.446  1.00  0.00    -0.504 OA
ATOM     20  H   UNL     1      42.200 -31.239 -30.240  1.00  0.00     0.293 HD
ENDBRANCH  16  19
ENDBRANCH   1  11
BRANCH  10  21
ATOM     21  O   UNL     1      46.107 -27.692 -32.535  1.00  0.00    -0.500 OA
ATOM     22  H   UNL     1      46.058 -26.711 -32.784  1.00  0.00     0.294 HD
ENDBRANCH  10  21
BRANCH   5  23
ATOM     23  O   UNL     1      52.566 -30.118 -28.971  1.00  0.00    -0.507 OA
ATOM     24  H   UNL     1      53.368 -30.615 -29.340  1.00  0.00     0.293 HD
ENDBRANCH   5  23
BRANCH   7  25
ATOM     25  O   UNL     1      51.237 -28.425 -33.261  1.00  0.00    -0.507 OA
ATOM     26  H   UNL     1      51.411 -27.474 -33.554  1.00  0.00     0.293 HD
ENDBRANCH   7  25
TORSDOF 6
ENDMDL
