MODEL 1
REMARK VINA RESULT:    -4.193      0.000      0.000
REMARK INTER + INTRA:          -5.368
REMARK INTER:                  -5.051
REMARK INTRA:                  -0.317
REMARK UNBOUND:                -0.317
REMARK SMILES O=c1c(O)c(-c2ccc(O)c(O)c2)oc2cc(O)cc(O)c12
REMARK SMILES IDX 5 1 3 2 2 3 1 4 22 5 20 6 19 7 17 8 16 9 15 10 14 11 6 12
REMARK SMILES IDX 7 13 8 14 9 15 13 16 11 17 10 18 12 20 4 22 21 24 18 26
REMARK H PARENT 10 19 12 21 4 23 21 25 18 27
REMARK Flexibility Score: inf
ROOT
ATOM      1  C   UNL     1     125.705 126.342 126.078  1.00  0.00     0.180 A 
ATOM      2  C   UNL     1     124.403 126.788 125.781  1.00  0.00     0.208 A 
ATOM      3  C   UNL     1     123.445 126.816 126.805  1.00  0.00     0.238 A 
ATOM      4  O   UNL     1     122.278 127.223 126.553  1.00  0.00    -0.285 OA
ATOM      5  C   UNL     1     123.795 126.382 128.101  1.00  0.00     0.111 A 
ATOM      6  C   UNL     1     122.889 126.376 129.188  1.00  0.00     0.134 A 
ATOM      7  C   UNL     1     123.313 125.920 130.445  1.00  0.00     0.093 A 
ATOM      8  C   UNL     1     124.625 125.470 130.634  1.00  0.00     0.123 A 
ATOM      9  C   UNL     1     125.522 125.475 129.565  1.00  0.00     0.094 A 
ATOM     10  C   UNL     1     125.120 125.928 128.305  1.00  0.00     0.146 A 
ATOM     11  O   UNL     1     125.996 125.926 127.307  1.00  0.00    -0.452 OA
ENDROOT
BRANCH   1  12
ATOM     12  C   UNL     1     126.775 126.302 125.056  1.00  0.00     0.025 A 
ATOM     13  C   UNL     1     126.899 125.173 124.232  1.00  0.00     0.016 A 
ATOM     14  C   UNL     1     127.914 125.103 123.273  1.00  0.00     0.051 A 
ATOM     15  C   UNL     1     128.828 126.151 123.136  1.00  0.00     0.157 A 
ATOM     16  C   UNL     1     127.709 127.346 124.931  1.00  0.00     0.062 A 
ATOM     17  C   UNL     1     128.730 127.276 123.970  1.00  0.00     0.158 A 
BRANCH  15  18
ATOM     18  O   UNL     1     129.830 126.055 122.169  1.00  0.00    -0.504 OA
ATOM     19  H   UNL     1     130.090 125.171 121.750  1.00  0.00     0.293 HD
ENDBRANCH  15  18
BRANCH  17  20
ATOM     20  O   UNL     1     129.647 128.319 123.848  1.00  0.00    -0.504 OA
ATOM     21  H   UNL     1     129.519 129.064 123.172  1.00  0.00     0.293 HD
ENDBRANCH  17  20
ENDBRANCH   1  12
BRANCH   2  22
ATOM     22  O   UNL     1     124.066 127.166 124.478  1.00  0.00    -0.502 OA
ATOM     23  H   UNL     1     124.121 126.524 123.695  1.00  0.00     0.293 HD
ENDBRANCH   2  22
BRANCH   6  24
ATOM     24  O   UNL     1     121.575 126.817 129.029  1.00  0.00    -0.507 OA
ATOM     25  H   UNL     1     121.304 127.422 128.263  1.00  0.00     0.293 HD
ENDBRANCH   6  24
BRANCH   8  26
ATOM     26  O   UNL     1     125.046 125.016 131.882  1.00  0.00    -0.508 OA
ATOM     27  H   UNL     1     126.025 125.023 132.146  1.00  0.00     0.293 HD
ENDBRANCH   8  26
TORSDOF 6
ENDMDL
MODEL 2
REMARK VINA RESULT:    -4.147      3.489      4.956
REMARK INTER + INTRA:          -5.312
REMARK INTER:                  -4.986
REMARK INTRA:                  -0.326
REMARK UNBOUND:                -0.317
REMARK SMILES O=c1c(O)c(-c2ccc(O)c(O)c2)oc2cc(O)cc(O)c12
REMARK SMILES IDX 5 1 3 2 2 3 1 4 22 5 20 6 19 7 17 8 16 9 15 10 14 11 6 12
REMARK SMILES IDX 7 13 8 14 9 15 13 16 11 17 10 18 12 20 4 22 21 24 18 26
REMARK H PARENT 10 19 12 21 4 23 21 25 18 27
REMARK Flexibility Score: inf
ROOT
ATOM      1  C   UNL     1     125.753 123.804 126.083  1.00  0.00     0.180 A 
ATOM      2  C   UNL     1     126.772 124.723 125.767  1.00  0.00     0.208 A 
ATOM      3  C   UNL     1     127.280 125.549 126.781  1.00  0.00     0.238 A 
ATOM      4  O   UNL     1     128.200 126.368 126.512  1.00  0.00    -0.285 OA
ATOM      5  C   UNL     1     126.751 125.458 128.085  1.00  0.00     0.111 A 
ATOM      6  C   UNL     1     127.204 126.256 129.163  1.00  0.00     0.134 A 
ATOM      7  C   UNL     1     126.619 126.112 130.430  1.00  0.00     0.093 A 
ATOM      8  C   UNL     1     125.590 125.186 130.638  1.00  0.00     0.123 A 
ATOM      9  C   UNL     1     125.141 124.397 129.579  1.00  0.00     0.094 A 
ATOM     10  C   UNL     1     125.712 124.524 128.309  1.00  0.00     0.146 A 
ATOM     11  O   UNL     1     125.268 123.756 127.320  1.00  0.00    -0.452 OA
ENDROOT
BRANCH   1  12
ATOM     12  C   UNL     1     125.181 122.886 125.073  1.00  0.00     0.025 A 
ATOM     13  C   UNL     1     124.085 123.306 124.302  1.00  0.00     0.016 A 
ATOM     14  C   UNL     1     123.515 122.450 123.356  1.00  0.00     0.051 A 
ATOM     15  C   UNL     1     124.018 121.158 123.178  1.00  0.00     0.157 A 
ATOM     16  C   UNL     1     125.672 121.579 124.907  1.00  0.00     0.062 A 
ATOM     17  C   UNL     1     125.099 120.717 123.959  1.00  0.00     0.158 A 
BRANCH  15  18
ATOM     18  O   UNL     1     123.430 120.326 122.225  1.00  0.00    -0.504 OA
ATOM     19  H   UNL     1     123.635 119.336 122.176  1.00  0.00     0.293 HD
ENDBRANCH  15  18
BRANCH  17  20
ATOM     20  O   UNL     1     125.597 119.426 123.797  1.00  0.00    -0.504 OA
ATOM     21  H   UNL     1     125.061 118.703 123.331  1.00  0.00     0.293 HD
ENDBRANCH  17  20
ENDBRANCH   1  12
BRANCH   2  22
ATOM     22  O   UNL     1     127.246 124.828 124.456  1.00  0.00    -0.502 OA
ATOM     23  H   UNL     1     128.168 125.187 124.239  1.00  0.00     0.293 HD
ENDBRANCH   2  22
BRANCH   6  24
ATOM     24  O   UNL     1     128.227 127.188 128.986  1.00  0.00    -0.507 OA
ATOM     25  H   UNL     1     128.055 128.097 128.572  1.00  0.00     0.293 HD
ENDBRANCH   6  24
BRANCH   8  26
ATOM     26  O   UNL     1     125.008 125.043 131.896  1.00  0.00    -0.508 OA
ATOM     27  H   UNL     1     124.070 125.378 132.087  1.00  0.00     0.293 HD
ENDBRANCH   8  26
TORSDOF 6
ENDMDL
MODEL 3
REMARK VINA RESULT:    -4.084      3.437      4.929
REMARK INTER + INTRA:          -5.236
REMARK INTER:                  -4.927
REMARK INTRA:                  -0.309
REMARK UNBOUND:                -0.317
REMARK SMILES O=c1c(O)c(-c2ccc(O)c(O)c2)oc2cc(O)cc(O)c12
REMARK SMILES IDX 5 1 3 2 2 3 1 4 22 5 20 6 19 7 17 8 16 9 15 10 14 11 6 12
REMARK SMILES IDX 7 13 8 14 9 15 13 16 11 17 10 18 12 20 4 22 21 24 18 26
REMARK H PARENT 10 19 12 21 4 23 21 25 18 27
REMARK Flexibility Score: inf
ROOT
ATOM      1  C   UNL     1     123.633 125.026 126.077  1.00  0.00     0.180 A 
ATOM      2  C   UNL     1     123.935 123.687 125.765  1.00  0.00     0.208 A 
ATOM      3  C   UNL     1     124.396 122.840 126.785  1.00  0.00     0.238 A 
ATOM      4  O   UNL     1     124.659 121.636 126.520  1.00  0.00    -0.285 OA
ATOM      5  C   UNL     1     124.565 123.348 128.090  1.00  0.00     0.111 A 
ATOM      6  C   UNL     1     125.028 122.562 129.172  1.00  0.00     0.134 A 
ATOM      7  C   UNL     1     125.179 123.144 130.440  1.00  0.00     0.093 A 
ATOM      8  C   UNL     1     124.876 124.496 130.644  1.00  0.00     0.123 A 
ATOM      9  C   UNL     1     124.419 125.274 129.579  1.00  0.00     0.094 A 
ATOM     10  C   UNL     1     124.261 124.712 128.308  1.00  0.00     0.146 A 
ATOM     11  O   UNL     1     123.819 125.474 127.315  1.00  0.00    -0.452 OA
ENDROOT
BRANCH   1  12
ATOM     12  C   UNL     1     123.125 125.975 125.061  1.00  0.00     0.025 A 
ATOM     13  C   UNL     1     124.034 126.650 124.231  1.00  0.00     0.016 A 
ATOM     14  C   UNL     1     123.578 127.565 123.277  1.00  0.00     0.051 A 
ATOM     15  C   UNL     1     122.213 127.831 123.151  1.00  0.00     0.157 A 
ATOM     16  C   UNL     1     121.753 126.260 124.946  1.00  0.00     0.062 A 
ATOM     17  C   UNL     1     121.294 127.181 123.990  1.00  0.00     0.158 A 
BRANCH  15  18
ATOM     18  O   UNL     1     121.787 128.748 122.189  1.00  0.00    -0.504 OA
ATOM     19  H   UNL     1     120.848 129.127 122.185  1.00  0.00     0.293 HD
ENDBRANCH  15  18
BRANCH  17  20
ATOM     20  O   UNL     1     119.931 127.452 123.879  1.00  0.00    -0.504 OA
ATOM     21  H   UNL     1     119.563 128.026 123.129  1.00  0.00     0.293 HD
ENDBRANCH  17  20
ENDBRANCH   1  12
BRANCH   2  22
ATOM     22  O   UNL     1     123.806 123.221 124.453  1.00  0.00    -0.502 OA
ATOM     23  H   UNL     1     122.913 123.180 123.977  1.00  0.00     0.293 HD
ENDBRANCH   2  22
BRANCH   6  24
ATOM     24  O   UNL     1     125.338 121.213 129.000  1.00  0.00    -0.507 OA
ATOM     25  H   UNL     1     125.846 120.882 128.188  1.00  0.00     0.293 HD
ENDBRANCH   6  24
BRANCH   8  26
ATOM     26  O   UNL     1     125.027 125.075 131.902  1.00  0.00    -0.508 OA
ATOM     27  H   UNL     1     125.846 125.622 132.139  1.00  0.00     0.293 HD
ENDBRANCH   8  26
TORSDOF 6
ENDMDL
MODEL 4
REMARK VINA RESULT:    -3.850      2.173      2.627
REMARK INTER + INTRA:          -4.954
REMARK INTER:                  -5.466
REMARK INTRA:                   0.512
REMARK UNBOUND:                -0.317
REMARK SMILES O=c1c(O)c(-c2ccc(O)c(O)c2)oc2cc(O)cc(O)c12
REMARK SMILES IDX 5 1 3 2 2 3 1 4 22 5 20 6 19 7 17 8 16 9 15 10 14 11 6 12
REMARK SMILES IDX 7 13 8 14 9 15 13 16 11 17 10 18 12 20 4 22 21 24 18 26
REMARK H PARENT 10 19 12 21 4 23 21 25 18 27
REMARK Flexibility Score: inf
ROOT
ATOM      1  C   UNL     1     126.446 124.794 126.776  1.00  0.00     0.180 A 
ATOM      2  C   UNL     1     125.886 123.511 126.930  1.00  0.00     0.208 A 
ATOM      3  C   UNL     1     125.123 123.236 128.076  1.00  0.00     0.238 A 
ATOM      4  O   UNL     1     124.608 122.094 128.220  1.00  0.00    -0.285 OA
ATOM      5  C   UNL     1     124.949 124.237 129.055  1.00  0.00     0.111 A 
ATOM      6  C   UNL     1     124.199 124.041 130.239  1.00  0.00     0.134 A 
ATOM      7  C   UNL     1     124.081 125.084 131.169  1.00  0.00     0.093 A 
ATOM      8  C   UNL     1     124.699 126.318 130.936  1.00  0.00     0.123 A 
ATOM      9  C   UNL     1     125.440 126.516 129.770  1.00  0.00     0.094 A 
ATOM     10  C   UNL     1     125.568 125.489 128.830  1.00  0.00     0.146 A 
ATOM     11  O   UNL     1     126.274 125.707 127.727  1.00  0.00    -0.452 OA
ENDROOT
BRANCH   1  12
ATOM     12  C   UNL     1     127.245 125.165 125.588  1.00  0.00     0.025 A 
ATOM     13  C   UNL     1     127.688 124.161 124.712  1.00  0.00     0.016 A 
ATOM     14  C   UNL     1     128.461 124.485 123.594  1.00  0.00     0.051 A 
ATOM     15  C   UNL     1     128.817 125.813 123.343  1.00  0.00     0.157 A 
ATOM     16  C   UNL     1     127.622 126.498 125.345  1.00  0.00     0.062 A 
ATOM     17  C   UNL     1     128.401 126.825 124.223  1.00  0.00     0.158 A 
BRANCH  15  18
ATOM     18  O   UNL     1     129.588 126.107 122.218  1.00  0.00    -0.504 OA
ATOM     19  H   UNL     1     130.380 126.737 122.259  1.00  0.00     0.293 HD
ENDBRANCH  15  18
BRANCH  17  20
ATOM     20  O   UNL     1     128.764 128.150 123.987  1.00  0.00    -0.504 OA
ATOM     21  H   UNL     1     129.641 128.530 124.326  1.00  0.00     0.293 HD
ENDBRANCH  17  20
ENDBRANCH   1  12
BRANCH   2  22
ATOM     22  O   UNL     1     126.114 122.521 125.970  1.00  0.00    -0.502 OA
ATOM     23  H   UNL     1     126.100 122.716 124.976  1.00  0.00     0.293 HD
ENDBRANCH   2  22
BRANCH   6  24
ATOM     24  O   UNL     1     123.572 122.821 130.498  1.00  0.00    -0.507 OA
ATOM     25  H   UNL     1     123.066 122.654 131.360  1.00  0.00     0.293 HD
ENDBRANCH   6  24
BRANCH   8  26
ATOM     26  O   UNL     1     124.583 127.355 131.861  1.00  0.00    -0.508 OA
ATOM     27  H   UNL     1     124.550 127.175 132.858  1.00  0.00     0.293 HD
ENDBRANCH   8  26
TORSDOF 6
ENDMDL
MODEL 5
REMARK VINA RESULT:    -3.817      3.789      4.376
REMARK INTER + INTRA:          -4.915
REMARK INTER:                  -5.426
REMARK INTRA:                   0.511
REMARK UNBOUND:                -0.317
REMARK SMILES O=c1c(O)c(-c2ccc(O)c(O)c2)oc2cc(O)cc(O)c12
REMARK SMILES IDX 5 1 3 2 2 3 1 4 22 5 20 6 19 7 17 8 16 9 15 10 14 11 6 12
REMARK SMILES IDX 7 13 8 14 9 15 13 16 11 17 10 18 12 20 4 22 21 24 18 26
REMARK H PARENT 10 19 12 21 4 23 21 25 18 27
REMARK Flexibility Score: inf
ROOT
ATOM      1  C   UNL     1     124.161 123.849 126.685  1.00  0.00     0.180 A 
ATOM      2  C   UNL     1     123.291 124.945 126.846  1.00  0.00     0.208 A 
ATOM      3  C   UNL     1     123.413 125.744 127.993  1.00  0.00     0.238 A 
ATOM      4  O   UNL     1     122.647 126.735 128.144  1.00  0.00    -0.285 OA
ATOM      5  C   UNL     1     124.383 125.425 128.966  1.00  0.00     0.111 A 
ATOM      6  C   UNL     1     124.568 126.176 130.152  1.00  0.00     0.134 A 
ATOM      7  C   UNL     1     125.550 125.788 131.076  1.00  0.00     0.093 A 
ATOM      8  C   UNL     1     126.348 124.664 130.836  1.00  0.00     0.123 A 
ATOM      9  C   UNL     1     126.169 123.920 129.669  1.00  0.00     0.094 A 
ATOM     10  C   UNL     1     125.198 124.292 128.734  1.00  0.00     0.146 A 
ATOM     11  O   UNL     1     125.053 123.569 127.630  1.00  0.00    -0.452 OA
ENDROOT
BRANCH   1  12
ATOM     12  C   UNL     1     124.107 122.972 125.494  1.00  0.00     0.025 A 
ATOM     13  C   UNL     1     123.024 123.077 124.608  1.00  0.00     0.016 A 
ATOM     14  C   UNL     1     122.942 122.246 123.487  1.00  0.00     0.051 A 
ATOM     15  C   UNL     1     123.929 121.288 123.245  1.00  0.00     0.157 A 
ATOM     16  C   UNL     1     125.089 121.993 125.260  1.00  0.00     0.062 A 
ATOM     17  C   UNL     1     125.006 121.155 124.136  1.00  0.00     0.158 A 
BRANCH  15  18
ATOM     18  O   UNL     1     123.822 120.473 122.117  1.00  0.00    -0.504 OA
ATOM     19  H   UNL     1     123.869 120.846 121.177  1.00  0.00     0.293 HD
ENDBRANCH  15  18
BRANCH  17  20
ATOM     20  O   UNL     1     125.988 120.192 123.908  1.00  0.00    -0.504 OA
ATOM     21  H   UNL     1     126.975 120.414 123.970  1.00  0.00     0.293 HD
ENDBRANCH  17  20
ENDBRANCH   1  12
BRANCH   2  22
ATOM     22  O   UNL     1     122.305 125.211 125.892  1.00  0.00    -0.502 OA
ATOM     23  H   UNL     1     122.529 125.442 124.931  1.00  0.00     0.293 HD
ENDBRANCH   2  22
BRANCH   6  24
ATOM     24  O   UNL     1     123.787 127.301 130.418  1.00  0.00    -0.507 OA
ATOM     25  H   UNL     1     124.133 128.241 130.261  1.00  0.00     0.293 HD
ENDBRANCH   6  24
BRANCH   8  26
ATOM     26  O   UNL     1     127.323 124.277 131.754  1.00  0.00    -0.508 OA
ATOM     27  H   UNL     1     128.276 124.615 131.688  1.00  0.00     0.293 HD
ENDBRANCH   8  26
TORSDOF 6
ENDMDL
MODEL 6
REMARK VINA RESULT:    -3.773      2.794      4.665
REMARK INTER + INTRA:          -4.861
REMARK INTER:                  -5.392
REMARK INTRA:                   0.531
REMARK UNBOUND:                -0.317
REMARK SMILES O=c1c(O)c(-c2ccc(O)c(O)c2)oc2cc(O)cc(O)c12
REMARK SMILES IDX 5 1 3 2 2 3 1 4 22 5 20 6 19 7 17 8 16 9 15 10 14 11 6 12
REMARK SMILES IDX 7 13 8 14 9 15 13 16 11 17 10 18 12 20 4 22 21 24 18 26
REMARK H PARENT 10 19 12 21 4 23 21 25 18 27
REMARK Flexibility Score: inf
ROOT
ATOM      1  C   UNL     1     124.500 126.378 126.776  1.00  0.00     0.180 A 
ATOM      2  C   UNL     1     125.883 126.579 126.949  1.00  0.00     0.208 A 
ATOM      3  C   UNL     1     126.504 126.069 128.099  1.00  0.00     0.238 A 
ATOM      4  O   UNL     1     127.744 126.234 128.260  1.00  0.00    -0.285 OA
ATOM      5  C   UNL     1     125.734 125.387 129.064  1.00  0.00     0.111 A 
ATOM      6  C   UNL     1     126.281 124.846 130.252  1.00  0.00     0.134 A 
ATOM      7  C   UNL     1     125.446 124.189 131.167  1.00  0.00     0.093 A 
ATOM      8  C   UNL     1     124.074 124.064 130.916  1.00  0.00     0.123 A 
ATOM      9  C   UNL     1     123.530 124.595 129.746  1.00  0.00     0.094 A 
ATOM     10  C   UNL     1     124.347 125.252 128.821  1.00  0.00     0.146 A 
ATOM     11  O   UNL     1     123.803 125.744 127.713  1.00  0.00    -0.452 OA
ENDROOT
BRANCH   1  12
ATOM     12  C   UNL     1     123.778 126.869 125.581  1.00  0.00     0.025 A 
ATOM     13  C   UNL     1     124.437 127.714 124.674  1.00  0.00     0.016 A 
ATOM     14  C   UNL     1     123.770 128.205 123.549  1.00  0.00     0.051 A 
ATOM     15  C   UNL     1     122.432 127.875 123.322  1.00  0.00     0.157 A 
ATOM     16  C   UNL     1     122.425 126.554 125.361  1.00  0.00     0.062 A 
ATOM     17  C   UNL     1     121.752 127.049 124.233  1.00  0.00     0.158 A 
BRANCH  15  18
ATOM     18  O   UNL     1     121.791 128.379 122.189  1.00  0.00    -0.504 OA
ATOM     19  H   UNL     1     120.817 128.188 121.993  1.00  0.00     0.293 HD
ENDBRANCH  15  18
BRANCH  17  20
ATOM     20  O   UNL     1     120.413 126.727 124.020  1.00  0.00    -0.504 OA
ATOM     21  H   UNL     1     119.802 127.324 123.475  1.00  0.00     0.293 HD
ENDBRANCH  17  20
ENDBRANCH   1  12
BRANCH   2  22
ATOM     22  O   UNL     1     126.616 127.302 126.002  1.00  0.00    -0.502 OA
ATOM     23  H   UNL     1     127.148 128.129 126.244  1.00  0.00     0.293 HD
ENDBRANCH   2  22
BRANCH   6  24
ATOM     24  O   UNL     1     127.645 124.956 130.529  1.00  0.00    -0.507 OA
ATOM     25  H   UNL     1     128.281 124.180 130.391  1.00  0.00     0.293 HD
ENDBRANCH   6  24
BRANCH   8  26
ATOM     26  O   UNL     1     123.244 123.412 131.826  1.00  0.00    -0.508 OA
ATOM     27  H   UNL     1     123.264 122.404 131.934  1.00  0.00     0.293 HD
ENDBRANCH   8  26
TORSDOF 6
ENDMDL
MODEL 7
REMARK VINA RESULT:    -3.720      1.201      2.874
REMARK INTER + INTRA:          -4.798
REMARK INTER:                  -4.607
REMARK INTRA:                  -0.192
REMARK UNBOUND:                -0.317
REMARK SMILES O=c1c(O)c(-c2ccc(O)c(O)c2)oc2cc(O)cc(O)c12
REMARK SMILES IDX 5 1 3 2 2 3 1 4 22 5 20 6 19 7 17 8 16 9 15 10 14 11 6 12
REMARK SMILES IDX 7 13 8 14 9 15 13 16 11 17 10 18 12 20 4 22 21 24 18 26
REMARK H PARENT 10 19 12 21 4 23 21 25 18 27
REMARK Flexibility Score: inf
ROOT
ATOM      1  C   UNL     1     126.576 126.307 126.792  1.00  0.00     0.180 A 
ATOM      2  C   UNL     1     127.186 126.195 128.056  1.00  0.00     0.208 A 
ATOM      3  C   UNL     1     126.378 126.217 129.203  1.00  0.00     0.238 A 
ATOM      4  O   UNL     1     126.912 126.107 130.341  1.00  0.00    -0.285 OA
ATOM      5  C   UNL     1     124.983 126.369 129.071  1.00  0.00     0.111 A 
ATOM      6  C   UNL     1     124.099 126.405 130.176  1.00  0.00     0.134 A 
ATOM      7  C   UNL     1     122.722 126.568 129.962  1.00  0.00     0.093 A 
ATOM      8  C   UNL     1     122.214 126.698 128.663  1.00  0.00     0.123 A 
ATOM      9  C   UNL     1     123.082 126.663 127.571  1.00  0.00     0.094 A 
ATOM     10  C   UNL     1     124.457 126.499 127.764  1.00  0.00     0.146 A 
ATOM     11  O   UNL     1     125.259 126.464 126.706  1.00  0.00    -0.452 OA
ENDROOT
BRANCH   1  12
ATOM     12  C   UNL     1     127.358 126.273 125.536  1.00  0.00     0.025 A 
ATOM     13  C   UNL     1     127.251 125.161 124.685  1.00  0.00     0.016 A 
ATOM     14  C   UNL     1     127.994 125.098 123.504  1.00  0.00     0.051 A 
ATOM     15  C   UNL     1     128.868 126.134 123.163  1.00  0.00     0.157 A 
ATOM     16  C   UNL     1     128.253 127.305 125.201  1.00  0.00     0.062 A 
ATOM     17  C   UNL     1     129.003 127.241 124.016  1.00  0.00     0.158 A 
BRANCH  15  18
ATOM     18  O   UNL     1     129.596 126.044 121.976  1.00  0.00    -0.504 OA
ATOM     19  H   UNL     1     130.215 125.267 121.783  1.00  0.00     0.293 HD
ENDBRANCH  15  18
BRANCH  17  20
ATOM     20  O   UNL     1     129.883 128.272 123.689  1.00  0.00    -0.504 OA
ATOM     21  H   UNL     1     130.851 128.089 123.449  1.00  0.00     0.293 HD
ENDBRANCH  17  20
ENDBRANCH   1  12
BRANCH   2  22
ATOM     22  O   UNL     1     128.576 126.096 128.163  1.00  0.00    -0.502 OA
ATOM     23  H   UNL     1     129.139 126.811 128.607  1.00  0.00     0.293 HD
ENDBRANCH   2  22
BRANCH   6  24
ATOM     24  O   UNL     1     124.576 126.279 131.481  1.00  0.00    -0.507 OA
ATOM     25  H   UNL     1     123.965 126.033 132.251  1.00  0.00     0.293 HD
ENDBRANCH   6  24
BRANCH   8  26
ATOM     26  O   UNL     1     120.847 126.862 128.450  1.00  0.00    -0.508 OA
ATOM     27  H   UNL     1     120.480 127.669 127.958  1.00  0.00     0.293 HD
ENDBRANCH   8  26
TORSDOF 6
ENDMDL
MODEL 8
REMARK VINA RESULT:    -3.704      3.856      5.492
REMARK INTER + INTRA:          -4.779
REMARK INTER:                  -4.641
REMARK INTRA:                  -0.138
REMARK UNBOUND:                -0.317
REMARK SMILES O=c1c(O)c(-c2ccc(O)c(O)c2)oc2cc(O)cc(O)c12
REMARK SMILES IDX 5 1 3 2 2 3 1 4 22 5 20 6 19 7 17 8 16 9 15 10 14 11 6 12
REMARK SMILES IDX 7 13 8 14 9 15 13 16 11 17 10 18 12 20 4 22 21 24 18 26
REMARK H PARENT 10 19 12 21 4 23 21 25 18 27
REMARK Flexibility Score: inf
ROOT
ATOM      1  C   UNL     1     125.452 123.007 126.723  1.00  0.00     0.180 A 
ATOM      2  C   UNL     1     125.047 122.506 127.975  1.00  0.00     0.208 A 
ATOM      3  C   UNL     1     125.448 123.182 129.138  1.00  0.00     0.238 A 
ATOM      4  O   UNL     1     125.082 122.748 130.265  1.00  0.00    -0.285 OA
ATOM      5  C   UNL     1     126.260 124.329 129.033  1.00  0.00     0.111 A 
ATOM      6  C   UNL     1     126.710 125.065 130.156  1.00  0.00     0.134 A 
ATOM      7  C   UNL     1     127.524 126.192 129.968  1.00  0.00     0.093 A 
ATOM      8  C   UNL     1     127.896 126.596 128.680  1.00  0.00     0.123 A 
ATOM      9  C   UNL     1     127.454 125.874 127.571  1.00  0.00     0.094 A 
ATOM     10  C   UNL     1     126.641 124.749 127.737  1.00  0.00     0.146 A 
ATOM     11  O   UNL     1     126.231 124.084 126.663  1.00  0.00    -0.452 OA
ENDROOT
BRANCH   1  12
ATOM     12  C   UNL     1     125.054 122.363 125.452  1.00  0.00     0.025 A 
ATOM     13  C   UNL     1     124.223 123.055 124.557  1.00  0.00     0.016 A 
ATOM     14  C   UNL     1     123.818 122.459 123.360  1.00  0.00     0.051 A 
ATOM     15  C   UNL     1     124.221 121.158 123.047  1.00  0.00     0.157 A 
ATOM     16  C   UNL     1     125.442 121.046 125.144  1.00  0.00     0.062 A 
ATOM     17  C   UNL     1     125.033 120.445 123.943  1.00  0.00     0.158 A 
BRANCH  15  18
ATOM     18  O   UNL     1     123.803 120.589 121.843  1.00  0.00    -0.504 OA
ATOM     19  H   UNL     1     123.385 119.668 121.801  1.00  0.00     0.293 HD
ENDBRANCH  15  18
BRANCH  17  20
ATOM     20  O   UNL     1     125.428 119.142 123.644  1.00  0.00    -0.504 OA
ATOM     21  H   UNL     1     126.252 118.726 124.064  1.00  0.00     0.293 HD
ENDBRANCH  17  20
ENDBRANCH   1  12
BRANCH   2  22
ATOM     22  O   UNL     1     124.283 121.338 128.054  1.00  0.00    -0.502 OA
ATOM     23  H   UNL     1     123.275 121.355 128.160  1.00  0.00     0.293 HD
ENDBRANCH   2  22
BRANCH   6  24
ATOM     24  O   UNL     1     126.357 124.687 131.451  1.00  0.00    -0.507 OA
ATOM     25  H   UNL     1     126.921 124.042 131.992  1.00  0.00     0.293 HD
ENDBRANCH   6  24
BRANCH   8  26
ATOM     26  O   UNL     1     128.706 127.714 128.494  1.00  0.00    -0.508 OA
ATOM     27  H   UNL     1     129.692 127.625 128.278  1.00  0.00     0.293 HD
ENDBRANCH   8  26
TORSDOF 6
ENDMDL
MODEL 9
REMARK VINA RESULT:    -3.652      3.530      4.962
REMARK INTER + INTRA:          -4.716
REMARK INTER:                  -4.515
REMARK INTRA:                  -0.202
REMARK UNBOUND:                -0.317
REMARK SMILES O=c1c(O)c(-c2ccc(O)c(O)c2)oc2cc(O)cc(O)c12
REMARK SMILES IDX 5 1 3 2 2 3 1 4 22 5 20 6 19 7 17 8 16 9 15 10 14 11 6 12
REMARK SMILES IDX 7 13 8 14 9 15 13 16 11 17 10 18 12 20 4 22 21 24 18 26
REMARK H PARENT 10 19 12 21 4 23 21 25 18 27
REMARK Flexibility Score: inf
ROOT
ATOM      1  C   UNL     1     123.246 125.748 126.807  1.00  0.00     0.180 A 
ATOM      2  C   UNL     1     123.051 126.343 128.069  1.00  0.00     0.208 A 
ATOM      3  C   UNL     1     123.438 125.638 129.219  1.00  0.00     0.238 A 
ATOM      4  O   UNL     1     123.279 126.165 130.353  1.00  0.00    -0.285 OA
ATOM      5  C   UNL     1     123.994 124.348 129.092  1.00  0.00     0.111 A 
ATOM      6  C   UNL     1     124.406 123.570 130.200  1.00  0.00     0.134 A 
ATOM      7  C   UNL     1     124.942 122.290 129.991  1.00  0.00     0.093 A 
ATOM      8  C   UNL     1     125.070 121.774 128.696  1.00  0.00     0.123 A 
ATOM      9  C   UNL     1     124.665 122.538 127.601  1.00  0.00     0.094 A 
ATOM     10  C   UNL     1     124.131 123.817 127.788  1.00  0.00     0.146 A 
ATOM     11  O   UNL     1     123.759 124.524 126.727  1.00  0.00    -0.452 OA
ENDROOT
BRANCH   1  12
ATOM     12  C   UNL     1     122.881 126.435 125.549  1.00  0.00     0.025 A 
ATOM     13  C   UNL     1     123.896 126.902 124.698  1.00  0.00     0.016 A 
ATOM     14  C   UNL     1     123.576 127.572 123.514  1.00  0.00     0.051 A 
ATOM     15  C   UNL     1     122.240 127.800 123.171  1.00  0.00     0.157 A 
ATOM     16  C   UNL     1     121.539 126.684 125.212  1.00  0.00     0.062 A 
ATOM     17  C   UNL     1     121.216 127.360 124.024  1.00  0.00     0.158 A 
BRANCH  15  18
ATOM     18  O   UNL     1     121.950 128.471 121.982  1.00  0.00    -0.504 OA
ATOM     19  H   UNL     1     121.034 128.855 121.791  1.00  0.00     0.293 HD
ENDBRANCH  15  18
BRANCH  17  20
ATOM     20  O   UNL     1     119.882 127.596 123.695  1.00  0.00    -0.504 OA
ATOM     21  H   UNL     1     119.494 128.533 123.686  1.00  0.00     0.293 HD
ENDBRANCH  17  20
ENDBRANCH   1  12
BRANCH   2  22
ATOM     22  O   UNL     1     122.453 127.602 128.170  1.00  0.00    -0.502 OA
ATOM     23  H   UNL     1     121.927 127.888 128.987  1.00  0.00     0.293 HD
ENDBRANCH   2  22
BRANCH   6  24
ATOM     24  O   UNL     1     124.289 124.056 131.503  1.00  0.00    -0.507 OA
ATOM     25  H   UNL     1     124.411 125.039 131.718  1.00  0.00     0.293 HD
ENDBRANCH   6  24
BRANCH   8  26
ATOM     26  O   UNL     1     125.601 120.503 128.488  1.00  0.00    -0.508 OA
ATOM     27  H   UNL     1     125.005 119.687 128.406  1.00  0.00     0.293 HD
ENDBRANCH   8  26
TORSDOF 6
ENDMDL
