MODEL 1
REMARK VINA RESULT:    -2.719      0.000      0.000
REMARK INTER + INTRA:          -3.285
REMARK INTER:                  -3.196
REMARK INTRA:                  -0.089
REMARK UNBOUND:                -0.089
REMARK SMILES O=C([O-])CCC(=O)[O-]
REMARK SMILES IDX 4 1 2 2 1 3 3 4 5 5 6 6 7 7 8 8
REMARK H PARENT
REMARK Flexibility Score: inf
ROOT
ATOM      1  C   UNL     1      58.066  17.849  51.298  1.00  0.00     0.059 C 
ENDROOT
BRANCH   1   2
ATOM      2  C   UNL     1      56.666  18.357  51.460  1.00  0.00     0.042 C 
ATOM      3  O   UNL     1      55.800  18.117  50.578  1.00  0.00    -0.550 OA
ATOM      4  O   UNL     1      56.307  19.059  52.603  1.00  0.00    -0.550 OA
ENDBRANCH   1   2
BRANCH   1   5
ATOM      5  C   UNL     1      58.533  17.936  49.840  1.00  0.00     0.059 C 
BRANCH   5   6
ATOM      6  C   UNL     1      58.776  16.578  49.257  1.00  0.00     0.042 C 
ATOM      7  O   UNL     1      59.738  15.876  49.665  1.00  0.00    -0.550 OA
ATOM      8  O   UNL     1      57.963  16.105  48.235  1.00  0.00    -0.550 OA
ENDBRANCH   5   6
ENDBRANCH   1   5
TORSDOF 3
ENDMDL
MODEL 2
REMARK VINA RESULT:    -2.668      0.145      3.939
REMARK INTER + INTRA:          -3.225
REMARK INTER:                  -3.126
REMARK INTRA:                  -0.099
REMARK UNBOUND:                -0.089
REMARK SMILES O=C([O-])CCC(=O)[O-]
REMARK SMILES IDX 4 1 2 2 1 3 3 4 5 5 6 6 7 7 8 8
REMARK H PARENT
REMARK Flexibility Score: inf
ROOT
ATOM      1  C   UNL     1      58.695  17.977  49.958  1.00  0.00     0.059 C 
ENDROOT
BRANCH   1   2
ATOM      2  C   UNL     1      58.920  16.638  49.325  1.00  0.00     0.042 C 
ATOM      3  O   UNL     1      59.869  15.906  49.714  1.00  0.00    -0.550 OA
ATOM      4  O   UNL     1      58.061  16.182  48.334  1.00  0.00    -0.550 OA
ENDBRANCH   1   2
BRANCH   1   5
ATOM      5  C   UNL     1      58.155  17.843  51.386  1.00  0.00     0.059 C 
BRANCH   5   6
ATOM      6  C   UNL     1      56.754  18.361  51.497  1.00  0.00     0.042 C 
ATOM      7  O   UNL     1      56.395  19.007  52.517  1.00  0.00    -0.550 OA
ATOM      8  O   UNL     1      55.833  18.095  50.491  1.00  0.00    -0.550 OA
ENDBRANCH   5   6
ENDBRANCH   1   5
TORSDOF 3
ENDMDL
MODEL 3
REMARK VINA RESULT:    -2.632     21.564     22.537
REMARK INTER + INTRA:          -3.182
REMARK INTER:                  -3.104
REMARK INTRA:                  -0.078
REMARK UNBOUND:                -0.089
REMARK SMILES O=C([O-])CCC(=O)[O-]
REMARK SMILES IDX 4 1 2 2 1 3 3 4 5 5 6 6 7 7 8 8
REMARK H PARENT
REMARK Flexibility Score: inf
ROOT
ATOM      1  C   UNL     1      71.514  31.428  59.542  1.00  0.00     0.059 C 
ENDROOT
BRANCH   1   2
ATOM      2  C   UNL     1      71.442  32.919  59.675  1.00  0.00     0.042 C 
ATOM      3  O   UNL     1      71.556  33.459  60.807  1.00  0.00    -0.550 OA
ATOM      4  O   UNL     1      71.289  33.713  58.546  1.00  0.00    -0.550 OA
ENDBRANCH   1   2
BRANCH   1   5
ATOM      5  C   UNL     1      72.689  30.846  60.337  1.00  0.00     0.059 C 
BRANCH   5   6
ATOM      6  C   UNL     1      72.224  30.165  61.587  1.00  0.00     0.042 C 
ATOM      7  O   UNL     1      73.032  29.948  62.529  1.00  0.00    -0.550 OA
ATOM      8  O   UNL     1      70.908  29.735  61.696  1.00  0.00    -0.550 OA
ENDBRANCH   5   6
ENDBRANCH   1   5
TORSDOF 3
ENDMDL
MODEL 4
REMARK VINA RESULT:    -2.565      9.189     10.483
REMARK INTER + INTRA:          -3.103
REMARK INTER:                  -3.044
REMARK INTRA:                  -0.059
REMARK UNBOUND:                -0.089
REMARK SMILES O=C([O-])CCC(=O)[O-]
REMARK SMILES IDX 4 1 2 2 1 3 3 4 5 5 6 6 7 7 8 8
REMARK H PARENT
REMARK Flexibility Score: inf
ROOT
ATOM      1  C   UNL     1      57.927  26.961  50.546  1.00  0.00     0.059 C 
ENDROOT
BRANCH   1   2
ATOM      2  C   UNL     1      58.904  27.729  49.710  1.00  0.00     0.042 C 
ATOM      3  O   UNL     1      59.983  27.192  49.343  1.00  0.00    -0.550 OA
ATOM      4  O   UNL     1      58.606  29.022  49.301  1.00  0.00    -0.550 OA
ENDBRANCH   1   2
BRANCH   1   5
ATOM      5  C   UNL     1      56.624  27.741  50.753  1.00  0.00     0.059 C 
BRANCH   5   6
ATOM      6  C   UNL     1      55.426  26.926  50.371  1.00  0.00     0.042 C 
ATOM      7  O   UNL     1      55.515  25.673  50.284  1.00  0.00    -0.550 OA
ATOM      8  O   UNL     1      54.224  27.554  50.072  1.00  0.00    -0.550 OA
ENDBRANCH   5   6
ENDBRANCH   1   5
TORSDOF 3
ENDMDL
MODEL 5
REMARK VINA RESULT:    -2.553      9.415     10.326
REMARK INTER + INTRA:          -3.089
REMARK INTER:                  -3.027
REMARK INTRA:                  -0.062
REMARK UNBOUND:                -0.089
REMARK SMILES O=C([O-])CCC(=O)[O-]
REMARK SMILES IDX 4 1 2 2 1 3 3 4 5 5 6 6 7 7 8 8
REMARK H PARENT
REMARK Flexibility Score: inf
ROOT
ATOM      1  C   UNL     1      56.356  27.958  50.729  1.00  0.00     0.059 C 
ENDROOT
BRANCH   1   2
ATOM      2  C   UNL     1      55.166  27.135  50.339  1.00  0.00     0.042 C 
ATOM      3  O   UNL     1      55.270  25.885  50.227  1.00  0.00    -0.550 OA
ATOM      4  O   UNL     1      53.934  27.743  50.137  1.00  0.00    -0.550 OA
ENDBRANCH   1   2
BRANCH   1   5
ATOM      5  C   UNL     1      57.658  27.157  50.617  1.00  0.00     0.059 C 
BRANCH   5   6
ATOM      6  C   UNL     1      58.684  27.883  49.803  1.00  0.00     0.042 C 
ATOM      7  O   UNL     1      58.476  29.068  49.431  1.00  0.00    -0.550 OA
ATOM      8  O   UNL     1      59.853  27.237  49.420  1.00  0.00    -0.550 OA
ENDBRANCH   5   6
ENDBRANCH   1   5
TORSDOF 3
ENDMDL
MODEL 6
REMARK VINA RESULT:    -2.547     16.855     18.196
REMARK INTER + INTRA:          -3.083
REMARK INTER:                  -2.968
REMARK INTRA:                  -0.114
REMARK UNBOUND:                -0.089
REMARK SMILES O=C([O-])CCC(=O)[O-]
REMARK SMILES IDX 4 1 2 2 1 3 3 4 5 5 6 6 7 7 8 8
REMARK H PARENT
REMARK Flexibility Score: inf
ROOT
ATOM      1  C   UNL     1      61.414  30.474  61.783  1.00  0.00     0.059 C 
ENDROOT
BRANCH   1   2
ATOM      2  C   UNL     1      62.586  29.547  61.671  1.00  0.00     0.042 C 
ATOM      3  O   UNL     1      63.757  30.010  61.639  1.00  0.00    -0.550 OA
ATOM      4  O   UNL     1      62.388  28.173  61.643  1.00  0.00    -0.550 OA
ENDBRANCH   1   2
BRANCH   1   5
ATOM      5  C   UNL     1      61.122  31.179  60.454  1.00  0.00     0.059 C 
BRANCH   5   6
ATOM      6  C   UNL     1      61.267  32.665  60.575  1.00  0.00     0.042 C 
ATOM      7  O   UNL     1      62.400  33.177  60.777  1.00  0.00    -0.550 OA
ATOM      8  O   UNL     1      60.145  33.481  60.504  1.00  0.00    -0.550 OA
ENDBRANCH   5   6
ENDBRANCH   1   5
TORSDOF 3
ENDMDL
MODEL 7
REMARK VINA RESULT:    -2.542     16.853     18.011
REMARK INTER + INTRA:          -3.077
REMARK INTER:                  -2.965
REMARK INTRA:                  -0.111
REMARK UNBOUND:                -0.089
REMARK SMILES O=C([O-])CCC(=O)[O-]
REMARK SMILES IDX 4 1 2 2 1 3 3 4 5 5 6 6 7 7 8 8
REMARK H PARENT
REMARK Flexibility Score: inf
ROOT
ATOM      1  C   UNL     1      61.114  31.206  60.437  1.00  0.00     0.059 C 
ENDROOT
BRANCH   1   2
ATOM      2  C   UNL     1      61.312  32.685  60.575  1.00  0.00     0.042 C 
ATOM      3  O   UNL     1      60.328  33.465  60.490  1.00  0.00    -0.550 OA
ATOM      4  O   UNL     1      62.576  33.197  60.836  1.00  0.00    -0.550 OA
ENDBRANCH   1   2
BRANCH   1   5
ATOM      5  C   UNL     1      61.346  30.479  61.767  1.00  0.00     0.059 C 
BRANCH   5   6
ATOM      6  C   UNL     1      62.485  29.510  61.673  1.00  0.00     0.042 C 
ATOM      7  O   UNL     1      62.265  28.270  61.671  1.00  0.00    -0.550 OA
ATOM      8  O   UNL     1      63.793  29.977  61.628  1.00  0.00    -0.550 OA
ENDBRANCH   5   6
ENDBRANCH   1   5
TORSDOF 3
ENDMDL
MODEL 8
REMARK VINA RESULT:    -2.517      9.430     10.162
REMARK INTER + INTRA:          -3.048
REMARK INTER:                  -2.948
REMARK INTRA:                  -0.099
REMARK UNBOUND:                -0.089
REMARK SMILES O=C([O-])CCC(=O)[O-]
REMARK SMILES IDX 4 1 2 2 1 3 3 4 5 5 6 6 7 7 8 8
REMARK H PARENT
REMARK Flexibility Score: inf
ROOT
ATOM      1  C   UNL     1      57.997  28.363  50.824  1.00  0.00     0.059 C 
ENDROOT
BRANCH   1   2
ATOM      2  C   UNL     1      56.601  27.847  50.653  1.00  0.00     0.042 C 
ATOM      3  O   UNL     1      55.627  28.646  50.653  1.00  0.00    -0.550 OA
ATOM      4  O   UNL     1      56.378  26.490  50.455  1.00  0.00    -0.550 OA
ENDBRANCH   1   2
BRANCH   1   5
ATOM      5  C   UNL     1      58.806  28.242  49.527  1.00  0.00     0.059 C 
BRANCH   5   6
ATOM      6  C   UNL     1      59.836  27.158  49.620  1.00  0.00     0.042 C 
ATOM      7  O   UNL     1      61.061  27.449  49.648  1.00  0.00    -0.550 OA
ATOM      8  O   UNL     1      59.444  25.826  49.634  1.00  0.00    -0.550 OA
ENDBRANCH   5   6
ENDBRANCH   1   5
TORSDOF 3
ENDMDL
MODEL 9
REMARK VINA RESULT:    -2.513      9.500     10.772
REMARK INTER + INTRA:          -3.042
REMARK INTER:                  -2.936
REMARK INTRA:                  -0.106
REMARK UNBOUND:                -0.089
REMARK SMILES O=C([O-])CCC(=O)[O-]
REMARK SMILES IDX 4 1 2 2 1 3 3 4 5 5 6 6 7 7 8 8
REMARK H PARENT
REMARK Flexibility Score: inf
ROOT
ATOM      1  C   UNL     1      58.853  28.242  49.456  1.00  0.00     0.059 C 
ENDROOT
BRANCH   1   2
ATOM      2  C   UNL     1      59.907  27.191  49.632  1.00  0.00     0.042 C 
ATOM      3  O   UNL     1      59.592  25.971  49.617  1.00  0.00    -0.550 OA
ATOM      4  O   UNL     1      61.239  27.556  49.771  1.00  0.00    -0.550 OA
ENDBRANCH   1   2
BRANCH   1   5
ATOM      5  C   UNL     1      58.052  28.459  50.745  1.00  0.00     0.059 C 
BRANCH   5   6
ATOM      6  C   UNL     1      56.669  27.894  50.636  1.00  0.00     0.042 C 
ATOM      7  O   UNL     1      55.666  28.650  50.724  1.00  0.00    -0.550 OA
ATOM      8  O   UNL     1      56.488  26.526  50.476  1.00  0.00    -0.550 OA
ENDBRANCH   5   6
ENDBRANCH   1   5
TORSDOF 3
ENDMDL
