MODEL 1
REMARK VINA RESULT:    -5.657      0.000      0.000
REMARK INTER + INTRA:          -7.132
REMARK INTER:                  -6.979
REMARK INTRA:                  -0.153
REMARK UNBOUND:                -0.153
REMARK SMILES CCOC(=O)c1ccc(O)c(O)c1
REMARK SMILES IDX 4 1 5 2 3 3 2 4 1 5 6 6 13 7 7 8 11 9 8 10 9 11 12 12 10 14
REMARK H PARENT 12 13 10 15
REMARK Flexibility Score: inf
ROOT
ATOM      1  C   UNL     1     -29.208  -4.010 -17.846  1.00  0.00     0.338 C 
ATOM      2  O   UNL     1     -28.104  -3.423 -17.677  1.00  0.00    -0.246 OA
ENDROOT
BRANCH   1   3
ATOM      3  O   UNL     1     -29.503  -5.174 -17.124  1.00  0.00    -0.462 OA
BRANCH   3   4
ATOM      4  C   UNL     1     -28.548  -6.198 -16.855  1.00  0.00     0.230 C 
ATOM      5  C   UNL     1     -29.134  -7.572 -17.157  1.00  0.00     0.049 C 
ENDBRANCH   3   4
ENDBRANCH   1   3
BRANCH   1   6
ATOM      6  C   UNL     1     -30.191  -3.475 -18.814  1.00  0.00     0.064 A 
ATOM      7  C   UNL     1     -29.756  -2.898 -20.020  1.00  0.00     0.065 A 
ATOM      8  C   UNL     1     -31.569  -3.538 -18.547  1.00  0.00     0.020 A 
ATOM      9  C   UNL     1     -30.682  -2.390 -20.943  1.00  0.00     0.158 A 
ATOM     10  C   UNL     1     -32.494  -3.032 -19.466  1.00  0.00     0.051 A 
ATOM     11  C   UNL     1     -32.054  -2.458 -20.664  1.00  0.00     0.157 A 
BRANCH   9  12
ATOM     12  O   UNL     1     -30.249  -1.818 -22.137  1.00  0.00    -0.504 OA
ATOM     13  H   UNL     1     -29.941  -0.853 -22.181  1.00  0.00     0.293 HD
ENDBRANCH   9  12
BRANCH  11  14
ATOM     14  O   UNL     1     -32.971  -1.952 -21.584  1.00  0.00    -0.504 OA
ATOM     15  H   UNL     1     -33.275  -2.496 -22.383  1.00  0.00     0.293 HD
ENDBRANCH  11  14
ENDBRANCH   1   6
TORSDOF 5
ENDMDL
MODEL 2
REMARK VINA RESULT:    -5.650      2.962      4.806
REMARK INTER + INTRA:          -7.124
REMARK INTER:                  -6.836
REMARK INTRA:                  -0.289
REMARK UNBOUND:                -0.153
REMARK SMILES CCOC(=O)c1ccc(O)c(O)c1
REMARK SMILES IDX 4 1 5 2 3 3 2 4 1 5 6 6 13 7 7 8 11 9 8 10 9 11 12 12 10 14
REMARK H PARENT 12 13 10 15
REMARK Flexibility Score: inf
ROOT
ATOM      1  C   UNL     1     -34.457  -4.244 -17.841  1.00  0.00     0.338 C 
ATOM      2  O   UNL     1     -35.200  -5.115 -18.373  1.00  0.00    -0.246 OA
ENDROOT
BRANCH   1   3
ATOM      3  O   UNL     1     -34.652  -3.878 -16.503  1.00  0.00    -0.462 OA
BRANCH   3   4
ATOM      4  C   UNL     1     -35.843  -3.258 -16.020  1.00  0.00     0.230 C 
ATOM      5  C   UNL     1     -36.145  -1.989 -16.809  1.00  0.00     0.049 C 
ENDBRANCH   3   4
ENDBRANCH   1   3
BRANCH   1   6
ATOM      6  C   UNL     1     -33.385  -3.601 -18.632  1.00  0.00     0.064 A 
ATOM      7  C   UNL     1     -33.636  -3.166 -19.945  1.00  0.00     0.065 A 
ATOM      8  C   UNL     1     -32.104  -3.413 -18.084  1.00  0.00     0.020 A 
ATOM      9  C   UNL     1     -32.625  -2.554 -20.699  1.00  0.00     0.158 A 
ATOM     10  C   UNL     1     -31.095  -2.804 -18.836  1.00  0.00     0.051 A 
ATOM     11  C   UNL     1     -31.352  -2.373 -20.143  1.00  0.00     0.157 A 
BRANCH   9  12
ATOM     12  O   UNL     1     -32.876  -2.124 -22.001  1.00  0.00    -0.504 OA
ATOM     13  H   UNL     1     -33.715  -2.401 -22.498  1.00  0.00     0.293 HD
ENDBRANCH   9  12
BRANCH  11  14
ATOM     14  O   UNL     1     -30.349  -1.765 -20.896  1.00  0.00    -0.504 OA
ATOM     15  H   UNL     1     -29.775  -2.295 -21.542  1.00  0.00     0.293 HD
ENDBRANCH  11  14
ENDBRANCH   1   6
TORSDOF 5
ENDMDL
MODEL 3
REMARK VINA RESULT:    -5.214      0.745      1.875
REMARK INTER + INTRA:          -6.586
REMARK INTER:                  -6.429
REMARK INTRA:                  -0.157
REMARK UNBOUND:                -0.153
REMARK SMILES CCOC(=O)c1ccc(O)c(O)c1
REMARK SMILES IDX 4 1 5 2 3 3 2 4 1 5 6 6 13 7 7 8 11 9 8 10 9 11 12 12 10 14
REMARK H PARENT 12 13 10 15
REMARK Flexibility Score: inf
ROOT
ATOM      1  C   UNL     1     -29.213  -4.036 -17.824  1.00  0.00     0.338 C 
ATOM      2  O   UNL     1     -28.114  -3.457 -17.597  1.00  0.00    -0.246 OA
ENDROOT
BRANCH   1   3
ATOM      3  O   UNL     1     -29.541  -5.212 -17.138  1.00  0.00    -0.462 OA
BRANCH   3   4
ATOM      4  C   UNL     1     -28.603  -6.249 -16.856  1.00  0.00     0.230 C 
ATOM      5  C   UNL     1     -29.199  -7.615 -17.175  1.00  0.00     0.049 C 
ENDBRANCH   3   4
ENDBRANCH   1   3
BRANCH   1   6
ATOM      6  C   UNL     1     -30.152  -3.478 -18.821  1.00  0.00     0.064 A 
ATOM      7  C   UNL     1     -31.540  -3.597 -18.632  1.00  0.00     0.065 A 
ATOM      8  C   UNL     1     -29.674  -2.819 -19.967  1.00  0.00     0.020 A 
ATOM      9  C   UNL     1     -32.437  -3.068 -19.572  1.00  0.00     0.158 A 
ATOM     10  C   UNL     1     -30.567  -2.292 -20.905  1.00  0.00     0.051 A 
ATOM     11  C   UNL     1     -31.948  -2.415 -20.711  1.00  0.00     0.157 A 
BRANCH   9  12
ATOM     12  O   UNL     1     -33.812  -3.188 -19.383  1.00  0.00    -0.504 OA
ATOM     13  H   UNL     1     -34.311  -4.032 -19.642  1.00  0.00     0.293 HD
ENDBRANCH   9  12
BRANCH  11  14
ATOM     14  O   UNL     1     -32.842  -1.891 -21.644  1.00  0.00    -0.504 OA
ATOM     15  H   UNL     1     -33.275  -0.984 -21.511  1.00  0.00     0.293 HD
ENDBRANCH  11  14
ENDBRANCH   1   6
TORSDOF 5
ENDMDL
MODEL 4
REMARK VINA RESULT:    -5.076      2.810      4.583
REMARK INTER + INTRA:          -6.415
REMARK INTER:                  -6.234
REMARK INTRA:                  -0.181
REMARK UNBOUND:                -0.153
REMARK SMILES CCOC(=O)c1ccc(O)c(O)c1
REMARK SMILES IDX 4 1 5 2 3 3 2 4 1 5 6 6 13 7 7 8 11 9 8 10 9 11 12 12 10 14
REMARK H PARENT 12 13 10 15
REMARK Flexibility Score: inf
ROOT
ATOM      1  C   UNL     1     -31.714  -2.873 -18.874  1.00  0.00     0.338 C 
ATOM      2  O   UNL     1     -31.064  -2.995 -17.799  1.00  0.00    -0.246 OA
ENDROOT
BRANCH   1   3
ATOM      3  O   UNL     1     -31.194  -2.110 -19.927  1.00  0.00    -0.462 OA
BRANCH   3   4
ATOM      4  C   UNL     1     -29.997  -2.444 -20.626  1.00  0.00     0.230 C 
ATOM      5  C   UNL     1     -29.902  -1.662 -21.932  1.00  0.00     0.049 C 
ENDBRANCH   3   4
ENDBRANCH   1   3
BRANCH   1   6
ATOM      6  C   UNL     1     -33.032  -3.530 -19.022  1.00  0.00     0.064 A 
ATOM      7  C   UNL     1     -33.388  -4.140 -20.238  1.00  0.00     0.065 A 
ATOM      8  C   UNL     1     -33.944  -3.558 -17.952  1.00  0.00     0.020 A 
ATOM      9  C   UNL     1     -34.635  -4.766 -20.383  1.00  0.00     0.158 A 
ATOM     10  C   UNL     1     -35.187  -4.181 -18.097  1.00  0.00     0.051 A 
ATOM     11  C   UNL     1     -35.535  -4.785 -19.310  1.00  0.00     0.157 A 
BRANCH   9  12
ATOM     12  O   UNL     1     -34.986  -5.369 -21.589  1.00  0.00    -0.504 OA
ATOM     13  H   UNL     1     -34.452  -6.142 -21.970  1.00  0.00     0.293 HD
ENDBRANCH   9  12
BRANCH  11  14
ATOM     14  O   UNL     1     -36.774  -5.408 -19.459  1.00  0.00    -0.504 OA
ATOM     15  H   UNL     1     -37.048  -6.188 -18.872  1.00  0.00     0.293 HD
ENDBRANCH  11  14
ENDBRANCH   1   6
TORSDOF 5
ENDMDL
MODEL 5
REMARK VINA RESULT:    -5.072      6.765      9.093
REMARK INTER + INTRA:          -6.411
REMARK INTER:                  -6.129
REMARK INTRA:                  -0.282
REMARK UNBOUND:                -0.153
REMARK SMILES CCOC(=O)c1ccc(O)c(O)c1
REMARK SMILES IDX 4 1 5 2 3 3 2 4 1 5 6 6 13 7 7 8 11 9 8 10 9 11 12 12 10 14
REMARK H PARENT 12 13 10 15
REMARK Flexibility Score: inf
ROOT
ATOM      1  C   UNL     1     -37.662  -5.862 -16.945  1.00  0.00     0.338 C 
ATOM      2  O   UNL     1     -38.896  -5.623 -16.840  1.00  0.00    -0.246 OA
ENDROOT
BRANCH   1   3
ATOM      3  O   UNL     1     -36.960  -5.444 -18.083  1.00  0.00    -0.462 OA
BRANCH   3   4
ATOM      4  C   UNL     1     -36.411  -4.137 -18.235  1.00  0.00     0.230 C 
ATOM      5  C   UNL     1     -34.951  -4.113 -17.799  1.00  0.00     0.049 C 
ENDBRANCH   3   4
ENDBRANCH   1   3
BRANCH   1   6
ATOM      6  C   UNL     1     -36.954  -6.592 -15.871  1.00  0.00     0.064 A 
ATOM      7  C   UNL     1     -36.412  -5.894 -14.777  1.00  0.00     0.065 A 
ATOM      8  C   UNL     1     -36.815  -7.990 -15.924  1.00  0.00     0.020 A 
ATOM      9  C   UNL     1     -35.741  -6.580 -13.754  1.00  0.00     0.158 A 
ATOM     10  C   UNL     1     -36.146  -8.675 -14.905  1.00  0.00     0.051 A 
ATOM     11  C   UNL     1     -35.608  -7.973 -13.819  1.00  0.00     0.157 A 
BRANCH   9  12
ATOM     12  O   UNL     1     -35.204  -5.887 -12.672  1.00  0.00    -0.504 OA
ATOM     13  H   UNL     1     -35.659  -5.063 -12.292  1.00  0.00     0.293 HD
ENDBRANCH   9  12
BRANCH  11  14
ATOM     14  O   UNL     1     -34.941  -8.652 -12.801  1.00  0.00    -0.504 OA
ATOM     15  H   UNL     1     -33.934  -8.769 -12.812  1.00  0.00     0.293 HD
ENDBRANCH  11  14
ENDBRANCH   1   6
TORSDOF 5
ENDMDL
MODEL 6
REMARK VINA RESULT:    -5.069      4.286      5.378
REMARK INTER + INTRA:          -6.407
REMARK INTER:                  -6.128
REMARK INTRA:                  -0.279
REMARK UNBOUND:                -0.153
REMARK SMILES CCOC(=O)c1ccc(O)c(O)c1
REMARK SMILES IDX 4 1 5 2 3 3 2 4 1 5 6 6 13 7 7 8 11 9 8 10 9 11 12 12 10 14
REMARK H PARENT 12 13 10 15
REMARK Flexibility Score: inf
ROOT
ATOM      1  C   UNL     1     -35.628  -4.012 -16.524  1.00  0.00     0.338 C 
ATOM      2  O   UNL     1     -36.197  -2.932 -16.204  1.00  0.00    -0.246 OA
ENDROOT
BRANCH   1   3
ATOM      3  O   UNL     1     -35.614  -5.090 -15.630  1.00  0.00    -0.462 OA
BRANCH   3   4
ATOM      4  C   UNL     1     -36.672  -6.040 -15.523  1.00  0.00     0.230 C 
ATOM      5  C   UNL     1     -36.225  -7.403 -16.039  1.00  0.00     0.049 C 
ENDBRANCH   3   4
ENDBRANCH   1   3
BRANCH   1   6
ATOM      6  C   UNL     1     -34.967  -4.140 -17.842  1.00  0.00     0.064 A 
ATOM      7  C   UNL     1     -33.716  -3.541 -18.069  1.00  0.00     0.065 A 
ATOM      8  C   UNL     1     -35.576  -4.863 -18.883  1.00  0.00     0.020 A 
ATOM      9  C   UNL     1     -33.084  -3.660 -19.315  1.00  0.00     0.158 A 
ATOM     10  C   UNL     1     -34.947  -4.981 -20.126  1.00  0.00     0.051 A 
ATOM     11  C   UNL     1     -33.701  -4.381 -20.345  1.00  0.00     0.157 A 
BRANCH   9  12
ATOM     12  O   UNL     1     -31.844  -3.064 -19.538  1.00  0.00    -0.504 OA
ATOM     13  H   UNL     1     -30.978  -3.568 -19.379  1.00  0.00     0.293 HD
ENDBRANCH   9  12
BRANCH  11  14
ATOM     14  O   UNL     1     -33.070  -4.497 -21.582  1.00  0.00    -0.504 OA
ATOM     15  H   UNL     1     -33.443  -4.049 -22.412  1.00  0.00     0.293 HD
ENDBRANCH  11  14
ENDBRANCH   1   6
TORSDOF 5
ENDMDL
MODEL 7
REMARK VINA RESULT:    -5.040      7.480      8.588
REMARK INTER + INTRA:          -6.372
REMARK INTER:                  -6.075
REMARK INTRA:                  -0.297
REMARK UNBOUND:                -0.153
REMARK SMILES CCOC(=O)c1ccc(O)c(O)c1
REMARK SMILES IDX 4 1 5 2 3 3 2 4 1 5 6 6 13 7 7 8 11 9 8 10 9 11 12 12 10 14
REMARK H PARENT 12 13 10 15
REMARK Flexibility Score: inf
ROOT
ATOM      1  C   UNL     1     -37.141  -8.022 -14.443  1.00  0.00     0.338 C 
ATOM      2  O   UNL     1     -36.460  -8.761 -13.678  1.00  0.00    -0.246 OA
ENDROOT
BRANCH   1   3
ATOM      3  O   UNL     1     -38.443  -8.393 -14.800  1.00  0.00    -0.462 OA
BRANCH   3   4
ATOM      4  C   UNL     1     -39.513  -8.516 -13.864  1.00  0.00     0.230 C 
ATOM      5  C   UNL     1     -39.888  -7.152 -13.295  1.00  0.00     0.049 C 
ENDBRANCH   3   4
ENDBRANCH   1   3
BRANCH   1   6
ATOM      6  C   UNL     1     -36.561  -6.767 -14.970  1.00  0.00     0.064 A 
ATOM      7  C   UNL     1     -36.215  -6.662 -16.329  1.00  0.00     0.065 A 
ATOM      8  C   UNL     1     -36.350  -5.664 -14.125  1.00  0.00     0.020 A 
ATOM      9  C   UNL     1     -35.667  -5.474 -16.835  1.00  0.00     0.158 A 
ATOM     10  C   UNL     1     -35.803  -4.480 -14.629  1.00  0.00     0.051 A 
ATOM     11  C   UNL     1     -35.461  -4.382 -15.983  1.00  0.00     0.157 A 
BRANCH   9  12
ATOM     12  O   UNL     1     -35.325  -5.372 -18.182  1.00  0.00    -0.504 OA
ATOM     13  H   UNL     1     -35.862  -5.841 -18.902  1.00  0.00     0.293 HD
ENDBRANCH   9  12
BRANCH  11  14
ATOM     14  O   UNL     1     -34.916  -3.203 -16.489  1.00  0.00    -0.504 OA
ATOM     15  H   UNL     1     -34.781  -3.066 -17.485  1.00  0.00     0.293 HD
ENDBRANCH  11  14
ENDBRANCH   1   6
TORSDOF 5
ENDMDL
MODEL 8
REMARK VINA RESULT:    -4.951      4.746      5.989
REMARK INTER + INTRA:          -6.261
REMARK INTER:                  -6.104
REMARK INTRA:                  -0.158
REMARK UNBOUND:                -0.153
REMARK SMILES CCOC(=O)c1ccc(O)c(O)c1
REMARK SMILES IDX 4 1 5 2 3 3 2 4 1 5 6 6 13 7 7 8 11 9 8 10 9 11 12 12 10 14
REMARK H PARENT 12 13 10 15
REMARK Flexibility Score: inf
ROOT
ATOM      1  C   UNL     1     -36.329  -4.969 -17.099  1.00  0.00     0.338 C 
ATOM      2  O   UNL     1     -37.261  -4.156 -16.846  1.00  0.00    -0.246 OA
ENDROOT
BRANCH   1   3
ATOM      3  O   UNL     1     -36.147  -6.101 -16.294  1.00  0.00    -0.462 OA
BRANCH   3   4
ATOM      4  C   UNL     1     -37.103  -7.154 -16.188  1.00  0.00     0.230 C 
ATOM      5  C   UNL     1     -36.433  -8.441 -15.718  1.00  0.00     0.049 C 
ENDBRANCH   3   4
ENDBRANCH   1   3
BRANCH   1   6
ATOM      6  C   UNL     1     -35.421  -4.723 -18.240  1.00  0.00     0.064 A 
ATOM      7  C   UNL     1     -35.689  -5.296 -19.496  1.00  0.00     0.065 A 
ATOM      8  C   UNL     1     -34.281  -3.914 -18.090  1.00  0.00     0.020 A 
ATOM      9  C   UNL     1     -34.833  -5.066 -20.583  1.00  0.00     0.158 A 
ATOM     10  C   UNL     1     -33.427  -3.684 -19.173  1.00  0.00     0.051 A 
ATOM     11  C   UNL     1     -33.700  -4.258 -20.420  1.00  0.00     0.157 A 
BRANCH   9  12
ATOM     12  O   UNL     1     -35.100  -5.635 -21.826  1.00  0.00    -0.504 OA
ATOM     13  H   UNL     1     -34.448  -5.552 -22.598  1.00  0.00     0.293 HD
ENDBRANCH   9  12
BRANCH  11  14
ATOM     14  O   UNL     1     -32.851  -4.032 -21.502  1.00  0.00    -0.504 OA
ATOM     15  H   UNL     1     -31.847  -3.965 -21.384  1.00  0.00     0.293 HD
ENDBRANCH  11  14
ENDBRANCH   1   6
TORSDOF 5
ENDMDL
MODEL 9
REMARK VINA RESULT:    -4.934      5.735      6.870
REMARK INTER + INTRA:          -6.241
REMARK INTER:                  -5.951
REMARK INTRA:                  -0.290
REMARK UNBOUND:                -0.153
REMARK SMILES CCOC(=O)c1ccc(O)c(O)c1
REMARK SMILES IDX 4 1 5 2 3 3 2 4 1 5 6 6 13 7 7 8 11 9 8 10 9 11 12 12 10 14
REMARK H PARENT 12 13 10 15
REMARK Flexibility Score: inf
ROOT
ATOM      1  C   UNL     1     -36.166  -6.058 -15.371  1.00  0.00     0.338 C 
ATOM      2  O   UNL     1     -36.531  -5.492 -14.303  1.00  0.00    -0.246 OA
ENDROOT
BRANCH   1   3
ATOM      3  O   UNL     1     -35.958  -7.443 -15.396  1.00  0.00    -0.462 OA
BRANCH   3   4
ATOM      4  C   UNL     1     -36.919  -8.393 -14.938  1.00  0.00     0.230 C 
ATOM      5  C   UNL     1     -38.156  -8.377 -15.829  1.00  0.00     0.049 C 
ENDBRANCH   3   4
ENDBRANCH   1   3
BRANCH   1   6
ATOM      6  C   UNL     1     -35.950  -5.259 -16.597  1.00  0.00     0.064 A 
ATOM      7  C   UNL     1     -36.598  -5.608 -17.795  1.00  0.00     0.065 A 
ATOM      8  C   UNL     1     -35.098  -4.141 -16.583  1.00  0.00     0.020 A 
ATOM      9  C   UNL     1     -36.398  -4.853 -18.960  1.00  0.00     0.158 A 
ATOM     10  C   UNL     1     -34.898  -3.388 -17.745  1.00  0.00     0.051 A 
ATOM     11  C   UNL     1     -35.546  -3.742 -18.934  1.00  0.00     0.157 A 
BRANCH   9  12
ATOM     12  O   UNL     1     -37.042  -5.200 -20.146  1.00  0.00    -0.504 OA
ATOM     13  H   UNL     1     -37.930  -5.689 -20.143  1.00  0.00     0.293 HD
ENDBRANCH   9  12
BRANCH  11  14
ATOM     14  O   UNL     1     -35.350  -2.994 -20.094  1.00  0.00    -0.504 OA
ATOM     15  H   UNL     1     -36.043  -2.972 -20.834  1.00  0.00     0.293 HD
ENDBRANCH  11  14
ENDBRANCH   1   6
TORSDOF 5
ENDMDL
