MODEL 1
REMARK VINA RESULT:    -4.031      0.000      0.000
REMARK INTER + INTRA:          -5.905
REMARK INTER:                  -5.209
REMARK INTRA:                  -0.696
REMARK UNBOUND:                -0.696
REMARK SMILES CCCCC(=O)c1ccccc1C(=O)[O-]
REMARK SMILES IDX 4 1 5 2 6 3 7 4 12 5 11 6 10 7 8 8 9 9 13 10 14 11 15 12
REMARK SMILES IDX 3 13 2 14 1 15
REMARK H PARENT
REMARK Flexibility Score: inf
ROOT
ATOM      1  C   UNL     1      34.579 182.799 171.802  1.00  0.00     0.081 C 
ENDROOT
BRANCH   1   2
ATOM      2  C   UNL     1      35.731 183.764 171.881  1.00  0.00     0.163 C 
ATOM      3  O   UNL     1      35.506 184.961 172.204  1.00  0.00    -0.294 OA
BRANCH   2   4
ATOM      4  C   UNL     1      37.125 183.334 171.605  1.00  0.00     0.027 A 
ATOM      5  C   UNL     1      37.811 183.707 170.415  1.00  0.00     0.008 A 
ATOM      6  C   UNL     1      39.165 183.353 170.269  1.00  0.00     0.011 A 
ATOM      7  C   UNL     1      39.823 182.620 171.257  1.00  0.00     0.001 A 
ATOM      8  C   UNL     1      37.805 182.584 172.583  1.00  0.00     0.012 A 
ATOM      9  C   UNL     1      39.142 182.228 172.407  1.00  0.00     0.001 A 
BRANCH   5  10
ATOM     10  C   UNL     1      37.148 184.408 169.289  1.00  0.00     0.072 C 
ATOM     11  O   UNL     1      36.760 183.776 168.271  1.00  0.00    -0.545 OA
ATOM     12  O   UNL     1      36.994 185.789 169.321  1.00  0.00    -0.545 OA
ENDBRANCH   5  10
ENDBRANCH   2   4
ENDBRANCH   1   2
BRANCH   1  13
ATOM     13  C   UNL     1      34.303 182.390 170.348  1.00  0.00     0.008 C 
BRANCH  13  14
ATOM     14  C   UNL     1      33.891 180.917 170.217  1.00  0.00    -0.003 C 
ATOM     15  C   UNL     1      34.658 180.003 171.173  1.00  0.00     0.004 C 
ENDBRANCH  13  14
ENDBRANCH   1  13
TORSDOF 5
ENDMDL
MODEL 2
REMARK VINA RESULT:    -3.960     19.508     21.038
REMARK INTER + INTRA:          -5.813
REMARK INTER:                  -5.051
REMARK INTRA:                  -0.762
REMARK UNBOUND:                -0.696
REMARK SMILES CCCCC(=O)c1ccccc1C(=O)[O-]
REMARK SMILES IDX 4 1 5 2 6 3 7 4 12 5 11 6 10 7 8 8 9 9 13 10 14 11 15 12
REMARK SMILES IDX 3 13 2 14 1 15
REMARK H PARENT
REMARK Flexibility Score: inf
ROOT
ATOM      1  C   UNL     1      29.956 169.070 158.205  1.00  0.00     0.081 C 
ENDROOT
BRANCH   1   2
ATOM      2  C   UNL     1      30.625 168.027 157.352  1.00  0.00     0.163 C 
ATOM      3  O   UNL     1      30.116 166.876 157.279  1.00  0.00    -0.294 OA
BRANCH   2   4
ATOM      4  C   UNL     1      31.857 168.328 156.581  1.00  0.00     0.027 A 
ATOM      5  C   UNL     1      31.818 168.964 155.309  1.00  0.00     0.008 A 
ATOM      6  C   UNL     1      33.029 169.315 154.684  1.00  0.00     0.011 A 
ATOM      7  C   UNL     1      34.254 169.016 155.280  1.00  0.00     0.001 A 
ATOM      8  C   UNL     1      33.105 168.025 157.159  1.00  0.00     0.012 A 
ATOM      9  C   UNL     1      34.292 168.365 156.511  1.00  0.00     0.001 A 
BRANCH   5  10
ATOM     10  C   UNL     1      30.554 169.229 154.579  1.00  0.00     0.072 C 
ATOM     11  O   UNL     1      30.017 170.368 154.605  1.00  0.00    -0.545 OA
ATOM     12  O   UNL     1      29.915 168.201 153.895  1.00  0.00    -0.545 OA
ENDBRANCH   5  10
ENDBRANCH   2   4
ENDBRANCH   1   2
BRANCH   1  13
ATOM     13  C   UNL     1      30.808 169.398 159.441  1.00  0.00     0.008 C 
BRANCH  13  14
ATOM     14  C   UNL     1      30.780 168.277 160.489  1.00  0.00    -0.003 C 
ATOM     15  C   UNL     1      32.159 167.666 160.736  1.00  0.00     0.004 C 
ENDBRANCH  13  14
ENDBRANCH   1  13
TORSDOF 5
ENDMDL
MODEL 3
REMARK VINA RESULT:    -3.940      2.590      4.880
REMARK INTER + INTRA:          -5.788
REMARK INTER:                  -5.406
REMARK INTRA:                  -0.381
REMARK UNBOUND:                -0.696
REMARK SMILES CCCCC(=O)c1ccccc1C(=O)[O-]
REMARK SMILES IDX 4 1 5 2 6 3 7 4 12 5 11 6 10 7 8 8 9 9 13 10 14 11 15 12
REMARK SMILES IDX 3 13 2 14 1 15
REMARK H PARENT
REMARK Flexibility Score: inf
ROOT
ATOM      1  C   UNL     1      39.679 182.067 172.281  1.00  0.00     0.081 C 
ENDROOT
BRANCH   1   2
ATOM      2  C   UNL     1      39.435 183.159 171.274  1.00  0.00     0.163 C 
ATOM      3  O   UNL     1      39.684 182.938 170.059  1.00  0.00    -0.294 OA
BRANCH   2   4
ATOM      4  C   UNL     1      38.890 184.479 171.677  1.00  0.00     0.027 A 
ATOM      5  C   UNL     1      37.620 184.942 171.232  1.00  0.00     0.008 A 
ATOM      6  C   UNL     1      37.121 186.156 171.739  1.00  0.00     0.011 A 
ATOM      7  C   UNL     1      37.867 186.917 172.639  1.00  0.00     0.001 A 
ATOM      8  C   UNL     1      39.632 185.268 172.577  1.00  0.00     0.012 A 
ATOM      9  C   UNL     1      39.124 186.478 173.050  1.00  0.00     0.001 A 
BRANCH   5  10
ATOM     10  C   UNL     1      36.815 184.229 170.210  1.00  0.00     0.072 C 
ATOM     11  O   UNL     1      36.931 184.504 168.987  1.00  0.00    -0.545 OA
ATOM     12  O   UNL     1      35.879 183.279 170.599  1.00  0.00    -0.545 OA
ENDBRANCH   5  10
ENDBRANCH   2   4
ENDBRANCH   1   2
BRANCH   1  13
ATOM     13  C   UNL     1      40.986 181.321 171.975  1.00  0.00     0.008 C 
BRANCH  13  14
ATOM     14  C   UNL     1      42.232 182.170 172.263  1.00  0.00    -0.003 C 
ATOM     15  C   UNL     1      43.395 181.345 172.813  1.00  0.00     0.004 C 
ENDBRANCH  13  14
ENDBRANCH   1  13
TORSDOF 5
ENDMDL
MODEL 4
REMARK VINA RESULT:    -3.909      1.803      4.523
REMARK INTER + INTRA:          -5.747
REMARK INTER:                  -5.243
REMARK INTRA:                  -0.504
REMARK UNBOUND:                -0.696
REMARK SMILES CCCCC(=O)c1ccccc1C(=O)[O-]
REMARK SMILES IDX 4 1 5 2 6 3 7 4 12 5 11 6 10 7 8 8 9 9 13 10 14 11 15 12
REMARK SMILES IDX 3 13 2 14 1 15
REMARK H PARENT
REMARK Flexibility Score: inf
ROOT
ATOM      1  C   UNL     1      39.981 182.831 171.088  1.00  0.00     0.081 C 
ENDROOT
BRANCH   1   2
ATOM      2  C   UNL     1      38.885 183.406 171.945  1.00  0.00     0.163 C 
ATOM      3  O   UNL     1      39.168 184.314 172.773  1.00  0.00    -0.294 OA
BRANCH   2   4
ATOM      4  C   UNL     1      37.481 182.943 171.823  1.00  0.00     0.027 A 
ATOM      5  C   UNL     1      36.627 183.381 170.772  1.00  0.00     0.008 A 
ATOM      6  C   UNL     1      35.342 182.819 170.658  1.00  0.00     0.011 A 
ATOM      7  C   UNL     1      34.892 181.870 171.577  1.00  0.00     0.001 A 
ATOM      8  C   UNL     1      37.002 181.994 172.747  1.00  0.00     0.012 A 
ATOM      9  C   UNL     1      35.717 181.466 172.624  1.00  0.00     0.001 A 
BRANCH   5  10
ATOM     10  C   UNL     1      37.009 184.449 169.816  1.00  0.00     0.072 C 
ATOM     11  O   UNL     1      37.346 184.171 168.635  1.00  0.00    -0.545 OA
ATOM     12  O   UNL     1      37.049 185.775 170.232  1.00  0.00    -0.545 OA
ENDBRANCH   5  10
ENDBRANCH   2   4
ENDBRANCH   1   2
BRANCH   1  13
ATOM     13  C   UNL     1      40.769 181.757 171.852  1.00  0.00     0.008 C 
BRANCH  13  14
ATOM     14  C   UNL     1      42.075 182.298 172.450  1.00  0.00    -0.003 C 
ATOM     15  C   UNL     1      43.290 181.448 172.080  1.00  0.00     0.004 C 
ENDBRANCH  13  14
ENDBRANCH   1  13
TORSDOF 5
ENDMDL
MODEL 5
REMARK VINA RESULT:    -3.878      1.913      3.362
REMARK INTER + INTRA:          -5.707
REMARK INTER:                  -4.682
REMARK INTRA:                  -1.025
REMARK UNBOUND:                -0.696
REMARK SMILES CCCCC(=O)c1ccccc1C(=O)[O-]
REMARK SMILES IDX 4 1 5 2 6 3 7 4 12 5 11 6 10 7 8 8 9 9 13 10 14 11 15 12
REMARK SMILES IDX 3 13 2 14 1 15
REMARK H PARENT
REMARK Flexibility Score: inf
ROOT
ATOM      1  C   UNL     1      35.898 185.322 173.082  1.00  0.00     0.081 C 
ENDROOT
BRANCH   1   2
ATOM      2  C   UNL     1      36.008 184.154 172.140  1.00  0.00     0.163 C 
ATOM      3  O   UNL     1      34.955 183.658 171.654  1.00  0.00    -0.294 OA
BRANCH   2   4
ATOM      4  C   UNL     1      37.324 183.587 171.755  1.00  0.00     0.027 A 
ATOM      5  C   UNL     1      37.886 183.785 170.463  1.00  0.00     0.008 A 
ATOM      6  C   UNL     1      39.184 183.310 170.203  1.00  0.00     0.011 A 
ATOM      7  C   UNL     1      39.904 182.625 171.182  1.00  0.00     0.001 A 
ATOM      8  C   UNL     1      38.064 182.883 172.725  1.00  0.00     0.012 A 
ATOM      9  C   UNL     1      39.342 182.404 172.437  1.00  0.00     0.001 A 
BRANCH   5  10
ATOM     10  C   UNL     1      37.142 184.425 169.350  1.00  0.00     0.072 C 
ATOM     11  O   UNL     1      36.641 183.734 168.424  1.00  0.00    -0.545 OA
ATOM     12  O   UNL     1      37.032 185.809 169.290  1.00  0.00    -0.545 OA
ENDBRANCH   5  10
ENDBRANCH   2   4
ENDBRANCH   1   2
BRANCH   1  13
ATOM     13  C   UNL     1      36.866 186.445 172.681  1.00  0.00     0.008 C 
BRANCH  13  14
ATOM     14  C   UNL     1      38.049 186.578 173.651  1.00  0.00    -0.003 C 
ATOM     15  C   UNL     1      39.402 186.445 172.954  1.00  0.00     0.004 C 
ENDBRANCH  13  14
ENDBRANCH   1  13
TORSDOF 5
ENDMDL
MODEL 6
REMARK VINA RESULT:    -3.874      1.967      4.562
REMARK INTER + INTRA:          -5.703
REMARK INTER:                  -5.166
REMARK INTRA:                  -0.537
REMARK UNBOUND:                -0.696
REMARK SMILES CCCCC(=O)c1ccccc1C(=O)[O-]
REMARK SMILES IDX 4 1 5 2 6 3 7 4 12 5 11 6 10 7 8 8 9 9 13 10 14 11 15 12
REMARK SMILES IDX 3 13 2 14 1 15
REMARK H PARENT
REMARK Flexibility Score: inf
ROOT
ATOM      1  C   UNL     1      38.641 185.039 173.125  1.00  0.00     0.081 C 
ENDROOT
BRANCH   1   2
ATOM      2  C   UNL     1      37.499 185.563 172.295  1.00  0.00     0.163 C 
ATOM      3  O   UNL     1      37.522 186.764 171.911  1.00  0.00    -0.294 OA
BRANCH   2   4
ATOM      4  C   UNL     1      36.361 184.695 171.903  1.00  0.00     0.027 A 
ATOM      5  C   UNL     1      36.350 183.967 170.681  1.00  0.00     0.008 A 
ATOM      6  C   UNL     1      35.287 183.081 170.424  1.00  0.00     0.011 A 
ATOM      7  C   UNL     1      34.240 182.938 171.335  1.00  0.00     0.001 A 
ATOM      8  C   UNL     1      35.288 184.544 172.802  1.00  0.00     0.012 A 
ATOM      9  C   UNL     1      34.236 183.675 172.517  1.00  0.00     0.001 A 
BRANCH   5  10
ATOM     10  C   UNL     1      37.384 184.139 169.631  1.00  0.00     0.072 C 
ATOM     11  O   UNL     1      37.173 184.869 168.627  1.00  0.00    -0.545 OA
ATOM     12  O   UNL     1      38.587 183.448 169.718  1.00  0.00    -0.545 OA
ENDBRANCH   5  10
ENDBRANCH   2   4
ENDBRANCH   1   2
BRANCH   1  13
ATOM     13  C   UNL     1      39.983 185.591 172.622  1.00  0.00     0.008 C 
BRANCH  13  14
ATOM     14  C   UNL     1      41.164 184.673 172.967  1.00  0.00    -0.003 C 
ATOM     15  C   UNL     1      41.197 183.408 172.109  1.00  0.00     0.004 C 
ENDBRANCH  13  14
ENDBRANCH   1  13
TORSDOF 5
ENDMDL
MODEL 7
REMARK VINA RESULT:    -3.815      2.001      4.731
REMARK INTER + INTRA:          -5.626
REMARK INTER:                  -4.914
REMARK INTRA:                  -0.712
REMARK UNBOUND:                -0.696
REMARK SMILES CCCCC(=O)c1ccccc1C(=O)[O-]
REMARK SMILES IDX 4 1 5 2 6 3 7 4 12 5 11 6 10 7 8 8 9 9 13 10 14 11 15 12
REMARK SMILES IDX 3 13 2 14 1 15
REMARK H PARENT
REMARK Flexibility Score: inf
ROOT
ATOM      1  C   UNL     1      38.869 183.376 169.840  1.00  0.00     0.081 C 
ENDROOT
BRANCH   1   2
ATOM      2  C   UNL     1      37.562 184.114 169.720  1.00  0.00     0.163 C 
ATOM      3  O   UNL     1      37.031 184.236 168.583  1.00  0.00    -0.294 OA
BRANCH   2   4
ATOM      4  C   UNL     1      36.878 184.681 170.908  1.00  0.00     0.027 A 
ATOM      5  C   UNL     1      35.873 183.966 171.617  1.00  0.00     0.008 A 
ATOM      6  C   UNL     1      35.344 184.521 172.796  1.00  0.00     0.011 A 
ATOM      7  C   UNL     1      35.769 185.770 173.252  1.00  0.00     0.001 A 
ATOM      8  C   UNL     1      37.284 185.945 171.379  1.00  0.00     0.012 A 
ATOM      9  C   UNL     1      36.730 186.484 172.540  1.00  0.00     0.001 A 
BRANCH   5  10
ATOM     10  C   UNL     1      35.313 182.678 171.141  1.00  0.00     0.072 C 
ATOM     11  O   UNL     1      34.422 182.648 170.252  1.00  0.00    -0.545 OA
ATOM     12  O   UNL     1      35.732 181.481 171.712  1.00  0.00    -0.545 OA
ENDBRANCH   5  10
ENDBRANCH   2   4
ENDBRANCH   1   2
BRANCH   1  13
ATOM     13  C   UNL     1      39.276 183.219 171.313  1.00  0.00     0.008 C 
BRANCH  13  14
ATOM     14  C   UNL     1      40.701 183.720 171.587  1.00  0.00    -0.003 C 
ATOM     15  C   UNL     1      40.732 184.937 172.511  1.00  0.00     0.004 C 
ENDBRANCH  13  14
ENDBRANCH   1  13
TORSDOF 5
ENDMDL
MODEL 8
REMARK VINA RESULT:    -3.809     21.152     22.333
REMARK INTER + INTRA:          -5.618
REMARK INTER:                  -5.193
REMARK INTRA:                  -0.424
REMARK UNBOUND:                -0.696
REMARK SMILES CCCCC(=O)c1ccccc1C(=O)[O-]
REMARK SMILES IDX 4 1 5 2 6 3 7 4 12 5 11 6 10 7 8 8 9 9 13 10 14 11 15 12
REMARK SMILES IDX 3 13 2 14 1 15
REMARK H PARENT
REMARK Flexibility Score: inf
ROOT
ATOM      1  C   UNL     1      32.799 169.482 155.932  1.00  0.00     0.081 C 
ENDROOT
BRANCH   1   2
ATOM      2  C   UNL     1      31.933 169.214 154.731  1.00  0.00     0.163 C 
ATOM      3  O   UNL     1      32.301 168.349 153.891  1.00  0.00    -0.294 OA
BRANCH   2   4
ATOM      4  C   UNL     1      30.650 169.931 154.523  1.00  0.00     0.027 A 
ATOM      5  C   UNL     1      29.397 169.360 154.883  1.00  0.00     0.008 A 
ATOM      6  C   UNL     1      28.232 170.137 154.757  1.00  0.00     0.011 A 
ATOM      7  C   UNL     1      28.291 171.438 154.256  1.00  0.00     0.001 A 
ATOM      8  C   UNL     1      30.685 171.241 154.009  1.00  0.00     0.012 A 
ATOM      9  C   UNL     1      29.514 171.985 153.875  1.00  0.00     0.001 A 
BRANCH   5  10
ATOM     10  C   UNL     1      29.252 167.955 155.336  1.00  0.00     0.072 C 
ATOM     11  O   UNL     1      29.039 167.683 156.547  1.00  0.00    -0.545 OA
ATOM     12  O   UNL     1      29.404 166.911 154.431  1.00  0.00    -0.545 OA
ENDBRANCH   5  10
ENDBRANCH   2   4
ENDBRANCH   1   2
BRANCH   1  13
ATOM     13  C   UNL     1      34.179 168.826 155.772  1.00  0.00     0.008 C 
BRANCH  13  14
ATOM     14  C   UNL     1      34.305 167.517 156.564  1.00  0.00    -0.003 C 
ATOM     15  C   UNL     1      33.194 167.345 157.600  1.00  0.00     0.004 C 
ENDBRANCH  13  14
ENDBRANCH   1  13
TORSDOF 5
ENDMDL
MODEL 9
REMARK VINA RESULT:    -3.791     18.578     20.869
REMARK INTER + INTRA:          -5.595
REMARK INTER:                  -5.081
REMARK INTRA:                  -0.514
REMARK UNBOUND:                -0.696
REMARK SMILES CCCCC(=O)c1ccccc1C(=O)[O-]
REMARK SMILES IDX 4 1 5 2 6 3 7 4 12 5 11 6 10 7 8 8 9 9 13 10 14 11 15 12
REMARK SMILES IDX 3 13 2 14 1 15
REMARK H PARENT
REMARK Flexibility Score: inf
ROOT
ATOM      1  C   UNL     1      31.150 169.118 159.055  1.00  0.00     0.081 C 
ENDROOT
BRANCH   1   2
ATOM      2  C   UNL     1      31.254 168.156 157.902  1.00  0.00     0.163 C 
ATOM      3  O   UNL     1      30.767 166.999 158.024  1.00  0.00    -0.294 OA
BRANCH   2   4
ATOM      4  C   UNL     1      31.897 168.543 156.622  1.00  0.00     0.027 A 
ATOM      5  C   UNL     1      31.142 168.952 155.488  1.00  0.00     0.008 A 
ATOM      6  C   UNL     1      31.822 169.407 154.343  1.00  0.00     0.011 A 
ATOM      7  C   UNL     1      33.216 169.430 154.301  1.00  0.00     0.001 A 
ATOM      8  C   UNL     1      33.304 168.563 156.554  1.00  0.00     0.012 A 
ATOM      9  C   UNL     1      33.955 169.000 155.401  1.00  0.00     0.001 A 
BRANCH   5  10
ATOM     10  C   UNL     1      29.662 168.869 155.433  1.00  0.00     0.072 C 
ATOM     11  O   UNL     1      28.946 169.862 155.727  1.00  0.00    -0.545 OA
ATOM     12  O   UNL     1      29.043 167.668 155.105  1.00  0.00    -0.545 OA
ENDBRANCH   5  10
ENDBRANCH   2   4
ENDBRANCH   1   2
BRANCH   1  13
ATOM     13  C   UNL     1      29.714 169.640 159.207  1.00  0.00     0.008 C 
BRANCH  13  14
ATOM     14  C   UNL     1      29.431 170.188 160.613  1.00  0.00    -0.003 C 
ATOM     15  C   UNL     1      29.313 171.711 160.640  1.00  0.00     0.004 C 
ENDBRANCH  13  14
ENDBRANCH   1  13
TORSDOF 5
ENDMDL
