MODEL 1
REMARK VINA RESULT:    -4.105      0.000      0.000
REMARK INTER + INTRA:         -13.701
REMARK INTER:                  -9.385
REMARK INTRA:                  -4.316
REMARK UNBOUND:                -4.316
REMARK SMILES CCCCCCCCCCCCCCCCCCCCCCCC(=O)[O-]
REMARK SMILES IDX 13 1 14 2 15 3 16 4 17 5 18 6 19 7 20 8 21 9 22 10 23 11
REMARK SMILES IDX 24 12 25 13 26 14 12 15 11 16 10 17 9 18 8 19 7 20 6 21 5 22
REMARK SMILES IDX 4 23 3 24 2 25 1 26
REMARK H PARENT
REMARK Flexibility Score: inf
ROOT
ATOM      1  C   UNL     1     -14.398 -32.863  20.258  1.00  0.00     0.000 C 
ENDROOT
BRANCH   1   2
ATOM      2  C   UNL     1     -14.083 -33.683  18.998  1.00  0.00     0.000 C 
BRANCH   2   3
ATOM      3  C   UNL     1     -12.575 -33.744  18.691  1.00  0.00     0.000 C 
BRANCH   3   4
ATOM      4  C   UNL     1     -12.078 -32.521  17.903  1.00  0.00     0.000 C 
BRANCH   4   5
ATOM      5  C   UNL     1     -13.073 -32.063  16.823  1.00  0.00     0.000 C 
BRANCH   5   6
ATOM      6  C   UNL     1     -13.219 -30.533  16.770  1.00  0.00     0.000 C 
BRANCH   6   7
ATOM      7  C   UNL     1     -13.474 -29.912  18.156  1.00  0.00     0.000 C 
BRANCH   7   8
ATOM      8  C   UNL     1     -12.483 -28.772  18.478  1.00  0.00     0.000 C 
BRANCH   8   9
ATOM      9  C   UNL     1     -11.351 -28.615  17.443  1.00  0.00     0.000 C 
BRANCH   9  10
ATOM     10  C   UNL     1      -9.928 -28.735  18.014  1.00  0.00     0.006 C 
BRANCH  10  11
ATOM     11  C   UNL     1      -9.773 -29.923  18.975  1.00  0.00     0.053 C 
BRANCH  11  12
ATOM     12  C   UNL     1      -9.318 -29.460  20.325  1.00  0.00     0.041 C 
ATOM     13  O   UNL     1     -10.069 -29.596  21.328  1.00  0.00    -0.550 OA
ATOM     14  O   UNL     1      -8.081 -28.842  20.470  1.00  0.00    -0.550 OA
ENDBRANCH  11  12
ENDBRANCH  10  11
ENDBRANCH   9  10
ENDBRANCH   8   9
ENDBRANCH   7   8
ENDBRANCH   6   7
ENDBRANCH   5   6
ENDBRANCH   4   5
ENDBRANCH   3   4
ENDBRANCH   2   3
ENDBRANCH   1   2
BRANCH   1  15
ATOM     15  C   UNL     1     -15.512 -33.488  21.110  1.00  0.00     0.000 C 
BRANCH  15  16
ATOM     16  C   UNL     1     -16.310 -32.400  21.848  1.00  0.00     0.000 C 
BRANCH  16  17
ATOM     17  C   UNL     1     -17.830 -32.567  21.692  1.00  0.00     0.000 C 
BRANCH  17  18
ATOM     18  C   UNL     1     -18.205 -33.677  20.695  1.00  0.00    -0.000 C 
BRANCH  18  19
ATOM     19  C   UNL     1     -19.442 -33.315  19.857  1.00  0.00    -0.000 C 
BRANCH  19  20
ATOM     20  C   UNL     1     -19.191 -33.456  18.346  1.00  0.00    -0.000 C 
BRANCH  20  21
ATOM     21  C   UNL     1     -17.709 -33.693  18.013  1.00  0.00    -0.000 C 
BRANCH  21  22
ATOM     22  C   UNL     1     -17.122 -32.609  17.097  1.00  0.00    -0.000 C 
BRANCH  22  23
ATOM     23  C   UNL     1     -16.771 -31.346  17.899  1.00  0.00    -0.000 C 
BRANCH  23  24
ATOM     24  C   UNL     1     -17.839 -30.250  17.771  1.00  0.00    -0.000 C 
BRANCH  24  25
ATOM     25  C   UNL     1     -18.221 -29.636  19.125  1.00  0.00    -0.003 C 
ATOM     26  C   UNL     1     -16.980 -29.331  19.958  1.00  0.00     0.004 C 
ENDBRANCH  24  25
ENDBRANCH  23  24
ENDBRANCH  22  23
ENDBRANCH  21  22
ENDBRANCH  20  21
ENDBRANCH  19  20
ENDBRANCH  18  19
ENDBRANCH  17  18
ENDBRANCH  16  17
ENDBRANCH  15  16
ENDBRANCH   1  15
TORSDOF 22
ENDMDL
MODEL 2
REMARK VINA RESULT:    -4.050      1.564      3.646
REMARK INTER + INTRA:         -13.575
REMARK INTER:                  -9.313
REMARK INTRA:                  -4.263
REMARK UNBOUND:                -4.316
REMARK SMILES CCCCCCCCCCCCCCCCCCCCCCCC(=O)[O-]
REMARK SMILES IDX 13 1 14 2 15 3 16 4 17 5 18 6 19 7 20 8 21 9 22 10 23 11
REMARK SMILES IDX 24 12 25 13 26 14 12 15 11 16 10 17 9 18 8 19 7 20 6 21 5 22
REMARK SMILES IDX 4 23 3 24 2 25 1 26
REMARK H PARENT
REMARK Flexibility Score: inf
ROOT
ATOM      1  C   UNL     1     -16.215 -30.695  16.182  1.00  0.00     0.000 C 
ENDROOT
BRANCH   1   2
ATOM      2  C   UNL     1     -14.769 -30.384  16.598  1.00  0.00     0.000 C 
BRANCH   2   3
ATOM      3  C   UNL     1     -14.600 -30.278  18.125  1.00  0.00     0.000 C 
BRANCH   3   4
ATOM      4  C   UNL     1     -15.499 -31.261  18.893  1.00  0.00     0.000 C 
BRANCH   4   5
ATOM      5  C   UNL     1     -14.710 -32.418  19.529  1.00  0.00     0.000 C 
BRANCH   5   6
ATOM      6  C   UNL     1     -14.239 -33.448  18.489  1.00  0.00     0.000 C 
BRANCH   6   7
ATOM      7  C   UNL     1     -12.712 -33.448  18.300  1.00  0.00     0.000 C 
BRANCH   7   8
ATOM      8  C   UNL     1     -11.962 -33.043  19.588  1.00  0.00     0.000 C 
BRANCH   8   9
ATOM      9  C   UNL     1     -10.916 -31.930  19.380  1.00  0.00     0.000 C 
BRANCH   9  10
ATOM     10  C   UNL     1     -11.395 -30.514  19.746  1.00  0.00     0.006 C 
BRANCH  10  11
ATOM     11  C   UNL     1     -10.886 -29.445  18.769  1.00  0.00     0.053 C 
BRANCH  11  12
ATOM     12  C   UNL     1      -9.389 -29.381  18.781  1.00  0.00     0.041 C 
ATOM     13  O   UNL     1      -8.738 -29.575  17.719  1.00  0.00    -0.550 OA
ATOM     14  O   UNL     1      -8.711 -29.148  19.972  1.00  0.00    -0.550 OA
ENDBRANCH  11  12
ENDBRANCH  10  11
ENDBRANCH   9  10
ENDBRANCH   8   9
ENDBRANCH   7   8
ENDBRANCH   6   7
ENDBRANCH   5   6
ENDBRANCH   4   5
ENDBRANCH   3   4
ENDBRANCH   2   3
ENDBRANCH   1   2
BRANCH   1  15
ATOM     15  C   UNL     1     -16.319 -31.935  15.282  1.00  0.00     0.000 C 
BRANCH  15  16
ATOM     16  C   UNL     1     -17.087 -33.062  15.993  1.00  0.00     0.000 C 
BRANCH  16  17
ATOM     17  C   UNL     1     -18.526 -32.663  16.359  1.00  0.00     0.000 C 
BRANCH  17  18
ATOM     18  C   UNL     1     -19.127 -33.559  17.456  1.00  0.00    -0.000 C 
BRANCH  18  19
ATOM     19  C   UNL     1     -18.242 -33.616  18.712  1.00  0.00    -0.000 C 
BRANCH  19  20
ATOM     20  C   UNL     1     -19.008 -33.233  19.990  1.00  0.00    -0.000 C 
BRANCH  20  21
ATOM     21  C   UNL     1     -18.944 -31.726  20.288  1.00  0.00    -0.000 C 
BRANCH  21  22
ATOM     22  C   UNL     1     -20.284 -31.013  20.049  1.00  0.00    -0.000 C 
BRANCH  22  23
ATOM     23  C   UNL     1     -20.168 -30.002  18.899  1.00  0.00    -0.000 C 
BRANCH  23  24
ATOM     24  C   UNL     1     -18.709 -29.695  18.529  1.00  0.00    -0.000 C 
BRANCH  24  25
ATOM     25  C   UNL     1     -18.264 -28.300  18.991  1.00  0.00    -0.003 C 
ATOM     26  C   UNL     1     -17.402 -27.620  17.931  1.00  0.00     0.004 C 
ENDBRANCH  24  25
ENDBRANCH  23  24
ENDBRANCH  22  23
ENDBRANCH  21  22
ENDBRANCH  20  21
ENDBRANCH  19  20
ENDBRANCH  18  19
ENDBRANCH  17  18
ENDBRANCH  16  17
ENDBRANCH  15  16
ENDBRANCH   1  15
TORSDOF 22
ENDMDL
MODEL 3
REMARK VINA RESULT:    -3.998      1.423      2.492
REMARK INTER + INTRA:         -13.457
REMARK INTER:                 -10.167
REMARK INTRA:                  -3.290
REMARK UNBOUND:                -4.316
REMARK SMILES CCCCCCCCCCCCCCCCCCCCCCCC(=O)[O-]
REMARK SMILES IDX 13 1 14 2 15 3 16 4 17 5 18 6 19 7 20 8 21 9 22 10 23 11
REMARK SMILES IDX 24 12 25 13 26 14 12 15 11 16 10 17 9 18 8 19 7 20 6 21 5 22
REMARK SMILES IDX 4 23 3 24 2 25 1 26
REMARK H PARENT
REMARK Flexibility Score: inf
ROOT
ATOM      1  C   UNL     1     -15.910 -32.194  20.553  1.00  0.00     0.000 C 
ENDROOT
BRANCH   1   2
ATOM      2  C   UNL     1     -14.602 -33.000  20.527  1.00  0.00     0.000 C 
BRANCH   2   3
ATOM      3  C   UNL     1     -14.603 -34.100  19.450  1.00  0.00     0.000 C 
BRANCH   3   4
ATOM      4  C   UNL     1     -13.791 -33.713  18.203  1.00  0.00     0.000 C 
BRANCH   4   5
ATOM      5  C   UNL     1     -12.358 -33.267  18.541  1.00  0.00     0.000 C 
BRANCH   5   6
ATOM      6  C   UNL     1     -11.834 -32.195  17.570  1.00  0.00     0.000 C 
BRANCH   6   7
ATOM      7  C   UNL     1     -12.893 -31.752  16.544  1.00  0.00     0.000 C 
BRANCH   7   8
ATOM      8  C   UNL     1     -13.282 -30.267  16.708  1.00  0.00     0.000 C 
BRANCH   8   9
ATOM      9  C   UNL     1     -13.710 -29.886  18.138  1.00  0.00     0.000 C 
BRANCH   9  10
ATOM     10  C   UNL     1     -13.031 -28.627  18.705  1.00  0.00     0.006 C 
BRANCH  10  11
ATOM     11  C   UNL     1     -11.841 -28.161  17.855  1.00  0.00     0.053 C 
BRANCH  11  12
ATOM     12  C   UNL     1     -10.566 -28.231  18.638  1.00  0.00     0.041 C 
ATOM     13  O   UNL     1     -10.154 -27.221  19.269  1.00  0.00    -0.550 OA
ATOM     14  O   UNL     1      -9.811 -29.398  18.639  1.00  0.00    -0.550 OA
ENDBRANCH  11  12
ENDBRANCH  10  11
ENDBRANCH   9  10
ENDBRANCH   8   9
ENDBRANCH   7   8
ENDBRANCH   6   7
ENDBRANCH   5   6
ENDBRANCH   4   5
ENDBRANCH   3   4
ENDBRANCH   2   3
ENDBRANCH   1   2
BRANCH   1  15
ATOM     15  C   UNL     1     -16.657 -32.318  21.890  1.00  0.00     0.000 C 
BRANCH  15  16
ATOM     16  C   UNL     1     -18.148 -32.607  21.655  1.00  0.00     0.000 C 
BRANCH  16  17
ATOM     17  C   UNL     1     -18.409 -33.375  20.350  1.00  0.00     0.000 C 
BRANCH  17  18
ATOM     18  C   UNL     1     -19.577 -32.786  19.539  1.00  0.00    -0.000 C 
BRANCH  18  19
ATOM     19  C   UNL     1     -19.979 -31.386  20.029  1.00  0.00    -0.000 C 
BRANCH  19  20
ATOM     20  C   UNL     1     -19.827 -30.314  18.936  1.00  0.00    -0.000 C 
BRANCH  20  21
ATOM     21  C   UNL     1     -18.664 -30.610  17.974  1.00  0.00    -0.000 C 
BRANCH  21  22
ATOM     22  C   UNL     1     -17.380 -29.852  18.341  1.00  0.00    -0.000 C 
BRANCH  22  23
ATOM     23  C   UNL     1     -17.111 -28.716  17.342  1.00  0.00    -0.000 C 
BRANCH  23  24
ATOM     24  C   UNL     1     -17.772 -27.395  17.761  1.00  0.00    -0.000 C 
BRANCH  24  25
ATOM     25  C   UNL     1     -17.857 -27.234  19.285  1.00  0.00    -0.003 C 
ATOM     26  C   UNL     1     -16.472 -27.035  19.894  1.00  0.00     0.004 C 
ENDBRANCH  24  25
ENDBRANCH  23  24
ENDBRANCH  22  23
ENDBRANCH  21  22
ENDBRANCH  20  21
ENDBRANCH  19  20
ENDBRANCH  18  19
ENDBRANCH  17  18
ENDBRANCH  16  17
ENDBRANCH  15  16
ENDBRANCH   1  15
TORSDOF 22
ENDMDL
MODEL 4
REMARK VINA RESULT:    -3.937      2.863      6.390
REMARK INTER + INTRA:         -13.316
REMARK INTER:                  -9.357
REMARK INTRA:                  -3.959
REMARK UNBOUND:                -4.316
REMARK SMILES CCCCCCCCCCCCCCCCCCCCCCCC(=O)[O-]
REMARK SMILES IDX 13 1 14 2 15 3 16 4 17 5 18 6 19 7 20 8 21 9 22 10 23 11
REMARK SMILES IDX 24 12 25 13 26 14 12 15 11 16 10 17 9 18 8 19 7 20 6 21 5 22
REMARK SMILES IDX 4 23 3 24 2 25 1 26
REMARK H PARENT
REMARK Flexibility Score: inf
ROOT
ATOM      1  C   UNL     1     -15.531 -30.701  14.408  1.00  0.00     0.000 C 
ENDROOT
BRANCH   1   2
ATOM      2  C   UNL     1     -16.254 -31.433  13.267  1.00  0.00     0.000 C 
BRANCH   2   3
ATOM      3  C   UNL     1     -16.539 -32.911  13.596  1.00  0.00     0.000 C 
BRANCH   3   4
ATOM      4  C   UNL     1     -18.034 -33.262  13.512  1.00  0.00     0.000 C 
BRANCH   4   5
ATOM      5  C   UNL     1     -18.702 -33.358  14.894  1.00  0.00     0.000 C 
BRANCH   5   6
ATOM      6  C   UNL     1     -17.793 -34.027  15.939  1.00  0.00     0.000 C 
BRANCH   6   7
ATOM      7  C   UNL     1     -17.554 -33.140  17.174  1.00  0.00     0.000 C 
BRANCH   7   8
ATOM      8  C   UNL     1     -18.135 -31.720  16.998  1.00  0.00     0.000 C 
BRANCH   8   9
ATOM      9  C   UNL     1     -17.434 -30.646  17.853  1.00  0.00     0.000 C 
BRANCH   9  10
ATOM     10  C   UNL     1     -18.380 -29.753  18.675  1.00  0.00     0.006 C 
BRANCH  10  11
ATOM     11  C   UNL     1     -17.704 -28.464  19.161  1.00  0.00     0.053 C 
BRANCH  11  12
ATOM     12  C   UNL     1     -16.881 -27.849  18.071  1.00  0.00     0.041 C 
ATOM     13  O   UNL     1     -17.439 -27.383  17.042  1.00  0.00    -0.550 OA
ATOM     14  O   UNL     1     -15.495 -27.828  18.172  1.00  0.00    -0.550 OA
ENDBRANCH  11  12
ENDBRANCH  10  11
ENDBRANCH   9  10
ENDBRANCH   8   9
ENDBRANCH   7   8
ENDBRANCH   6   7
ENDBRANCH   5   6
ENDBRANCH   4   5
ENDBRANCH   3   4
ENDBRANCH   2   3
ENDBRANCH   1   2
BRANCH   1  15
ATOM     15  C   UNL     1     -14.778 -31.658  15.344  1.00  0.00     0.000 C 
BRANCH  15  16
ATOM     16  C   UNL     1     -13.308 -31.232  15.490  1.00  0.00     0.000 C 
BRANCH  16  17
ATOM     17  C   UNL     1     -12.595 -31.942  16.652  1.00  0.00     0.000 C 
BRANCH  17  18
ATOM     18  C   UNL     1     -12.651 -31.137  17.963  1.00  0.00    -0.000 C 
BRANCH  18  19
ATOM     19  C   UNL     1     -13.016 -32.014  19.171  1.00  0.00    -0.000 C 
BRANCH  19  20
ATOM     20  C   UNL     1     -14.489 -32.457  19.152  1.00  0.00    -0.000 C 
BRANCH  20  21
ATOM     21  C   UNL     1     -14.786 -33.565  20.176  1.00  0.00    -0.000 C 
BRANCH  21  22
ATOM     22  C   UNL     1     -15.458 -33.034  21.451  1.00  0.00    -0.000 C 
BRANCH  22  23
ATOM     23  C   UNL     1     -16.584 -32.048  21.105  1.00  0.00    -0.000 C 
BRANCH  23  24
ATOM     24  C   UNL     1     -17.964 -32.543  21.566  1.00  0.00    -0.000 C 
BRANCH  24  25
ATOM     25  C   UNL     1     -18.646 -33.441  20.524  1.00  0.00    -0.003 C 
ATOM     26  C   UNL     1     -19.949 -32.818  20.032  1.00  0.00     0.004 C 
ENDBRANCH  24  25
ENDBRANCH  23  24
ENDBRANCH  22  23
ENDBRANCH  21  22
ENDBRANCH  20  21
ENDBRANCH  19  20
ENDBRANCH  18  19
ENDBRANCH  17  18
ENDBRANCH  16  17
ENDBRANCH  15  16
ENDBRANCH   1  15
TORSDOF 22
ENDMDL
MODEL 5
REMARK VINA RESULT:    -3.911      1.474      2.674
REMARK INTER + INTRA:         -13.256
REMARK INTER:                  -9.390
REMARK INTRA:                  -3.866
REMARK UNBOUND:                -4.316
REMARK SMILES CCCCCCCCCCCCCCCCCCCCCCCC(=O)[O-]
REMARK SMILES IDX 13 1 14 2 15 3 16 4 17 5 18 6 19 7 20 8 21 9 22 10 23 11
REMARK SMILES IDX 24 12 25 13 26 14 12 15 11 16 10 17 9 18 8 19 7 20 6 21 5 22
REMARK SMILES IDX 4 23 3 24 2 25 1 26
REMARK H PARENT
REMARK Flexibility Score: inf
ROOT
ATOM      1  C   UNL     1     -16.610 -32.287  21.390  1.00  0.00     0.000 C 
ENDROOT
BRANCH   1   2
ATOM      2  C   UNL     1     -16.178 -33.735  21.116  1.00  0.00     0.000 C 
BRANCH   2   3
ATOM      3  C   UNL     1     -15.019 -33.829  20.105  1.00  0.00     0.000 C 
BRANCH   3   4
ATOM      4  C   UNL     1     -14.224 -32.518  19.989  1.00  0.00     0.000 C 
BRANCH   4   5
ATOM      5  C   UNL     1     -12.769 -32.742  19.543  1.00  0.00     0.000 C 
BRANCH   5   6
ATOM      6  C   UNL     1     -12.673 -33.296  18.111  1.00  0.00     0.000 C 
BRANCH   6   7
ATOM      7  C   UNL     1     -12.490 -32.189  17.056  1.00  0.00     0.000 C 
BRANCH   7   8
ATOM      8  C   UNL     1     -11.851 -30.915  17.649  1.00  0.00     0.000 C 
BRANCH   8   9
ATOM      9  C   UNL     1     -12.685 -29.637  17.433  1.00  0.00     0.000 C 
BRANCH   9  10
ATOM     10  C   UNL     1     -12.557 -28.583  18.546  1.00  0.00     0.006 C 
BRANCH  10  11
ATOM     11  C   UNL     1     -11.707 -27.375  18.124  1.00  0.00     0.053 C 
BRANCH  11  12
ATOM     12  C   UNL     1     -10.432 -27.321  18.908  1.00  0.00     0.041 C 
ATOM     13  O   UNL     1      -9.879 -28.386  19.293  1.00  0.00    -0.550 OA
ATOM     14  O   UNL     1      -9.875 -26.094  19.250  1.00  0.00    -0.550 OA
ENDBRANCH  11  12
ENDBRANCH  10  11
ENDBRANCH   9  10
ENDBRANCH   8   9
ENDBRANCH   7   8
ENDBRANCH   6   7
ENDBRANCH   5   6
ENDBRANCH   4   5
ENDBRANCH   3   4
ENDBRANCH   2   3
ENDBRANCH   1   2
BRANCH   1  15
ATOM     15  C   UNL     1     -18.123 -32.151  21.613  1.00  0.00     0.000 C 
BRANCH  15  16
ATOM     16  C   UNL     1     -18.819 -31.649  20.337  1.00  0.00     0.000 C 
BRANCH  16  17
ATOM     17  C   UNL     1     -19.624 -32.748  19.625  1.00  0.00     0.000 C 
BRANCH  17  18
ATOM     18  C   UNL     1     -18.861 -33.370  18.442  1.00  0.00    -0.000 C 
BRANCH  18  19
ATOM     19  C   UNL     1     -19.066 -32.582  17.138  1.00  0.00    -0.000 C 
BRANCH  19  20
ATOM     20  C   UNL     1     -17.779 -32.484  16.301  1.00  0.00    -0.000 C 
BRANCH  20  21
ATOM     21  C   UNL     1     -16.540 -32.175  17.157  1.00  0.00    -0.000 C 
BRANCH  21  22
ATOM     22  C   UNL     1     -16.100 -30.706  17.062  1.00  0.00    -0.000 C 
BRANCH  22  23
ATOM     23  C   UNL     1     -16.227 -30.008  18.424  1.00  0.00    -0.000 C 
BRANCH  23  24
ATOM     24  C   UNL     1     -16.266 -28.477  18.301  1.00  0.00    -0.000 C 
BRANCH  24  25
ATOM     25  C   UNL     1     -16.827 -27.797  19.558  1.00  0.00    -0.003 C 
ATOM     26  C   UNL     1     -18.126 -27.059  19.250  1.00  0.00     0.004 C 
ENDBRANCH  24  25
ENDBRANCH  23  24
ENDBRANCH  22  23
ENDBRANCH  21  22
ENDBRANCH  20  21
ENDBRANCH  19  20
ENDBRANCH  18  19
ENDBRANCH  17  18
ENDBRANCH  16  17
ENDBRANCH  15  16
ENDBRANCH   1  15
TORSDOF 22
ENDMDL
MODEL 6
REMARK VINA RESULT:    -3.908      2.639      6.716
REMARK INTER + INTRA:         -13.251
REMARK INTER:                  -9.305
REMARK INTRA:                  -3.946
REMARK UNBOUND:                -4.316
REMARK SMILES CCCCCCCCCCCCCCCCCCCCCCCC(=O)[O-]
REMARK SMILES IDX 13 1 14 2 15 3 16 4 17 5 18 6 19 7 20 8 21 9 22 10 23 11
REMARK SMILES IDX 24 12 25 13 26 14 12 15 11 16 10 17 9 18 8 19 7 20 6 21 5 22
REMARK SMILES IDX 4 23 3 24 2 25 1 26
REMARK H PARENT
REMARK Flexibility Score: inf
ROOT
ATOM      1  C   UNL     1     -12.683 -33.888  19.130  1.00  0.00     0.000 C 
ENDROOT
BRANCH   1   2
ATOM      2  C   UNL     1     -14.186 -33.977  18.824  1.00  0.00     0.000 C 
BRANCH   2   3
ATOM      3  C   UNL     1     -15.023 -32.996  19.666  1.00  0.00     0.000 C 
BRANCH   3   4
ATOM      4  C   UNL     1     -15.690 -33.669  20.877  1.00  0.00     0.000 C 
BRANCH   4   5
ATOM      5  C   UNL     1     -16.335 -32.658  21.840  1.00  0.00     0.000 C 
BRANCH   5   6
ATOM      6  C   UNL     1     -17.867 -32.626  21.717  1.00  0.00     0.000 C 
BRANCH   6   7
ATOM      7  C   UNL     1     -18.414 -33.733  20.798  1.00  0.00     0.000 C 
BRANCH   7   8
ATOM      8  C   UNL     1     -19.380 -33.182  19.727  1.00  0.00     0.000 C 
BRANCH   8   9
ATOM      9  C   UNL     1     -18.730 -32.975  18.345  1.00  0.00     0.000 C 
BRANCH   9  10
ATOM     10  C   UNL     1     -18.143 -31.573  18.108  1.00  0.00     0.006 C 
BRANCH  10  11
ATOM     11  C   UNL     1     -19.052 -30.452  18.632  1.00  0.00     0.053 C 
BRANCH  11  12
ATOM     12  C   UNL     1     -18.242 -29.354  19.250  1.00  0.00     0.041 C 
ATOM     13  O   UNL     1     -18.445 -28.155  18.919  1.00  0.00    -0.550 OA
ATOM     14  O   UNL     1     -17.236 -29.657  20.160  1.00  0.00    -0.550 OA
ENDBRANCH  11  12
ENDBRANCH  10  11
ENDBRANCH   9  10
ENDBRANCH   8   9
ENDBRANCH   7   8
ENDBRANCH   6   7
ENDBRANCH   5   6
ENDBRANCH   4   5
ENDBRANCH   3   4
ENDBRANCH   2   3
ENDBRANCH   1   2
BRANCH   1  15
ATOM     15  C   UNL     1     -12.224 -32.455  19.436  1.00  0.00     0.000 C 
BRANCH  15  16
ATOM     16  C   UNL     1     -10.844 -32.181  18.815  1.00  0.00     0.000 C 
BRANCH  16  17
ATOM     17  C   UNL     1     -10.728 -30.768  18.220  1.00  0.00     0.000 C 
BRANCH  17  18
ATOM     18  C   UNL     1     -11.434 -29.704  19.080  1.00  0.00    -0.000 C 
BRANCH  18  19
ATOM     19  C   UNL     1     -11.947 -28.523  18.240  1.00  0.00    -0.000 C 
BRANCH  19  20
ATOM     20  C   UNL     1     -13.469 -28.336  18.356  1.00  0.00    -0.000 C 
BRANCH  20  21
ATOM     21  C   UNL     1     -14.225 -29.673  18.437  1.00  0.00    -0.000 C 
BRANCH  21  22
ATOM     22  C   UNL     1     -15.025 -29.984  17.163  1.00  0.00    -0.000 C 
BRANCH  22  23
ATOM     23  C   UNL     1     -14.297 -31.028  16.302  1.00  0.00    -0.000 C 
BRANCH  23  24
ATOM     24  C   UNL     1     -15.240 -32.126  15.786  1.00  0.00    -0.000 C 
BRANCH  24  25
ATOM     25  C   UNL     1     -16.344 -31.576  14.873  1.00  0.00    -0.003 C 
ATOM     26  C   UNL     1     -15.749 -30.832  13.680  1.00  0.00     0.004 C 
ENDBRANCH  24  25
ENDBRANCH  23  24
ENDBRANCH  22  23
ENDBRANCH  21  22
ENDBRANCH  20  21
ENDBRANCH  19  20
ENDBRANCH  18  19
ENDBRANCH  17  18
ENDBRANCH  16  17
ENDBRANCH  15  16
ENDBRANCH   1  15
TORSDOF 22
ENDMDL
MODEL 7
REMARK VINA RESULT:    -3.846      1.493      1.967
REMARK INTER + INTRA:         -13.108
REMARK INTER:                  -9.377
REMARK INTRA:                  -3.732
REMARK UNBOUND:                -4.316
REMARK SMILES CCCCCCCCCCCCCCCCCCCCCCCC(=O)[O-]
REMARK SMILES IDX 13 1 14 2 15 3 16 4 17 5 18 6 19 7 20 8 21 9 22 10 23 11
REMARK SMILES IDX 24 12 25 13 26 14 12 15 11 16 10 17 9 18 8 19 7 20 6 21 5 22
REMARK SMILES IDX 4 23 3 24 2 25 1 26
REMARK H PARENT
REMARK Flexibility Score: inf
ROOT
ATOM      1  C   UNL     1     -14.816 -32.608  19.873  1.00  0.00     0.000 C 
ENDROOT
BRANCH   1   2
ATOM      2  C   UNL     1     -15.107 -33.400  18.589  1.00  0.00     0.000 C 
BRANCH   2   3
ATOM      3  C   UNL     1     -14.368 -32.835  17.362  1.00  0.00     0.000 C 
BRANCH   3   4
ATOM      4  C   UNL     1     -12.853 -32.702  17.589  1.00  0.00     0.000 C 
BRANCH   4   5
ATOM      5  C   UNL     1     -12.255 -31.460  16.906  1.00  0.00     0.000 C 
BRANCH   5   6
ATOM      6  C   UNL     1     -13.212 -30.256  16.936  1.00  0.00     0.000 C 
BRANCH   6   7
ATOM      7  C   UNL     1     -12.699 -29.109  17.824  1.00  0.00     0.000 C 
BRANCH   7   8
ATOM      8  C   UNL     1     -11.233 -28.736  17.511  1.00  0.00     0.000 C 
BRANCH   8   9
ATOM      9  C   UNL     1     -10.363 -28.511  18.763  1.00  0.00     0.000 C 
BRANCH   9  10
ATOM     10  C   UNL     1     -10.854 -29.229  20.031  1.00  0.00     0.006 C 
BRANCH  10  11
ATOM     11  C   UNL     1      -9.829 -30.232  20.580  1.00  0.00     0.053 C 
BRANCH  11  12
ATOM     12  C   UNL     1     -10.047 -31.593  19.993  1.00  0.00     0.041 C 
ATOM     13  O   UNL     1      -9.417 -31.945  18.961  1.00  0.00    -0.550 OA
ATOM     14  O   UNL     1     -10.977 -32.456  20.561  1.00  0.00    -0.550 OA
ENDBRANCH  11  12
ENDBRANCH  10  11
ENDBRANCH   9  10
ENDBRANCH   8   9
ENDBRANCH   7   8
ENDBRANCH   6   7
ENDBRANCH   5   6
ENDBRANCH   4   5
ENDBRANCH   3   4
ENDBRANCH   2   3
ENDBRANCH   1   2
BRANCH   1  15
ATOM     15  C   UNL     1     -15.486 -33.221  21.112  1.00  0.00     0.000 C 
BRANCH  15  16
ATOM     16  C   UNL     1     -16.433 -32.209  21.777  1.00  0.00     0.000 C 
BRANCH  16  17
ATOM     17  C   UNL     1     -17.869 -32.739  21.917  1.00  0.00     0.000 C 
BRANCH  17  18
ATOM     18  C   UNL     1     -18.217 -33.795  20.852  1.00  0.00    -0.000 C 
BRANCH  18  19
ATOM     19  C   UNL     1     -19.293 -33.301  19.872  1.00  0.00    -0.000 C 
BRANCH  19  20
ATOM     20  C   UNL     1     -18.690 -32.627  18.627  1.00  0.00    -0.000 C 
BRANCH  20  21
ATOM     21  C   UNL     1     -18.632 -31.096  18.753  1.00  0.00    -0.000 C 
BRANCH  21  22
ATOM     22  C   UNL     1     -17.645 -30.453  17.768  1.00  0.00    -0.000 C 
BRANCH  22  23
ATOM     23  C   UNL     1     -16.476 -29.794  18.516  1.00  0.00    -0.000 C 
BRANCH  23  24
ATOM     24  C   UNL     1     -16.287 -28.319  18.133  1.00  0.00    -0.000 C 
BRANCH  24  25
ATOM     25  C   UNL     1     -16.758 -27.358  19.233  1.00  0.00    -0.003 C 
ATOM     26  C   UNL     1     -18.259 -27.106  19.137  1.00  0.00     0.004 C 
ENDBRANCH  24  25
ENDBRANCH  23  24
ENDBRANCH  22  23
ENDBRANCH  21  22
ENDBRANCH  20  21
ENDBRANCH  19  20
ENDBRANCH  18  19
ENDBRANCH  17  18
ENDBRANCH  16  17
ENDBRANCH  15  16
ENDBRANCH   1  15
TORSDOF 22
ENDMDL
MODEL 8
REMARK VINA RESULT:    -3.773      1.750      3.609
REMARK INTER + INTRA:         -12.941
REMARK INTER:                  -8.794
REMARK INTRA:                  -4.147
REMARK UNBOUND:                -4.316
REMARK SMILES CCCCCCCCCCCCCCCCCCCCCCCC(=O)[O-]
REMARK SMILES IDX 13 1 14 2 15 3 16 4 17 5 18 6 19 7 20 8 21 9 22 10 23 11
REMARK SMILES IDX 24 12 25 13 26 14 12 15 11 16 10 17 9 18 8 19 7 20 6 21 5 22
REMARK SMILES IDX 4 23 3 24 2 25 1 26
REMARK H PARENT
REMARK Flexibility Score: inf
ROOT
ATOM      1  C   UNL     1     -16.523 -32.579  15.289  1.00  0.00     0.000 C 
ENDROOT
BRANCH   1   2
ATOM      2  C   UNL     1     -16.048 -31.274  14.631  1.00  0.00     0.000 C 
BRANCH   2   3
ATOM      3  C   UNL     1     -14.523 -31.084  14.720  1.00  0.00     0.000 C 
BRANCH   3   4
ATOM      4  C   UNL     1     -13.790 -32.357  15.174  1.00  0.00     0.000 C 
BRANCH   4   5
ATOM      5  C   UNL     1     -13.037 -32.169  16.502  1.00  0.00     0.000 C 
BRANCH   5   6
ATOM      6  C   UNL     1     -13.648 -32.997  17.645  1.00  0.00     0.000 C 
BRANCH   6   7
ATOM      7  C   UNL     1     -12.641 -33.290  18.772  1.00  0.00     0.000 C 
BRANCH   7   8
ATOM      8  C   UNL     1     -11.349 -32.454  18.635  1.00  0.00     0.000 C 
BRANCH   8   9
ATOM      9  C   UNL     1     -10.687 -32.103  19.982  1.00  0.00     0.000 C 
BRANCH   9  10
ATOM     10  C   UNL     1     -10.619 -30.599  20.298  1.00  0.00     0.006 C 
BRANCH  10  11
ATOM     11  C   UNL     1     -11.236 -29.732  19.191  1.00  0.00     0.053 C 
BRANCH  11  12
ATOM     12  C   UNL     1     -10.183 -28.918  18.502  1.00  0.00     0.041 C 
ATOM     13  O   UNL     1      -9.115 -29.464  18.114  1.00  0.00    -0.550 OA
ATOM     14  O   UNL     1     -10.363 -27.552  18.325  1.00  0.00    -0.550 OA
ENDBRANCH  11  12
ENDBRANCH  10  11
ENDBRANCH   9  10
ENDBRANCH   8   9
ENDBRANCH   7   8
ENDBRANCH   6   7
ENDBRANCH   5   6
ENDBRANCH   4   5
ENDBRANCH   3   4
ENDBRANCH   2   3
ENDBRANCH   1   2
BRANCH   1  15
ATOM     15  C   UNL     1     -18.052 -32.659  15.412  1.00  0.00     0.000 C 
BRANCH  15  16
ATOM     16  C   UNL     1     -18.457 -33.600  16.559  1.00  0.00     0.000 C 
BRANCH  16  17
ATOM     17  C   UNL     1     -17.283 -33.948  17.487  1.00  0.00     0.000 C 
BRANCH  17  18
ATOM     18  C   UNL     1     -17.598 -33.676  18.969  1.00  0.00    -0.000 C 
BRANCH  18  19
ATOM     19  C   UNL     1     -19.075 -33.312  19.193  1.00  0.00    -0.000 C 
BRANCH  19  20
ATOM     20  C   UNL     1     -19.272 -32.358  20.384  1.00  0.00    -0.000 C 
BRANCH  20  21
ATOM     21  C   UNL     1     -19.999 -31.062  19.989  1.00  0.00    -0.000 C 
BRANCH  21  22
ATOM     22  C   UNL     1     -19.649 -30.591  18.569  1.00  0.00    -0.000 C 
BRANCH  22  23
ATOM     23  C   UNL     1     -18.613 -29.458  18.608  1.00  0.00    -0.000 C 
BRANCH  23  24
ATOM     24  C   UNL     1     -17.402 -29.734  17.704  1.00  0.00    -0.000 C 
BRANCH  24  25
ATOM     25  C   UNL     1     -16.229 -30.367  18.466  1.00  0.00    -0.003 C 
ATOM     26  C   UNL     1     -14.945 -29.568  18.258  1.00  0.00     0.004 C 
ENDBRANCH  24  25
ENDBRANCH  23  24
ENDBRANCH  22  23
ENDBRANCH  21  22
ENDBRANCH  20  21
ENDBRANCH  19  20
ENDBRANCH  18  19
ENDBRANCH  17  18
ENDBRANCH  16  17
ENDBRANCH  15  16
ENDBRANCH   1  15
TORSDOF 22
ENDMDL
MODEL 9
REMARK VINA RESULT:    -3.643      1.386      2.604
REMARK INTER + INTRA:         -12.644
REMARK INTER:                  -8.924
REMARK INTRA:                  -3.720
REMARK UNBOUND:                -4.316
REMARK SMILES CCCCCCCCCCCCCCCCCCCCCCCC(=O)[O-]
REMARK SMILES IDX 13 1 14 2 15 3 16 4 17 5 18 6 19 7 20 8 21 9 22 10 23 11
REMARK SMILES IDX 24 12 25 13 26 14 12 15 11 16 10 17 9 18 8 19 7 20 6 21 5 22
REMARK SMILES IDX 4 23 3 24 2 25 1 26
REMARK H PARENT
REMARK Flexibility Score: inf
ROOT
ATOM      1  C   UNL     1     -16.301 -31.088  16.505  1.00  0.00     0.000 C 
ENDROOT
BRANCH   1   2
ATOM      2  C   UNL     1     -15.734 -31.232  15.085  1.00  0.00     0.000 C 
BRANCH   2   3
ATOM      3  C   UNL     1     -14.482 -32.126  15.032  1.00  0.00     0.000 C 
BRANCH   3   4
ATOM      4  C   UNL     1     -13.190 -31.362  15.366  1.00  0.00     0.000 C 
BRANCH   4   5
ATOM      5  C   UNL     1     -12.509 -31.874  16.647  1.00  0.00     0.000 C 
BRANCH   5   6
ATOM      6  C   UNL     1     -12.090 -30.731  17.587  1.00  0.00     0.000 C 
BRANCH   6   7
ATOM      7  C   UNL     1     -13.127 -29.594  17.640  1.00  0.00     0.000 C 
BRANCH   7   8
ATOM      8  C   UNL     1     -12.721 -28.476  18.625  1.00  0.00     0.000 C 
BRANCH   8   9
ATOM      9  C   UNL     1     -11.559 -27.594  18.126  1.00  0.00     0.000 C 
BRANCH   9  10
ATOM     10  C   UNL     1     -10.376 -27.468  19.102  1.00  0.00     0.006 C 
BRANCH  10  11
ATOM     11  C   UNL     1      -9.538 -28.752  19.188  1.00  0.00     0.053 C 
BRANCH  11  12
ATOM     12  C   UNL     1      -9.834 -29.498  20.452  1.00  0.00     0.041 C 
ATOM     13  O   UNL     1     -10.013 -28.871  21.531  1.00  0.00    -0.550 OA
ATOM     14  O   UNL     1      -9.871 -30.888  20.449  1.00  0.00    -0.550 OA
ENDBRANCH  11  12
ENDBRANCH  10  11
ENDBRANCH   9  10
ENDBRANCH   8   9
ENDBRANCH   7   8
ENDBRANCH   6   7
ENDBRANCH   5   6
ENDBRANCH   4   5
ENDBRANCH   3   4
ENDBRANCH   2   3
ENDBRANCH   1   2
BRANCH   1  15
ATOM     15  C   UNL     1     -16.148 -32.370  17.337  1.00  0.00     0.000 C 
BRANCH  15  16
ATOM     16  C   UNL     1     -15.630 -32.046  18.748  1.00  0.00     0.000 C 
BRANCH  16  17
ATOM     17  C   UNL     1     -15.403 -33.303  19.603  1.00  0.00     0.000 C 
BRANCH  17  18
ATOM     18  C   UNL     1     -16.689 -34.125  19.801  1.00  0.00    -0.000 C 
BRANCH  18  19
ATOM     19  C   UNL     1     -17.438 -33.734  21.085  1.00  0.00    -0.000 C 
BRANCH  19  20
ATOM     20  C   UNL     1     -18.455 -32.603  20.851  1.00  0.00    -0.000 C 
BRANCH  20  21
ATOM     21  C   UNL     1     -19.355 -32.859  19.632  1.00  0.00    -0.000 C 
BRANCH  21  22
ATOM     22  C   UNL     1     -19.325 -31.708  18.615  1.00  0.00    -0.000 C 
BRANCH  22  23
ATOM     23  C   UNL     1     -19.734 -30.383  19.278  1.00  0.00    -0.000 C 
BRANCH  23  24
ATOM     24  C   UNL     1     -18.798 -29.224  18.904  1.00  0.00    -0.000 C 
BRANCH  24  25
ATOM     25  C   UNL     1     -17.473 -29.262  19.678  1.00  0.00    -0.003 C 
ATOM     26  C   UNL     1     -16.524 -28.169  19.195  1.00  0.00     0.004 C 
ENDBRANCH  24  25
ENDBRANCH  23  24
ENDBRANCH  22  23
ENDBRANCH  21  22
ENDBRANCH  20  21
ENDBRANCH  19  20
ENDBRANCH  18  19
ENDBRANCH  17  18
ENDBRANCH  16  17
ENDBRANCH  15  16
ENDBRANCH   1  15
TORSDOF 22
ENDMDL
