MODEL 1
REMARK VINA RESULT:    -4.975      0.000      0.000
REMARK INTER + INTRA:         -11.375
REMARK INTER:                  -9.629
REMARK INTRA:                  -1.746
REMARK UNBOUND:                -1.746
REMARK SMILES CCCCCCCCCCCCCCCCCC(=O)[O-]
REMARK SMILES IDX 10 1 11 2 12 3 13 4 14 5 15 6 16 7 17 8 18 9 19 10 20 11
REMARK SMILES IDX 9 12 8 13 7 14 6 15 5 16 4 17 3 18 2 19 1 20
REMARK H PARENT
REMARK Flexibility Score: inf
ROOT
ATOM      1  C   UNL     1     169.946 145.449 151.317  1.00  0.00     0.000 C 
ENDROOT
BRANCH   1   2
ATOM      2  C   UNL     1     170.430 145.095 149.902  1.00  0.00     0.000 C 
BRANCH   2   3
ATOM      3  C   UNL     1     170.211 143.611 149.553  1.00  0.00     0.000 C 
BRANCH   3   4
ATOM      4  C   UNL     1     169.822 143.415 148.073  1.00  0.00     0.000 C 
BRANCH   4   5
ATOM      5  C   UNL     1     169.258 144.684 147.411  1.00  0.00     0.000 C 
BRANCH   5   6
ATOM      6  C   UNL     1     167.831 144.494 146.872  1.00  0.00     0.000 C 
BRANCH   6   7
ATOM      7  C   UNL     1     167.137 145.831 146.563  1.00  0.00     0.006 C 
BRANCH   7   8
ATOM      8  C   UNL     1     165.611 145.747 146.691  1.00  0.00     0.053 C 
BRANCH   8   9
ATOM      9  C   UNL     1     165.045 147.085 147.051  1.00  0.00     0.041 C 
ATOM     10  O   UNL     1     164.056 147.166 147.827  1.00  0.00    -0.550 OA
ATOM     11  O   UNL     1     165.578 148.239 146.491  1.00  0.00    -0.550 OA
ENDBRANCH   8   9
ENDBRANCH   7   8
ENDBRANCH   6   7
ENDBRANCH   5   6
ENDBRANCH   4   5
ENDBRANCH   3   4
ENDBRANCH   2   3
ENDBRANCH   1   2
BRANCH   1  12
ATOM     12  C   UNL     1     169.153 144.309 151.974  1.00  0.00     0.000 C 
BRANCH  12  13
ATOM     13  C   UNL     1     168.236 144.846 153.080  1.00  0.00    -0.000 C 
BRANCH  13  14
ATOM     14  C   UNL     1     168.287 143.944 154.323  1.00  0.00    -0.000 C 
BRANCH  14  15
ATOM     15  C   UNL     1     168.371 144.744 155.634  1.00  0.00    -0.000 C 
BRANCH  15  16
ATOM     16  C   UNL     1     169.822 144.964 156.097  1.00  0.00    -0.000 C 
BRANCH  16  17
ATOM     17  C   UNL     1     170.479 146.191 155.440  1.00  0.00    -0.000 C 
BRANCH  17  18
ATOM     18  C   UNL     1     171.804 145.912 154.702  1.00  0.00    -0.000 C 
BRANCH  18  19
ATOM     19  C   UNL     1     172.044 144.437 154.335  1.00  0.00    -0.003 C 
ATOM     20  C   UNL     1     172.864 144.268 153.056  1.00  0.00     0.004 C 
ENDBRANCH  18  19
ENDBRANCH  17  18
ENDBRANCH  16  17
ENDBRANCH  15  16
ENDBRANCH  14  15
ENDBRANCH  13  14
ENDBRANCH  12  13
ENDBRANCH   1  12
TORSDOF 16
ENDMDL
MODEL 2
REMARK VINA RESULT:    -4.947      4.612      6.360
REMARK INTER + INTRA:         -11.320
REMARK INTER:                  -8.426
REMARK INTRA:                  -2.893
REMARK UNBOUND:                -1.746
REMARK SMILES CCCCCCCCCCCCCCCCCC(=O)[O-]
REMARK SMILES IDX 10 1 11 2 12 3 13 4 14 5 15 6 16 7 17 8 18 9 19 10 20 11
REMARK SMILES IDX 9 12 8 13 7 14 6 15 5 16 4 17 3 18 2 19 1 20
REMARK H PARENT
REMARK Flexibility Score: inf
ROOT
ATOM      1  C   UNL     1     170.548 142.422 151.810  1.00  0.00     0.000 C 
ENDROOT
BRANCH   1   2
ATOM      2  C   UNL     1     170.632 143.572 150.796  1.00  0.00     0.000 C 
BRANCH   2   3
ATOM      3  C   UNL     1     169.470 144.573 150.934  1.00  0.00     0.000 C 
BRANCH   3   4
ATOM      4  C   UNL     1     169.829 145.752 151.864  1.00  0.00     0.000 C 
BRANCH   4   5
ATOM      5  C   UNL     1     168.939 145.841 153.116  1.00  0.00     0.000 C 
BRANCH   5   6
ATOM      6  C   UNL     1     167.972 144.653 153.248  1.00  0.00     0.000 C 
BRANCH   6   7
ATOM      7  C   UNL     1     167.673 144.299 154.714  1.00  0.00     0.006 C 
BRANCH   7   8
ATOM      8  C   UNL     1     168.475 143.088 155.205  1.00  0.00     0.053 C 
BRANCH   8   9
ATOM      9  C   UNL     1     167.907 142.573 156.489  1.00  0.00     0.041 C 
ATOM     10  O   UNL     1     167.442 141.403 156.554  1.00  0.00    -0.550 OA
ATOM     11  O   UNL     1     167.847 143.399 157.604  1.00  0.00    -0.550 OA
ENDBRANCH   8   9
ENDBRANCH   7   8
ENDBRANCH   6   7
ENDBRANCH   5   6
ENDBRANCH   4   5
ENDBRANCH   3   4
ENDBRANCH   2   3
ENDBRANCH   1   2
BRANCH   1  12
ATOM     12  C   UNL     1     171.498 142.612 153.003  1.00  0.00     0.000 C 
BRANCH  12  13
ATOM     13  C   UNL     1     172.743 143.407 152.591  1.00  0.00    -0.000 C 
BRANCH  13  14
ATOM     14  C   UNL     1     173.021 144.546 153.583  1.00  0.00    -0.000 C 
BRANCH  14  15
ATOM     15  C   UNL     1     172.002 144.593 154.733  1.00  0.00    -0.000 C 
BRANCH  15  16
ATOM     16  C   UNL     1     171.739 146.026 155.229  1.00  0.00    -0.000 C 
BRANCH  16  17
ATOM     17  C   UNL     1     170.738 146.079 156.397  1.00  0.00    -0.000 C 
BRANCH  17  18
ATOM     18  C   UNL     1     170.913 144.981 157.465  1.00  0.00    -0.000 C 
BRANCH  18  19
ATOM     19  C   UNL     1     171.205 145.495 158.885  1.00  0.00    -0.003 C 
ATOM     20  C   UNL     1     171.618 146.967 158.911  1.00  0.00     0.004 C 
ENDBRANCH  18  19
ENDBRANCH  17  18
ENDBRANCH  16  17
ENDBRANCH  15  16
ENDBRANCH  14  15
ENDBRANCH  13  14
ENDBRANCH  12  13
ENDBRANCH   1  12
TORSDOF 16
ENDMDL
MODEL 3
REMARK VINA RESULT:    -4.891      2.370      3.335
REMARK INTER + INTRA:         -11.213
REMARK INTER:                  -8.281
REMARK INTRA:                  -2.932
REMARK UNBOUND:                -1.746
REMARK SMILES CCCCCCCCCCCCCCCCCC(=O)[O-]
REMARK SMILES IDX 10 1 11 2 12 3 13 4 14 5 15 6 16 7 17 8 18 9 19 10 20 11
REMARK SMILES IDX 9 12 8 13 7 14 6 15 5 16 4 17 3 18 2 19 1 20
REMARK H PARENT
REMARK Flexibility Score: inf
ROOT
ATOM      1  C   UNL     1     170.050 145.454 151.872  1.00  0.00     0.000 C 
ENDROOT
BRANCH   1   2
ATOM      2  C   UNL     1     171.376 144.683 151.786  1.00  0.00     0.000 C 
BRANCH   2   3
ATOM      3  C   UNL     1     171.176 143.190 151.469  1.00  0.00     0.000 C 
BRANCH   3   4
ATOM      4  C   UNL     1     172.164 142.688 150.394  1.00  0.00     0.000 C 
BRANCH   4   5
ATOM      5  C   UNL     1     171.580 142.696 148.970  1.00  0.00     0.000 C 
BRANCH   5   6
ATOM      6  C   UNL     1     172.040 143.906 148.142  1.00  0.00     0.000 C 
BRANCH   6   7
ATOM      7  C   UNL     1     171.008 145.046 148.142  1.00  0.00     0.006 C 
BRANCH   7   8
ATOM      8  C   UNL     1     169.569 144.538 148.299  1.00  0.00     0.053 C 
BRANCH   8   9
ATOM      9  C   UNL     1     168.943 144.325 146.957  1.00  0.00     0.041 C 
ATOM     10  O   UNL     1     168.775 145.298 146.174  1.00  0.00    -0.550 OA
ATOM     11  O   UNL     1     168.501 143.061 146.588  1.00  0.00    -0.550 OA
ENDBRANCH   8   9
ENDBRANCH   7   8
ENDBRANCH   6   7
ENDBRANCH   5   6
ENDBRANCH   4   5
ENDBRANCH   3   4
ENDBRANCH   2   3
ENDBRANCH   1   2
BRANCH   1  12
ATOM     12  C   UNL     1     168.871 144.561 152.288  1.00  0.00     0.000 C 
BRANCH  12  13
ATOM     13  C   UNL     1     168.070 145.205 153.426  1.00  0.00    -0.000 C 
BRANCH  13  14
ATOM     14  C   UNL     1     167.783 144.188 154.541  1.00  0.00    -0.000 C 
BRANCH  14  15
ATOM     15  C   UNL     1     168.694 142.952 154.465  1.00  0.00    -0.000 C 
BRANCH  15  16
ATOM     16  C   UNL     1     169.709 142.898 155.621  1.00  0.00    -0.000 C 
BRANCH  16  17
ATOM     17  C   UNL     1     171.123 143.332 155.194  1.00  0.00    -0.000 C 
BRANCH  17  18
ATOM     18  C   UNL     1     171.698 144.542 155.958  1.00  0.00    -0.000 C 
BRANCH  18  19
ATOM     19  C   UNL     1     171.504 145.900 155.262  1.00  0.00    -0.003 C 
ATOM     20  C   UNL     1     170.300 146.676 155.796  1.00  0.00     0.004 C 
ENDBRANCH  18  19
ENDBRANCH  17  18
ENDBRANCH  16  17
ENDBRANCH  15  16
ENDBRANCH  14  15
ENDBRANCH  13  14
ENDBRANCH  12  13
ENDBRANCH   1  12
TORSDOF 16
ENDMDL
MODEL 4
REMARK VINA RESULT:    -4.879      4.348      6.750
REMARK INTER + INTRA:         -11.189
REMARK INTER:                  -8.076
REMARK INTRA:                  -3.113
REMARK UNBOUND:                -1.746
REMARK SMILES CCCCCCCCCCCCCCCCCC(=O)[O-]
REMARK SMILES IDX 10 1 11 2 12 3 13 4 14 5 15 6 16 7 17 8 18 9 19 10 20 11
REMARK SMILES IDX 9 12 8 13 7 14 6 15 5 16 4 17 3 18 2 19 1 20
REMARK H PARENT
REMARK Flexibility Score: inf
ROOT
ATOM      1  C   UNL     1     170.470 143.490 150.284  1.00  0.00     0.000 C 
ENDROOT
BRANCH   1   2
ATOM      2  C   UNL     1     171.651 142.509 150.324  1.00  0.00     0.000 C 
BRANCH   2   3
ATOM      3  C   UNL     1     172.569 142.732 151.540  1.00  0.00     0.000 C 
BRANCH   3   4
ATOM      4  C   UNL     1     171.921 142.241 152.853  1.00  0.00     0.000 C 
BRANCH   4   5
ATOM      5  C   UNL     1     172.275 143.106 154.075  1.00  0.00     0.000 C 
BRANCH   5   6
ATOM      6  C   UNL     1     172.817 144.492 153.689  1.00  0.00     0.000 C 
BRANCH   6   7
ATOM      7  C   UNL     1     172.152 145.625 154.488  1.00  0.00     0.006 C 
BRANCH   7   8
ATOM      8  C   UNL     1     171.463 145.124 155.763  1.00  0.00     0.053 C 
BRANCH   8   9
ATOM      9  C   UNL     1     170.870 146.271 156.519  1.00  0.00     0.041 C 
ATOM     10  O   UNL     1     170.091 147.075 155.942  1.00  0.00    -0.550 OA
ATOM     11  O   UNL     1     171.214 146.479 157.849  1.00  0.00    -0.550 OA
ENDBRANCH   8   9
ENDBRANCH   7   8
ENDBRANCH   6   7
ENDBRANCH   5   6
ENDBRANCH   4   5
ENDBRANCH   3   4
ENDBRANCH   2   3
ENDBRANCH   1   2
BRANCH   1  12
ATOM     12  C   UNL     1     170.912 144.955 150.414  1.00  0.00     0.000 C 
BRANCH  12  13
ATOM     13  C   UNL     1     170.066 145.693 151.458  1.00  0.00    -0.000 C 
BRANCH  13  14
ATOM     14  C   UNL     1     169.104 144.728 152.169  1.00  0.00    -0.000 C 
BRANCH  14  15
ATOM     15  C   UNL     1     168.366 145.386 153.346  1.00  0.00    -0.000 C 
BRANCH  15  16
ATOM     16  C   UNL     1     167.716 144.355 154.285  1.00  0.00    -0.000 C 
BRANCH  16  17
ATOM     17  C   UNL     1     168.552 143.070 154.431  1.00  0.00    -0.000 C 
BRANCH  17  18
ATOM     18  C   UNL     1     168.890 142.667 155.880  1.00  0.00    -0.000 C 
BRANCH  18  19
ATOM     19  C   UNL     1     168.301 143.586 156.964  1.00  0.00    -0.003 C 
ATOM     20  C   UNL     1     168.651 143.133 158.382  1.00  0.00     0.004 C 
ENDBRANCH  18  19
ENDBRANCH  17  18
ENDBRANCH  16  17
ENDBRANCH  15  16
ENDBRANCH  14  15
ENDBRANCH  13  14
ENDBRANCH  12  13
ENDBRANCH   1  12
TORSDOF 16
ENDMDL
MODEL 5
REMARK VINA RESULT:    -4.861      4.778      7.656
REMARK INTER + INTRA:         -11.153
REMARK INTER:                  -8.318
REMARK INTRA:                  -2.836
REMARK UNBOUND:                -1.746
REMARK SMILES CCCCCCCCCCCCCCCCCC(=O)[O-]
REMARK SMILES IDX 10 1 11 2 12 3 13 4 14 5 15 6 16 7 17 8 18 9 19 10 20 11
REMARK SMILES IDX 9 12 8 13 7 14 6 15 5 16 4 17 3 18 2 19 1 20
REMARK H PARENT
REMARK Flexibility Score: inf
ROOT
ATOM      1  C   UNL     1     170.297 146.129 154.313  1.00  0.00     0.000 C 
ENDROOT
BRANCH   1   2
ATOM      2  C   UNL     1     169.763 145.918 152.888  1.00  0.00     0.000 C 
BRANCH   2   3
ATOM      3  C   UNL     1     168.755 144.758 152.797  1.00  0.00     0.000 C 
BRANCH   3   4
ATOM      4  C   UNL     1     167.595 144.918 153.803  1.00  0.00     0.000 C 
BRANCH   4   5
ATOM      5  C   UNL     1     167.553 143.815 154.875  1.00  0.00     0.000 C 
BRANCH   5   6
ATOM      6  C   UNL     1     168.730 142.832 154.767  1.00  0.00     0.000 C 
BRANCH   6   7
ATOM      7  C   UNL     1     169.303 142.448 156.141  1.00  0.00     0.006 C 
BRANCH   7   8
ATOM      8  C   UNL     1     169.904 143.646 156.886  1.00  0.00     0.053 C 
BRANCH   8   9
ATOM      9  C   UNL     1     169.438 143.662 158.308  1.00  0.00     0.041 C 
ATOM     10  O   UNL     1     168.410 143.018 158.645  1.00  0.00    -0.550 OA
ATOM     11  O   UNL     1     170.111 144.427 159.252  1.00  0.00    -0.550 OA
ENDBRANCH   8   9
ENDBRANCH   7   8
ENDBRANCH   6   7
ENDBRANCH   5   6
ENDBRANCH   4   5
ENDBRANCH   3   4
ENDBRANCH   2   3
ENDBRANCH   1   2
BRANCH   1  12
ATOM     12  C   UNL     1     171.776 145.739 154.456  1.00  0.00     0.000 C 
BRANCH  12  13
ATOM     13  C   UNL     1     172.212 144.813 153.313  1.00  0.00    -0.000 C 
BRANCH  13  14
ATOM     14  C   UNL     1     172.246 143.348 153.775  1.00  0.00    -0.000 C 
BRANCH  14  15
ATOM     15  C   UNL     1     171.777 142.372 152.684  1.00  0.00    -0.000 C 
BRANCH  15  16
ATOM     16  C   UNL     1     172.637 142.453 151.411  1.00  0.00    -0.000 C 
BRANCH  16  17
ATOM     17  C   UNL     1     171.801 142.391 150.120  1.00  0.00    -0.000 C 
BRANCH  17  18
ATOM     18  C   UNL     1     170.402 143.032 150.211  1.00  0.00    -0.000 C 
BRANCH  18  19
ATOM     19  C   UNL     1     170.176 144.233 149.276  1.00  0.00    -0.003 C 
ATOM     20  C   UNL     1     171.070 145.426 149.613  1.00  0.00     0.004 C 
ENDBRANCH  18  19
ENDBRANCH  17  18
ENDBRANCH  16  17
ENDBRANCH  15  16
ENDBRANCH  14  15
ENDBRANCH  13  14
ENDBRANCH  12  13
ENDBRANCH   1  12
TORSDOF 16
ENDMDL
MODEL 6
REMARK VINA RESULT:    -4.840      4.326      8.808
REMARK INTER + INTRA:         -11.113
REMARK INTER:                  -9.726
REMARK INTRA:                  -1.387
REMARK UNBOUND:                -1.746
REMARK SMILES CCCCCCCCCCCCCCCCCC(=O)[O-]
REMARK SMILES IDX 10 1 11 2 12 3 13 4 14 5 15 6 16 7 17 8 18 9 19 10 20 11
REMARK SMILES IDX 9 12 8 13 7 14 6 15 5 16 4 17 3 18 2 19 1 20
REMARK H PARENT
REMARK Flexibility Score: inf
ROOT
ATOM      1  C   UNL     1     169.356 144.604 151.541  1.00  0.00     0.000 C 
ENDROOT
BRANCH   1   2
ATOM      2  C   UNL     1     169.556 145.644 152.655  1.00  0.00     0.000 C 
BRANCH   2   3
ATOM      3  C   UNL     1     168.283 145.871 153.491  1.00  0.00     0.000 C 
BRANCH   3   4
ATOM      4  C   UNL     1     167.483 144.567 153.696  1.00  0.00     0.000 C 
BRANCH   4   5
ATOM      5  C   UNL     1     167.718 143.911 155.068  1.00  0.00     0.000 C 
BRANCH   5   6
ATOM      6  C   UNL     1     168.844 142.865 155.046  1.00  0.00     0.000 C 
BRANCH   6   7
ATOM      7  C   UNL     1     170.066 143.300 155.872  1.00  0.00     0.006 C 
BRANCH   7   8
ATOM      8  C   UNL     1     169.764 144.489 156.793  1.00  0.00     0.053 C 
BRANCH   8   9
ATOM      9  C   UNL     1     169.661 144.033 158.214  1.00  0.00     0.041 C 
ATOM     10  O   UNL     1     168.700 143.304 158.577  1.00  0.00    -0.550 OA
ATOM     11  O   UNL     1     170.598 144.453 159.149  1.00  0.00    -0.550 OA
ENDBRANCH   8   9
ENDBRANCH   7   8
ENDBRANCH   6   7
ENDBRANCH   5   6
ENDBRANCH   4   5
ENDBRANCH   3   4
ENDBRANCH   2   3
ENDBRANCH   1   2
BRANCH   1  12
ATOM     12  C   UNL     1     170.662 143.897 151.150  1.00  0.00     0.000 C 
BRANCH  12  13
ATOM     13  C   UNL     1     170.870 143.930 149.630  1.00  0.00    -0.000 C 
BRANCH  13  14
ATOM     14  C   UNL     1     169.698 144.637 148.931  1.00  0.00    -0.000 C 
BRANCH  14  15
ATOM     15  C   UNL     1     169.654 144.357 147.420  1.00  0.00    -0.000 C 
BRANCH  15  16
ATOM     16  C   UNL     1     168.218 144.193 146.892  1.00  0.00    -0.000 C 
BRANCH  16  17
ATOM     17  C   UNL     1     167.758 145.385 146.033  1.00  0.00    -0.000 C 
BRANCH  17  18
ATOM     18  C   UNL     1     166.639 146.247 146.650  1.00  0.00    -0.000 C 
BRANCH  18  19
ATOM     19  C   UNL     1     165.248 145.589 146.670  1.00  0.00    -0.003 C 
ATOM     20  C   UNL     1     164.208 146.420 147.420  1.00  0.00     0.004 C 
ENDBRANCH  18  19
ENDBRANCH  17  18
ENDBRANCH  16  17
ENDBRANCH  15  16
ENDBRANCH  14  15
ENDBRANCH  13  14
ENDBRANCH  12  13
ENDBRANCH   1  12
TORSDOF 16
ENDMDL
MODEL 7
REMARK VINA RESULT:    -4.812      4.845      7.993
REMARK INTER + INTRA:         -11.060
REMARK INTER:                  -8.452
REMARK INTRA:                  -2.608
REMARK UNBOUND:                -1.746
REMARK SMILES CCCCCCCCCCCCCCCCCC(=O)[O-]
REMARK SMILES IDX 10 1 11 2 12 3 13 4 14 5 15 6 16 7 17 8 18 9 19 10 20 11
REMARK SMILES IDX 9 12 8 13 7 14 6 15 5 16 4 17 3 18 2 19 1 20
REMARK H PARENT
REMARK Flexibility Score: inf
ROOT
ATOM      1  C   UNL     1     168.809 142.711 154.813  1.00  0.00     0.000 C 
ENDROOT
BRANCH   1   2
ATOM      2  C   UNL     1     167.859 143.917 154.748  1.00  0.00     0.000 C 
BRANCH   2   3
ATOM      3  C   UNL     1     167.880 144.616 153.375  1.00  0.00     0.000 C 
BRANCH   3   4
ATOM      4  C   UNL     1     168.477 146.037 153.457  1.00  0.00     0.000 C 
BRANCH   4   5
ATOM      5  C   UNL     1     169.965 146.057 153.849  1.00  0.00     0.000 C 
BRANCH   5   6
ATOM      6  C   UNL     1     170.193 146.467 155.313  1.00  0.00     0.000 C 
BRANCH   6   7
ATOM      7  C   UNL     1     171.075 145.463 156.073  1.00  0.00     0.006 C 
BRANCH   7   8
ATOM      8  C   UNL     1     170.382 144.892 157.317  1.00  0.00     0.053 C 
BRANCH   8   9
ATOM      9  C   UNL     1     171.070 145.363 158.559  1.00  0.00     0.041 C 
ATOM     10  O   UNL     1     170.880 144.768 159.653  1.00  0.00    -0.550 OA
ATOM     11  O   UNL     1     171.884 146.488 158.519  1.00  0.00    -0.550 OA
ENDBRANCH   8   9
ENDBRANCH   7   8
ENDBRANCH   6   7
ENDBRANCH   5   6
ENDBRANCH   4   5
ENDBRANCH   3   4
ENDBRANCH   2   3
ENDBRANCH   1   2
BRANCH   1  12
ATOM     12  C   UNL     1     169.376 142.328 153.437  1.00  0.00     0.000 C 
BRANCH  12  13
ATOM     13  C   UNL     1     170.889 142.573 153.381  1.00  0.00    -0.000 C 
BRANCH  13  14
ATOM     14  C   UNL     1     171.297 143.184 152.031  1.00  0.00    -0.000 C 
BRANCH  14  15
ATOM     15  C   UNL     1     170.236 142.973 150.939  1.00  0.00    -0.000 C 
BRANCH  15  16
ATOM     16  C   UNL     1     169.785 144.295 150.293  1.00  0.00    -0.000 C 
BRANCH  16  17
ATOM     17  C   UNL     1     170.893 145.363 150.281  1.00  0.00    -0.000 C 
BRANCH  17  18
ATOM     18  C   UNL     1     171.331 145.840 148.882  1.00  0.00    -0.000 C 
BRANCH  18  19
ATOM     19  C   UNL     1     171.393 144.739 147.810  1.00  0.00    -0.003 C 
ATOM     20  C   UNL     1     170.434 144.988 146.645  1.00  0.00     0.004 C 
ENDBRANCH  18  19
ENDBRANCH  17  18
ENDBRANCH  16  17
ENDBRANCH  15  16
ENDBRANCH  14  15
ENDBRANCH  13  14
ENDBRANCH  12  13
ENDBRANCH   1  12
TORSDOF 16
ENDMDL
MODEL 8
REMARK VINA RESULT:    -4.803      4.932      8.693
REMARK INTER + INTRA:         -11.042
REMARK INTER:                  -8.286
REMARK INTRA:                  -2.756
REMARK UNBOUND:                -1.746
REMARK SMILES CCCCCCCCCCCCCCCCCC(=O)[O-]
REMARK SMILES IDX 10 1 11 2 12 3 13 4 14 5 15 6 16 7 17 8 18 9 19 10 20 11
REMARK SMILES IDX 9 12 8 13 7 14 6 15 5 16 4 17 3 18 2 19 1 20
REMARK H PARENT
REMARK Flexibility Score: inf
ROOT
ATOM      1  C   UNL     1     169.828 146.149 154.318  1.00  0.00     0.000 C 
ENDROOT
BRANCH   1   2
ATOM      2  C   UNL     1     170.530 146.238 155.681  1.00  0.00     0.000 C 
BRANCH   2   3
ATOM      3  C   UNL     1     171.763 145.320 155.776  1.00  0.00     0.000 C 
BRANCH   3   4
ATOM      4  C   UNL     1     171.551 144.168 156.781  1.00  0.00     0.000 C 
BRANCH   4   5
ATOM      5  C   UNL     1     170.111 144.072 157.314  1.00  0.00     0.000 C 
BRANCH   5   6
ATOM      6  C   UNL     1     170.022 144.271 158.836  1.00  0.00     0.000 C 
BRANCH   6   7
ATOM      7  C   UNL     1     171.383 144.608 159.465  1.00  0.00     0.006 C 
BRANCH   7   8
ATOM      8  C   UNL     1     171.399 145.987 160.136  1.00  0.00     0.053 C 
BRANCH   8   9
ATOM      9  C   UNL     1     171.919 147.022 159.189  1.00  0.00     0.041 C 
ATOM     10  O   UNL     1     171.200 148.005 158.867  1.00  0.00    -0.550 OA
ATOM     11  O   UNL     1     173.180 146.877 158.624  1.00  0.00    -0.550 OA
ENDBRANCH   8   9
ENDBRANCH   7   8
ENDBRANCH   6   7
ENDBRANCH   5   6
ENDBRANCH   4   5
ENDBRANCH   3   4
ENDBRANCH   2   3
ENDBRANCH   1   2
BRANCH   1  12
ATOM     12  C   UNL     1     168.366 145.692 154.434  1.00  0.00     0.000 C 
BRANCH  12  13
ATOM     13  C   UNL     1     168.082 144.516 153.492  1.00  0.00    -0.000 C 
BRANCH  13  14
ATOM     14  C   UNL     1     168.971 143.310 153.835  1.00  0.00    -0.000 C 
BRANCH  14  15
ATOM     15  C   UNL     1     169.815 142.836 152.640  1.00  0.00    -0.000 C 
BRANCH  15  16
ATOM     16  C   UNL     1     171.323 143.036 152.868  1.00  0.00    -0.000 C 
BRANCH  16  17
ATOM     17  C   UNL     1     171.909 144.181 152.021  1.00  0.00    -0.000 C 
BRANCH  17  18
ATOM     18  C   UNL     1     170.904 144.892 151.093  1.00  0.00    -0.000 C 
BRANCH  18  19
ATOM     19  C   UNL     1     171.131 144.658 149.589  1.00  0.00    -0.003 C 
ATOM     20  C   UNL     1     170.191 143.604 149.003  1.00  0.00     0.004 C 
ENDBRANCH  18  19
ENDBRANCH  17  18
ENDBRANCH  16  17
ENDBRANCH  15  16
ENDBRANCH  14  15
ENDBRANCH  13  14
ENDBRANCH  12  13
ENDBRANCH   1  12
TORSDOF 16
ENDMDL
MODEL 9
REMARK VINA RESULT:    -4.803      2.924      4.005
REMARK INTER + INTRA:         -11.041
REMARK INTER:                  -8.220
REMARK INTRA:                  -2.821
REMARK UNBOUND:                -1.746
REMARK SMILES CCCCCCCCCCCCCCCCCC(=O)[O-]
REMARK SMILES IDX 10 1 11 2 12 3 13 4 14 5 15 6 16 7 17 8 18 9 19 10 20 11
REMARK SMILES IDX 9 12 8 13 7 14 6 15 5 16 4 17 3 18 2 19 1 20
REMARK H PARENT
REMARK Flexibility Score: inf
ROOT
ATOM      1  C   UNL     1     171.444 143.494 152.536  1.00  0.00     0.000 C 
ENDROOT
BRANCH   1   2
ATOM      2  C   UNL     1     172.700 142.820 151.964  1.00  0.00     0.000 C 
BRANCH   2   3
ATOM      3  C   UNL     1     172.403 141.980 150.707  1.00  0.00     0.000 C 
BRANCH   3   4
ATOM      4  C   UNL     1     170.893 141.712 150.532  1.00  0.00     0.000 C 
BRANCH   4   5
ATOM      5  C   UNL     1     170.296 142.355 149.268  1.00  0.00     0.000 C 
BRANCH   5   6
ATOM      6  C   UNL     1     171.223 143.407 148.638  1.00  0.00     0.000 C 
BRANCH   6   7
ATOM      7  C   UNL     1     170.467 144.675 148.210  1.00  0.00     0.006 C 
BRANCH   7   8
ATOM      8  C   UNL     1     171.389 145.891 148.060  1.00  0.00     0.053 C 
BRANCH   8   9
ATOM      9  C   UNL     1     171.319 146.430 146.667  1.00  0.00     0.041 C 
ATOM     10  O   UNL     1     172.329 146.378 145.915  1.00  0.00    -0.550 OA
ATOM     11  O   UNL     1     170.153 147.034 146.212  1.00  0.00    -0.550 OA
ENDBRANCH   8   9
ENDBRANCH   7   8
ENDBRANCH   6   7
ENDBRANCH   5   6
ENDBRANCH   4   5
ENDBRANCH   3   4
ENDBRANCH   2   3
ENDBRANCH   1   2
BRANCH   1  12
ATOM     12  C   UNL     1     171.406 145.005 152.262  1.00  0.00     0.000 C 
BRANCH  12  13
ATOM     13  C   UNL     1     170.015 145.441 151.783  1.00  0.00    -0.000 C 
BRANCH  13  14
ATOM     14  C   UNL     1     168.937 144.454 152.255  1.00  0.00    -0.000 C 
BRANCH  14  15
ATOM     15  C   UNL     1     167.980 145.070 153.289  1.00  0.00    -0.000 C 
BRANCH  15  16
ATOM     16  C   UNL     1     167.698 144.123 154.468  1.00  0.00    -0.000 C 
BRANCH  16  17
ATOM     17  C   UNL     1     168.399 144.559 155.767  1.00  0.00    -0.000 C 
BRANCH  17  18
ATOM     18  C   UNL     1     169.864 144.100 155.909  1.00  0.00    -0.000 C 
BRANCH  18  19
ATOM     19  C   UNL     1     170.895 145.238 156.002  1.00  0.00    -0.003 C 
ATOM     20  C   UNL     1     170.305 146.606 155.658  1.00  0.00     0.004 C 
ENDBRANCH  18  19
ENDBRANCH  17  18
ENDBRANCH  16  17
ENDBRANCH  15  16
ENDBRANCH  14  15
ENDBRANCH  13  14
ENDBRANCH  12  13
ENDBRANCH   1  12
TORSDOF 16
ENDMDL
