MODEL 1
REMARK VINA RESULT:    -3.159      0.000      0.000
REMARK INTER + INTRA:          -3.814
REMARK INTER:                  -3.714
REMARK INTRA:                  -0.100
REMARK UNBOUND:                -0.100
REMARK SMILES O=C([O-])CCC(=O)[O-]
REMARK SMILES IDX 4 1 2 2 1 3 3 4 5 5 6 6 7 7 8 8
REMARK H PARENT
REMARK Flexibility Score: inf
ROOT
ATOM      1  C   UNL     1      35.604   8.396  -3.768  1.00  0.00     0.059 C 
ENDROOT
BRANCH   1   2
ATOM      2  C   UNL     1      35.220   8.457  -2.323  1.00  0.00     0.042 C 
ATOM      3  O   UNL     1      36.021   8.930  -1.475  1.00  0.00    -0.550 OA
ATOM      4  O   UNL     1      33.998   7.947  -1.907  1.00  0.00    -0.550 OA
ENDBRANCH   1   2
BRANCH   1   5
ATOM      5  C   UNL     1      34.603   7.544  -4.552  1.00  0.00     0.059 C 
BRANCH   5   6
ATOM      6  C   UNL     1      35.190   6.204  -4.865  1.00  0.00     0.042 C 
ATOM      7  O   UNL     1      34.666   5.159  -4.396  1.00  0.00    -0.550 OA
ATOM      8  O   UNL     1      36.286   6.106  -5.712  1.00  0.00    -0.550 OA
ENDBRANCH   5   6
ENDBRANCH   1   5
TORSDOF 3
ENDMDL
MODEL 2
REMARK VINA RESULT:    -3.089      0.208      3.877
REMARK INTER + INTRA:          -3.731
REMARK INTER:                  -3.610
REMARK INTRA:                  -0.121
REMARK UNBOUND:                -0.100
REMARK SMILES O=C([O-])CCC(=O)[O-]
REMARK SMILES IDX 4 1 2 2 1 3 3 4 5 5 6 6 7 7 8 8
REMARK H PARENT
REMARK Flexibility Score: inf
ROOT
ATOM      1  C   UNL     1      34.708   7.596  -4.803  1.00  0.00     0.059 C 
ENDROOT
BRANCH   1   2
ATOM      2  C   UNL     1      35.236   6.208  -4.987  1.00  0.00     0.042 C 
ATOM      3  O   UNL     1      34.705   5.243  -4.375  1.00  0.00    -0.550 OA
ATOM      4  O   UNL     1      36.342   5.986  -5.795  1.00  0.00    -0.550 OA
ENDBRANCH   1   2
BRANCH   1   5
ATOM      5  C   UNL     1      35.671   8.425  -3.951  1.00  0.00     0.059 C 
BRANCH   5   6
ATOM      6  C   UNL     1      35.229   8.432  -2.521  1.00  0.00     0.042 C 
ATOM      7  O   UNL     1      36.021   8.806  -1.616  1.00  0.00    -0.550 OA
ATOM      8  O   UNL     1      33.929   8.071  -2.194  1.00  0.00    -0.550 OA
ENDBRANCH   5   6
ENDBRANCH   1   5
TORSDOF 3
ENDMDL
MODEL 3
REMARK VINA RESULT:    -3.000      7.376      8.282
REMARK INTER + INTRA:          -3.626
REMARK INTER:                  -3.502
REMARK INTRA:                  -0.124
REMARK UNBOUND:                -0.100
REMARK SMILES O=C([O-])CCC(=O)[O-]
REMARK SMILES IDX 4 1 2 2 1 3 3 4 5 5 6 6 7 7 8 8
REMARK H PARENT
REMARK Flexibility Score: inf
ROOT
ATOM      1  C   UNL     1      32.444   2.187   2.340  1.00  0.00     0.059 C 
ENDROOT
BRANCH   1   2
ATOM      2  C   UNL     1      31.848   0.861   1.986  1.00  0.00     0.042 C 
ATOM      3  O   UNL     1      30.609   0.759   1.782  1.00  0.00    -0.550 OA
ATOM      4  O   UNL     1      32.651  -0.269   1.929  1.00  0.00    -0.550 OA
ENDBRANCH   1   2
BRANCH   1   5
ATOM      5  C   UNL     1      33.345   2.687   1.208  1.00  0.00     0.059 C 
BRANCH   5   6
ATOM      6  C   UNL     1      32.569   3.556   0.269  1.00  0.00     0.042 C 
ATOM      7  O   UNL     1      32.987   3.751  -0.903  1.00  0.00    -0.550 OA
ATOM      8  O   UNL     1      31.361   4.109   0.671  1.00  0.00    -0.550 OA
ENDBRANCH   5   6
ENDBRANCH   1   5
TORSDOF 3
ENDMDL
MODEL 4
REMARK VINA RESULT:    -2.990      7.723      8.386
REMARK INTER + INTRA:          -3.615
REMARK INTER:                  -3.491
REMARK INTRA:                  -0.124
REMARK UNBOUND:                -0.100
REMARK SMILES O=C([O-])CCC(=O)[O-]
REMARK SMILES IDX 4 1 2 2 1 3 3 4 5 5 6 6 7 7 8 8
REMARK H PARENT
REMARK Flexibility Score: inf
ROOT
ATOM      1  C   UNL     1      33.247   2.455   1.576  1.00  0.00     0.059 C 
ENDROOT
BRANCH   1   2
ATOM      2  C   UNL     1      32.508   3.268   0.561  1.00  0.00     0.042 C 
ATOM      3  O   UNL     1      33.043   3.535  -0.548  1.00  0.00    -0.550 OA
ATOM      4  O   UNL     1      31.249   3.771   0.857  1.00  0.00    -0.550 OA
ENDBRANCH   1   2
BRANCH   1   5
ATOM      5  C   UNL     1      32.282   1.911   2.632  1.00  0.00     0.059 C 
BRANCH   5   6
ATOM      6  C   UNL     1      31.729   0.588   2.202  1.00  0.00     0.042 C 
ATOM      7  O   UNL     1      30.499   0.465   1.963  1.00  0.00    -0.550 OA
ATOM      8  O   UNL     1      32.580  -0.494   2.019  1.00  0.00    -0.550 OA
ENDBRANCH   5   6
ENDBRANCH   1   5
TORSDOF 3
ENDMDL
MODEL 5
REMARK VINA RESULT:    -2.937      7.378      8.047
REMARK INTER + INTRA:          -3.552
REMARK INTER:                  -3.387
REMARK INTRA:                  -0.165
REMARK UNBOUND:                -0.100
REMARK SMILES O=C([O-])CCC(=O)[O-]
REMARK SMILES IDX 4 1 2 2 1 3 3 4 5 5 6 6 7 7 8 8
REMARK H PARENT
REMARK Flexibility Score: inf
ROOT
ATOM      1  C   UNL     1      33.866   2.205   2.482  1.00  0.00     0.059 C 
ENDROOT
BRANCH   1   2
ATOM      2  C   UNL     1      33.508   3.223   3.518  1.00  0.00     0.042 C 
ATOM      3  O   UNL     1      33.822   4.431   3.354  1.00  0.00    -0.550 OA
ATOM      4  O   UNL     1      32.870   2.830   4.687  1.00  0.00    -0.550 OA
ENDBRANCH   1   2
BRANCH   1   5
ATOM      5  C   UNL     1      33.363   2.644   1.105  1.00  0.00     0.059 C 
BRANCH   5   6
ATOM      6  C   UNL     1      31.867   2.667   1.078  1.00  0.00     0.042 C 
ATOM      7  O   UNL     1      31.255   3.739   0.828  1.00  0.00    -0.550 OA
ATOM      8  O   UNL     1      31.151   1.495   1.282  1.00  0.00    -0.550 OA
ENDBRANCH   5   6
ENDBRANCH   1   5
TORSDOF 3
ENDMDL
MODEL 6
REMARK VINA RESULT:    -2.901      7.271      8.403
REMARK INTER + INTRA:          -3.509
REMARK INTER:                  -3.399
REMARK INTRA:                  -0.110
REMARK UNBOUND:                -0.100
REMARK SMILES O=C([O-])CCC(=O)[O-]
REMARK SMILES IDX 4 1 2 2 1 3 3 4 5 5 6 6 7 7 8 8
REMARK H PARENT
REMARK Flexibility Score: inf
ROOT
ATOM      1  C   UNL     1      33.313   2.523   1.716  1.00  0.00     0.059 C 
ENDROOT
BRANCH   1   2
ATOM      2  C   UNL     1      31.939   2.709   1.152  1.00  0.00     0.042 C 
ATOM      3  O   UNL     1      31.158   1.727   1.051  1.00  0.00    -0.550 OA
ATOM      4  O   UNL     1      31.540   3.957   0.693  1.00  0.00    -0.550 OA
ENDBRANCH   1   2
BRANCH   1   5
ATOM      5  C   UNL     1      33.306   2.757   3.228  1.00  0.00     0.059 C 
BRANCH   5   6
ATOM      6  C   UNL     1      34.146   3.945   3.576  1.00  0.00     0.042 C 
ATOM      7  O   UNL     1      33.775   5.102   3.244  1.00  0.00    -0.550 OA
ATOM      8  O   UNL     1      35.314   3.779   4.309  1.00  0.00    -0.550 OA
ENDBRANCH   5   6
ENDBRANCH   1   5
TORSDOF 3
ENDMDL
MODEL 7
REMARK VINA RESULT:    -2.900      8.417      9.190
REMARK INTER + INTRA:          -3.509
REMARK INTER:                  -3.473
REMARK INTRA:                  -0.036
REMARK UNBOUND:                -0.100
REMARK SMILES O=C([O-])CCC(=O)[O-]
REMARK SMILES IDX 4 1 2 2 1 3 3 4 5 5 6 6 7 7 8 8
REMARK H PARENT
REMARK Flexibility Score: inf
ROOT
ATOM      1  C   UNL     1      31.775   0.833   1.659  1.00  0.00     0.059 C 
ENDROOT
BRANCH   1   2
ATOM      2  C   UNL     1      30.979   0.076   2.675  1.00  0.00     0.042 C 
ATOM      3  O   UNL     1      31.066  -1.179   2.741  1.00  0.00    -0.550 OA
ATOM      4  O   UNL     1      30.105   0.751   3.517  1.00  0.00    -0.550 OA
ENDBRANCH   1   2
BRANCH   1   5
ATOM      5  C   UNL     1      31.973   2.283   2.108  1.00  0.00     0.059 C 
BRANCH   5   6
ATOM      6  C   UNL     1      32.223   3.166   0.926  1.00  0.00     0.042 C 
ATOM      7  O   UNL     1      31.405   4.078   0.634  1.00  0.00    -0.550 OA
ATOM      8  O   UNL     1      33.383   3.013   0.178  1.00  0.00    -0.550 OA
ENDBRANCH   5   6
ENDBRANCH   1   5
TORSDOF 3
ENDMDL
MODEL 8
REMARK VINA RESULT:    -2.886      8.490      9.201
REMARK INTER + INTRA:          -3.492
REMARK INTER:                  -3.377
REMARK INTRA:                  -0.115
REMARK UNBOUND:                -0.100
REMARK SMILES O=C([O-])CCC(=O)[O-]
REMARK SMILES IDX 4 1 2 2 1 3 3 4 5 5 6 6 7 7 8 8
REMARK H PARENT
REMARK Flexibility Score: inf
ROOT
ATOM      1  C   UNL     1      32.729   1.842   2.054  1.00  0.00     0.059 C 
ENDROOT
BRANCH   1   2
ATOM      2  C   UNL     1      32.459   2.865   0.995  1.00  0.00     0.042 C 
ATOM      3  O   UNL     1      33.330   3.115   0.120  1.00  0.00    -0.550 OA
ATOM      4  O   UNL     1      31.266   3.574   1.003  1.00  0.00    -0.550 OA
ENDBRANCH   1   2
BRANCH   1   5
ATOM      5  C   UNL     1      31.938   0.562   1.775  1.00  0.00     0.059 C 
BRANCH   5   6
ATOM      6  C   UNL     1      30.996   0.275   2.902  1.00  0.00     0.042 C 
ATOM      7  O   UNL     1      30.759  -0.915   3.241  1.00  0.00    -0.550 OA
ATOM      8  O   UNL     1      30.417   1.321   3.608  1.00  0.00    -0.550 OA
ENDBRANCH   5   6
ENDBRANCH   1   5
TORSDOF 3
ENDMDL
MODEL 9
REMARK VINA RESULT:    -2.806      8.616      9.394
REMARK INTER + INTRA:          -3.398
REMARK INTER:                  -3.222
REMARK INTRA:                  -0.176
REMARK UNBOUND:                -0.100
REMARK SMILES O=C([O-])CCC(=O)[O-]
REMARK SMILES IDX 4 1 2 2 1 3 3 4 5 5 6 6 7 7 8 8
REMARK H PARENT
REMARK Flexibility Score: inf
ROOT
ATOM      1  C   UNL     1      31.436   0.611   2.172  1.00  0.00     0.059 C 
ENDROOT
BRANCH   1   2
ATOM      2  C   UNL     1      31.161   0.932   3.607  1.00  0.00     0.042 C 
ATOM      3  O   UNL     1      30.018   1.328   3.959  1.00  0.00    -0.550 OA
ATOM      4  O   UNL     1      32.178   0.839   4.547  1.00  0.00    -0.550 OA
ENDBRANCH   1   2
BRANCH   1   5
ATOM      5  C   UNL     1      32.661   1.384   1.677  1.00  0.00     0.059 C 
BRANCH   5   6
ATOM      6  C   UNL     1      32.374   2.852   1.642  1.00  0.00     0.042 C 
ATOM      7  O   UNL     1      31.364   3.284   1.027  1.00  0.00    -0.550 OA
ATOM      8  O   UNL     1      33.196   3.737   2.328  1.00  0.00    -0.550 OA
ENDBRANCH   5   6
ENDBRANCH   1   5
TORSDOF 3
ENDMDL
