MODEL 1
REMARK VINA RESULT:    -6.445      0.000      0.000
REMARK INTER + INTRA:          -9.472
REMARK INTER:                  -8.517
REMARK INTRA:                  -0.954
REMARK UNBOUND:                -0.954
REMARK SMILES CC[C@@H](C=C[C@H](C)[C@@H]1CC[C@H]2[C@H]3CC=C4C[C@H](O)CC[C@]4(C)[C@H]3CC[C@]21C)C(C)C
REMARK SMILES IDX 6 1 7 2 5 3 4 4 3 5 2 6 1 7 28 8 29 9 30 10 8 11 9 12 26 13
REMARK SMILES IDX 10 14 11 15 25 16 27 17 12 18 24 19 23 20 13 21 21 22 14 23
REMARK SMILES IDX 15 24 20 25 22 26 16 27 19 28 17 29 18 30
REMARK H PARENT 18 31
REMARK Flexibility Score: inf
ROOT
ATOM      1  C   UNL     1     136.242 127.978 117.139  1.00  0.00     0.012 C 
ATOM      2  C   UNL     1     135.606 128.465 118.457  1.00  0.00     0.012 C 
ENDROOT
BRANCH   1   3
ATOM      3  C   UNL     1     135.195 127.810 116.060  1.00  0.00    -0.028 C 
ATOM      4  C   UNL     1     133.928 128.219 116.235  1.00  0.00    -0.027 C 
BRANCH   4   5
ATOM      5  C   UNL     1     132.876 128.003 115.167  1.00  0.00     0.014 C 
BRANCH   5   6
ATOM      6  C   UNL     1     132.212 129.334 114.700  1.00  0.00     0.004 C 
ATOM      7  C   UNL     1     132.714 130.604 115.401  1.00  0.00     0.004 C 
ENDBRANCH   5   6
BRANCH   5   8
ATOM      8  C   UNL     1     131.875 126.875 115.574  1.00  0.00    -0.011 C 
ATOM      9  C   UNL     1     131.503 126.875 117.064  1.00  0.00     0.008 C 
ATOM     10  C   UNL     1     130.604 126.891 114.711  1.00  0.00     0.008 C 
ENDBRANCH   5   8
ENDBRANCH   4   5
ENDBRANCH   1   3
BRANCH   1  11
ATOM     11  C   UNL     1     137.502 128.787 116.654  1.00  0.00     0.002 C 
ATOM     12  C   UNL     1     137.674 128.682 115.135  1.00  0.00     0.005 C 
ATOM     13  C   UNL     1     138.937 128.475 117.238  1.00  0.00    -0.026 C 
ATOM     14  C   UNL     1     138.713 127.601 114.905  1.00  0.00     0.005 C 
ATOM     15  C   UNL     1     139.659 127.645 116.118  1.00  0.00    -0.001 C 
ATOM     16  C   UNL     1     139.668 129.826 117.484  1.00  0.00     0.007 C 
ATOM     17  C   UNL     1     138.923 127.713 118.593  1.00  0.00     0.012 C 
ATOM     18  C   UNL     1     141.134 128.075 115.776  1.00  0.00     0.000 C 
ATOM     19  C   UNL     1     141.190 129.713 117.721  1.00  0.00     0.005 C 
ATOM     20  C   UNL     1     141.882 128.476 117.065  1.00  0.00     0.003 C 
ATOM     21  C   UNL     1     141.316 129.179 114.703  1.00  0.00     0.031 C 
ATOM     22  C   UNL     1     143.430 128.675 116.816  1.00  0.00    -0.008 C 
ATOM     23  C   UNL     1     142.748 129.628 114.573  1.00  0.00    -0.027 C 
ATOM     24  C   UNL     1     143.698 129.433 115.516  1.00  0.00    -0.065 C 
ATOM     25  C   UNL     1     144.139 127.288 116.690  1.00  0.00     0.014 C 
ATOM     26  C   UNL     1     144.062 129.433 118.022  1.00  0.00     0.016 C 
ATOM     27  C   UNL     1     145.147 129.637 115.131  1.00  0.00     0.063 C 
ATOM     28  C   UNL     1     145.620 127.374 116.251  1.00  0.00     0.033 C 
ATOM     29  C   UNL     1     145.848 128.269 115.009  1.00  0.00     0.118 C 
BRANCH  29  30
ATOM     30  O   UNL     1     145.468 127.606 113.827  1.00  0.00    -0.393 OA
ATOM     31  H   UNL     1     146.292 127.368 113.327  1.00  0.00     0.210 HD
ENDBRANCH  29  30
ENDBRANCH   1  11
TORSDOF 6
ENDMDL
MODEL 2
REMARK VINA RESULT:    -6.315      6.476     10.102
REMARK INTER + INTRA:          -9.300
REMARK INTER:                  -7.994
REMARK INTRA:                  -1.306
REMARK UNBOUND:                -0.954
REMARK SMILES CC[C@@H](C=C[C@H](C)[C@@H]1CC[C@H]2[C@H]3CC=C4C[C@H](O)CC[C@]4(C)[C@H]3CC[C@]21C)C(C)C
REMARK SMILES IDX 6 1 7 2 5 3 4 4 3 5 2 6 1 7 28 8 29 9 30 10 8 11 9 12 26 13
REMARK SMILES IDX 10 14 11 15 25 16 27 17 12 18 24 19 23 20 13 21 21 22 14 23
REMARK SMILES IDX 15 24 20 25 22 26 16 27 19 28 17 29 18 30
REMARK H PARENT 18 31
REMARK Flexibility Score: inf
ROOT
ATOM      1  C   UNL     1     143.816 136.526 117.777  1.00  0.00     0.012 C 
ATOM      2  C   UNL     1     143.508 137.196 119.131  1.00  0.00     0.012 C 
ENDROOT
BRANCH   1   3
ATOM      3  C   UNL     1     144.426 137.514 116.807  1.00  0.00    -0.028 C 
ATOM      4  C   UNL     1     143.801 137.867 115.672  1.00  0.00    -0.027 C 
BRANCH   4   5
ATOM      5  C   UNL     1     144.441 138.822 114.685  1.00  0.00     0.014 C 
BRANCH   5   6
ATOM      6  C   UNL     1     144.466 138.257 113.232  1.00  0.00     0.004 C 
ATOM      7  C   UNL     1     144.167 136.757 113.102  1.00  0.00     0.004 C 
ENDBRANCH   5   6
BRANCH   5   8
ATOM      8  C   UNL     1     145.814 139.348 115.212  1.00  0.00    -0.011 C 
ATOM      9  C   UNL     1     147.009 138.458 114.842  1.00  0.00     0.008 C 
ATOM     10  C   UNL     1     146.081 140.798 114.781  1.00  0.00     0.008 C 
ENDBRANCH   5   8
ENDBRANCH   4   5
ENDBRANCH   1   3
BRANCH   1  11
ATOM     11  C   UNL     1     144.613 135.170 117.856  1.00  0.00     0.002 C 
ATOM     12  C   UNL     1     145.753 135.139 116.832  1.00  0.00     0.005 C 
ATOM     13  C   UNL     1     143.873 133.786 117.669  1.00  0.00    -0.026 C 
ATOM     14  C   UNL     1     145.226 134.357 115.644  1.00  0.00     0.005 C 
ATOM     15  C   UNL     1     144.227 133.332 116.208  1.00  0.00    -0.001 C 
ATOM     16  C   UNL     1     144.443 132.783 118.713  1.00  0.00     0.007 C 
ATOM     17  C   UNL     1     142.335 133.849 117.890  1.00  0.00     0.012 C 
ATOM     18  C   UNL     1     144.669 131.831 116.035  1.00  0.00     0.000 C 
ATOM     19  C   UNL     1     144.094 131.301 118.455  1.00  0.00     0.005 C 
ATOM     20  C   UNL     1     143.835 130.922 116.963  1.00  0.00     0.003 C 
ATOM     21  C   UNL     1     146.176 131.515 116.214  1.00  0.00     0.031 C 
ATOM     22  C   UNL     1     144.061 129.389 116.650  1.00  0.00    -0.008 C 
ATOM     23  C   UNL     1     146.463 130.036 116.190  1.00  0.00    -0.027 C 
ATOM     24  C   UNL     1     145.537 129.075 116.408  1.00  0.00    -0.065 C 
ATOM     25  C   UNL     1     143.288 128.983 115.354  1.00  0.00     0.014 C 
ATOM     26  C   UNL     1     143.513 128.529 117.829  1.00  0.00     0.016 C 
ATOM     27  C   UNL     1     145.879 127.648 116.039  1.00  0.00     0.063 C 
ATOM     28  C   UNL     1     143.601 127.552 114.855  1.00  0.00     0.033 C 
ATOM     29  C   UNL     1     145.116 127.246 114.761  1.00  0.00     0.118 C 
BRANCH  29  30
ATOM     30  O   UNL     1     145.685 127.840 113.619  1.00  0.00    -0.393 OA
ATOM     31  H   UNL     1     145.051 127.729 112.864  1.00  0.00     0.210 HD
ENDBRANCH  29  30
ENDBRANCH   1  11
TORSDOF 6
ENDMDL
MODEL 3
REMARK VINA RESULT:    -6.151      8.606     11.664
REMARK INTER + INTRA:          -9.083
REMARK INTER:                  -7.868
REMARK INTRA:                  -1.215
REMARK UNBOUND:                -0.954
REMARK SMILES CC[C@@H](C=C[C@H](C)[C@@H]1CC[C@H]2[C@H]3CC=C4C[C@H](O)CC[C@]4(C)[C@H]3CC[C@]21C)C(C)C
REMARK SMILES IDX 6 1 7 2 5 3 4 4 3 5 2 6 1 7 28 8 29 9 30 10 8 11 9 12 26 13
REMARK SMILES IDX 10 14 11 15 25 16 27 17 12 18 24 19 23 20 13 21 21 22 14 23
REMARK SMILES IDX 15 24 20 25 22 26 16 27 19 28 17 29 18 30
REMARK H PARENT 18 31
REMARK Flexibility Score: inf
ROOT
ATOM      1  C   UNL     1     131.633 128.811 115.745  1.00  0.00     0.012 C 
ATOM      2  C   UNL     1     132.202 127.574 115.022  1.00  0.00     0.012 C 
ENDROOT
BRANCH   1   3
ATOM      3  C   UNL     1     130.990 129.767 114.765  1.00  0.00    -0.028 C 
ATOM      4  C   UNL     1     131.470 131.007 114.570  1.00  0.00    -0.027 C 
BRANCH   4   5
ATOM      5  C   UNL     1     130.791 131.973 113.620  1.00  0.00     0.014 C 
BRANCH   5   6
ATOM      6  C   UNL     1     131.678 133.211 113.287  1.00  0.00     0.004 C 
ATOM      7  C   UNL     1     132.731 133.573 114.344  1.00  0.00     0.004 C 
ENDBRANCH   5   6
BRANCH   5   8
ATOM      8  C   UNL     1     129.341 132.309 114.093  1.00  0.00    -0.011 C 
ATOM      9  C   UNL     1     129.250 133.537 115.011  1.00  0.00     0.008 C 
ATOM     10  C   UNL     1     128.368 132.457 112.912  1.00  0.00     0.008 C 
ENDBRANCH   5   8
ENDBRANCH   4   5
ENDBRANCH   1   3
BRANCH   1  11
ATOM     11  C   UNL     1     130.726 128.509 116.995  1.00  0.00     0.002 C 
ATOM     12  C   UNL     1     129.414 129.300 116.930  1.00  0.00     0.005 C 
ATOM     13  C   UNL     1     131.262 128.752 118.462  1.00  0.00    -0.026 C 
ATOM     14  C   UNL     1     129.617 130.519 117.809  1.00  0.00     0.005 C 
ATOM     15  C   UNL     1     130.589 130.093 118.923  1.00  0.00    -0.001 C 
ATOM     16  C   UNL     1     130.798 127.564 119.354  1.00  0.00     0.007 C 
ATOM     17  C   UNL     1     132.812 128.824 118.571  1.00  0.00     0.012 C 
ATOM     18  C   UNL     1     129.964 130.096 120.367  1.00  0.00     0.000 C 
ATOM     19  C   UNL     1     130.929 127.799 120.875  1.00  0.00     0.005 C 
ATOM     20  C   UNL     1     130.856 129.289 121.334  1.00  0.00     0.003 C 
ATOM     21  C   UNL     1     128.493 129.623 120.499  1.00  0.00     0.031 C 
ATOM     22  C   UNL     1     130.412 129.467 122.840  1.00  0.00    -0.008 C 
ATOM     23  C   UNL     1     128.049 129.509 121.935  1.00  0.00    -0.027 C 
ATOM     24  C   UNL     1     128.891 129.413 122.989  1.00  0.00    -0.065 C 
ATOM     25  C   UNL     1     130.875 130.859 123.379  1.00  0.00     0.014 C 
ATOM     26  C   UNL     1     131.078 128.364 123.716  1.00  0.00     0.016 C 
ATOM     27  C   UNL     1     128.333 129.631 124.378  1.00  0.00     0.063 C 
ATOM     28  C   UNL     1     130.320 131.209 124.781  1.00  0.00     0.033 C 
ATOM     29  C   UNL     1     128.791 131.003 124.912  1.00  0.00     0.118 C 
BRANCH  29  30
ATOM     30  O   UNL     1     128.081 132.051 124.296  1.00  0.00    -0.393 OA
ATOM     31  H   UNL     1     128.434 132.164 123.375  1.00  0.00     0.210 HD
ENDBRANCH  29  30
ENDBRANCH   1  11
TORSDOF 6
ENDMDL
MODEL 4
REMARK VINA RESULT:    -6.105      3.218      6.057
REMARK INTER + INTRA:          -9.023
REMARK INTER:                  -7.354
REMARK INTRA:                  -1.669
REMARK UNBOUND:                -0.954
REMARK SMILES CC[C@@H](C=C[C@H](C)[C@@H]1CC[C@H]2[C@H]3CC=C4C[C@H](O)CC[C@]4(C)[C@H]3CC[C@]21C)C(C)C
REMARK SMILES IDX 6 1 7 2 5 3 4 4 3 5 2 6 1 7 28 8 29 9 30 10 8 11 9 12 26 13
REMARK SMILES IDX 10 14 11 15 25 16 27 17 12 18 24 19 23 20 13 21 21 22 14 23
REMARK SMILES IDX 15 24 20 25 22 26 16 27 19 28 17 29 18 30
REMARK H PARENT 18 31
REMARK Flexibility Score: inf
ROOT
ATOM      1  C   UNL     1     130.504 127.901 117.095  1.00  0.00     0.012 C 
ATOM      2  C   UNL     1     129.492 127.203 118.025  1.00  0.00     0.012 C 
ENDROOT
BRANCH   1   3
ATOM      3  C   UNL     1     130.031 129.289 116.720  1.00  0.00    -0.028 C 
ATOM      4  C   UNL     1     129.943 129.683 115.439  1.00  0.00    -0.027 C 
BRANCH   4   5
ATOM      5  C   UNL     1     129.513 131.090 115.077  1.00  0.00     0.014 C 
BRANCH   5   6
ATOM      6  C   UNL     1     128.243 131.116 114.173  1.00  0.00     0.004 C 
ATOM      7  C   UNL     1     128.164 132.283 113.178  1.00  0.00     0.004 C 
ENDBRANCH   5   6
BRANCH   5   8
ATOM      8  C   UNL     1     130.717 131.932 114.547  1.00  0.00    -0.011 C 
ATOM      9  C   UNL     1     131.362 132.838 115.606  1.00  0.00     0.008 C 
ATOM     10  C   UNL     1     131.786 131.054 113.878  1.00  0.00     0.008 C 
ENDBRANCH   5   8
ENDBRANCH   4   5
ENDBRANCH   1   3
BRANCH   1  11
ATOM     11  C   UNL     1     132.002 127.870 117.577  1.00  0.00     0.002 C 
ATOM     12  C   UNL     1     132.307 129.049 118.509  1.00  0.00     0.005 C 
ATOM     13  C   UNL     1     133.188 127.875 116.532  1.00  0.00    -0.026 C 
ATOM     14  C   UNL     1     132.970 130.104 117.645  1.00  0.00     0.005 C 
ATOM     15  C   UNL     1     133.736 129.346 116.546  1.00  0.00    -0.001 C 
ATOM     16  C   UNL     1     134.275 126.875 117.024  1.00  0.00     0.007 C 
ATOM     17  C   UNL     1     132.778 127.432 115.099  1.00  0.00     0.012 C 
ATOM     18  C   UNL     1     135.300 129.505 116.616  1.00  0.00     0.000 C 
ATOM     19  C   UNL     1     135.645 127.002 116.323  1.00  0.00     0.005 C 
ATOM     20  C   UNL     1     135.983 128.418 115.758  1.00  0.00     0.003 C 
ATOM     21  C   UNL     1     135.943 129.535 118.026  1.00  0.00     0.031 C 
ATOM     22  C   UNL     1     137.532 128.681 115.591  1.00  0.00    -0.008 C 
ATOM     23  C   UNL     1     137.449 129.524 117.975  1.00  0.00    -0.027 C 
ATOM     24  C   UNL     1     138.174 129.123 116.906  1.00  0.00    -0.065 C 
ATOM     25  C   UNL     1     137.777 129.825 114.556  1.00  0.00     0.014 C 
ATOM     26  C   UNL     1     138.227 127.391 115.059  1.00  0.00     0.016 C 
ATOM     27  C   UNL     1     139.647 129.464 116.866  1.00  0.00     0.063 C 
ATOM     28  C   UNL     1     139.250 130.291 114.466  1.00  0.00     0.033 C 
ATOM     29  C   UNL     1     139.890 130.592 115.843  1.00  0.00     0.118 C 
BRANCH  29  30
ATOM     30  O   UNL     1     139.459 131.835 116.344  1.00  0.00    -0.393 OA
ATOM     31  H   UNL     1     138.501 131.946 116.112  1.00  0.00     0.210 HD
ENDBRANCH  29  30
ENDBRANCH   1  11
TORSDOF 6
ENDMDL
MODEL 5
REMARK VINA RESULT:    -6.039     16.386     19.765
REMARK INTER + INTRA:          -8.935
REMARK INTER:                  -7.904
REMARK INTRA:                  -1.031
REMARK UNBOUND:                -0.954
REMARK SMILES CC[C@@H](C=C[C@H](C)[C@@H]1CC[C@H]2[C@H]3CC=C4C[C@H](O)CC[C@]4(C)[C@H]3CC[C@]21C)C(C)C
REMARK SMILES IDX 6 1 7 2 5 3 4 4 3 5 2 6 1 7 28 8 29 9 30 10 8 11 9 12 26 13
REMARK SMILES IDX 10 14 11 15 25 16 27 17 12 18 24 19 23 20 13 21 21 22 14 23
REMARK SMILES IDX 15 24 20 25 22 26 16 27 19 28 17 29 18 30
REMARK H PARENT 18 31
REMARK Flexibility Score: inf
ROOT
ATOM      1  C   UNL     1     129.317 141.278 119.047  1.00  0.00     0.012 C 
ATOM      2  C   UNL     1     129.217 139.894 118.375  1.00  0.00     0.012 C 
ENDROOT
BRANCH   1   3
ATOM      3  C   UNL     1     129.093 142.388 118.044  1.00  0.00    -0.028 C 
ATOM      4  C   UNL     1     129.083 142.153 116.721  1.00  0.00    -0.027 C 
BRANCH   4   5
ATOM      5  C   UNL     1     128.905 143.278 115.723  1.00  0.00     0.014 C 
BRANCH   5   6
ATOM      6  C   UNL     1     127.585 143.152 114.904  1.00  0.00     0.004 C 
ATOM      7  C   UNL     1     126.941 141.758 114.899  1.00  0.00     0.004 C 
ENDBRANCH   5   6
BRANCH   5   8
ATOM      8  C   UNL     1     130.195 143.487 114.867  1.00  0.00    -0.011 C 
ATOM      9  C   UNL     1     131.206 142.337 114.967  1.00  0.00     0.008 C 
ATOM     10  C   UNL     1     129.869 143.780 113.394  1.00  0.00     0.008 C 
ENDBRANCH   5   8
ENDBRANCH   4   5
ENDBRANCH   1   3
BRANCH   1  11
ATOM     11  C   UNL     1     128.471 141.456 120.362  1.00  0.00     0.002 C 
ATOM     12  C   UNL     1     127.630 142.737 120.308  1.00  0.00     0.005 C 
ATOM     13  C   UNL     1     129.175 141.504 121.776  1.00  0.00    -0.026 C 
ATOM     14  C   UNL     1     128.410 143.782 121.083  1.00  0.00     0.005 C 
ATOM     15  C   UNL     1     129.187 143.023 122.173  1.00  0.00    -0.001 C 
ATOM     16  C   UNL     1     128.316 140.678 122.777  1.00  0.00     0.007 C 
ATOM     17  C   UNL     1     130.606 140.897 121.798  1.00  0.00     0.012 C 
ATOM     18  C   UNL     1     128.741 143.361 123.644  1.00  0.00     0.000 C 
ATOM     19  C   UNL     1     128.656 140.898 124.267  1.00  0.00     0.005 C 
ATOM     20  C   UNL     1     129.271 142.289 124.619  1.00  0.00     0.003 C 
ATOM     21  C   UNL     1     127.227 143.584 123.887  1.00  0.00     0.031 C 
ATOM     22  C   UNL     1     129.069 142.708 126.129  1.00  0.00    -0.008 C 
ATOM     23  C   UNL     1     126.893 143.738 125.349  1.00  0.00    -0.027 C 
ATOM     24  C   UNL     1     127.692 143.330 126.361  1.00  0.00    -0.065 C 
ATOM     25  C   UNL     1     130.130 143.780 126.539  1.00  0.00     0.014 C 
ATOM     26  C   UNL     1     129.261 141.464 127.048  1.00  0.00     0.016 C 
ATOM     27  C   UNL     1     127.396 143.829 127.758  1.00  0.00     0.063 C 
ATOM     28  C   UNL     1     129.894 144.398 127.938  1.00  0.00     0.033 C 
ATOM     29  C   UNL     1     128.443 144.885 128.164  1.00  0.00     0.118 C 
BRANCH  29  30
ATOM     30  O   UNL     1     128.209 146.110 127.512  1.00  0.00    -0.393 OA
ATOM     31  H   UNL     1     127.512 145.964 126.820  1.00  0.00     0.210 HD
ENDBRANCH  29  30
ENDBRANCH   1  11
TORSDOF 6
ENDMDL
MODEL 6
REMARK VINA RESULT:    -5.987      4.171      7.534
REMARK INTER + INTRA:          -8.866
REMARK INTER:                  -7.961
REMARK INTRA:                  -0.905
REMARK UNBOUND:                -0.954
REMARK SMILES CC[C@@H](C=C[C@H](C)[C@@H]1CC[C@H]2[C@H]3CC=C4C[C@H](O)CC[C@]4(C)[C@H]3CC[C@]21C)C(C)C
REMARK SMILES IDX 6 1 7 2 5 3 4 4 3 5 2 6 1 7 28 8 29 9 30 10 8 11 9 12 26 13
REMARK SMILES IDX 10 14 11 15 25 16 27 17 12 18 24 19 23 20 13 21 21 22 14 23
REMARK SMILES IDX 15 24 20 25 22 26 16 27 19 28 17 29 18 30
REMARK H PARENT 18 31
REMARK Flexibility Score: inf
ROOT
ATOM      1  C   UNL     1     144.226 127.710 116.839  1.00  0.00     0.012 C 
ATOM      2  C   UNL     1     143.649 126.880 118.004  1.00  0.00     0.012 C 
ENDROOT
BRANCH   1   3
ATOM      3  C   UNL     1     143.220 127.846 115.718  1.00  0.00    -0.028 C 
ATOM      4  C   UNL     1     141.901 127.704 115.932  1.00  0.00    -0.027 C 
BRANCH   4   5
ATOM      5  C   UNL     1     140.905 127.796 114.794  1.00  0.00     0.014 C 
BRANCH   5   6
ATOM      6  C   UNL     1     140.592 129.267 114.385  1.00  0.00     0.004 C 
ATOM      7  C   UNL     1     140.421 130.253 115.549  1.00  0.00     0.004 C 
ENDBRANCH   5   6
BRANCH   5   8
ATOM      8  C   UNL     1     139.651 126.905 115.064  1.00  0.00    -0.011 C 
ATOM      9  C   UNL     1     139.192 126.898 116.529  1.00  0.00     0.008 C 
ATOM     10  C   UNL     1     138.475 127.269 114.143  1.00  0.00     0.008 C 
ENDBRANCH   5   8
ENDBRANCH   4   5
ENDBRANCH   1   3
BRANCH   1  11
ATOM     11  C   UNL     1     144.887 129.080 117.244  1.00  0.00     0.002 C 
ATOM     12  C   UNL     1     144.218 129.668 118.492  1.00  0.00     0.005 C 
ATOM     13  C   UNL     1     144.944 130.283 116.221  1.00  0.00    -0.026 C 
ATOM     14  C   UNL     1     143.222 130.695 117.988  1.00  0.00     0.005 C 
ATOM     15  C   UNL     1     143.809 131.264 116.684  1.00  0.00    -0.001 C 
ATOM     16  C   UNL     1     146.341 130.959 116.340  1.00  0.00     0.007 C 
ATOM     17  C   UNL     1     144.766 129.866 114.734  1.00  0.00     0.012 C 
ATOM     18  C   UNL     1     144.194 132.788 116.757  1.00  0.00     0.000 C 
ATOM     19  C   UNL     1     146.454 132.349 115.677  1.00  0.00     0.005 C 
ATOM     20  C   UNL     1     145.123 133.158 115.580  1.00  0.00     0.003 C 
ATOM     21  C   UNL     1     144.809 133.298 118.085  1.00  0.00     0.031 C 
ATOM     22  C   UNL     1     145.336 134.719 115.460  1.00  0.00    -0.008 C 
ATOM     23  C   UNL     1     145.290 134.723 117.990  1.00  0.00    -0.027 C 
ATOM     24  C   UNL     1     145.554 135.364 116.829  1.00  0.00    -0.065 C 
ATOM     25  C   UNL     1     144.072 135.391 114.834  1.00  0.00     0.014 C 
ATOM     26  C   UNL     1     146.551 135.011 114.528  1.00  0.00     0.016 C 
ATOM     27  C   UNL     1     145.712 136.868 116.857  1.00  0.00     0.063 C 
ATOM     28  C   UNL     1     144.104 136.938 114.855  1.00  0.00     0.033 C 
ATOM     29  C   UNL     1     144.467 137.532 116.237  1.00  0.00     0.118 C 
BRANCH  29  30
ATOM     30  O   UNL     1     143.370 137.478 117.118  1.00  0.00    -0.393 OA
ATOM     31  H   UNL     1     143.668 137.038 117.956  1.00  0.00     0.210 HD
ENDBRANCH  29  30
ENDBRANCH   1  11
TORSDOF 6
ENDMDL
MODEL 7
REMARK VINA RESULT:    -5.941      9.300     12.731
REMARK INTER + INTRA:          -8.806
REMARK INTER:                  -7.674
REMARK INTRA:                  -1.133
REMARK UNBOUND:                -0.954
REMARK SMILES CC[C@@H](C=C[C@H](C)[C@@H]1CC[C@H]2[C@H]3CC=C4C[C@H](O)CC[C@]4(C)[C@H]3CC[C@]21C)C(C)C
REMARK SMILES IDX 6 1 7 2 5 3 4 4 3 5 2 6 1 7 28 8 29 9 30 10 8 11 9 12 26 13
REMARK SMILES IDX 10 14 11 15 25 16 27 17 12 18 24 19 23 20 13 21 21 22 14 23
REMARK SMILES IDX 15 24 20 25 22 26 16 27 19 28 17 29 18 30
REMARK H PARENT 18 31
REMARK Flexibility Score: inf
ROOT
ATOM      1  C   UNL     1     130.973 128.838 117.986  1.00  0.00     0.012 C 
ATOM      2  C   UNL     1     131.924 127.747 117.455  1.00  0.00     0.012 C 
ENDROOT
BRANCH   1   3
ATOM      3  C   UNL     1     130.015 129.296 116.908  1.00  0.00    -0.028 C 
ATOM      4  C   UNL     1     130.151 130.486 116.301  1.00  0.00    -0.027 C 
BRANCH   4   5
ATOM      5  C   UNL     1     129.159 130.955 115.256  1.00  0.00     0.014 C 
BRANCH   5   6
ATOM      6  C   UNL     1     128.175 129.830 114.814  1.00  0.00     0.004 C 
ATOM      7  C   UNL     1     127.266 130.176 113.627  1.00  0.00     0.004 C 
ENDBRANCH   5   6
BRANCH   5   8
ATOM      8  C   UNL     1     129.877 131.701 114.086  1.00  0.00    -0.011 C 
ATOM      9  C   UNL     1     129.699 133.226 114.114  1.00  0.00     0.008 C 
ATOM     10  C   UNL     1     131.369 131.343 114.002  1.00  0.00     0.008 C 
ENDBRANCH   5   8
ENDBRANCH   4   5
ENDBRANCH   1   3
BRANCH   1  11
ATOM     11  C   UNL     1     130.256 128.510 119.348  1.00  0.00     0.002 C 
ATOM     12  C   UNL     1     128.785 128.939 119.315  1.00  0.00     0.005 C 
ATOM     13  C   UNL     1     130.807 129.088 120.712  1.00  0.00    -0.026 C 
ATOM     14  C   UNL     1     128.726 130.285 120.010  1.00  0.00     0.005 C 
ATOM     15  C   UNL     1     129.845 130.277 121.066  1.00  0.00    -0.001 C 
ATOM     16  C   UNL     1     130.720 127.967 121.788  1.00  0.00     0.007 C 
ATOM     17  C   UNL     1     132.290 129.551 120.656  1.00  0.00     0.012 C 
ATOM     18  C   UNL     1     129.335 130.339 122.554  1.00  0.00     0.000 C 
ATOM     19  C   UNL     1     130.886 128.447 123.246  1.00  0.00     0.005 C 
ATOM     20  C   UNL     1     130.465 129.925 123.521  1.00  0.00     0.003 C 
ATOM     21  C   UNL     1     128.045 129.546 122.890  1.00  0.00     0.031 C 
ATOM     22  C   UNL     1     130.088 130.207 125.029  1.00  0.00    -0.008 C 
ATOM     23  C   UNL     1     127.740 129.538 124.365  1.00  0.00    -0.027 C 
ATOM     24  C   UNL     1     128.645 129.806 125.334  1.00  0.00    -0.065 C 
ATOM     25  C   UNL     1     130.214 131.733 125.340  1.00  0.00     0.014 C 
ATOM     26  C   UNL     1     131.070 129.440 125.966  1.00  0.00     0.016 C 
ATOM     27  C   UNL     1     128.141 130.082 126.734  1.00  0.00     0.063 C 
ATOM     28  C   UNL     1     129.680 132.139 126.735  1.00  0.00     0.033 C 
ATOM     29  C   UNL     1     128.267 131.587 127.043  1.00  0.00     0.118 C 
BRANCH  29  30
ATOM     30  O   UNL     1     127.275 132.329 126.374  1.00  0.00    -0.393 OA
ATOM     31  H   UNL     1     127.684 133.173 126.052  1.00  0.00     0.210 HD
ENDBRANCH  29  30
ENDBRANCH   1  11
TORSDOF 6
ENDMDL
MODEL 8
REMARK VINA RESULT:    -5.901      6.743     11.382
REMARK INTER + INTRA:          -8.752
REMARK INTER:                  -7.921
REMARK INTRA:                  -0.831
REMARK UNBOUND:                -0.954
REMARK SMILES CC[C@@H](C=C[C@H](C)[C@@H]1CC[C@H]2[C@H]3CC=C4C[C@H](O)CC[C@]4(C)[C@H]3CC[C@]21C)C(C)C
REMARK SMILES IDX 6 1 7 2 5 3 4 4 3 5 2 6 1 7 28 8 29 9 30 10 8 11 9 12 26 13
REMARK SMILES IDX 10 14 11 15 25 16 27 17 12 18 24 19 23 20 13 21 21 22 14 23
REMARK SMILES IDX 15 24 20 25 22 26 16 27 19 28 17 29 18 30
REMARK H PARENT 18 31
REMARK Flexibility Score: inf
ROOT
ATOM      1  C   UNL     1     144.991 137.111 117.399  1.00  0.00     0.012 C 
ATOM      2  C   UNL     1     144.175 137.675 118.579  1.00  0.00     0.012 C 
ENDROOT
BRANCH   1   3
ATOM      3  C   UNL     1     146.062 138.086 116.963  1.00  0.00    -0.028 C 
ATOM      4  C   UNL     1     145.824 139.405 116.877  1.00  0.00    -0.027 C 
BRANCH   4   5
ATOM      5  C   UNL     1     146.890 140.368 116.394  1.00  0.00     0.014 C 
BRANCH   5   6
ATOM      6  C   UNL     1     147.112 141.560 117.374  1.00  0.00     0.004 C 
ATOM      7  C   UNL     1     146.384 141.451 118.721  1.00  0.00     0.004 C 
ENDBRANCH   5   6
BRANCH   5   8
ATOM      8  C   UNL     1     146.655 140.774 114.904  1.00  0.00    -0.011 C 
ATOM      9  C   UNL     1     145.250 140.447 114.380  1.00  0.00     0.008 C 
ATOM     10  C   UNL     1     146.985 142.253 114.651  1.00  0.00     0.008 C 
ENDBRANCH   5   8
ENDBRANCH   4   5
ENDBRANCH   1   3
BRANCH   1  11
ATOM     11  C   UNL     1     145.532 135.645 117.587  1.00  0.00     0.002 C 
ATOM     12  C   UNL     1     146.727 135.375 116.667  1.00  0.00     0.005 C 
ATOM     13  C   UNL     1     144.581 134.400 117.378  1.00  0.00    -0.026 C 
ATOM     14  C   UNL     1     146.170 134.643 115.462  1.00  0.00     0.005 C 
ATOM     15  C   UNL     1     144.967 133.827 115.968  1.00  0.00    -0.001 C 
ATOM     16  C   UNL     1     144.884 133.362 118.497  1.00  0.00     0.007 C 
ATOM     17  C   UNL     1     143.065 134.732 117.464  1.00  0.00     0.012 C 
ATOM     18  C   UNL     1     145.155 132.267 115.878  1.00  0.00     0.000 C 
ATOM     19  C   UNL     1     144.306 131.950 118.254  1.00  0.00     0.005 C 
ATOM     20  C   UNL     1     144.105 131.555 116.757  1.00  0.00     0.003 C 
ATOM     21  C   UNL     1     146.566 131.708 116.196  1.00  0.00     0.031 C 
ATOM     22  C   UNL     1     144.087 129.994 116.511  1.00  0.00    -0.008 C 
ATOM     23  C   UNL     1     146.594 130.203 116.241  1.00  0.00    -0.027 C 
ATOM     24  C   UNL     1     145.501 129.423 116.406  1.00  0.00    -0.065 C 
ATOM     25  C   UNL     1     143.361 129.668 115.166  1.00  0.00     0.014 C 
ATOM     26  C   UNL     1     143.306 129.292 117.663  1.00  0.00     0.016 C 
ATOM     27  C   UNL     1     145.620 127.944 116.111  1.00  0.00     0.063 C 
ATOM     28  C   UNL     1     143.462 128.184 114.739  1.00  0.00     0.033 C 
ATOM     29  C   UNL     1     144.903 127.621 114.785  1.00  0.00     0.118 C 
BRANCH  29  30
ATOM     30  O   UNL     1     145.656 128.058 113.679  1.00  0.00    -0.393 OA
ATOM     31  H   UNL     1     146.590 128.205 113.981  1.00  0.00     0.210 HD
ENDBRANCH  29  30
ENDBRANCH   1  11
TORSDOF 6
ENDMDL
MODEL 9
REMARK VINA RESULT:    -5.888      1.969      3.383
REMARK INTER + INTRA:          -8.736
REMARK INTER:                  -7.781
REMARK INTRA:                  -0.954
REMARK UNBOUND:                -0.954
REMARK SMILES CC[C@@H](C=C[C@H](C)[C@@H]1CC[C@H]2[C@H]3CC=C4C[C@H](O)CC[C@]4(C)[C@H]3CC[C@]21C)C(C)C
REMARK SMILES IDX 6 1 7 2 5 3 4 4 3 5 2 6 1 7 28 8 29 9 30 10 8 11 9 12 26 13
REMARK SMILES IDX 10 14 11 15 25 16 27 17 12 18 24 19 23 20 13 21 21 22 14 23
REMARK SMILES IDX 15 24 20 25 22 26 16 27 19 28 17 29 18 30
REMARK H PARENT 18 31
REMARK Flexibility Score: inf
ROOT
ATOM      1  C   UNL     1     136.600 127.832 115.565  1.00  0.00     0.012 C 
ATOM      2  C   UNL     1     135.461 126.888 115.999  1.00  0.00     0.012 C 
ENDROOT
BRANCH   1   3
ATOM      3  C   UNL     1     136.229 129.278 115.804  1.00  0.00    -0.028 C 
ATOM      4  C   UNL     1     135.013 129.630 116.253  1.00  0.00    -0.027 C 
BRANCH   4   5
ATOM      5  C   UNL     1     134.635 131.085 116.444  1.00  0.00     0.014 C 
BRANCH   5   6
ATOM      6  C   UNL     1     135.042 131.633 117.846  1.00  0.00     0.004 C 
ATOM      7  C   UNL     1     135.300 130.568 118.921  1.00  0.00     0.004 C 
ENDBRANCH   5   6
BRANCH   5   8
ATOM      8  C   UNL     1     133.148 131.343 116.042  1.00  0.00    -0.011 C 
ATOM      9  C   UNL     1     132.950 132.551 115.116  1.00  0.00     0.008 C 
ATOM     10  C   UNL     1     132.490 130.095 115.433  1.00  0.00     0.008 C 
ENDBRANCH   5   8
ENDBRANCH   4   5
ENDBRANCH   1   3
BRANCH   1  11
ATOM     11  C   UNL     1     138.031 127.464 116.111  1.00  0.00     0.002 C 
ATOM     12  C   UNL     1     138.183 127.875 117.580  1.00  0.00     0.005 C 
ATOM     13  C   UNL     1     139.332 128.020 115.408  1.00  0.00    -0.026 C 
ATOM     14  C   UNL     1     138.910 129.206 117.570  1.00  0.00     0.005 C 
ATOM     15  C   UNL     1     139.826 129.189 116.333  1.00  0.00    -0.001 C 
ATOM     16  C   UNL     1     140.384 126.875 115.354  1.00  0.00     0.007 C 
ATOM     17  C   UNL     1     139.111 128.503 113.947  1.00  0.00     0.012 C 
ATOM     18  C   UNL     1     141.364 129.211 116.663  1.00  0.00     0.000 C 
ATOM     19  C   UNL     1     141.824 127.325 115.021  1.00  0.00     0.005 C 
ATOM     20  C   UNL     1     142.180 128.791 115.422  1.00  0.00     0.003 C 
ATOM     21  C   UNL     1     141.833 128.395 117.895  1.00  0.00     0.031 C 
ATOM     22  C   UNL     1     143.729 129.036 115.618  1.00  0.00    -0.008 C 
ATOM     23  C   UNL     1     143.333 128.352 118.022  1.00  0.00    -0.027 C 
ATOM     24  C   UNL     1     144.194 128.610 117.011  1.00  0.00    -0.065 C 
ATOM     25  C   UNL     1     144.058 130.556 115.472  1.00  0.00     0.014 C 
ATOM     26  C   UNL     1     144.524 128.262 114.525  1.00  0.00     0.016 C 
ATOM     27  C   UNL     1     145.649 128.849 117.347  1.00  0.00     0.063 C 
ATOM     28  C   UNL     1     145.515 130.925 115.840  1.00  0.00     0.033 C 
ATOM     29  C   UNL     1     145.976 130.349 117.201  1.00  0.00     0.118 C 
BRANCH  29  30
ATOM     30  O   UNL     1     145.448 131.092 118.273  1.00  0.00    -0.393 OA
ATOM     31  H   UNL     1     145.701 130.637 119.118  1.00  0.00     0.210 HD
ENDBRANCH  29  30
ENDBRANCH   1  11
TORSDOF 6
ENDMDL
