MODEL 1
REMARK VINA RESULT:    -5.159      0.000      0.000
REMARK INTER + INTRA:          -5.959
REMARK INTER:                  -5.913
REMARK INTRA:                  -0.045
REMARK UNBOUND:                -0.045
REMARK SMILES O=C([O-])c1cc(O)c(O)c(O)c1
REMARK SMILES IDX 4 1 5 2 12 3 6 4 10 5 8 6 2 7 1 8 3 9 7 10 11 12 9 14
REMARK H PARENT 7 11 11 13 9 15
REMARK Flexibility Score: inf
ROOT
ATOM      1  C   UNL     1      -0.218  13.610   5.505  1.00  0.00     0.005 A 
ATOM      2  C   UNL     1       0.716  13.674   6.554  1.00  0.00     0.060 A 
ATOM      3  C   UNL     1       0.243  13.399   4.194  1.00  0.00     0.060 A 
ATOM      4  C   UNL     1       2.087  13.528   6.299  1.00  0.00     0.162 A 
ATOM      5  C   UNL     1       1.613  13.253   3.936  1.00  0.00     0.162 A 
ATOM      6  C   UNL     1       2.536  13.317   4.986  1.00  0.00     0.200 A 
ENDROOT
BRANCH   1   7
ATOM      7  C   UNL     1      -1.665  13.763   5.772  1.00  0.00     0.072 C 
ATOM      8  O   UNL     1      -2.282  14.792   5.390  1.00  0.00    -0.545 OA
ATOM      9  O   UNL     1      -2.365  12.771   6.449  1.00  0.00    -0.545 OA
ENDBRANCH   1   7
BRANCH   4  10
ATOM     10  O   UNL     1       3.003  13.594   7.348  1.00  0.00    -0.504 OA
ATOM     11  H   UNL     1       3.417  12.759   7.747  1.00  0.00     0.293 HD
ENDBRANCH   4  10
BRANCH   5  12
ATOM     12  O   UNL     1       2.064  13.043   2.633  1.00  0.00    -0.504 OA
ATOM     13  H   UNL     1       2.799  12.378   2.425  1.00  0.00     0.293 HD
ENDBRANCH   5  12
BRANCH   6  14
ATOM     14  O   UNL     1       3.896  13.170   4.708  1.00  0.00    -0.502 OA
ATOM     15  H   UNL     1       4.482  13.955   4.451  1.00  0.00     0.293 HD
ENDBRANCH   6  14
TORSDOF 4
ENDMDL
MODEL 2
REMARK VINA RESULT:    -5.145      0.100      2.423
REMARK INTER + INTRA:          -5.942
REMARK INTER:                  -5.897
REMARK INTRA:                  -0.046
REMARK UNBOUND:                -0.045
REMARK SMILES O=C([O-])c1cc(O)c(O)c(O)c1
REMARK SMILES IDX 4 1 5 2 12 3 6 4 10 5 8 6 2 7 1 8 3 9 7 10 11 12 9 14
REMARK H PARENT 7 11 11 13 9 15
REMARK Flexibility Score: inf
ROOT
ATOM      1  C   UNL     1      -0.197  13.601   5.446  1.00  0.00     0.005 A 
ATOM      2  C   UNL     1       0.256  13.429   4.126  1.00  0.00     0.060 A 
ATOM      3  C   UNL     1       0.743  13.665   6.487  1.00  0.00     0.060 A 
ATOM      4  C   UNL     1       1.628  13.323   3.851  1.00  0.00     0.162 A 
ATOM      5  C   UNL     1       2.115  13.561   6.216  1.00  0.00     0.162 A 
ATOM      6  C   UNL     1       2.559  13.390   4.900  1.00  0.00     0.200 A 
ENDROOT
BRANCH   1   7
ATOM      7  C   UNL     1      -1.644  13.712   5.737  1.00  0.00     0.072 C 
ATOM      8  O   UNL     1      -2.291  14.734   5.387  1.00  0.00    -0.545 OA
ATOM      9  O   UNL     1      -2.309  12.688   6.401  1.00  0.00    -0.545 OA
ENDBRANCH   1   7
BRANCH   4  10
ATOM     10  O   UNL     1       2.066  13.152   2.538  1.00  0.00    -0.504 OA
ATOM     11  H   UNL     1       2.696  13.812   2.097  1.00  0.00     0.293 HD
ENDBRANCH   4  10
BRANCH   5  12
ATOM     12  O   UNL     1       3.043  13.626   7.255  1.00  0.00    -0.504 OA
ATOM     13  H   UNL     1       3.039  14.386   7.925  1.00  0.00     0.293 HD
ENDBRANCH   5  12
BRANCH   6  14
ATOM     14  O   UNL     1       3.928  13.287   4.651  1.00  0.00    -0.502 OA
ATOM     15  H   UNL     1       4.596  13.953   5.023  1.00  0.00     0.293 HD
ENDBRANCH   6  14
TORSDOF 4
ENDMDL
MODEL 3
REMARK VINA RESULT:    -4.925      2.979      4.974
REMARK INTER + INTRA:          -5.691
REMARK INTER:                  -5.642
REMARK INTRA:                  -0.049
REMARK UNBOUND:                -0.045
REMARK SMILES O=C([O-])c1cc(O)c(O)c(O)c1
REMARK SMILES IDX 4 1 5 2 12 3 6 4 10 5 8 6 2 7 1 8 3 9 7 10 11 12 9 14
REMARK H PARENT 7 11 11 13 9 15
REMARK Flexibility Score: inf
ROOT
ATOM      1  C   UNL     1       2.828  15.381   2.037  1.00  0.00     0.005 A 
ATOM      2  C   UNL     1       3.666  14.585   2.838  1.00  0.00     0.060 A 
ATOM      3  C   UNL     1       1.456  15.085   1.982  1.00  0.00     0.060 A 
ATOM      4  C   UNL     1       3.141  13.510   3.571  1.00  0.00     0.162 A 
ATOM      5  C   UNL     1       0.928  14.012   2.713  1.00  0.00     0.162 A 
ATOM      6  C   UNL     1       1.768  13.223   3.507  1.00  0.00     0.200 A 
ENDROOT
BRANCH   1   7
ATOM      7  C   UNL     1       3.380  16.516   1.264  1.00  0.00     0.072 C 
ATOM      8  O   UNL     1       2.988  16.741   0.088  1.00  0.00    -0.545 OA
ATOM      9  O   UNL     1       4.338  17.351   1.826  1.00  0.00    -0.545 OA
ENDBRANCH   1   7
BRANCH   4  10
ATOM     10  O   UNL     1       3.983  12.727   4.360  1.00  0.00    -0.504 OA
ATOM     11  H   UNL     1       4.265  13.019   5.289  1.00  0.00     0.293 HD
ENDBRANCH   4  10
BRANCH   5  12
ATOM     12  O   UNL     1      -0.435  13.724   2.654  1.00  0.00    -0.504 OA
ATOM     13  H   UNL     1      -0.773  12.798   2.417  1.00  0.00     0.293 HD
ENDBRANCH   5  12
BRANCH   6  14
ATOM     14  O   UNL     1       1.224  12.160   4.228  1.00  0.00    -0.502 OA
ATOM     15  H   UNL     1       0.225  12.004   4.290  1.00  0.00     0.293 HD
ENDBRANCH   6  14
TORSDOF 4
ENDMDL
MODEL 4
REMARK VINA RESULT:    -4.903      2.971      5.229
REMARK INTER + INTRA:          -5.665
REMARK INTER:                  -5.616
REMARK INTRA:                  -0.049
REMARK UNBOUND:                -0.045
REMARK SMILES O=C([O-])c1cc(O)c(O)c(O)c1
REMARK SMILES IDX 4 1 5 2 12 3 6 4 10 5 8 6 2 7 1 8 3 9 7 10 11 12 9 14
REMARK H PARENT 7 11 11 13 9 15
REMARK Flexibility Score: inf
ROOT
ATOM      1  C   UNL     1       2.769  15.379   2.029  1.00  0.00     0.005 A 
ATOM      2  C   UNL     1       1.395  15.079   2.006  1.00  0.00     0.060 A 
ATOM      3  C   UNL     1       3.627  14.586   2.808  1.00  0.00     0.060 A 
ATOM      4  C   UNL     1       0.888  14.003   2.751  1.00  0.00     0.162 A 
ATOM      5  C   UNL     1       3.124  13.510   3.553  1.00  0.00     0.162 A 
ATOM      6  C   UNL     1       1.755  13.218   3.526  1.00  0.00     0.200 A 
ENDROOT
BRANCH   1   7
ATOM      7  C   UNL     1       3.305  16.513   1.244  1.00  0.00     0.072 C 
ATOM      8  O   UNL     1       2.895  16.733   0.073  1.00  0.00    -0.545 OA
ATOM      9  O   UNL     1       4.269  17.353   1.789  1.00  0.00    -0.545 OA
ENDBRANCH   1   7
BRANCH   4  10
ATOM     10  O   UNL     1      -0.476  13.716   2.722  1.00  0.00    -0.504 OA
ATOM     11  H   UNL     1      -1.107  14.191   2.087  1.00  0.00     0.293 HD
ENDBRANCH   4  10
BRANCH   5  12
ATOM     12  O   UNL     1       3.982  12.727   4.324  1.00  0.00    -0.504 OA
ATOM     13  H   UNL     1       3.755  11.769   4.565  1.00  0.00     0.293 HD
ENDBRANCH   5  12
BRANCH   6  14
ATOM     14  O   UNL     1       1.274  12.143   4.275  1.00  0.00    -0.502 OA
ATOM     15  H   UNL     1       0.398  11.683   4.056  1.00  0.00     0.293 HD
ENDBRANCH   6  14
TORSDOF 4
ENDMDL
MODEL 5
REMARK VINA RESULT:    -4.799      1.954      2.748
REMARK INTER + INTRA:          -5.545
REMARK INTER:                  -5.498
REMARK INTRA:                  -0.048
REMARK UNBOUND:                -0.045
REMARK SMILES O=C([O-])c1cc(O)c(O)c(O)c1
REMARK SMILES IDX 4 1 5 2 12 3 6 4 10 5 8 6 2 7 1 8 3 9 7 10 11 12 9 14
REMARK H PARENT 7 11 11 13 9 15
REMARK Flexibility Score: inf
ROOT
ATOM      1  C   UNL     1       1.033  13.138   4.729  1.00  0.00     0.005 A 
ATOM      2  C   UNL     1       2.438  13.099   4.708  1.00  0.00     0.060 A 
ATOM      3  C   UNL     1       0.354  13.827   3.710  1.00  0.00     0.060 A 
ATOM      4  C   UNL     1       3.154  13.738   3.685  1.00  0.00     0.162 A 
ATOM      5  C   UNL     1       1.066  14.467   2.686  1.00  0.00     0.162 A 
ATOM      6  C   UNL     1       2.465  14.424   2.671  1.00  0.00     0.200 A 
ENDROOT
BRANCH   1   7
ATOM      7  C   UNL     1       0.276  12.464   5.808  1.00  0.00     0.072 C 
ATOM      8  O   UNL     1       0.574  12.656   7.016  1.00  0.00    -0.545 OA
ATOM      9  O   UNL     1      -0.777  11.610   5.501  1.00  0.00    -0.545 OA
ENDBRANCH   1   7
BRANCH   4  10
ATOM     10  O   UNL     1       4.548  13.693   3.675  1.00  0.00    -0.504 OA
ATOM     11  H   UNL     1       5.063  13.028   4.240  1.00  0.00     0.293 HD
ENDBRANCH   4  10
BRANCH   5  12
ATOM     12  O   UNL     1       0.387  15.149   1.677  1.00  0.00    -0.504 OA
ATOM     13  H   UNL     1       0.268  14.750   0.753  1.00  0.00     0.293 HD
ENDBRANCH   5  12
BRANCH   6  14
ATOM     14  O   UNL     1       3.156  15.067   1.644  1.00  0.00    -0.502 OA
ATOM     15  H   UNL     1       3.445  16.036   1.711  1.00  0.00     0.293 HD
ENDBRANCH   6  14
TORSDOF 4
ENDMDL
MODEL 6
REMARK VINA RESULT:    -4.782      1.954      3.257
REMARK INTER + INTRA:          -5.526
REMARK INTER:                  -5.478
REMARK INTRA:                  -0.048
REMARK UNBOUND:                -0.045
REMARK SMILES O=C([O-])c1cc(O)c(O)c(O)c1
REMARK SMILES IDX 4 1 5 2 12 3 6 4 10 5 8 6 2 7 1 8 3 9 7 10 11 12 9 14
REMARK H PARENT 7 11 11 13 9 15
REMARK Flexibility Score: inf
ROOT
ATOM      1  C   UNL     1       1.024  13.130   4.757  1.00  0.00     0.005 A 
ATOM      2  C   UNL     1       0.343  13.812   3.733  1.00  0.00     0.060 A 
ATOM      3  C   UNL     1       2.428  13.099   4.739  1.00  0.00     0.060 A 
ATOM      4  C   UNL     1       1.053  14.451   2.707  1.00  0.00     0.162 A 
ATOM      5  C   UNL     1       3.142  13.738   3.715  1.00  0.00     0.162 A 
ATOM      6  C   UNL     1       2.457  14.414   2.699  1.00  0.00     0.200 A 
ENDROOT
BRANCH   1   7
ATOM      7  C   UNL     1       0.276  12.455   5.841  1.00  0.00     0.072 C 
ATOM      8  O   UNL     1       0.570  12.661   7.048  1.00  0.00    -0.545 OA
ATOM      9  O   UNL     1      -0.765  11.584   5.541  1.00  0.00    -0.545 OA
ENDBRANCH   1   7
BRANCH   4  10
ATOM     10  O   UNL     1       0.367  15.123   1.696  1.00  0.00    -0.504 OA
ATOM     11  H   UNL     1      -0.580  14.871   1.438  1.00  0.00     0.293 HD
ENDBRANCH   4  10
BRANCH   5  12
ATOM     12  O   UNL     1       4.536  13.703   3.703  1.00  0.00    -0.504 OA
ATOM     13  H   UNL     1       5.085  14.166   4.417  1.00  0.00     0.293 HD
ENDBRANCH   5  12
BRANCH   6  14
ATOM     14  O   UNL     1       3.185  15.043   1.688  1.00  0.00    -0.502 OA
ATOM     15  H   UNL     1       4.182  14.902   1.573  1.00  0.00     0.293 HD
ENDBRANCH   6  14
TORSDOF 4
ENDMDL
MODEL 7
REMARK VINA RESULT:    -4.685      1.792      3.578
REMARK INTER + INTRA:          -5.415
REMARK INTER:                  -5.366
REMARK INTRA:                  -0.049
REMARK UNBOUND:                -0.045
REMARK SMILES O=C([O-])c1cc(O)c(O)c(O)c1
REMARK SMILES IDX 4 1 5 2 12 3 6 4 10 5 8 6 2 7 1 8 3 9 7 10 11 12 9 14
REMARK H PARENT 7 11 11 13 9 15
REMARK Flexibility Score: inf
ROOT
ATOM      1  C   UNL     1       0.986  13.927   2.923  1.00  0.00     0.005 A 
ATOM      2  C   UNL     1       2.384  13.868   3.063  1.00  0.00     0.060 A 
ATOM      3  C   UNL     1       0.182  13.859   4.073  1.00  0.00     0.060 A 
ATOM      4  C   UNL     1       2.969  13.743   4.332  1.00  0.00     0.162 A 
ATOM      5  C   UNL     1       0.763  13.735   5.342  1.00  0.00     0.162 A 
ATOM      6  C   UNL     1       2.155  13.676   5.474  1.00  0.00     0.200 A 
ENDROOT
BRANCH   1   7
ATOM      7  C   UNL     1       0.367  14.059   1.585  1.00  0.00     0.072 C 
ATOM      8  O   UNL     1      -0.620  14.821   1.407  1.00  0.00    -0.545 OA
ATOM      9  O   UNL     1       0.869  13.344   0.504  1.00  0.00    -0.545 OA
ENDBRANCH   1   7
BRANCH   4  10
ATOM     10  O   UNL     1       4.356  13.685   4.458  1.00  0.00    -0.504 OA
ATOM     11  H   UNL     1       4.846  12.802   4.541  1.00  0.00     0.293 HD
ENDBRANCH   4  10
BRANCH   5  12
ATOM     12  O   UNL     1      -0.041  13.668   6.480  1.00  0.00    -0.504 OA
ATOM     13  H   UNL     1      -0.033  12.859   7.090  1.00  0.00     0.293 HD
ENDBRANCH   5  12
BRANCH   6  14
ATOM     14  O   UNL     1       2.715  13.552   6.746  1.00  0.00    -0.502 OA
ATOM     15  H   UNL     1       2.639  14.285   7.443  1.00  0.00     0.293 HD
ENDBRANCH   6  14
TORSDOF 4
ENDMDL
MODEL 8
REMARK VINA RESULT:    -4.683      1.733      3.387
REMARK INTER + INTRA:          -5.413
REMARK INTER:                  -5.362
REMARK INTRA:                  -0.052
REMARK UNBOUND:                -0.045
REMARK SMILES O=C([O-])c1cc(O)c(O)c(O)c1
REMARK SMILES IDX 4 1 5 2 12 3 6 4 10 5 8 6 2 7 1 8 3 9 7 10 11 12 9 14
REMARK H PARENT 7 11 11 13 9 15
REMARK Flexibility Score: inf
ROOT
ATOM      1  C   UNL     1       1.063  13.791   2.988  1.00  0.00     0.005 A 
ATOM      2  C   UNL     1       0.261  13.765   4.143  1.00  0.00     0.060 A 
ATOM      3  C   UNL     1       2.460  13.764   3.127  1.00  0.00     0.060 A 
ATOM      4  C   UNL     1       0.847  13.712   5.416  1.00  0.00     0.162 A 
ATOM      5  C   UNL     1       3.049  13.712   4.398  1.00  0.00     0.162 A 
ATOM      6  C   UNL     1       2.245  13.686   5.543  1.00  0.00     0.200 A 
ENDROOT
BRANCH   1   7
ATOM      7  C   UNL     1       0.446  13.845   1.643  1.00  0.00     0.072 C 
ATOM      8  O   UNL     1      -0.732  14.264   1.495  1.00  0.00    -0.545 OA
ATOM      9  O   UNL     1       1.162  13.437   0.524  1.00  0.00    -0.545 OA
ENDBRANCH   1   7
BRANCH   4  10
ATOM     10  O   UNL     1       0.042  13.688   6.554  1.00  0.00    -0.504 OA
ATOM     11  H   UNL     1       0.185  13.008   7.293  1.00  0.00     0.293 HD
ENDBRANCH   4  10
BRANCH   5  12
ATOM     12  O   UNL     1       4.437  13.685   4.529  1.00  0.00    -0.504 OA
ATOM     13  H   UNL     1       4.948  14.462   4.933  1.00  0.00     0.293 HD
ENDBRANCH   5  12
BRANCH   6  14
ATOM     14  O   UNL     1       2.850  13.634   6.799  1.00  0.00    -0.502 OA
ATOM     15  H   UNL     1       3.530  14.323   7.100  1.00  0.00     0.293 HD
ENDBRANCH   6  14
TORSDOF 4
ENDMDL
MODEL 9
REMARK VINA RESULT:    -4.667      3.252      4.470
REMARK INTER + INTRA:          -5.395
REMARK INTER:                  -5.349
REMARK INTRA:                  -0.045
REMARK UNBOUND:                -0.045
REMARK SMILES O=C([O-])c1cc(O)c(O)c(O)c1
REMARK SMILES IDX 4 1 5 2 12 3 6 4 10 5 8 6 2 7 1 8 3 9 7 10 11 12 9 14
REMARK H PARENT 7 11 11 13 9 15
REMARK Flexibility Score: inf
ROOT
ATOM      1  C   UNL     1       3.140  13.664   3.405  1.00  0.00     0.005 A 
ATOM      2  C   UNL     1       4.271  14.201   4.045  1.00  0.00     0.060 A 
ATOM      3  C   UNL     1       2.570  14.362   2.328  1.00  0.00     0.060 A 
ATOM      4  C   UNL     1       4.824  15.416   3.614  1.00  0.00     0.162 A 
ATOM      5  C   UNL     1       3.120  15.577   1.895  1.00  0.00     0.162 A 
ATOM      6  C   UNL     1       4.246  16.105   2.536  1.00  0.00     0.200 A 
ENDROOT
BRANCH   1   7
ATOM      7  C   UNL     1       2.556  12.381   3.858  1.00  0.00     0.072 C 
ATOM      8  O   UNL     1       1.463  12.360   4.483  1.00  0.00    -0.545 OA
ATOM      9  O   UNL     1       3.206  11.181   3.597  1.00  0.00    -0.545 OA
ENDBRANCH   1   7
BRANCH   4  10
ATOM     10  O   UNL     1       5.946  15.939   4.257  1.00  0.00    -0.504 OA
ATOM     11  H   UNL     1       6.212  15.643   5.188  1.00  0.00     0.293 HD
ENDBRANCH   4  10
BRANCH   5  12
ATOM     12  O   UNL     1       2.549  16.265   0.825  1.00  0.00    -0.504 OA
ATOM     13  H   UNL     1       2.561  15.889  -0.116  1.00  0.00     0.293 HD
ENDBRANCH   5  12
BRANCH   6  14
ATOM     14  O   UNL     1       4.778  17.315   2.091  1.00  0.00    -0.502 OA
ATOM     15  H   UNL     1       5.053  18.052   2.730  1.00  0.00     0.293 HD
ENDBRANCH   6  14
TORSDOF 4
ENDMDL
