MODEL 1
REMARK VINA RESULT:    -6.920      0.000      0.000
REMARK INTER + INTRA:         -11.864
REMARK INTER:                 -10.764
REMARK INTRA:                  -1.100
REMARK UNBOUND:                -1.100
REMARK SMILES C[C@]12C[C@H](O)[C@@H]3C[C@@]1(O[C@@H]1O[C@H](CO)[C@@H](O)[C@H](O)[C@@H]1O)[C@]3(COC(=O)c1ccccc1)C(=O)O2
REMARK SMILES IDX 1 1 2 2 3 3 4 4 6 5 7 6 8 7 21 8 32 9 33 10 34 11 9 12 10 13
REMARK SMILES IDX 19 14 11 15 17 16 12 17 15 18 20 19 18 21 13 23 14 24 16 26
REMARK SMILES IDX 5 28 22 30 23 31 24 32 25 33 26 34 27 35 31 36 28 37 30 38
REMARK SMILES IDX 29 39
REMARK H PARENT 20 20 18 22 14 25 16 27 5 29
REMARK Flexibility Score: inf
ROOT
ATOM      1  C   UNL     1     131.864 128.519 109.496  1.00  0.00     0.060 C 
ATOM      2  C   UNL     1     130.995 128.212 110.730  1.00  0.00     0.142 C 
ATOM      3  C   UNL     1     130.341 126.793 110.506  1.00  0.00     0.083 C 
ATOM      4  C   UNL     1     129.254 126.466 111.585  1.00  0.00     0.123 C 
ATOM      5  C   UNL     1     128.644 127.778 112.146  1.00  0.00     0.045 C 
ATOM      6  C   UNL     1     128.469 128.754 110.970  1.00  0.00     0.049 C 
ATOM      7  C   UNL     1     129.892 129.242 111.254  1.00  0.00     0.131 C 
ATOM      8  C   UNL     1     129.755 128.713 112.716  1.00  0.00     0.140 C 
ATOM      9  C   UNL     1     131.080 128.112 113.188  1.00  0.00     0.319 C 
ATOM     10  O   UNL     1     132.216 128.023 112.628  1.00  0.00    -0.251 OA
ATOM     11  O   UNL     1     131.858 128.063 111.984  1.00  0.00    -0.456 OA
ENDROOT
BRANCH   7  12
ATOM     12  O   UNL     1     129.967 130.669 111.259  1.00  0.00    -0.338 OA
BRANCH  12  13
ATOM     13  C   UNL     1     129.813 131.339 110.034  1.00  0.00     0.282 C 
ATOM     14  C   UNL     1     128.746 132.462 110.217  1.00  0.00     0.202 C 
ATOM     15  O   UNL     1     131.083 131.849 109.635  1.00  0.00    -0.341 OA
ATOM     16  C   UNL     1     129.417 133.816 110.508  1.00  0.00     0.179 C 
ATOM     17  C   UNL     1     130.949 132.892 108.690  1.00  0.00     0.178 C 
ATOM     18  C   UNL     1     130.459 134.172 109.409  1.00  0.00     0.177 C 
BRANCH  14  19
ATOM     19  O   UNL     1     127.837 132.146 111.239  1.00  0.00    -0.385 OA
ATOM     20  H   UNL     1     128.128 131.276 111.611  1.00  0.00     0.211 HD
ENDBRANCH  14  19
BRANCH  16  21
ATOM     21  O   UNL     1     130.044 133.753 111.762  1.00  0.00    -0.387 OA
ATOM     22  H   UNL     1     129.645 134.472 112.315  1.00  0.00     0.211 HD
ENDBRANCH  16  21
BRANCH  17  23
ATOM     23  C   UNL     1     132.290 133.112 107.977  1.00  0.00     0.191 C 
BRANCH  23  24
ATOM     24  O   UNL     1     132.865 134.334 108.367  1.00  0.00    -0.394 OA
ATOM     25  H   UNL     1     133.751 134.373 107.915  1.00  0.00     0.210 HD
ENDBRANCH  23  24
ENDBRANCH  17  23
BRANCH  18  26
ATOM     26  O   UNL     1     129.890 135.041 108.459  1.00  0.00    -0.387 OA
ATOM     27  H   UNL     1     129.068 134.594 108.124  1.00  0.00     0.211 HD
ENDBRANCH  18  26
ENDBRANCH  12  13
ENDBRANCH   7  12
BRANCH   4  28
ATOM     28  O   UNL     1     128.248 125.677 111.003  1.00  0.00    -0.393 OA
ATOM     29  H   UNL     1     128.624 124.760 110.916  1.00  0.00     0.210 HD
ENDBRANCH   4  28
BRANCH   8  30
ATOM     30  C   UNL     1     129.204 129.734 113.757  1.00  0.00     0.255 C 
BRANCH  30  31
ATOM     31  O   UNL     1     129.529 129.373 115.102  1.00  0.00    -0.461 OA
BRANCH  31  32
ATOM     32  C   UNL     1     128.599 129.072 116.102  1.00  0.00     0.338 C 
ATOM     33  O   UNL     1     127.433 128.703 115.800  1.00  0.00    -0.246 OA
BRANCH  32  34
ATOM     34  C   UNL     1     128.978 129.211 117.525  1.00  0.00     0.060 A 
ATOM     35  C   UNL     1     130.200 128.698 117.997  1.00  0.00     0.015 A 
ATOM     36  C   UNL     1     128.102 129.828 118.435  1.00  0.00     0.015 A 
ATOM     37  C   UNL     1     130.530 128.798 119.352  1.00  0.00     0.001 A 
ATOM     38  C   UNL     1     128.434 129.920 119.789  1.00  0.00     0.001 A 
ATOM     39  C   UNL     1     129.646 129.405 120.249  1.00  0.00     0.000 A 
ENDBRANCH  32  34
ENDBRANCH  31  32
ENDBRANCH  30  31
ENDBRANCH   8  30
TORSDOF 12
ENDMDL
MODEL 2
REMARK VINA RESULT:    -6.845      2.055      5.881
REMARK INTER + INTRA:         -11.747
REMARK INTER:                 -11.002
REMARK INTRA:                  -0.745
REMARK UNBOUND:                -1.100
REMARK SMILES C[C@]12C[C@H](O)[C@@H]3C[C@@]1(O[C@@H]1O[C@H](CO)[C@@H](O)[C@H](O)[C@@H]1O)[C@]3(COC(=O)c1ccccc1)C(=O)O2
REMARK SMILES IDX 1 1 2 2 3 3 4 4 6 5 7 6 8 7 21 8 32 9 33 10 34 11 9 12 10 13
REMARK SMILES IDX 19 14 11 15 17 16 12 17 15 18 20 19 18 21 13 23 14 24 16 26
REMARK SMILES IDX 5 28 22 30 23 31 24 32 25 33 26 34 27 35 31 36 28 37 30 38
REMARK SMILES IDX 29 39
REMARK H PARENT 20 20 18 22 14 25 16 27 5 29
REMARK Flexibility Score: inf
ROOT
ATOM      1  C   UNL     1     126.808 129.499 109.199  1.00  0.00     0.060 C 
ATOM      2  C   UNL     1     127.517 129.921 110.500  1.00  0.00     0.142 C 
ATOM      3  C   UNL     1     128.139 131.351 110.257  1.00  0.00     0.083 C 
ATOM      4  C   UNL     1     129.082 131.793 111.425  1.00  0.00     0.123 C 
ATOM      5  C   UNL     1     129.673 130.546 112.138  1.00  0.00     0.045 C 
ATOM      6  C   UNL     1     130.018 129.509 111.056  1.00  0.00     0.049 C 
ATOM      7  C   UNL     1     128.592 128.975 111.211  1.00  0.00     0.131 C 
ATOM      8  C   UNL     1     128.541 129.600 112.640  1.00  0.00     0.140 C 
ATOM      9  C   UNL     1     127.149 130.167 112.921  1.00  0.00     0.319 C 
ATOM     10  O   UNL     1     126.082 130.171 112.233  1.00  0.00    -0.251 OA
ATOM     11  O   UNL     1     126.512 130.107 111.637  1.00  0.00    -0.456 OA
ENDROOT
BRANCH   7  12
ATOM     12  O   UNL     1     128.571 127.549 111.303  1.00  0.00    -0.338 OA
BRANCH  12  13
ATOM     13  C   UNL     1     128.862 126.813 110.143  1.00  0.00     0.282 C 
ATOM     14  C   UNL     1     130.066 125.869 110.447  1.00  0.00     0.202 C 
ATOM     15  O   UNL     1     127.691 126.099 109.755  1.00  0.00    -0.341 OA
ATOM     16  C   UNL     1     129.579 124.461 110.833  1.00  0.00     0.179 C 
ATOM     17  C   UNL     1     128.003 125.014 108.904  1.00  0.00     0.178 C 
ATOM     18  C   UNL     1     128.638 123.876 109.740  1.00  0.00     0.177 C 
BRANCH  14  19
ATOM     19  O   UNL     1     130.884 126.390 111.462  1.00  0.00    -0.385 OA
ATOM     20  H   UNL     1     130.837 127.376 111.380  1.00  0.00     0.211 HD
ENDBRANCH  14  19
BRANCH  16  21
ATOM     21  O   UNL     1     128.902 124.535 112.060  1.00  0.00    -0.387 OA
ATOM     22  H   UNL     1     129.263 125.325 112.537  1.00  0.00     0.211 HD
ENDBRANCH  16  21
BRANCH  17  23
ATOM     23  C   UNL     1     126.733 124.551 108.177  1.00  0.00     0.191 C 
BRANCH  23  24
ATOM     24  O   UNL     1     125.706 125.499 108.319  1.00  0.00    -0.394 OA
ATOM     25  H   UNL     1     125.971 126.274 107.753  1.00  0.00     0.210 HD
ENDBRANCH  23  24
ENDBRANCH  17  23
BRANCH  18  26
ATOM     26  O   UNL     1     129.357 123.024 108.882  1.00  0.00    -0.387 OA
ATOM     27  H   UNL     1     129.467 123.514 108.025  1.00  0.00     0.211 HD
ENDBRANCH  18  26
ENDBRANCH  12  13
ENDBRANCH   7  12
BRANCH   4  28
ATOM     28  O   UNL     1     130.118 132.589 110.909  1.00  0.00    -0.393 OA
ATOM     29  H   UNL     1     130.963 132.086 111.064  1.00  0.00     0.210 HD
ENDBRANCH   4  28
BRANCH   8  30
ATOM     30  C   UNL     1     129.007 128.671 113.802  1.00  0.00     0.255 C 
BRANCH  30  31
ATOM     31  O   UNL     1     128.884 129.293 115.084  1.00  0.00    -0.461 OA
BRANCH  31  32
ATOM     32  C   UNL     1     129.884 129.330 116.060  1.00  0.00     0.338 C 
ATOM     33  O   UNL     1     131.100 129.309 115.731  1.00  0.00    -0.246 OA
BRANCH  32  34
ATOM     34  C   UNL     1     129.514 129.369 117.492  1.00  0.00     0.060 A 
ATOM     35  C   UNL     1     130.396 128.889 118.477  1.00  0.00     0.015 A 
ATOM     36  C   UNL     1     128.254 129.855 117.884  1.00  0.00     0.015 A 
ATOM     37  C   UNL     1     130.018 128.893 119.823  1.00  0.00     0.001 A 
ATOM     38  C   UNL     1     127.880 129.852 119.230  1.00  0.00     0.001 A 
ATOM     39  C   UNL     1     128.759 129.370 120.200  1.00  0.00     0.000 A 
ENDBRANCH  32  34
ENDBRANCH  31  32
ENDBRANCH  30  31
ENDBRANCH   8  30
TORSDOF 12
ENDMDL
MODEL 3
REMARK VINA RESULT:    -6.586      4.501      7.360
REMARK INTER + INTRA:         -11.344
REMARK INTER:                  -9.824
REMARK INTRA:                  -1.520
REMARK UNBOUND:                -1.100
REMARK SMILES C[C@]12C[C@H](O)[C@@H]3C[C@@]1(O[C@@H]1O[C@H](CO)[C@@H](O)[C@H](O)[C@@H]1O)[C@]3(COC(=O)c1ccccc1)C(=O)O2
REMARK SMILES IDX 1 1 2 2 3 3 4 4 6 5 7 6 8 7 21 8 32 9 33 10 34 11 9 12 10 13
REMARK SMILES IDX 19 14 11 15 17 16 12 17 15 18 20 19 18 21 13 23 14 24 16 26
REMARK SMILES IDX 5 28 22 30 23 31 24 32 25 33 26 34 27 35 31 36 28 37 30 38
REMARK SMILES IDX 29 39
REMARK H PARENT 20 20 18 22 14 25 16 27 5 29
REMARK Flexibility Score: inf
ROOT
ATOM      1  C   UNL     1     124.795 135.357 110.639  1.00  0.00     0.060 C 
ATOM      2  C   UNL     1     125.787 134.233 110.993  1.00  0.00     0.142 C 
ATOM      3  C   UNL     1     127.226 134.878 111.063  1.00  0.00     0.083 C 
ATOM      4  C   UNL     1     128.353 133.799 111.190  1.00  0.00     0.123 C 
ATOM      5  C   UNL     1     127.881 132.456 110.569  1.00  0.00     0.045 C 
ATOM      6  C   UNL     1     127.098 132.783 109.286  1.00  0.00     0.049 C 
ATOM      7  C   UNL     1     125.843 132.872 110.158  1.00  0.00     0.131 C 
ATOM      8  C   UNL     1     126.550 131.975 111.222  1.00  0.00     0.140 C 
ATOM      9  C   UNL     1     126.188 132.442 112.633  1.00  0.00     0.319 C 
ATOM     10  O   UNL     1     125.415 133.359 113.049  1.00  0.00    -0.251 OA
ATOM     11  O   UNL     1     125.521 133.690 112.397  1.00  0.00    -0.456 OA
ENDROOT
BRANCH   7  12
ATOM     12  O   UNL     1     124.747 132.163 109.576  1.00  0.00    -0.338 OA
BRANCH  12  13
ATOM     13  C   UNL     1     123.464 132.719 109.706  1.00  0.00     0.282 C 
ATOM     14  C   UNL     1     122.698 132.513 108.362  1.00  0.00     0.202 C 
ATOM     15  O   UNL     1     122.811 132.096 110.809  1.00  0.00    -0.341 OA
ATOM     16  C   UNL     1     121.812 131.256 108.420  1.00  0.00     0.179 C 
ATOM     17  C   UNL     1     121.407 132.249 110.734  1.00  0.00     0.178 C 
ATOM     18  C   UNL     1     120.848 131.308 109.640  1.00  0.00     0.177 C 
BRANCH  14  19
ATOM     19  O   UNL     1     123.583 132.427 107.275  1.00  0.00    -0.385 OA
ATOM     20  H   UNL     1     124.436 132.077 107.637  1.00  0.00     0.211 HD
ENDBRANCH  14  19
BRANCH  16  21
ATOM     21  O   UNL     1     122.635 130.122 108.506  1.00  0.00    -0.387 OA
ATOM     22  H   UNL     1     122.102 129.419 108.957  1.00  0.00     0.211 HD
ENDBRANCH  16  21
BRANCH  17  23
ATOM     23  C   UNL     1     120.787 131.962 112.109  1.00  0.00     0.191 C 
BRANCH  23  24
ATOM     24  O   UNL     1     119.637 131.165 111.977  1.00  0.00    -0.394 OA
ATOM     25  H   UNL     1     119.814 130.343 112.511  1.00  0.00     0.210 HD
ENDBRANCH  23  24
ENDBRANCH  17  23
BRANCH  18  26
ATOM     26  O   UNL     1     119.580 131.771 109.242  1.00  0.00    -0.387 OA
ATOM     27  H   UNL     1     118.916 131.141 109.627  1.00  0.00     0.211 HD
ENDBRANCH  18  26
ENDBRANCH  12  13
ENDBRANCH   7  12
BRANCH   4  28
ATOM     28  O   UNL     1     129.507 134.255 110.531  1.00  0.00    -0.393 OA
ATOM     29  H   UNL     1     129.400 134.007 109.572  1.00  0.00     0.210 HD
ENDBRANCH   4  28
BRANCH   8  30
ATOM     30  C   UNL     1     126.327 130.440 111.069  1.00  0.00     0.255 C 
BRANCH  30  31
ATOM     31  O   UNL     1     126.709 129.712 112.240  1.00  0.00    -0.461 OA
BRANCH  31  32
ATOM     32  C   UNL     1     127.968 129.146 112.461  1.00  0.00     0.338 C 
ATOM     33  O   UNL     1     128.557 128.517 111.541  1.00  0.00    -0.246 OA
BRANCH  32  34
ATOM     34  C   UNL     1     128.605 129.264 113.790  1.00  0.00     0.060 A 
ATOM     35  C   UNL     1     129.978 129.549 113.907  1.00  0.00     0.015 A 
ATOM     36  C   UNL     1     127.851 129.056 114.959  1.00  0.00     0.015 A 
ATOM     37  C   UNL     1     130.578 129.618 115.168  1.00  0.00     0.001 A 
ATOM     38  C   UNL     1     128.457 129.121 116.215  1.00  0.00     0.001 A 
ATOM     39  C   UNL     1     129.820 129.400 116.322  1.00  0.00     0.000 A 
ENDBRANCH  32  34
ENDBRANCH  31  32
ENDBRANCH  30  31
ENDBRANCH   8  30
TORSDOF 12
ENDMDL
MODEL 4
REMARK VINA RESULT:    -6.519      3.079      5.104
REMARK INTER + INTRA:         -11.239
REMARK INTER:                  -9.841
REMARK INTRA:                  -1.398
REMARK UNBOUND:                -1.100
REMARK SMILES C[C@]12C[C@H](O)[C@@H]3C[C@@]1(O[C@@H]1O[C@H](CO)[C@@H](O)[C@H](O)[C@@H]1O)[C@]3(COC(=O)c1ccccc1)C(=O)O2
REMARK SMILES IDX 1 1 2 2 3 3 4 4 6 5 7 6 8 7 21 8 32 9 33 10 34 11 9 12 10 13
REMARK SMILES IDX 19 14 11 15 17 16 12 17 15 18 20 19 18 21 13 23 14 24 16 26
REMARK SMILES IDX 5 28 22 30 23 31 24 32 25 33 26 34 27 35 31 36 28 37 30 38
REMARK SMILES IDX 29 39
REMARK H PARENT 20 20 18 22 14 25 16 27 5 29
REMARK Flexibility Score: inf
ROOT
ATOM      1  C   UNL     1     124.423 134.249 109.492  1.00  0.00     0.060 C 
ATOM      2  C   UNL     1     124.581 133.042 110.435  1.00  0.00     0.142 C 
ATOM      3  C   UNL     1     123.154 132.712 111.025  1.00  0.00     0.083 C 
ATOM      4  C   UNL     1     123.220 131.651 112.173  1.00  0.00     0.123 C 
ATOM      5  C   UNL     1     124.609 131.694 112.865  1.00  0.00     0.045 C 
ATOM      6  C   UNL     1     125.025 133.169 112.989  1.00  0.00     0.049 C 
ATOM      7  C   UNL     1     125.668 133.032 111.607  1.00  0.00     0.131 C 
ATOM      8  C   UNL     1     125.756 131.490 111.829  1.00  0.00     0.140 C 
ATOM      9  C   UNL     1     125.472 130.749 110.522  1.00  0.00     0.319 C 
ATOM     10  O   UNL     1     125.234 131.166 109.347  1.00  0.00    -0.251 OA
ATOM     11  O   UNL     1     124.994 131.791 109.659  1.00  0.00    -0.456 OA
ENDROOT
BRANCH   7  12
ATOM     12  O   UNL     1     126.982 133.595 111.579  1.00  0.00    -0.338 OA
BRANCH  12  13
ATOM     13  C   UNL     1     127.589 133.782 110.327  1.00  0.00     0.282 C 
ATOM     14  C   UNL     1     127.884 135.303 110.144  1.00  0.00     0.202 C 
ATOM     15  O   UNL     1     128.768 132.984 110.272  1.00  0.00    -0.341 OA
ATOM     16  C   UNL     1     129.334 135.633 110.540  1.00  0.00     0.179 C 
ATOM     17  C   UNL     1     129.658 133.443 109.274  1.00  0.00     0.178 C 
ATOM     18  C   UNL     1     130.343 134.744 109.759  1.00  0.00     0.177 C 
BRANCH  14  19
ATOM     19  O   UNL     1     126.992 136.093 110.887  1.00  0.00    -0.385 OA
ATOM     20  H   UNL     1     126.692 136.818 110.283  1.00  0.00     0.211 HD
ENDBRANCH  14  19
BRANCH  16  21
ATOM     21  O   UNL     1     129.486 135.433 111.921  1.00  0.00    -0.387 OA
ATOM     22  H   UNL     1     130.410 135.712 112.148  1.00  0.00     0.211 HD
ENDBRANCH  16  21
BRANCH  17  23
ATOM     23  C   UNL     1     130.679 132.342 108.953  1.00  0.00     0.191 C 
BRANCH  23  24
ATOM     24  O   UNL     1     131.972 132.738 109.336  1.00  0.00    -0.394 OA
ATOM     25  H   UNL     1     132.229 133.468 108.709  1.00  0.00     0.210 HD
ENDBRANCH  23  24
ENDBRANCH  17  23
BRANCH  18  26
ATOM     26  O   UNL     1     130.847 135.439 108.644  1.00  0.00    -0.387 OA
ATOM     27  H   UNL     1     131.171 134.751 108.004  1.00  0.00     0.211 HD
ENDBRANCH  18  26
ENDBRANCH  12  13
ENDBRANCH   7  12
BRANCH   4  28
ATOM     28  O   UNL     1     122.207 131.919 113.110  1.00  0.00    -0.393 OA
ATOM     29  H   UNL     1     122.273 131.211 113.807  1.00  0.00     0.210 HD
ENDBRANCH   4  28
BRANCH   8  30
ATOM     30  C   UNL     1     127.072 130.974 112.486  1.00  0.00     0.255 C 
BRANCH  30  31
ATOM     31  O   UNL     1     127.229 129.558 112.360  1.00  0.00    -0.461 OA
BRANCH  31  32
ATOM     32  C   UNL     1     128.302 128.819 112.867  1.00  0.00     0.338 C 
ATOM     33  O   UNL     1     128.841 127.916 112.172  1.00  0.00    -0.246 OA
BRANCH  32  34
ATOM     34  C   UNL     1     128.795 129.082 114.236  1.00  0.00     0.060 A 
ATOM     35  C   UNL     1     130.133 129.456 114.460  1.00  0.00     0.015 A 
ATOM     36  C   UNL     1     127.938 128.924 115.340  1.00  0.00     0.015 A 
ATOM     37  C   UNL     1     130.598 129.663 115.762  1.00  0.00     0.001 A 
ATOM     38  C   UNL     1     128.410 129.126 116.639  1.00  0.00     0.001 A 
ATOM     39  C   UNL     1     129.739 129.493 116.852  1.00  0.00     0.000 A 
ENDBRANCH  32  34
ENDBRANCH  31  32
ENDBRANCH  30  31
ENDBRANCH   8  30
TORSDOF 12
ENDMDL
MODEL 5
REMARK VINA RESULT:    -6.426      3.188      5.498
REMARK INTER + INTRA:         -11.096
REMARK INTER:                  -9.864
REMARK INTRA:                  -1.231
REMARK UNBOUND:                -1.100
REMARK SMILES C[C@]12C[C@H](O)[C@@H]3C[C@@]1(O[C@@H]1O[C@H](CO)[C@@H](O)[C@H](O)[C@@H]1O)[C@]3(COC(=O)c1ccccc1)C(=O)O2
REMARK SMILES IDX 1 1 2 2 3 3 4 4 6 5 7 6 8 7 21 8 32 9 33 10 34 11 9 12 10 13
REMARK SMILES IDX 19 14 11 15 17 16 12 17 15 18 20 19 18 21 13 23 14 24 16 26
REMARK SMILES IDX 5 28 22 30 23 31 24 32 25 33 26 34 27 35 31 36 28 37 30 38
REMARK SMILES IDX 29 39
REMARK H PARENT 20 20 18 22 14 25 16 27 5 29
REMARK Flexibility Score: inf
ROOT
ATOM      1  C   UNL     1     124.076 133.611 109.009  1.00  0.00     0.060 C 
ATOM      2  C   UNL     1     124.587 132.660 110.108  1.00  0.00     0.142 C 
ATOM      3  C   UNL     1     123.394 132.411 111.110  1.00  0.00     0.083 C 
ATOM      4  C   UNL     1     123.851 131.645 112.396  1.00  0.00     0.123 C 
ATOM      5  C   UNL     1     125.357 131.907 112.670  1.00  0.00     0.045 C 
ATOM      6  C   UNL     1     125.636 133.388 112.366  1.00  0.00     0.049 C 
ATOM      7  C   UNL     1     125.926 132.967 110.924  1.00  0.00     0.131 C 
ATOM      8  C   UNL     1     126.225 131.522 111.433  1.00  0.00     0.140 C 
ATOM      9  C   UNL     1     125.702 130.490 110.433  1.00  0.00     0.319 C 
ATOM     10  O   UNL     1     125.138 130.616 109.303  1.00  0.00    -0.251 OA
ATOM     11  O   UNL     1     124.921 131.284 109.530  1.00  0.00    -0.456 OA
ENDROOT
BRANCH   7  12
ATOM     12  O   UNL     1     127.127 133.567 110.432  1.00  0.00    -0.338 OA
BRANCH  12  13
ATOM     13  C   UNL     1     127.174 134.968 110.348  1.00  0.00     0.282 C 
ATOM     14  C   UNL     1     128.499 135.457 111.009  1.00  0.00     0.202 C 
ATOM     15  O   UNL     1     127.075 135.342 108.976  1.00  0.00    -0.341 OA
ATOM     16  C   UNL     1     129.594 135.676 109.951  1.00  0.00     0.179 C 
ATOM     17  C   UNL     1     127.561 136.652 108.760  1.00  0.00     0.178 C 
ATOM     18  C   UNL     1     129.107 136.642 108.833  1.00  0.00     0.177 C 
BRANCH  14  19
ATOM     19  O   UNL     1     128.949 134.556 111.987  1.00  0.00    -0.385 OA
ATOM     20  H   UNL     1     128.679 133.654 111.680  1.00  0.00     0.211 HD
ENDBRANCH  14  19
BRANCH  16  21
ATOM     21  O   UNL     1     129.944 134.436 109.395  1.00  0.00    -0.387 OA
ATOM     22  H   UNL     1     129.209 134.182 108.781  1.00  0.00     0.211 HD
ENDBRANCH  16  21
BRANCH  17  23
ATOM     23  C   UNL     1     127.054 137.170 107.407  1.00  0.00     0.191 C 
BRANCH  23  24
ATOM     24  O   UNL     1     127.025 138.575 107.392  1.00  0.00    -0.394 OA
ATOM     25  H   UNL     1     127.691 138.853 106.707  1.00  0.00     0.210 HD
ENDBRANCH  23  24
ENDBRANCH  17  23
BRANCH  18  26
ATOM     26  O   UNL     1     129.562 137.950 109.084  1.00  0.00    -0.387 OA
ATOM     27  H   UNL     1     129.862 138.317 108.211  1.00  0.00     0.211 HD
ENDBRANCH  18  26
ENDBRANCH  12  13
ENDBRANCH   7  12
BRANCH   4  28
ATOM     28  O   UNL     1     123.081 132.074 113.490  1.00  0.00    -0.393 OA
ATOM     29  H   UNL     1     123.713 132.195 114.249  1.00  0.00     0.210 HD
ENDBRANCH   4  28
BRANCH   8  30
ATOM     30  C   UNL     1     127.709 131.230 111.810  1.00  0.00     0.255 C 
BRANCH  30  31
ATOM     31  O   UNL     1     127.987 129.830 111.897  1.00  0.00    -0.461 OA
BRANCH  31  32
ATOM     32  C   UNL     1     129.100 129.267 112.530  1.00  0.00     0.338 C 
ATOM     33  O   UNL     1     130.026 128.748 111.852  1.00  0.00    -0.246 OA
BRANCH  32  34
ATOM     34  C   UNL     1     129.180 129.261 114.006  1.00  0.00     0.060 A 
ATOM     35  C   UNL     1     128.037 129.012 114.788  1.00  0.00     0.015 A 
ATOM     36  C   UNL     1     130.398 129.544 114.651  1.00  0.00     0.015 A 
ATOM     37  C   UNL     1     128.116 129.049 116.184  1.00  0.00     0.001 A 
ATOM     38  C   UNL     1     130.470 129.585 116.045  1.00  0.00     0.001 A 
ATOM     39  C   UNL     1     129.330 129.340 116.813  1.00  0.00     0.000 A 
ENDBRANCH  32  34
ENDBRANCH  31  32
ENDBRANCH  30  31
ENDBRANCH   8  30
TORSDOF 12
ENDMDL
MODEL 6
REMARK VINA RESULT:    -6.334      3.664      7.389
REMARK INTER + INTRA:         -10.952
REMARK INTER:                  -9.070
REMARK INTRA:                  -1.882
REMARK UNBOUND:                -1.100
REMARK SMILES C[C@]12C[C@H](O)[C@@H]3C[C@@]1(O[C@@H]1O[C@H](CO)[C@@H](O)[C@H](O)[C@@H]1O)[C@]3(COC(=O)c1ccccc1)C(=O)O2
REMARK SMILES IDX 1 1 2 2 3 3 4 4 6 5 7 6 8 7 21 8 32 9 33 10 34 11 9 12 10 13
REMARK SMILES IDX 19 14 11 15 17 16 12 17 15 18 20 19 18 21 13 23 14 24 16 26
REMARK SMILES IDX 5 28 22 30 23 31 24 32 25 33 26 34 27 35 31 36 28 37 30 38
REMARK SMILES IDX 29 39
REMARK H PARENT 20 20 18 22 14 25 16 27 5 29
REMARK Flexibility Score: inf
ROOT
ATOM      1  C   UNL     1     134.348 127.875 113.500  1.00  0.00     0.060 C 
ATOM      2  C   UNL     1     134.398 127.233 112.101  1.00  0.00     0.142 C 
ATOM      3  C   UNL     1     135.674 127.800 111.366  1.00  0.00     0.083 C 
ATOM      4  C   UNL     1     135.712 127.401 109.853  1.00  0.00     0.123 C 
ATOM      5  C   UNL     1     134.272 127.159 109.326  1.00  0.00     0.045 C 
ATOM      6  C   UNL     1     133.361 128.234 109.943  1.00  0.00     0.049 C 
ATOM      7  C   UNL     1     133.141 127.275 111.115  1.00  0.00     0.131 C 
ATOM      8  C   UNL     1     133.535 126.086 110.184  1.00  0.00     0.140 C 
ATOM      9  C   UNL     1     134.348 125.051 110.962  1.00  0.00     0.319 C 
ATOM     10  O   UNL     1     134.693 124.989 112.183  1.00  0.00    -0.251 OA
ATOM     11  O   UNL     1     134.627 125.724 112.198  1.00  0.00    -0.456 OA
ENDROOT
BRANCH   7  12
ATOM     12  O   UNL     1     131.758 127.181 111.465  1.00  0.00    -0.338 OA
BRANCH  12  13
ATOM     13  C   UNL     1     131.093 128.360 111.839  1.00  0.00     0.282 C 
ATOM     14  C   UNL     1     129.686 128.368 111.167  1.00  0.00     0.202 C 
ATOM     15  O   UNL     1     131.022 128.407 113.261  1.00  0.00    -0.341 OA
ATOM     16  C   UNL     1     128.612 127.836 112.132  1.00  0.00     0.179 C 
ATOM     17  C   UNL     1     130.006 129.286 113.700  1.00  0.00     0.178 C 
ATOM     18  C   UNL     1     128.625 128.625 113.473  1.00  0.00     0.177 C 
BRANCH  14  19
ATOM     19  O   UNL     1     129.679 127.618 109.980  1.00  0.00    -0.385 OA
ATOM     20  H   UNL     1     129.272 126.743 110.205  1.00  0.00     0.211 HD
ENDBRANCH  14  19
BRANCH  16  21
ATOM     21  O   UNL     1     128.852 126.474 112.375  1.00  0.00    -0.387 OA
ATOM     22  H   UNL     1     129.723 126.260 111.953  1.00  0.00     0.211 HD
ENDBRANCH  16  21
BRANCH  17  23
ATOM     23  C   UNL     1     130.236 129.639 115.177  1.00  0.00     0.191 C 
BRANCH  23  24
ATOM     24  O   UNL     1     129.288 129.000 115.993  1.00  0.00    -0.394 OA
ATOM     25  H   UNL     1     128.400 129.338 115.694  1.00  0.00     0.210 HD
ENDBRANCH  23  24
ENDBRANCH  17  23
BRANCH  18  26
ATOM     26  O   UNL     1     127.635 129.625 113.460  1.00  0.00    -0.387 OA
ATOM     27  H   UNL     1     127.285 129.688 114.388  1.00  0.00     0.211 HD
ENDBRANCH  18  26
ENDBRANCH  12  13
ENDBRANCH   7  12
BRANCH   4  28
ATOM     28  O   UNL     1     136.328 128.428 109.118  1.00  0.00    -0.393 OA
ATOM     29  H   UNL     1     136.769 129.024 109.782  1.00  0.00     0.210 HD
ENDBRANCH   4  28
BRANCH   8  30
ATOM     30  C   UNL     1     132.360 125.408 109.417  1.00  0.00     0.255 C 
BRANCH  30  31
ATOM     31  O   UNL     1     132.010 124.134 109.967  1.00  0.00    -0.461 OA
BRANCH  31  32
ATOM     32  C   UNL     1     130.738 123.777 110.424  1.00  0.00     0.338 C 
ATOM     33  O   UNL     1     129.800 124.618 110.428  1.00  0.00    -0.246 OA
BRANCH  32  34
ATOM     34  C   UNL     1     130.496 122.408 110.930  1.00  0.00     0.060 A 
ATOM     35  C   UNL     1     129.482 122.159 111.873  1.00  0.00     0.015 A 
ATOM     36  C   UNL     1     131.305 121.341 110.500  1.00  0.00     0.015 A 
ATOM     37  C   UNL     1     129.290 120.868 112.375  1.00  0.00     0.001 A 
ATOM     38  C   UNL     1     131.111 120.055 111.009  1.00  0.00     0.001 A 
ATOM     39  C   UNL     1     130.107 119.817 111.947  1.00  0.00     0.000 A 
ENDBRANCH  32  34
ENDBRANCH  31  32
ENDBRANCH  30  31
ENDBRANCH   8  30
TORSDOF 12
ENDMDL
MODEL 7
REMARK VINA RESULT:    -6.221      3.599      7.448
REMARK INTER + INTRA:         -10.776
REMARK INTER:                  -9.596
REMARK INTRA:                  -1.180
REMARK UNBOUND:                -1.100
REMARK SMILES C[C@]12C[C@H](O)[C@@H]3C[C@@]1(O[C@@H]1O[C@H](CO)[C@@H](O)[C@H](O)[C@@H]1O)[C@]3(COC(=O)c1ccccc1)C(=O)O2
REMARK SMILES IDX 1 1 2 2 3 3 4 4 6 5 7 6 8 7 21 8 32 9 33 10 34 11 9 12 10 13
REMARK SMILES IDX 19 14 11 15 17 16 12 17 15 18 20 19 18 21 13 23 14 24 16 26
REMARK SMILES IDX 5 28 22 30 23 31 24 32 25 33 26 34 27 35 31 36 28 37 30 38
REMARK SMILES IDX 29 39
REMARK H PARENT 20 20 18 22 14 25 16 27 5 29
REMARK Flexibility Score: inf
ROOT
ATOM      1  C   UNL     1     134.252 124.398 109.238  1.00  0.00     0.060 C 
ATOM      2  C   UNL     1     133.755 125.487 110.209  1.00  0.00     0.142 C 
ATOM      3  C   UNL     1     134.968 125.880 111.139  1.00  0.00     0.083 C 
ATOM      4  C   UNL     1     134.532 126.811 112.319  1.00  0.00     0.123 C 
ATOM      5  C   UNL     1     133.036 126.577 112.662  1.00  0.00     0.045 C 
ATOM      6  C   UNL     1     132.766 125.065 112.570  1.00  0.00     0.049 C 
ATOM      7  C   UNL     1     132.439 125.283 111.091  1.00  0.00     0.131 C 
ATOM      8  C   UNL     1     132.135 126.781 111.405  1.00  0.00     0.140 C 
ATOM      9  C   UNL     1     132.623 127.672 110.262  1.00  0.00     0.319 C 
ATOM     10  O   UNL     1     133.163 127.396 109.146  1.00  0.00    -0.251 OA
ATOM     11  O   UNL     1     133.393 126.768 109.457  1.00  0.00    -0.456 OA
ENDROOT
BRANCH   7  12
ATOM     12  O   UNL     1     131.234 124.612 110.715  1.00  0.00    -0.338 OA
BRANCH  12  13
ATOM     13  C   UNL     1     131.271 123.213 110.598  1.00  0.00     0.282 C 
ATOM     14  C   UNL     1     130.046 122.621 111.360  1.00  0.00     0.202 C 
ATOM     15  O   UNL     1     131.272 122.875 109.214  1.00  0.00    -0.341 OA
ATOM     16  C   UNL     1     128.877 122.351 110.396  1.00  0.00     0.179 C 
ATOM     17  C   UNL     1     130.856 121.540 109.006  1.00  0.00     0.178 C 
ATOM     18  C   UNL     1     129.325 121.444 109.214  1.00  0.00     0.177 C 
BRANCH  14  19
ATOM     19  O   UNL     1     129.627 123.470 112.397  1.00  0.00    -0.385 OA
ATOM     20  H   UNL     1     129.693 122.942 113.233  1.00  0.00     0.211 HD
ENDBRANCH  14  19
BRANCH  16  21
ATOM     21  O   UNL     1     128.398 123.576 109.906  1.00  0.00    -0.387 OA
ATOM     22  H   UNL     1     129.010 123.848 109.175  1.00  0.00     0.211 HD
ENDBRANCH  16  21
BRANCH  17  23
ATOM     23  C   UNL     1     131.273 121.085 107.601  1.00  0.00     0.191 C 
BRANCH  23  24
ATOM     24  O   UNL     1     131.456 119.692 107.563  1.00  0.00    -0.394 OA
ATOM     25  H   UNL     1     131.724 119.429 108.485  1.00  0.00     0.210 HD
ENDBRANCH  23  24
ENDBRANCH  17  23
BRANCH  18  26
ATOM     26  O   UNL     1     128.981 120.103 109.470  1.00  0.00    -0.387 OA
ATOM     27  H   UNL     1     127.988 120.064 109.483  1.00  0.00     0.211 HD
ENDBRANCH  18  26
ENDBRANCH  12  13
ENDBRANCH   7  12
BRANCH   4  28
ATOM     28  O   UNL     1     135.331 126.541 113.442  1.00  0.00    -0.393 OA
ATOM     29  H   UNL     1     135.179 125.585 113.673  1.00  0.00     0.210 HD
ENDBRANCH   4  28
BRANCH   8  30
ATOM     30  C   UNL     1     130.657 127.110 111.774  1.00  0.00     0.255 C 
BRANCH  30  31
ATOM     31  O   UNL     1     130.430 128.514 111.928  1.00  0.00    -0.461 OA
BRANCH  31  32
ATOM     32  C   UNL     1     129.339 129.085 112.591  1.00  0.00     0.338 C 
ATOM     33  O   UNL     1     128.352 129.521 111.941  1.00  0.00    -0.246 OA
BRANCH  32  34
ATOM     34  C   UNL     1     129.354 129.200 114.065  1.00  0.00     0.060 A 
ATOM     35  C   UNL     1     130.552 129.461 114.755  1.00  0.00     0.015 A 
ATOM     36  C   UNL     1     128.171 129.013 114.803  1.00  0.00     0.015 A 
ATOM     37  C   UNL     1     130.561 129.527 116.152  1.00  0.00     0.001 A 
ATOM     38  C   UNL     1     128.187 129.074 116.198  1.00  0.00     0.001 A 
ATOM     39  C   UNL     1     129.380 129.329 116.874  1.00  0.00     0.000 A 
ENDBRANCH  32  34
ENDBRANCH  31  32
ENDBRANCH  30  31
ENDBRANCH   8  30
TORSDOF 12
ENDMDL
MODEL 8
REMARK VINA RESULT:    -6.183      3.792      8.094
REMARK INTER + INTRA:         -10.717
REMARK INTER:                  -8.965
REMARK INTRA:                  -1.751
REMARK UNBOUND:                -1.100
REMARK SMILES C[C@]12C[C@H](O)[C@@H]3C[C@@]1(O[C@@H]1O[C@H](CO)[C@@H](O)[C@H](O)[C@@H]1O)[C@]3(COC(=O)c1ccccc1)C(=O)O2
REMARK SMILES IDX 1 1 2 2 3 3 4 4 6 5 7 6 8 7 21 8 32 9 33 10 34 11 9 12 10 13
REMARK SMILES IDX 19 14 11 15 17 16 12 17 15 18 20 19 18 21 13 23 14 24 16 26
REMARK SMILES IDX 5 28 22 30 23 31 24 32 25 33 26 34 27 35 31 36 28 37 30 38
REMARK SMILES IDX 29 39
REMARK H PARENT 20 20 18 22 14 25 16 27 5 29
REMARK Flexibility Score: inf
ROOT
ATOM      1  C   UNL     1     124.011 131.702 113.377  1.00  0.00     0.060 C 
ATOM      2  C   UNL     1     123.943 132.292 111.956  1.00  0.00     0.142 C 
ATOM      3  C   UNL     1     122.513 131.963 111.375  1.00  0.00     0.083 C 
ATOM      4  C   UNL     1     122.398 132.308 109.853  1.00  0.00     0.123 C 
ATOM      5  C   UNL     1     123.796 132.242 109.181  1.00  0.00     0.045 C 
ATOM      6  C   UNL     1     124.541 131.031 109.768  1.00  0.00     0.049 C 
ATOM      7  C   UNL     1     125.061 131.968 110.861  1.00  0.00     0.131 C 
ATOM      8  C   UNL     1     124.810 133.178 109.908  1.00  0.00     0.140 C 
ATOM      9  C   UNL     1     124.296 134.380 110.701  1.00  0.00     0.319 C 
ATOM     10  O   UNL     1     124.096 134.552 111.943  1.00  0.00    -0.251 OA
ATOM     11  O   UNL     1     124.020 133.819 111.992  1.00  0.00    -0.456 OA
ENDROOT
BRANCH   7  12
ATOM     12  O   UNL     1     126.464 131.800 111.074  1.00  0.00    -0.338 OA
BRANCH  12  13
ATOM     13  C   UNL     1     126.925 130.524 111.437  1.00  0.00     0.282 C 
ATOM     14  C   UNL     1     128.233 130.226 110.642  1.00  0.00     0.202 C 
ATOM     15  O   UNL     1     127.124 130.500 112.848  1.00  0.00    -0.341 OA
ATOM     16  C   UNL     1     129.477 130.564 111.482  1.00  0.00     0.179 C 
ATOM     17  C   UNL     1     127.991 129.452 113.232  1.00  0.00     0.178 C 
ATOM     18  C   UNL     1     129.444 129.826 112.851  1.00  0.00     0.177 C 
BRANCH  14  19
ATOM     19  O   UNL     1     128.267 130.930 109.427  1.00  0.00    -0.385 OA
ATOM     20  H   UNL     1     127.324 131.057 109.152  1.00  0.00     0.211 HD
ENDBRANCH  14  19
BRANCH  16  21
ATOM     21  O   UNL     1     129.526 131.952 111.686  1.00  0.00    -0.387 OA
ATOM     22  H   UNL     1     130.473 132.179 111.869  1.00  0.00     0.211 HD
ENDBRANCH  16  21
BRANCH  17  23
ATOM     23  C   UNL     1     127.842 129.188 114.737  1.00  0.00     0.191 C 
BRANCH  23  24
ATOM     24  O   UNL     1     126.746 129.896 115.259  1.00  0.00    -0.394 OA
ATOM     25  H   UNL     1     126.875 130.842 114.977  1.00  0.00     0.210 HD
ENDBRANCH  23  24
ENDBRANCH  17  23
BRANCH  18  26
ATOM     26  O   UNL     1     130.219 128.653 112.793  1.00  0.00    -0.387 OA
ATOM     27  H   UNL     1     129.923 128.081 113.550  1.00  0.00     0.211 HD
ENDBRANCH  18  26
ENDBRANCH  12  13
ENDBRANCH   7  12
BRANCH   4  28
ATOM     28  O   UNL     1     121.524 131.398 109.236  1.00  0.00    -0.393 OA
ATOM     29  H   UNL     1     120.603 131.744 109.389  1.00  0.00     0.210 HD
ENDBRANCH   4  28
BRANCH   8  30
ATOM     30  C   UNL     1     126.010 133.583 108.998  1.00  0.00     0.255 C 
BRANCH  30  31
ATOM     31  O   UNL     1     126.599 134.826 109.391  1.00  0.00    -0.461 OA
BRANCH  31  32
ATOM     32  C   UNL     1     127.807 134.961 110.082  1.00  0.00     0.338 C 
ATOM     33  O   UNL     1     128.662 134.037 110.062  1.00  0.00    -0.246 OA
BRANCH  32  34
ATOM     34  C   UNL     1     128.075 136.189 110.863  1.00  0.00     0.060 A 
ATOM     35  C   UNL     1     129.100 136.220 111.825  1.00  0.00     0.015 A 
ATOM     36  C   UNL     1     127.279 137.334 110.678  1.00  0.00     0.015 A 
ATOM     37  C   UNL     1     129.317 137.373 112.586  1.00  0.00     0.001 A 
ATOM     38  C   UNL     1     127.496 138.481 111.445  1.00  0.00     0.001 A 
ATOM     39  C   UNL     1     128.513 138.502 112.400  1.00  0.00     0.000 A 
ENDBRANCH  32  34
ENDBRANCH  31  32
ENDBRANCH  30  31
ENDBRANCH   8  30
TORSDOF 12
ENDMDL
MODEL 9
REMARK VINA RESULT:    -6.172      5.297      8.245
REMARK INTER + INTRA:         -10.700
REMARK INTER:                  -8.536
REMARK INTRA:                  -2.164
REMARK UNBOUND:                -1.100
REMARK SMILES C[C@]12C[C@H](O)[C@@H]3C[C@@]1(O[C@@H]1O[C@H](CO)[C@@H](O)[C@H](O)[C@@H]1O)[C@]3(COC(=O)c1ccccc1)C(=O)O2
REMARK SMILES IDX 1 1 2 2 3 3 4 4 6 5 7 6 8 7 21 8 32 9 33 10 34 11 9 12 10 13
REMARK SMILES IDX 19 14 11 15 17 16 12 17 15 18 20 19 18 21 13 23 14 24 16 26
REMARK SMILES IDX 5 28 22 30 23 31 24 32 25 33 26 34 27 35 31 36 28 37 30 38
REMARK SMILES IDX 29 39
REMARK H PARENT 20 20 18 22 14 25 16 27 5 29
REMARK Flexibility Score: inf
ROOT
ATOM      1  C   UNL     1     128.662 134.140 107.478  1.00  0.00     0.060 C 
ATOM      2  C   UNL     1     128.195 134.673 108.846  1.00  0.00     0.142 C 
ATOM      3  C   UNL     1     129.125 135.892 109.221  1.00  0.00     0.083 C 
ATOM      4  C   UNL     1     128.901 136.376 110.692  1.00  0.00     0.123 C 
ATOM      5  C   UNL     1     128.373 135.207 111.567  1.00  0.00     0.045 C 
ATOM      6  C   UNL     1     129.128 133.933 111.151  1.00  0.00     0.049 C 
ATOM      7  C   UNL     1     128.032 133.706 110.108  1.00  0.00     0.131 C 
ATOM      8  C   UNL     1     127.073 134.597 110.959  1.00  0.00     0.140 C 
ATOM      9  C   UNL     1     126.192 135.450 110.046  1.00  0.00     0.319 C 
ATOM     10  O   UNL     1     126.093 135.511 108.782  1.00  0.00    -0.251 OA
ATOM     11  O   UNL     1     126.785 135.256 108.755  1.00  0.00    -0.456 OA
ENDROOT
BRANCH   7  12
ATOM     12  O   UNL     1     127.571 132.353 110.114  1.00  0.00    -0.338 OA
BRANCH  12  13
ATOM     13  C   UNL     1     127.069 131.826 108.913  1.00  0.00     0.282 C 
ATOM     14  C   UNL     1     127.371 130.296 108.881  1.00  0.00     0.202 C 
ATOM     15  O   UNL     1     125.674 132.111 108.844  1.00  0.00    -0.341 OA
ATOM     16  C   UNL     1     126.158 129.485 109.372  1.00  0.00     0.179 C 
ATOM     17  C   UNL     1     125.015 131.254 107.934  1.00  0.00     0.178 C 
ATOM     18  C   UNL     1     124.879 129.847 108.564  1.00  0.00     0.177 C 
BRANCH  14  19
ATOM     19  O   UNL     1     128.503 129.980 109.648  1.00  0.00    -0.385 OA
ATOM     20  H   UNL     1     128.175 129.778 110.561  1.00  0.00     0.211 HD
ENDBRANCH  14  19
BRANCH  16  21
ATOM     21  O   UNL     1     125.955 129.751 110.736  1.00  0.00    -0.387 OA
ATOM     22  H   UNL     1     125.217 130.410 110.790  1.00  0.00     0.211 HD
ENDBRANCH  16  21
BRANCH  17  23
ATOM     23  C   UNL     1     123.649 131.851 107.565  1.00  0.00     0.191 C 
BRANCH  23  24
ATOM     24  O   UNL     1     122.617 130.937 107.841  1.00  0.00    -0.394 OA
ATOM     25  H   UNL     1     122.924 130.411 108.629  1.00  0.00     0.210 HD
ENDBRANCH  23  24
ENDBRANCH  17  23
BRANCH  18  26
ATOM     26  O   UNL     1     124.666 128.905 107.540  1.00  0.00    -0.387 OA
ATOM     27  H   UNL     1     124.434 129.422 106.724  1.00  0.00     0.211 HD
ENDBRANCH  18  26
ENDBRANCH  12  13
ENDBRANCH   7  12
BRANCH   4  28
ATOM     28  O   UNL     1     130.115 136.856 111.212  1.00  0.00    -0.393 OA
ATOM     29  H   UNL     1     129.968 136.998 112.186  1.00  0.00     0.210 HD
ENDBRANCH   4  28
BRANCH   8  30
ATOM     30  C   UNL     1     126.212 133.844 112.018  1.00  0.00     0.255 C 
BRANCH  30  31
ATOM     31  O   UNL     1     124.855 133.671 111.599  1.00  0.00    -0.461 OA
BRANCH  31  32
ATOM     32  C   UNL     1     124.039 132.588 111.938  1.00  0.00     0.338 C 
ATOM     33  O   UNL     1     124.540 131.536 112.417  1.00  0.00    -0.246 OA
BRANCH  32  34
ATOM     34  C   UNL     1     122.580 132.667 111.710  1.00  0.00     0.060 A 
ATOM     35  C   UNL     1     121.680 132.040 112.591  1.00  0.00     0.015 A 
ATOM     36  C   UNL     1     122.074 133.340 110.584  1.00  0.00     0.015 A 
ATOM     37  C   UNL     1     120.304 132.086 112.343  1.00  0.00     0.001 A 
ATOM     38  C   UNL     1     120.700 133.379 110.339  1.00  0.00     0.001 A 
ATOM     39  C   UNL     1     119.814 132.751 111.215  1.00  0.00     0.000 A 
ENDBRANCH  32  34
ENDBRANCH  31  32
ENDBRANCH  30  31
ENDBRANCH   8  30
TORSDOF 12
ENDMDL
