MODEL 1
REMARK VINA RESULT:    -4.537      0.000      0.000
REMARK INTER + INTRA:          -4.963
REMARK INTER:                  -4.935
REMARK INTRA:                  -0.028
REMARK UNBOUND:                -0.028
REMARK SMILES O=C([O-])c1ccc(O)cc1
REMARK SMILES IDX 7 1 6 2 9 3 5 4 10 5 4 6 8 7 2 9 1 10 3 11
REMARK H PARENT 8 8
REMARK Flexibility Score: inf
ROOT
ATOM      1  C   UNL     1       9.501  -3.652  29.874  1.00  0.00     0.115 A 
ATOM      2  C   UNL     1       8.824  -3.482  28.664  1.00  0.00     0.047 A 
ATOM      3  C   UNL     1      10.634  -4.475  29.926  1.00  0.00     0.047 A 
ATOM      4  C   UNL     1       9.272  -4.129  27.508  1.00  0.00     0.014 A 
ATOM      5  C   UNL     1      11.085  -5.123  28.772  1.00  0.00     0.014 A 
ATOM      6  C   UNL     1      10.408  -4.956  27.550  1.00  0.00    -0.003 A 
ENDROOT
BRANCH   1   7
ATOM      7  O   UNL     1       9.043  -3.001  31.017  1.00  0.00    -0.508 OA
ATOM      8  H   UNL     1       8.301  -3.390  31.587  1.00  0.00     0.293 HD
ENDBRANCH   1   7
BRANCH   6   9
ATOM      9  C   UNL     1      10.881  -5.640  26.326  1.00  0.00     0.071 C 
ATOM     10  O   UNL     1      11.980  -5.324  25.799  1.00  0.00    -0.545 OA
ATOM     11  O   UNL     1      10.116  -6.643  25.739  1.00  0.00    -0.545 OA
ENDBRANCH   6   9
TORSDOF 2
ENDMDL
MODEL 2
REMARK VINA RESULT:    -4.487      1.690      3.891
REMARK INTER + INTRA:          -4.908
REMARK INTER:                  -4.881
REMARK INTRA:                  -0.027
REMARK UNBOUND:                -0.028
REMARK SMILES O=C([O-])c1ccc(O)cc1
REMARK SMILES IDX 7 1 6 2 9 3 5 4 10 5 4 6 8 7 2 9 1 10 3 11
REMARK H PARENT 8 8
REMARK Flexibility Score: inf
ROOT
ATOM      1  C   UNL     1       9.426  -4.468  27.121  1.00  0.00     0.115 A 
ATOM      2  C   UNL     1       8.862  -3.711  28.151  1.00  0.00     0.047 A 
ATOM      3  C   UNL     1      10.552  -5.261  27.379  1.00  0.00     0.047 A 
ATOM      4  C   UNL     1       9.416  -3.743  29.435  1.00  0.00     0.014 A 
ATOM      5  C   UNL     1      11.109  -5.295  28.661  1.00  0.00     0.014 A 
ATOM      6  C   UNL     1      10.546  -4.536  29.703  1.00  0.00    -0.003 A 
ENDROOT
BRANCH   1   7
ATOM      7  O   UNL     1       8.862  -4.427  25.847  1.00  0.00    -0.508 OA
ATOM      8  H   UNL     1       9.254  -4.955  25.077  1.00  0.00     0.293 HD
ENDBRANCH   1   7
BRANCH   6   9
ATOM      9  C   UNL     1      11.131  -4.568  31.061  1.00  0.00     0.071 C 
ATOM     10  O   UNL     1      12.178  -3.918  31.324  1.00  0.00    -0.545 OA
ATOM     11  O   UNL     1      10.533  -5.318  32.068  1.00  0.00    -0.545 OA
ENDBRANCH   6   9
TORSDOF 2
ENDMDL
MODEL 3
REMARK VINA RESULT:    -4.363      2.832      4.194
REMARK INTER + INTRA:          -4.774
REMARK INTER:                  -4.744
REMARK INTRA:                  -0.030
REMARK UNBOUND:                -0.028
REMARK SMILES O=C([O-])c1ccc(O)cc1
REMARK SMILES IDX 7 1 6 2 9 3 5 4 10 5 4 6 8 7 2 9 1 10 3 11
REMARK H PARENT 8 8
REMARK Flexibility Score: inf
ROOT
ATOM      1  C   UNL     1      12.256  -3.087  28.261  1.00  0.00     0.115 A 
ATOM      2  C   UNL     1      11.519  -4.228  27.932  1.00  0.00     0.047 A 
ATOM      3  C   UNL     1      12.674  -2.888  29.583  1.00  0.00     0.047 A 
ATOM      4  C   UNL     1      11.199  -5.168  28.916  1.00  0.00     0.014 A 
ATOM      5  C   UNL     1      12.357  -3.827  30.570  1.00  0.00     0.014 A 
ATOM      6  C   UNL     1      11.615  -4.978  30.245  1.00  0.00    -0.003 A 
ENDROOT
BRANCH   1   7
ATOM      7  O   UNL     1      12.567  -2.158  27.270  1.00  0.00    -0.508 OA
ATOM      8  H   UNL     1      12.971  -2.443  26.386  1.00  0.00     0.293 HD
ENDBRANCH   1   7
BRANCH   6   9
ATOM      9  C   UNL     1      11.276  -5.974  31.285  1.00  0.00     0.071 C 
ATOM     10  O   UNL     1      10.674  -5.626  32.335  1.00  0.00    -0.545 OA
ATOM     11  O   UNL     1      11.618  -7.312  31.117  1.00  0.00    -0.545 OA
ENDBRANCH   6   9
TORSDOF 2
ENDMDL
MODEL 4
REMARK VINA RESULT:    -4.350      2.841      4.314
REMARK INTER + INTRA:          -4.759
REMARK INTER:                  -4.729
REMARK INTRA:                  -0.030
REMARK UNBOUND:                -0.028
REMARK SMILES O=C([O-])c1ccc(O)cc1
REMARK SMILES IDX 7 1 6 2 9 3 5 4 10 5 4 6 8 7 2 9 1 10 3 11
REMARK H PARENT 8 8
REMARK Flexibility Score: inf
ROOT
ATOM      1  C   UNL     1      12.253  -3.088  28.231  1.00  0.00     0.115 A 
ATOM      2  C   UNL     1      12.689  -2.902  29.546  1.00  0.00     0.047 A 
ATOM      3  C   UNL     1      11.507  -4.227  27.902  1.00  0.00     0.047 A 
ATOM      4  C   UNL     1      12.384  -3.847  30.531  1.00  0.00     0.014 A 
ATOM      5  C   UNL     1      11.199  -5.173  28.884  1.00  0.00     0.014 A 
ATOM      6  C   UNL     1      11.635  -4.993  30.210  1.00  0.00    -0.003 A 
ENDROOT
BRANCH   1   7
ATOM      7  O   UNL     1      12.565  -2.137  27.261  1.00  0.00    -0.508 OA
ATOM      8  H   UNL     1      13.461  -2.139  26.787  1.00  0.00     0.293 HD
ENDBRANCH   1   7
BRANCH   6   9
ATOM      9  C   UNL     1      11.312  -5.992  31.252  1.00  0.00     0.071 C 
ATOM     10  O   UNL     1      10.772  -5.638  32.334  1.00  0.00    -0.545 OA
ATOM     11  O   UNL     1      11.602  -7.337  31.052  1.00  0.00    -0.545 OA
ENDBRANCH   6   9
TORSDOF 2
ENDMDL
MODEL 5
REMARK VINA RESULT:    -4.210      2.488      3.556
REMARK INTER + INTRA:          -4.607
REMARK INTER:                  -4.577
REMARK INTRA:                  -0.030
REMARK UNBOUND:                -0.028
REMARK SMILES O=C([O-])c1ccc(O)cc1
REMARK SMILES IDX 7 1 6 2 9 3 5 4 10 5 4 6 8 7 2 9 1 10 3 11
REMARK H PARENT 8 8
REMARK Flexibility Score: inf
ROOT
ATOM      1  C   UNL     1      12.479  -4.448  32.031  1.00  0.00     0.115 A 
ATOM      2  C   UNL     1      11.114  -4.679  32.219  1.00  0.00     0.047 A 
ATOM      3  C   UNL     1      12.959  -4.129  30.754  1.00  0.00     0.047 A 
ATOM      4  C   UNL     1      10.228  -4.594  31.140  1.00  0.00     0.014 A 
ATOM      5  C   UNL     1      12.077  -4.042  29.672  1.00  0.00     0.014 A 
ATOM      6  C   UNL     1      10.700  -4.274  29.855  1.00  0.00    -0.003 A 
ENDROOT
BRANCH   1   7
ATOM      7  O   UNL     1      13.349  -4.536  33.115  1.00  0.00    -0.508 OA
ATOM      8  H   UNL     1      13.243  -3.942  33.929  1.00  0.00     0.293 HD
ENDBRANCH   1   7
BRANCH   6   9
ATOM      9  C   UNL     1       9.763  -4.184  28.714  1.00  0.00     0.071 C 
ATOM     10  O   UNL     1       8.729  -3.468  28.789  1.00  0.00    -0.545 OA
ATOM     11  O   UNL     1      10.010  -4.890  27.542  1.00  0.00    -0.545 OA
ENDBRANCH   6   9
TORSDOF 2
ENDMDL
MODEL 6
REMARK VINA RESULT:    -4.189      2.429      3.151
REMARK INTER + INTRA:          -4.584
REMARK INTER:                  -4.557
REMARK INTRA:                  -0.027
REMARK UNBOUND:                -0.028
REMARK SMILES O=C([O-])c1ccc(O)cc1
REMARK SMILES IDX 7 1 6 2 9 3 5 4 10 5 4 6 8 7 2 9 1 10 3 11
REMARK H PARENT 8 8
REMARK Flexibility Score: inf
ROOT
ATOM      1  C   UNL     1      12.750  -4.614  31.522  1.00  0.00     0.115 A 
ATOM      2  C   UNL     1      11.928  -5.717  31.279  1.00  0.00     0.047 A 
ATOM      3  C   UNL     1      12.895  -3.626  30.539  1.00  0.00     0.047 A 
ATOM      4  C   UNL     1      11.251  -5.838  30.061  1.00  0.00     0.014 A 
ATOM      5  C   UNL     1      12.220  -3.743  29.320  1.00  0.00     0.014 A 
ATOM      6  C   UNL     1      11.390  -4.852  29.069  1.00  0.00    -0.003 A 
ENDROOT
BRANCH   1   7
ATOM      7  O   UNL     1      13.417  -4.508  32.741  1.00  0.00    -0.508 OA
ATOM      8  H   UNL     1      13.726  -5.328  33.248  1.00  0.00     0.293 HD
ENDBRANCH   1   7
BRANCH   6   9
ATOM      9  C   UNL     1      10.674  -4.980  27.780  1.00  0.00     0.071 C 
ATOM     10  O   UNL     1      11.232  -5.519  26.788  1.00  0.00    -0.545 OA
ATOM     11  O   UNL     1       9.373  -4.507  27.648  1.00  0.00    -0.545 OA
ENDBRANCH   6   9
TORSDOF 2
ENDMDL
MODEL 7
REMARK VINA RESULT:    -4.159      1.181      4.434
REMARK INTER + INTRA:          -4.552
REMARK INTER:                  -4.516
REMARK INTRA:                  -0.036
REMARK UNBOUND:                -0.028
REMARK SMILES O=C([O-])c1ccc(O)cc1
REMARK SMILES IDX 7 1 6 2 9 3 5 4 10 5 4 6 8 7 2 9 1 10 3 11
REMARK H PARENT 8 8
REMARK Flexibility Score: inf
ROOT
ATOM      1  C   UNL     1      10.741  -5.668  27.034  1.00  0.00     0.115 A 
ATOM      2  C   UNL     1      11.178  -5.437  28.341  1.00  0.00     0.047 A 
ATOM      3  C   UNL     1       9.694  -4.900  26.507  1.00  0.00     0.047 A 
ATOM      4  C   UNL     1      10.575  -4.446  29.122  1.00  0.00     0.014 A 
ATOM      5  C   UNL     1       9.089  -3.908  27.284  1.00  0.00     0.014 A 
ATOM      6  C   UNL     1       9.525  -3.670  28.601  1.00  0.00    -0.003 A 
ENDROOT
BRANCH   1   7
ATOM      7  O   UNL     1      11.351  -6.659  26.269  1.00  0.00    -0.508 OA
ATOM      8  H   UNL     1      11.115  -7.638  26.384  1.00  0.00     0.293 HD
ENDBRANCH   1   7
BRANCH   6   9
ATOM      9  C   UNL     1       8.888  -2.621  29.428  1.00  0.00     0.071 C 
ATOM     10  O   UNL     1       7.993  -1.878  28.944  1.00  0.00    -0.545 OA
ATOM     11  O   UNL     1       9.270  -2.441  30.753  1.00  0.00    -0.545 OA
ENDBRANCH   6   9
TORSDOF 2
ENDMDL
MODEL 8
REMARK VINA RESULT:    -4.089      1.361      2.187
REMARK INTER + INTRA:          -4.475
REMARK INTER:                  -4.448
REMARK INTRA:                  -0.028
REMARK UNBOUND:                -0.028
REMARK SMILES O=C([O-])c1ccc(O)cc1
REMARK SMILES IDX 7 1 6 2 9 3 5 4 10 5 4 6 8 7 2 9 1 10 3 11
REMARK H PARENT 8 8
REMARK Flexibility Score: inf
ROOT
ATOM      1  C   UNL     1      10.330  -4.191  29.914  1.00  0.00     0.115 A 
ATOM      2  C   UNL     1      11.163  -5.019  29.156  1.00  0.00     0.047 A 
ATOM      3  C   UNL     1       9.208  -3.601  29.316  1.00  0.00     0.047 A 
ATOM      4  C   UNL     1      10.882  -5.258  27.807  1.00  0.00     0.014 A 
ATOM      5  C   UNL     1       8.924  -3.839  27.968  1.00  0.00     0.014 A 
ATOM      6  C   UNL     1       9.758  -4.671  27.199  1.00  0.00    -0.003 A 
ENDROOT
BRANCH   1   7
ATOM      7  O   UNL     1      10.623  -3.962  31.256  1.00  0.00    -0.508 OA
ATOM      8  H   UNL     1      11.016  -3.082  31.569  1.00  0.00     0.293 HD
ENDBRANCH   1   7
BRANCH   6   9
ATOM      9  C   UNL     1       9.462  -4.925  25.772  1.00  0.00     0.071 C 
ATOM     10  O   UNL     1       9.056  -6.056  25.393  1.00  0.00    -0.545 OA
ATOM     11  O   UNL     1       9.627  -3.917  24.828  1.00  0.00    -0.545 OA
ENDBRANCH   6   9
TORSDOF 2
ENDMDL
MODEL 9
REMARK VINA RESULT:    -4.066      7.621      8.290
REMARK INTER + INTRA:          -4.450
REMARK INTER:                  -4.415
REMARK INTRA:                  -0.035
REMARK UNBOUND:                -0.028
REMARK SMILES O=C([O-])c1ccc(O)cc1
REMARK SMILES IDX 7 1 6 2 9 3 5 4 10 5 4 6 8 7 2 9 1 10 3 11
REMARK H PARENT 8 8
REMARK Flexibility Score: inf
ROOT
ATOM      1  C   UNL     1       6.502   2.024  26.950  1.00  0.00     0.115 A 
ATOM      2  C   UNL     1       6.077   1.854  28.271  1.00  0.00     0.047 A 
ATOM      3  C   UNL     1       7.828   2.395  26.690  1.00  0.00     0.047 A 
ATOM      4  C   UNL     1       6.969   2.054  29.330  1.00  0.00     0.014 A 
ATOM      5  C   UNL     1       8.722   2.595  27.746  1.00  0.00     0.014 A 
ATOM      6  C   UNL     1       8.301   2.426  29.079  1.00  0.00    -0.003 A 
ENDROOT
BRANCH   1   7
ATOM      7  O   UNL     1       5.602   1.821  25.906  1.00  0.00    -0.508 OA
ATOM      8  H   UNL     1       5.592   2.424  25.092  1.00  0.00     0.293 HD
ENDBRANCH   1   7
BRANCH   6   9
ATOM      9  C   UNL     1       9.243   2.636  30.200  1.00  0.00     0.071 C 
ATOM     10  O   UNL     1       8.993   2.172  31.343  1.00  0.00    -0.545 OA
ATOM     11  O   UNL     1      10.420   3.352  30.005  1.00  0.00    -0.545 OA
ENDBRANCH   6   9
TORSDOF 2
ENDMDL
