MODEL 1
REMARK VINA RESULT:    -2.957      0.000      0.000
REMARK INTER + INTRA:          -4.849
REMARK INTER:                  -4.513
REMARK INTRA:                  -0.336
REMARK UNBOUND:                -0.336
REMARK SMILES CC1=CCC[C@H](C)C(=O)C[C@@H](C(C)C)C(=O)C1
REMARK SMILES IDX 8 1 9 2 6 3 7 4 5 5 4 6 3 7 2 8 1 9 10 11 11 12 15 13 16 14
REMARK SMILES IDX 17 15 12 17 13 18 14 19
REMARK H PARENT
REMARK Flexibility Score: 70.00
ROOT
ATOM      1  C   UNL     1     -29.944 -17.231  24.640  1.00  0.00     0.136 C 
ATOM      2  O   UNL     1     -29.348 -18.159  25.170  1.00  0.00    -0.299 OA
ENDROOT
BRANCH   1   3
ATOM      3  C   UNL     1     -30.132 -17.205  23.129  1.00  0.00     0.053 C 
ATOM      4  C   UNL     1     -28.794 -17.132  22.375  1.00  0.00     0.016 C 
BRANCH   3   5
ATOM      5  C   UNL     1     -30.987 -18.391  22.628  1.00  0.00     0.015 C 
BRANCH   5   6
ATOM      6  C   UNL     1     -32.500 -18.162  22.798  1.00  0.00     0.028 C 
BRANCH   6   7
ATOM      7  C   UNL     1     -32.898 -16.724  22.586  1.00  0.00    -0.028 C 
ATOM      8  C   UNL     1     -33.581 -15.947  23.466  1.00  0.00    -0.070 CG0
ATOM      9  C   UNL     1     -33.965 -14.562  23.001  1.00  0.00     0.039 C 
ATOM     10  G   UNL     1     -33.928 -16.357  24.896  1.00  0.00     0.000 G0
ENDBRANCH   6   7
ENDBRANCH   5   6
ENDBRANCH   3   5
ENDBRANCH   1   3
BRANCH   1  11
ATOM     11  C   UNL     1     -30.451 -16.101  25.505  1.00  0.00     0.087 C 
BRANCH  11  12
ATOM     12  C   UNL     1     -31.677 -16.504  26.370  1.00  0.00     0.066 C 
BRANCH  12  13
ATOM     13  C   UNL     1     -32.976 -15.805  25.973  1.00  0.00     0.140 C 
ATOM     14  O   UNL     1     -33.208 -14.698  26.439  1.00  0.00    -0.299 OA
BRANCH  13  15
ATOM     15  C   UNL     1     -33.918 -16.356  24.928  1.00  0.00     0.106 CG0
ATOM     16  G   UNL     1     -33.585 -15.945  23.495  1.00  0.00     0.000 G0
ENDBRANCH  13  15
ENDBRANCH  12  13
BRANCH  12  17
ATOM     17  C   UNL     1     -31.369 -16.423  27.899  1.00  0.00    -0.006 C 
ATOM     18  C   UNL     1     -30.441 -15.244  28.231  1.00  0.00     0.008 C 
ATOM     19  C   UNL     1     -30.816 -17.722  28.512  1.00  0.00     0.008 C 
ENDBRANCH  12  17
ENDBRANCH  11  12
ENDBRANCH   1  11
TORSDOF 1
ENDMDL
MODEL 2
REMARK VINA RESULT:    -2.795      2.110      4.276
REMARK INTER + INTRA:          -4.601
REMARK INTER:                  -4.411
REMARK INTRA:                  -0.190
REMARK UNBOUND:                -0.336
REMARK SMILES CC1=CCC[C@H](C)C(=O)C[C@@H](C(C)C)C(=O)C1
REMARK SMILES IDX 8 1 9 2 6 3 7 4 5 5 4 6 3 7 2 8 1 9 10 11 11 12 15 13 16 14
REMARK SMILES IDX 17 15 12 17 13 18 14 19
REMARK H PARENT
REMARK Flexibility Score: 70.00
ROOT
ATOM      1  C   UNL     1     -32.682 -17.563  21.592  1.00  0.00     0.136 C 
ATOM      2  O   UNL     1     -32.860 -17.469  20.386  1.00  0.00    -0.299 OA
ENDROOT
BRANCH   1   3
ATOM      3  C   UNL     1     -31.628 -18.519  22.137  1.00  0.00     0.053 C 
ATOM      4  C   UNL     1     -31.810 -19.952  21.610  1.00  0.00     0.016 C 
BRANCH   3   5
ATOM      5  C   UNL     1     -30.192 -18.011  21.879  1.00  0.00     0.015 C 
BRANCH   5   6
ATOM      6  C   UNL     1     -29.623 -17.181  23.044  1.00  0.00     0.028 C 
BRANCH   6   7
ATOM      7  C   UNL     1     -29.870 -17.818  24.387  1.00  0.00    -0.028 C 
ATOM      8  C   UNL     1     -30.499 -17.239  25.442  1.00  0.00    -0.070 CG0
ATOM      9  C   UNL     1     -30.544 -18.026  26.730  1.00  0.00     0.039 C 
ATOM     10  G   UNL     1     -31.206 -15.885  25.392  1.00  0.00     0.000 G0
ENDBRANCH   6   7
ENDBRANCH   5   6
ENDBRANCH   3   5
ENDBRANCH   1   3
BRANCH   1  11
ATOM     11  C   UNL     1     -33.546 -16.748  22.525  1.00  0.00     0.087 C 
BRANCH  11  12
ATOM     12  C   UNL     1     -32.758 -15.626  23.255  1.00  0.00     0.066 C 
BRANCH  12  13
ATOM     13  C   UNL     1     -32.560 -15.875  24.749  1.00  0.00     0.140 C 
ATOM     14  O   UNL     1     -33.532 -16.194  25.419  1.00  0.00    -0.299 OA
BRANCH  13  15
ATOM     15  C   UNL     1     -31.200 -15.879  25.407  1.00  0.00     0.106 CG0
ATOM     16  G   UNL     1     -30.508 -17.241  25.423  1.00  0.00     0.000 G0
ENDBRANCH  13  15
ENDBRANCH  12  13
BRANCH  12  17
ATOM     17  C   UNL     1     -33.321 -14.206  22.930  1.00  0.00    -0.006 C 
ATOM     18  C   UNL     1     -32.623 -13.581  21.713  1.00  0.00     0.008 C 
ATOM     19  C   UNL     1     -33.305 -13.222  24.113  1.00  0.00     0.008 C 
ENDBRANCH  12  17
ENDBRANCH  11  12
ENDBRANCH   1  11
TORSDOF 1
ENDMDL
MODEL 3
REMARK VINA RESULT:    -2.792      3.684      4.551
REMARK INTER + INTRA:          -4.597
REMARK INTER:                  -4.366
REMARK INTRA:                  -0.230
REMARK UNBOUND:                -0.336
REMARK SMILES CC1=CCC[C@H](C)C(=O)C[C@@H](C(C)C)C(=O)C1
REMARK SMILES IDX 8 1 9 2 6 3 7 4 5 5 4 6 3 7 2 8 1 9 10 11 11 12 15 13 16 14
REMARK SMILES IDX 17 15 12 17 13 18 14 19
REMARK H PARENT
REMARK Flexibility Score: 70.00
ROOT
ATOM      1  C   UNL     1     -30.749 -18.657  21.775  1.00  0.00     0.136 C 
ATOM      2  O   UNL     1     -31.195 -18.642  22.914  1.00  0.00    -0.299 OA
ENDROOT
BRANCH   1   3
ATOM      3  C   UNL     1     -31.467 -19.438  20.682  1.00  0.00     0.053 C 
ATOM      4  C   UNL     1     -31.873 -20.848  21.142  1.00  0.00     0.016 C 
BRANCH   3   5
ATOM      5  C   UNL     1     -32.681 -18.668  20.116  1.00  0.00     0.015 C 
BRANCH   5   6
ATOM      6  C   UNL     1     -32.298 -17.328  19.462  1.00  0.00     0.028 C 
BRANCH   6   7
ATOM      7  C   UNL     1     -32.742 -16.138  20.273  1.00  0.00    -0.028 C 
ATOM      8  C   UNL     1     -31.929 -15.238  20.883  1.00  0.00    -0.070 CG0
ATOM      9  C   UNL     1     -32.591 -14.180  21.733  1.00  0.00     0.039 C 
ATOM     10  G   UNL     1     -30.410 -15.193  20.719  1.00  0.00     0.000 G0
ENDBRANCH   6   7
ENDBRANCH   5   6
ENDBRANCH   3   5
ENDBRANCH   1   3
BRANCH   1  11
ATOM     11  C   UNL     1     -29.461 -17.922  21.485  1.00  0.00     0.087 C 
BRANCH  11  12
ATOM     12  C   UNL     1     -29.183 -16.769  22.488  1.00  0.00     0.066 C 
BRANCH  12  13
ATOM     13  C   UNL     1     -29.615 -15.392  21.989  1.00  0.00     0.140 C 
ATOM     14  O   UNL     1     -29.215 -14.403  22.586  1.00  0.00    -0.299 OA
BRANCH  13  15
ATOM     15  C   UNL     1     -30.401 -15.192  20.713  1.00  0.00     0.106 CG0
ATOM     16  G   UNL     1     -31.918 -15.242  20.889  1.00  0.00     0.000 G0
ENDBRANCH  13  15
ENDBRANCH  12  13
BRANCH  12  17
ATOM     17  C   UNL     1     -27.719 -16.803  23.031  1.00  0.00    -0.006 C 
ATOM     18  C   UNL     1     -26.718 -17.220  21.943  1.00  0.00     0.008 C 
ATOM     19  C   UNL     1     -27.521 -17.664  24.291  1.00  0.00     0.008 C 
ENDBRANCH  12  17
ENDBRANCH  11  12
ENDBRANCH   1  11
TORSDOF 1
ENDMDL
MODEL 4
REMARK VINA RESULT:    -2.783      2.946      4.715
REMARK INTER + INTRA:          -4.583
REMARK INTER:                  -4.286
REMARK INTRA:                  -0.297
REMARK UNBOUND:                -0.336
REMARK SMILES CC1=CCC[C@H](C)C(=O)C[C@@H](C(C)C)C(=O)C1
REMARK SMILES IDX 8 1 9 2 6 3 7 4 5 5 4 6 3 7 2 8 1 9 10 11 11 12 15 13 16 14
REMARK SMILES IDX 17 15 12 17 13 18 14 19
REMARK H PARENT
REMARK Flexibility Score: 70.00
ROOT
ATOM      1  C   UNL     1     -28.879 -15.694  28.932  1.00  0.00     0.136 C 
ATOM      2  O   UNL     1     -28.210 -16.506  29.555  1.00  0.00    -0.299 OA
ENDROOT
BRANCH   1   3
ATOM      3  C   UNL     1     -28.266 -14.369  28.497  1.00  0.00     0.053 C 
ATOM      4  C   UNL     1     -27.814 -14.388  27.028  1.00  0.00     0.016 C 
BRANCH   3   5
ATOM      5  C   UNL     1     -29.204 -13.173  28.774  1.00  0.00     0.015 C 
BRANCH   5   6
ATOM      6  C   UNL     1     -29.793 -12.555  27.494  1.00  0.00     0.028 C 
BRANCH   6   7
ATOM      7  C   UNL     1     -31.263 -12.246  27.620  1.00  0.00    -0.028 C 
ATOM      8  C   UNL     1     -32.268 -12.854  26.938  1.00  0.00    -0.070 CG0
ATOM      9  C   UNL     1     -33.663 -12.313  27.146  1.00  0.00     0.039 C 
ATOM     10  G   UNL     1     -32.088 -14.071  26.033  1.00  0.00     0.000 G0
ENDBRANCH   6   7
ENDBRANCH   5   6
ENDBRANCH   3   5
ENDBRANCH   1   3
BRANCH   1  11
ATOM     11  C   UNL     1     -30.326 -16.013  28.636  1.00  0.00     0.087 C 
BRANCH  11  12
ATOM     12  C   UNL     1     -30.643 -16.036  27.116  1.00  0.00     0.066 C 
BRANCH  12  13
ATOM     13  C   UNL     1     -31.987 -15.408  26.751  1.00  0.00     0.140 C 
ATOM     14  O   UNL     1     -33.009 -15.941  27.162  1.00  0.00    -0.299 OA
BRANCH  13  15
ATOM     15  C   UNL     1     -32.107 -14.090  26.024  1.00  0.00     0.106 CG0
ATOM     16  G   UNL     1     -32.254 -12.874  26.937  1.00  0.00     0.000 G0
ENDBRANCH  13  15
ENDBRANCH  12  13
BRANCH  12  17
ATOM     17  C   UNL     1     -30.426 -17.450  26.492  1.00  0.00    -0.006 C 
ATOM     18  C   UNL     1     -30.703 -18.569  27.508  1.00  0.00     0.008 C 
ATOM     19  C   UNL     1     -29.050 -17.659  25.835  1.00  0.00     0.008 C 
ENDBRANCH  12  17
ENDBRANCH  11  12
ENDBRANCH   1  11
TORSDOF 1
ENDMDL
MODEL 5
REMARK VINA RESULT:    -2.683      2.684      5.258
REMARK INTER + INTRA:          -4.431
REMARK INTER:                  -4.149
REMARK INTRA:                  -0.282
REMARK UNBOUND:                -0.336
REMARK SMILES CC1=CCC[C@H](C)C(=O)C[C@@H](C(C)C)C(=O)C1
REMARK SMILES IDX 8 1 9 2 6 3 7 4 5 5 4 6 3 7 2 8 1 9 10 11 11 12 15 13 16 14
REMARK SMILES IDX 17 15 12 17 13 18 14 19
REMARK H PARENT
REMARK Flexibility Score: 70.00
ROOT
ATOM      1  C   UNL     1     -29.081 -17.070  24.043  1.00  0.00     0.136 C 
ATOM      2  O   UNL     1     -28.502 -16.282  24.779  1.00  0.00    -0.299 OA
ENDROOT
BRANCH   1   3
ATOM      3  C   UNL     1     -30.411 -17.678  24.470  1.00  0.00     0.053 C 
ATOM      4  C   UNL     1     -30.408 -18.115  25.944  1.00  0.00     0.016 C 
BRANCH   3   5
ATOM      5  C   UNL     1     -31.603 -16.740  24.171  1.00  0.00     0.015 C 
BRANCH   5   6
ATOM      6  C   UNL     1     -32.665 -17.380  23.259  1.00  0.00     0.028 C 
BRANCH   6   7
ATOM      7  C   UNL     1     -32.143 -18.581  22.513  1.00  0.00    -0.028 C 
ATOM      8  C   UNL     1     -31.521 -18.563  21.306  1.00  0.00    -0.070 CG0
ATOM      9  C   UNL     1     -31.173 -19.899  20.694  1.00  0.00     0.039 C 
ATOM     10  G   UNL     1     -31.104 -17.293  20.565  1.00  0.00     0.000 G0
ENDBRANCH   6   7
ENDBRANCH   5   6
ENDBRANCH   3   5
ENDBRANCH   1   3
BRANCH   1  11
ATOM     11  C   UNL     1     -28.438 -17.453  22.732  1.00  0.00     0.087 C 
BRANCH  11  12
ATOM     12  C   UNL     1     -28.767 -16.460  21.583  1.00  0.00     0.066 C 
BRANCH  12  13
ATOM     13  C   UNL     1     -29.603 -17.067  20.457  1.00  0.00     0.140 C 
ATOM     14  O   UNL     1     -29.026 -17.496  19.469  1.00  0.00    -0.299 OA
BRANCH  13  15
ATOM     15  C   UNL     1     -31.094 -17.284  20.569  1.00  0.00     0.106 CG0
ATOM     16  G   UNL     1     -31.495 -18.563  21.303  1.00  0.00     0.000 G0
ENDBRANCH  13  15
ENDBRANCH  12  13
BRANCH  12  17
ATOM     17  C   UNL     1     -27.498 -15.705  21.077  1.00  0.00    -0.006 C 
ATOM     18  C   UNL     1     -26.204 -16.410  21.512  1.00  0.00     0.008 C 
ATOM     19  C   UNL     1     -27.442 -14.215  21.460  1.00  0.00     0.008 C 
ENDBRANCH  12  17
ENDBRANCH  11  12
ENDBRANCH   1  11
TORSDOF 1
ENDMDL
MODEL 6
REMARK VINA RESULT:    -2.679      2.786      5.413
REMARK INTER + INTRA:          -4.424
REMARK INTER:                  -4.240
REMARK INTRA:                  -0.184
REMARK UNBOUND:                -0.336
REMARK SMILES CC1=CCC[C@H](C)C(=O)C[C@@H](C(C)C)C(=O)C1
REMARK SMILES IDX 8 1 9 2 6 3 7 4 5 5 4 6 3 7 2 8 1 9 10 11 11 12 15 13 16 14
REMARK SMILES IDX 17 15 12 17 13 18 14 19
REMARK H PARENT
REMARK Flexibility Score: 70.00
ROOT
ATOM      1  C   UNL     1     -28.362 -16.961  20.857  1.00  0.00     0.136 C 
ATOM      2  O   UNL     1     -28.629 -15.988  20.165  1.00  0.00    -0.299 OA
ENDROOT
BRANCH   1   3
ATOM      3  C   UNL     1     -26.936 -17.188  21.339  1.00  0.00     0.053 C 
ATOM      4  C   UNL     1     -26.081 -15.913  21.259  1.00  0.00     0.016 C 
BRANCH   3   5
ATOM      5  C   UNL     1     -26.890 -17.798  22.758  1.00  0.00     0.015 C 
BRANCH   5   6
ATOM      6  C   UNL     1     -27.348 -16.820  23.855  1.00  0.00     0.028 C 
BRANCH   6   7
ATOM      7  C   UNL     1     -28.136 -17.497  24.946  1.00  0.00    -0.028 C 
ATOM      8  C   UNL     1     -29.469 -17.369  25.167  1.00  0.00    -0.070 CG0
ATOM      9  C   UNL     1     -30.033 -18.060  26.386  1.00  0.00     0.039 C 
ATOM     10  G   UNL     1     -30.433 -16.629  24.240  1.00  0.00     0.000 G0
ENDBRANCH   6   7
ENDBRANCH   5   6
ENDBRANCH   3   5
ENDBRANCH   1   3
BRANCH   1  11
ATOM     11  C   UNL     1     -29.460 -17.943  21.190  1.00  0.00     0.087 C 
BRANCH  11  12
ATOM     12  C   UNL     1     -30.768 -17.252  21.666  1.00  0.00     0.066 C 
BRANCH  12  13
ATOM     13  C   UNL     1     -31.074 -17.453  23.149  1.00  0.00     0.140 C 
ATOM     14  O   UNL     1     -31.777 -18.399  23.475  1.00  0.00    -0.299 OA
BRANCH  13  15
ATOM     15  C   UNL     1     -30.440 -16.620  24.237  1.00  0.00     0.106 CG0
ATOM     16  G   UNL     1     -29.471 -17.386  25.138  1.00  0.00     0.000 G0
ENDBRANCH  13  15
ENDBRANCH  12  13
BRANCH  12  17
ATOM     17  C   UNL     1     -31.976 -17.575  20.731  1.00  0.00    -0.006 C 
ATOM     18  C   UNL     1     -31.805 -18.929  20.025  1.00  0.00     0.008 C 
ATOM     19  C   UNL     1     -32.303 -16.479  19.701  1.00  0.00     0.008 C 
ENDBRANCH  12  17
ENDBRANCH  11  12
ENDBRANCH   1  11
TORSDOF 1
ENDMDL
MODEL 7
REMARK VINA RESULT:    -2.612      3.965      5.369
REMARK INTER + INTRA:          -4.322
REMARK INTER:                  -3.981
REMARK INTRA:                  -0.341
REMARK UNBOUND:                -0.336
REMARK SMILES CC1=CCC[C@H](C)C(=O)C[C@@H](C(C)C)C(=O)C1
REMARK SMILES IDX 8 1 9 2 6 3 7 4 5 5 4 6 3 7 2 8 1 9 10 11 11 12 15 13 16 14
REMARK SMILES IDX 17 15 12 17 13 18 14 19
REMARK H PARENT
REMARK Flexibility Score: 70.00
ROOT
ATOM      1  C   UNL     1     -27.826 -17.167  21.718  1.00  0.00     0.136 C 
ATOM      2  O   UNL     1     -27.256 -18.250  21.692  1.00  0.00    -0.299 OA
ENDROOT
BRANCH   1   3
ATOM      3  C   UNL     1     -27.157 -15.938  21.116  1.00  0.00     0.053 C 
ATOM      4  C   UNL     1     -25.661 -15.858  21.462  1.00  0.00     0.016 C 
BRANCH   3   5
ATOM      5  C   UNL     1     -27.379 -15.842  19.590  1.00  0.00     0.015 C 
BRANCH   5   6
ATOM      6  C   UNL     1     -28.248 -14.640  19.177  1.00  0.00     0.028 C 
BRANCH   6   7
ATOM      7  C   UNL     1     -28.470 -13.668  20.308  1.00  0.00    -0.028 C 
ATOM      8  C   UNL     1     -29.645 -13.449  20.953  1.00  0.00    -0.070 CG0
ATOM      9  C   UNL     1     -29.663 -12.351  21.989  1.00  0.00     0.039 C 
ATOM     10  G   UNL     1     -30.915 -14.272  20.743  1.00  0.00     0.000 G0
ENDBRANCH   6   7
ENDBRANCH   5   6
ENDBRANCH   3   5
ENDBRANCH   1   3
BRANCH   1  11
ATOM     11  C   UNL     1     -29.177 -17.068  22.385  1.00  0.00     0.087 C 
BRANCH  11  12
ATOM     12  C   UNL     1     -30.328 -16.781  21.382  1.00  0.00     0.066 C 
BRANCH  12  13
ATOM     13  C   UNL     1     -31.068 -15.470  21.643  1.00  0.00     0.140 C 
ATOM     14  O   UNL     1     -31.707 -15.358  22.680  1.00  0.00    -0.299 OA
BRANCH  13  15
ATOM     15  C   UNL     1     -30.934 -14.261  20.747  1.00  0.00     0.106 CG0
ATOM     16  G   UNL     1     -29.651 -13.457  20.954  1.00  0.00     0.000 G0
ENDBRANCH  13  15
ENDBRANCH  12  13
BRANCH  12  17
ATOM     17  C   UNL     1     -31.278 -18.008  21.212  1.00  0.00    -0.006 C 
ATOM     18  C   UNL     1     -31.526 -18.727  22.547  1.00  0.00     0.008 C 
ATOM     19  C   UNL     1     -30.835 -19.020  20.140  1.00  0.00     0.008 C 
ENDBRANCH  12  17
ENDBRANCH  11  12
ENDBRANCH   1  11
TORSDOF 1
ENDMDL
MODEL 8
REMARK VINA RESULT:    -2.532      3.728      5.074
REMARK INTER + INTRA:          -4.201
REMARK INTER:                  -3.818
REMARK INTRA:                  -0.383
REMARK UNBOUND:                -0.336
REMARK SMILES CC1=CCC[C@H](C)C(=O)C[C@@H](C(C)C)C(=O)C1
REMARK SMILES IDX 8 1 9 2 6 3 7 4 5 5 4 6 3 7 2 8 1 9 10 11 11 12 15 13 16 14
REMARK SMILES IDX 17 15 12 17 13 18 14 19
REMARK H PARENT
REMARK Flexibility Score: 70.00
ROOT
ATOM      1  C   UNL     1     -26.281 -15.679  22.011  1.00  0.00     0.136 C 
ATOM      2  O   UNL     1     -25.104 -15.510  21.725  1.00  0.00    -0.299 OA
ENDROOT
BRANCH   1   3
ATOM      3  C   UNL     1     -26.866 -17.085  22.045  1.00  0.00     0.053 C 
ATOM      4  C   UNL     1     -26.348 -17.906  23.236  1.00  0.00     0.016 C 
BRANCH   3   5
ATOM      5  C   UNL     1     -28.411 -17.075  22.008  1.00  0.00     0.015 C 
BRANCH   5   6
ATOM      6  C   UNL     1     -29.052 -17.306  23.388  1.00  0.00     0.028 C 
BRANCH   6   7
ATOM      7  C   UNL     1     -30.292 -16.476  23.599  1.00  0.00    -0.028 C 
ATOM      8  C   UNL     1     -30.404 -15.402  24.422  1.00  0.00    -0.070 CG0
ATOM      9  C   UNL     1     -31.774 -14.781  24.557  1.00  0.00     0.039 C 
ATOM     10  G   UNL     1     -29.236 -14.753  25.163  1.00  0.00     0.000 G0
ENDBRANCH   6   7
ENDBRANCH   5   6
ENDBRANCH   3   5
ENDBRANCH   1   3
BRANCH   1  11
ATOM     11  C   UNL     1     -27.145 -14.473  22.293  1.00  0.00     0.087 C 
BRANCH  11  12
ATOM     12  C   UNL     1     -27.091 -14.022  23.778  1.00  0.00     0.066 C 
BRANCH  12  13
ATOM     13  C   UNL     1     -28.461 -13.728  24.389  1.00  0.00     0.140 C 
ATOM     14  O   UNL     1     -28.995 -12.659  24.132  1.00  0.00    -0.299 OA
BRANCH  13  15
ATOM     15  C   UNL     1     -29.241 -14.750  25.182  1.00  0.00     0.106 CG0
ATOM     16  G   UNL     1     -30.398 -15.395  24.419  1.00  0.00     0.000 G0
ENDBRANCH  13  15
ENDBRANCH  12  13
BRANCH  12  17
ATOM     17  C   UNL     1     -26.049 -12.883  24.010  1.00  0.00    -0.006 C 
ATOM     18  C   UNL     1     -25.806 -12.065  22.732  1.00  0.00     0.008 C 
ATOM     19  C   UNL     1     -24.708 -13.350  24.603  1.00  0.00     0.008 C 
ENDBRANCH  12  17
ENDBRANCH  11  12
ENDBRANCH   1  11
TORSDOF 1
ENDMDL
MODEL 9
REMARK VINA RESULT:    -2.484      1.947      4.432
REMARK INTER + INTRA:          -4.127
REMARK INTER:                  -3.805
REMARK INTRA:                  -0.322
REMARK UNBOUND:                -0.336
REMARK SMILES CC1=CCC[C@H](C)C(=O)C[C@@H](C(C)C)C(=O)C1
REMARK SMILES IDX 8 1 9 2 6 3 7 4 5 5 4 6 3 7 2 8 1 9 10 11 11 12 15 13 16 14
REMARK SMILES IDX 17 15 12 17 13 18 14 19
REMARK H PARENT
REMARK Flexibility Score: 70.00
ROOT
ATOM      1  C   UNL     1     -29.839 -16.489  25.414  1.00  0.00     0.136 C 
ATOM      2  O   UNL     1     -29.292 -15.424  25.663  1.00  0.00    -0.299 OA
ENDROOT
BRANCH   1   3
ATOM      3  C   UNL     1     -31.122 -16.879  26.138  1.00  0.00     0.053 C 
ATOM      4  C   UNL     1     -30.929 -16.967  27.660  1.00  0.00     0.016 C 
BRANCH   3   5
ATOM      5  C   UNL     1     -32.299 -15.945  25.781  1.00  0.00     0.015 C 
BRANCH   5   6
ATOM      6  C   UNL     1     -33.091 -16.411  24.546  1.00  0.00     0.028 C 
BRANCH   6   7
ATOM      7  C   UNL     1     -32.844 -15.547  23.336  1.00  0.00    -0.028 C 
ATOM      8  C   UNL     1     -32.024 -15.846  22.295  1.00  0.00    -0.070 CG0
ATOM      9  C   UNL     1     -31.846 -14.784  21.236  1.00  0.00     0.039 C 
ATOM     10  G   UNL     1     -31.329 -17.192  22.100  1.00  0.00     0.000 G0
ENDBRANCH   6   7
ENDBRANCH   5   6
ENDBRANCH   3   5
ENDBRANCH   1   3
BRANCH   1  11
ATOM     11  C   UNL     1     -29.203 -17.419  24.408  1.00  0.00     0.087 C 
BRANCH  11  12
ATOM     12  C   UNL     1     -28.881 -16.722  23.057  1.00  0.00     0.066 C 
BRANCH  12  13
ATOM     13  C   UNL     1     -29.829 -17.100  21.921  1.00  0.00     0.140 C 
ATOM     14  O   UNL     1     -29.348 -17.456  20.855  1.00  0.00    -0.299 OA
BRANCH  13  15
ATOM     15  C   UNL     1     -31.328 -17.183  22.097  1.00  0.00     0.106 CG0
ATOM     16  G   UNL     1     -32.018 -15.835  22.293  1.00  0.00     0.000 G0
ENDBRANCH  13  15
ENDBRANCH  12  13
BRANCH  12  17
ATOM     17  C   UNL     1     -27.372 -16.848  22.677  1.00  0.00    -0.006 C 
ATOM     18  C   UNL     1     -26.538 -17.418  23.834  1.00  0.00     0.008 C 
ATOM     19  C   UNL     1     -26.731 -15.552  22.150  1.00  0.00     0.008 C 
ENDBRANCH  12  17
ENDBRANCH  11  12
ENDBRANCH   1  11
TORSDOF 1
ENDMDL
