MODEL 1
REMARK VINA RESULT:    33.034      0.000      0.000
REMARK INTER + INTRA:          33.034
REMARK INTER:                  33.034
REMARK INTRA:                   0.000
REMARK UNBOUND:                 0.000
REMARK SMILES Cc1cc2cc3c(C)cc(=O)oc3c(C)c2o1
REMARK SMILES IDX 8 1 7 2 9 3 10 4 11 5 12 6 13 7 6 8 5 9 4 10 3 11 2 12 17 13
REMARK SMILES IDX 16 14 14 15 15 16 1 17
REMARK H PARENT
REMARK Flexibility Score: inf
ROOT
ATOM      1  C   UNL     1      12.917  75.283  -0.382  1.00  0.00     0.045 C 
ATOM      2  C   UNL     1      11.559  75.271   0.271  1.00  0.00    -0.033 A 
ATOM      3  C   UNL     1      10.477  74.698  -0.409  1.00  0.00     0.098 A 
ATOM      4  C   UNL     1       9.215  74.686   0.189  1.00  0.00     0.336 A 
ATOM      5  O   UNL     1       8.239  74.173  -0.419  1.00  0.00    -0.246 OA
ATOM      6  O   UNL     1       9.035  75.208   1.395  1.00  0.00    -0.422 OA
ATOM      7  C   UNL     1      10.017  75.765   2.097  1.00  0.00     0.145 A 
ATOM      8  C   UNL     1      11.341  75.822   1.554  1.00  0.00     0.022 A 
ATOM      9  C   UNL     1      12.380  76.426   2.305  1.00  0.00     0.024 A 
ATOM     10  C   UNL     1      12.065  76.949   3.554  1.00  0.00     0.022 A 
ATOM     11  C   UNL     1      12.857  77.590   4.478  1.00  0.00     0.054 A 
ATOM     12  C   UNL     1      11.989  77.888   5.522  1.00  0.00     0.102 A 
ATOM     13  O   UNL     1      10.769  77.460   5.256  1.00  0.00    -0.461 OA
ATOM     14  C   UNL     1      10.800  76.893   4.073  1.00  0.00     0.140 A 
ATOM     15  C   UNL     1       9.743  76.298   3.379  1.00  0.00     0.036 A 
ATOM     16  C   UNL     1       8.354  76.271   3.954  1.00  0.00     0.052 C 
ATOM     17  C   UNL     1      12.369  78.581   6.787  1.00  0.00     0.087 C 
ENDROOT
TORSDOF 0
ENDMDL
