MODEL 1
REMARK VINA RESULT:    -2.464      0.000      0.000
REMARK INTER + INTRA:          -6.962
REMARK INTER:                  -4.192
REMARK INTRA:                  -2.770
REMARK UNBOUND:                -2.770
REMARK SMILES CC(=O)CCC[C@H](C)CCC[C@@H](C)CCCC(C)C
REMARK SMILES IDX 10 1 11 2 12 3 13 4 14 5 15 6 16 7 17 8 18 9 19 10 9 11 7 12
REMARK SMILES IDX 8 13 6 14 5 15 4 16 2 17 3 18 1 19
REMARK H PARENT
REMARK Flexibility Score: inf
ROOT
ATOM      1  C   UNL     1     133.322 146.227 140.593  1.00  0.00     0.001 C 
ENDROOT
BRANCH   1   2
ATOM      2  C   UNL     1     132.626 146.965 139.432  1.00  0.00     0.003 C 
BRANCH   2   3
ATOM      3  C   UNL     1     131.118 146.655 139.243  1.00  0.00    -0.014 C 
ATOM      4  C   UNL     1     130.818 146.195 137.804  1.00  0.00     0.007 C 
BRANCH   3   5
ATOM      5  C   UNL     1     130.678 145.580 140.269  1.00  0.00     0.003 C 
BRANCH   5   6
ATOM      6  C   UNL     1     129.803 144.480 139.639  1.00  0.00     0.001 C 
BRANCH   6   7
ATOM      7  C   UNL     1     129.746 143.196 140.489  1.00  0.00     0.003 C 
BRANCH   7   8
ATOM      8  C   UNL     1     129.239 141.935 139.748  1.00  0.00    -0.017 C 
ATOM      9  C   UNL     1     130.337 140.864 139.738  1.00  0.00     0.007 C 
ATOM     10  C   UNL     1     128.801 142.244 138.308  1.00  0.00     0.007 C 
ENDBRANCH   7   8
ENDBRANCH   6   7
ENDBRANCH   5   6
ENDBRANCH   3   5
ENDBRANCH   2   3
ENDBRANCH   1   2
BRANCH   1  11
ATOM     11  C   UNL     1     134.671 145.608 140.190  1.00  0.00     0.003 C 
BRANCH  11  12
ATOM     12  C   UNL     1     134.594 144.079 139.957  1.00  0.00    -0.014 C 
ATOM     13  C   UNL     1     133.566 143.473 140.925  1.00  0.00     0.007 C 
BRANCH  12  14
ATOM     14  C   UNL     1     134.228 143.712 138.490  1.00  0.00     0.004 C 
BRANCH  14  15
ATOM     15  C   UNL     1     132.859 143.010 138.352  1.00  0.00     0.008 C 
BRANCH  15  16
ATOM     16  C   UNL     1     132.302 143.034 136.919  1.00  0.00     0.075 C 
BRANCH  16  17
ATOM     17  C   UNL     1     132.416 141.697 136.234  1.00  0.00     0.129 C 
ATOM     18  O   UNL     1     133.521 141.217 136.033  1.00  0.00    -0.300 OA
ATOM     19  C   UNL     1     131.201 140.950 135.769  1.00  0.00     0.087 C 
ENDBRANCH  16  17
ENDBRANCH  15  16
ENDBRANCH  14  15
ENDBRANCH  12  14
ENDBRANCH  11  12
ENDBRANCH   1  11
TORSDOF 12
ENDMDL
MODEL 2
REMARK VINA RESULT:    -2.410      1.849      3.123
REMARK INTER + INTRA:          -6.872
REMARK INTER:                  -4.016
REMARK INTRA:                  -2.855
REMARK UNBOUND:                -2.770
REMARK SMILES CC(=O)CCC[C@H](C)CCC[C@@H](C)CCCC(C)C
REMARK SMILES IDX 10 1 11 2 12 3 13 4 14 5 15 6 16 7 17 8 18 9 19 10 9 11 7 12
REMARK SMILES IDX 8 13 6 14 5 15 4 16 2 17 3 18 1 19
REMARK H PARENT
REMARK Flexibility Score: inf
ROOT
ATOM      1  C   UNL     1     133.186 144.176 139.643  1.00  0.00     0.001 C 
ENDROOT
BRANCH   1   2
ATOM      2  C   UNL     1     133.348 145.708 139.681  1.00  0.00     0.003 C 
BRANCH   2   3
ATOM      3  C   UNL     1     132.030 146.526 139.657  1.00  0.00    -0.014 C 
ATOM      4  C   UNL     1     132.293 148.017 139.947  1.00  0.00     0.007 C 
BRANCH   3   5
ATOM      5  C   UNL     1     131.334 146.345 138.285  1.00  0.00     0.003 C 
BRANCH   5   6
ATOM      6  C   UNL     1     129.843 145.980 138.420  1.00  0.00     0.001 C 
BRANCH   6   7
ATOM      7  C   UNL     1     129.398 145.792 139.883  1.00  0.00     0.003 C 
BRANCH   7   8
ATOM      8  C   UNL     1     128.773 144.416 140.212  1.00  0.00    -0.017 C 
ATOM      9  C   UNL     1     129.781 143.561 140.991  1.00  0.00     0.007 C 
ATOM     10  C   UNL     1     128.322 143.665 138.949  1.00  0.00     0.007 C 
ENDBRANCH   7   8
ENDBRANCH   6   7
ENDBRANCH   5   6
ENDBRANCH   3   5
ENDBRANCH   2   3
ENDBRANCH   1   2
BRANCH   1  11
ATOM     11  C   UNL     1     133.892 143.526 138.440  1.00  0.00     0.003 C 
BRANCH  11  12
ATOM     12  C   UNL     1     132.918 143.137 137.300  1.00  0.00    -0.014 C 
ATOM     13  C   UNL     1     133.560 142.038 136.441  1.00  0.00     0.007 C 
BRANCH  12  14
ATOM     14  C   UNL     1     131.533 142.662 137.829  1.00  0.00     0.004 C 
BRANCH  14  15
ATOM     15  C   UNL     1     131.332 141.132 137.746  1.00  0.00     0.008 C 
BRANCH  15  16
ATOM     16  C   UNL     1     131.091 140.473 139.115  1.00  0.00     0.075 C 
BRANCH  16  17
ATOM     17  C   UNL     1     132.316 140.500 139.990  1.00  0.00     0.129 C 
ATOM     18  O   UNL     1     132.260 141.034 141.088  1.00  0.00    -0.300 OA
ATOM     19  C   UNL     1     133.617 139.907 139.534  1.00  0.00     0.087 C 
ENDBRANCH  16  17
ENDBRANCH  15  16
ENDBRANCH  14  15
ENDBRANCH  12  14
ENDBRANCH  11  12
ENDBRANCH   1  11
TORSDOF 12
ENDMDL
MODEL 3
REMARK VINA RESULT:    -2.357      7.025      9.791
REMARK INTER + INTRA:          -6.782
REMARK INTER:                  -4.092
REMARK INTRA:                  -2.690
REMARK UNBOUND:                -2.770
REMARK SMILES CC(=O)CCC[C@H](C)CCC[C@@H](C)CCCC(C)C
REMARK SMILES IDX 10 1 11 2 12 3 13 4 14 5 15 6 16 7 17 8 18 9 19 10 9 11 7 12
REMARK SMILES IDX 8 13 6 14 5 15 4 16 2 17 3 18 1 19
REMARK H PARENT
REMARK Flexibility Score: inf
ROOT
ATOM      1  C   UNL     1     141.188 143.805 138.372  1.00  0.00     0.001 C 
ENDROOT
BRANCH   1   2
ATOM      2  C   UNL     1     141.256 144.429 136.964  1.00  0.00     0.003 C 
BRANCH   2   3
ATOM      3  C   UNL     1     140.226 143.891 135.937  1.00  0.00    -0.014 C 
ATOM      4  C   UNL     1     140.149 142.353 135.977  1.00  0.00     0.007 C 
BRANCH   3   5
ATOM      5  C   UNL     1     138.838 144.521 136.219  1.00  0.00     0.003 C 
BRANCH   5   6
ATOM      6  C   UNL     1     137.675 143.562 135.899  1.00  0.00     0.001 C 
BRANCH   6   7
ATOM      7  C   UNL     1     136.821 143.218 137.135  1.00  0.00     0.003 C 
BRANCH   7   8
ATOM      8  C   UNL     1     137.491 143.501 138.500  1.00  0.00    -0.017 C 
ATOM      9  C   UNL     1     137.964 142.184 139.129  1.00  0.00     0.007 C 
ATOM     10  C   UNL     1     136.549 144.231 139.470  1.00  0.00     0.007 C 
ENDBRANCH   7   8
ENDBRANCH   6   7
ENDBRANCH   5   6
ENDBRANCH   3   5
ENDBRANCH   2   3
ENDBRANCH   1   2
BRANCH   1  11
ATOM     11  C   UNL     1     140.777 144.812 139.459  1.00  0.00     0.003 C 
BRANCH  11  12
ATOM     12  C   UNL     1     140.716 146.272 138.943  1.00  0.00    -0.014 C 
ATOM     13  C   UNL     1     139.296 146.820 139.150  1.00  0.00     0.007 C 
BRANCH  12  14
ATOM     14  C   UNL     1     141.754 147.199 139.640  1.00  0.00     0.004 C 
BRANCH  14  15
ATOM     15  C   UNL     1     142.813 147.776 138.674  1.00  0.00     0.008 C 
BRANCH  15  16
ATOM     16  C   UNL     1     143.805 146.722 138.155  1.00  0.00     0.075 C 
BRANCH  16  17
ATOM     17  C   UNL     1     144.489 145.975 139.270  1.00  0.00     0.129 C 
ATOM     18  O   UNL     1     144.375 144.761 139.338  1.00  0.00    -0.300 OA
ATOM     19  C   UNL     1     145.288 146.693 140.317  1.00  0.00     0.087 C 
ENDBRANCH  16  17
ENDBRANCH  15  16
ENDBRANCH  14  15
ENDBRANCH  12  14
ENDBRANCH  11  12
ENDBRANCH   1  11
TORSDOF 12
ENDMDL
MODEL 4
REMARK VINA RESULT:    -2.354      2.039      4.366
REMARK INTER + INTRA:          -6.775
REMARK INTER:                  -4.271
REMARK INTRA:                  -2.505
REMARK UNBOUND:                -2.770
REMARK SMILES CC(=O)CCC[C@H](C)CCC[C@@H](C)CCCC(C)C
REMARK SMILES IDX 10 1 11 2 12 3 13 4 14 5 15 6 16 7 17 8 18 9 19 10 9 11 7 12
REMARK SMILES IDX 8 13 6 14 5 15 4 16 2 17 3 18 1 19
REMARK H PARENT
REMARK Flexibility Score: inf
ROOT
ATOM      1  C   UNL     1     133.986 143.788 140.851  1.00  0.00     0.001 C 
ENDROOT
BRANCH   1   2
ATOM      2  C   UNL     1     133.430 142.991 139.653  1.00  0.00     0.003 C 
BRANCH   2   3
ATOM      3  C   UNL     1     133.745 143.573 138.251  1.00  0.00    -0.014 C 
ATOM      4  C   UNL     1     134.995 142.911 137.640  1.00  0.00     0.007 C 
BRANCH   3   5
ATOM      5  C   UNL     1     132.515 143.389 137.327  1.00  0.00     0.003 C 
BRANCH   5   6
ATOM      6  C   UNL     1     132.699 142.243 136.313  1.00  0.00     0.001 C 
BRANCH   6   7
ATOM      7  C   UNL     1     131.596 141.172 136.408  1.00  0.00     0.003 C 
BRANCH   7   8
ATOM      8  C   UNL     1     132.004 139.864 137.127  1.00  0.00    -0.017 C 
ATOM      9  C   UNL     1     131.630 139.950 138.612  1.00  0.00     0.007 C 
ATOM     10  C   UNL     1     133.505 139.567 136.985  1.00  0.00     0.007 C 
ENDBRANCH   7   8
ENDBRANCH   6   7
ENDBRANCH   5   6
ENDBRANCH   3   5
ENDBRANCH   2   3
ENDBRANCH   1   2
BRANCH   1  11
ATOM     11  C   UNL     1     133.147 145.032 141.187  1.00  0.00     0.003 C 
BRANCH  11  12
ATOM     12  C   UNL     1     133.835 146.358 140.777  1.00  0.00    -0.014 C 
ATOM     13  C   UNL     1     135.326 146.094 140.521  1.00  0.00     0.007 C 
BRANCH  12  14
ATOM     14  C   UNL     1     133.184 147.010 139.522  1.00  0.00     0.004 C 
BRANCH  14  15
ATOM     15  C   UNL     1     131.641 147.044 139.573  1.00  0.00     0.008 C 
BRANCH  15  16
ATOM     16  C   UNL     1     130.975 146.475 138.309  1.00  0.00     0.075 C 
BRANCH  16  17
ATOM     17  C   UNL     1     129.770 145.629 138.624  1.00  0.00     0.129 C 
ATOM     18  O   UNL     1     128.708 145.863 138.066  1.00  0.00    -0.300 OA
ATOM     19  C   UNL     1     129.834 144.517 139.629  1.00  0.00     0.087 C 
ENDBRANCH  16  17
ENDBRANCH  15  16
ENDBRANCH  14  15
ENDBRANCH  12  14
ENDBRANCH  11  12
ENDBRANCH   1  11
TORSDOF 12
ENDMDL
MODEL 5
REMARK VINA RESULT:    -2.339      1.139      4.415
REMARK INTER + INTRA:          -6.749
REMARK INTER:                  -4.222
REMARK INTRA:                  -2.527
REMARK UNBOUND:                -2.770
REMARK SMILES CC(=O)CCC[C@H](C)CCC[C@@H](C)CCCC(C)C
REMARK SMILES IDX 10 1 11 2 12 3 13 4 14 5 15 6 16 7 17 8 18 9 19 10 9 11 7 12
REMARK SMILES IDX 8 13 6 14 5 15 4 16 2 17 3 18 1 19
REMARK H PARENT
REMARK Flexibility Score: inf
ROOT
ATOM      1  C   UNL     1     130.483 143.815 140.569  1.00  0.00     0.001 C 
ENDROOT
BRANCH   1   2
ATOM      2  C   UNL     1     129.926 145.172 140.093  1.00  0.00     0.003 C 
BRANCH   2   3
ATOM      3  C   UNL     1     129.969 145.419 138.562  1.00  0.00    -0.014 C 
ATOM      4  C   UNL     1     128.677 146.099 138.070  1.00  0.00     0.007 C 
BRANCH   3   5
ATOM      5  C   UNL     1     131.212 146.275 138.212  1.00  0.00     0.003 C 
BRANCH   5   6
ATOM      6  C   UNL     1     131.697 147.133 139.397  1.00  0.00     0.001 C 
BRANCH   6   7
ATOM      7  C   UNL     1     133.206 146.987 139.669  1.00  0.00     0.003 C 
BRANCH   7   8
ATOM      8  C   UNL     1     133.575 146.128 140.902  1.00  0.00    -0.017 C 
ATOM      9  C   UNL     1     132.832 146.650 142.139  1.00  0.00     0.007 C 
ATOM     10  C   UNL     1     135.088 146.117 141.171  1.00  0.00     0.007 C 
ENDBRANCH   7   8
ENDBRANCH   6   7
ENDBRANCH   5   6
ENDBRANCH   3   5
ENDBRANCH   2   3
ENDBRANCH   1   2
BRANCH   1  11
ATOM     11  C   UNL     1     129.417 142.707 140.607  1.00  0.00     0.003 C 
BRANCH  11  12
ATOM     12  C   UNL     1     129.590 141.658 139.481  1.00  0.00    -0.014 C 
ATOM     13  C   UNL     1     128.618 141.984 138.336  1.00  0.00     0.007 C 
BRANCH  12  14
ATOM     14  C   UNL     1     131.048 141.589 138.941  1.00  0.00     0.004 C 
BRANCH  14  15
ATOM     15  C   UNL     1     131.149 141.769 137.410  1.00  0.00     0.008 C 
BRANCH  15  16
ATOM     16  C   UNL     1     132.124 142.881 136.989  1.00  0.00     0.075 C 
BRANCH  16  17
ATOM     17  C   UNL     1     133.535 142.613 137.445  1.00  0.00     0.129 C 
ATOM     18  O   UNL     1     134.110 141.606 137.061  1.00  0.00    -0.300 OA
ATOM     19  C   UNL     1     134.243 143.545 138.383  1.00  0.00     0.087 C 
ENDBRANCH  16  17
ENDBRANCH  15  16
ENDBRANCH  14  15
ENDBRANCH  12  14
ENDBRANCH  11  12
ENDBRANCH   1  11
TORSDOF 12
ENDMDL
MODEL 6
REMARK VINA RESULT:    -2.320      2.323      4.916
REMARK INTER + INTRA:          -6.718
REMARK INTER:                  -3.904
REMARK INTRA:                  -2.814
REMARK UNBOUND:                -2.770
REMARK SMILES CC(=O)CCC[C@H](C)CCC[C@@H](C)CCCC(C)C
REMARK SMILES IDX 10 1 11 2 12 3 13 4 14 5 15 6 16 7 17 8 18 9 19 10 9 11 7 12
REMARK SMILES IDX 8 13 6 14 5 15 4 16 2 17 3 18 1 19
REMARK H PARENT
REMARK Flexibility Score: inf
ROOT
ATOM      1  C   UNL     1     131.961 142.210 140.755  1.00  0.00     0.001 C 
ENDROOT
BRANCH   1   2
ATOM      2  C   UNL     1     131.681 143.725 140.722  1.00  0.00     0.003 C 
BRANCH   2   3
ATOM      3  C   UNL     1     132.931 144.643 140.714  1.00  0.00    -0.014 C 
ATOM      4  C   UNL     1     134.208 143.850 141.055  1.00  0.00     0.007 C 
BRANCH   3   5
ATOM      5  C   UNL     1     133.060 145.328 139.330  1.00  0.00     0.003 C 
BRANCH   5   6
ATOM      6  C   UNL     1     132.094 146.517 139.164  1.00  0.00     0.001 C 
BRANCH   6   7
ATOM      7  C   UNL     1     130.982 146.249 138.132  1.00  0.00     0.003 C 
BRANCH   7   8
ATOM      8  C   UNL     1     129.604 145.875 138.728  1.00  0.00    -0.017 C 
ATOM      9  C   UNL     1     128.489 146.300 137.763  1.00  0.00     0.007 C 
ATOM     10  C   UNL     1     129.373 146.516 140.105  1.00  0.00     0.007 C 
ENDBRANCH   7   8
ENDBRANCH   6   7
ENDBRANCH   5   6
ENDBRANCH   3   5
ENDBRANCH   2   3
ENDBRANCH   1   2
BRANCH   1  11
ATOM     11  C   UNL     1     131.812 141.539 139.379  1.00  0.00     0.003 C 
BRANCH  11  12
ATOM     12  C   UNL     1     131.095 142.437 138.340  1.00  0.00    -0.014 C 
ATOM     13  C   UNL     1     132.035 142.679 137.150  1.00  0.00     0.007 C 
BRANCH  12  14
ATOM     14  C   UNL     1     129.751 141.827 137.845  1.00  0.00     0.004 C 
BRANCH  14  15
ATOM     15  C   UNL     1     128.520 142.320 138.637  1.00  0.00     0.008 C 
BRANCH  15  16
ATOM     16  C   UNL     1     127.971 141.276 139.625  1.00  0.00     0.075 C 
BRANCH  16  17
ATOM     17  C   UNL     1     128.147 141.694 141.061  1.00  0.00     0.129 C 
ATOM     18  O   UNL     1     128.299 140.840 141.921  1.00  0.00    -0.300 OA
ATOM     19  C   UNL     1     128.116 143.139 141.465  1.00  0.00     0.087 C 
ENDBRANCH  16  17
ENDBRANCH  15  16
ENDBRANCH  14  15
ENDBRANCH  12  14
ENDBRANCH  11  12
ENDBRANCH   1  11
TORSDOF 12
ENDMDL
MODEL 7
REMARK VINA RESULT:    -2.311      1.591      3.384
REMARK INTER + INTRA:          -6.702
REMARK INTER:                  -3.707
REMARK INTRA:                  -2.995
REMARK UNBOUND:                -2.770
REMARK SMILES CC(=O)CCC[C@H](C)CCC[C@@H](C)CCCC(C)C
REMARK SMILES IDX 10 1 11 2 12 3 13 4 14 5 15 6 16 7 17 8 18 9 19 10 9 11 7 12
REMARK SMILES IDX 8 13 6 14 5 15 4 16 2 17 3 18 1 19
REMARK H PARENT
REMARK Flexibility Score: inf
ROOT
ATOM      1  C   UNL     1     129.421 146.090 139.119  1.00  0.00     0.001 C 
ENDROOT
BRANCH   1   2
ATOM      2  C   UNL     1     128.410 145.042 138.613  1.00  0.00     0.003 C 
BRANCH   2   3
ATOM      3  C   UNL     1     128.343 143.723 139.424  1.00  0.00    -0.014 C 
ATOM      4  C   UNL     1     128.650 142.503 138.533  1.00  0.00     0.007 C 
BRANCH   3   5
ATOM      5  C   UNL     1     129.330 143.798 140.616  1.00  0.00     0.003 C 
BRANCH   5   6
ATOM      6  C   UNL     1     130.299 142.601 140.663  1.00  0.00     0.001 C 
BRANCH   6   7
ATOM      7  C   UNL     1     131.545 142.868 141.527  1.00  0.00     0.003 C 
BRANCH   7   8
ATOM      8  C   UNL     1     132.748 141.932 141.261  1.00  0.00    -0.017 C 
ATOM      9  C   UNL     1     132.702 140.741 142.227  1.00  0.00     0.007 C 
ATOM     10  C   UNL     1     134.094 142.661 141.397  1.00  0.00     0.007 C 
ENDBRANCH   7   8
ENDBRANCH   6   7
ENDBRANCH   5   6
ENDBRANCH   3   5
ENDBRANCH   2   3
ENDBRANCH   1   2
BRANCH   1  11
ATOM     11  C   UNL     1     130.623 146.271 138.176  1.00  0.00     0.003 C 
BRANCH  11  12
ATOM     12  C   UNL     1     131.984 146.263 138.916  1.00  0.00    -0.014 C 
ATOM     13  C   UNL     1     131.754 146.607 140.395  1.00  0.00     0.007 C 
BRANCH  12  14
ATOM     14  C   UNL     1     132.726 144.901 138.793  1.00  0.00     0.004 C 
BRANCH  14  15
ATOM     15  C   UNL     1     132.121 143.961 137.727  1.00  0.00     0.008 C 
BRANCH  15  16
ATOM     16  C   UNL     1     132.889 142.638 137.572  1.00  0.00     0.075 C 
BRANCH  16  17
ATOM     17  C   UNL     1     132.001 141.505 137.129  1.00  0.00     0.129 C 
ATOM     18  O   UNL     1     131.516 141.524 136.008  1.00  0.00    -0.300 OA
ATOM     19  C   UNL     1     131.675 140.362 138.045  1.00  0.00     0.087 C 
ENDBRANCH  16  17
ENDBRANCH  15  16
ENDBRANCH  14  15
ENDBRANCH  12  14
ENDBRANCH  11  12
ENDBRANCH   1  11
TORSDOF 12
ENDMDL
MODEL 8
REMARK VINA RESULT:    -2.309      1.865      4.200
REMARK INTER + INTRA:          -6.699
REMARK INTER:                  -3.750
REMARK INTRA:                  -2.948
REMARK UNBOUND:                -2.770
REMARK SMILES CC(=O)CCC[C@H](C)CCC[C@@H](C)CCCC(C)C
REMARK SMILES IDX 10 1 11 2 12 3 13 4 14 5 15 6 16 7 17 8 18 9 19 10 9 11 7 12
REMARK SMILES IDX 8 13 6 14 5 15 4 16 2 17 3 18 1 19
REMARK H PARENT
REMARK Flexibility Score: inf
ROOT
ATOM      1  C   UNL     1     130.877 146.350 137.607  1.00  0.00     0.001 C 
ENDROOT
BRANCH   1   2
ATOM      2  C   UNL     1     131.866 145.733 138.616  1.00  0.00     0.003 C 
BRANCH   2   3
ATOM      3  C   UNL     1     132.822 146.731 139.321  1.00  0.00    -0.014 C 
ATOM      4  C   UNL     1     132.035 147.798 140.105  1.00  0.00     0.007 C 
BRANCH   3   5
ATOM      5  C   UNL     1     133.782 145.954 140.256  1.00  0.00     0.003 C 
BRANCH   5   6
ATOM      6  C   UNL     1     133.456 144.450 140.327  1.00  0.00     0.001 C 
BRANCH   6   7
ATOM      7  C   UNL     1     132.934 144.012 141.709  1.00  0.00     0.003 C 
BRANCH   7   8
ATOM      8  C   UNL     1     131.524 144.532 142.078  1.00  0.00    -0.017 C 
ATOM      9  C   UNL     1     131.629 145.537 143.233  1.00  0.00     0.007 C 
ATOM     10  C   UNL     1     130.567 143.393 142.465  1.00  0.00     0.007 C 
ENDBRANCH   7   8
ENDBRANCH   6   7
ENDBRANCH   5   6
ENDBRANCH   3   5
ENDBRANCH   2   3
ENDBRANCH   1   2
BRANCH   1  11
ATOM     11  C   UNL     1     129.409 146.218 138.046  1.00  0.00     0.003 C 
BRANCH  11  12
ATOM     12  C   UNL     1     129.216 145.257 139.245  1.00  0.00    -0.014 C 
ATOM     13  C   UNL     1     128.649 146.044 140.436  1.00  0.00     0.007 C 
BRANCH  12  14
ATOM     14  C   UNL     1     128.288 144.054 138.908  1.00  0.00     0.004 C 
BRANCH  14  15
ATOM     15  C   UNL     1     128.948 142.678 139.147  1.00  0.00     0.008 C 
BRANCH  15  16
ATOM     16  C   UNL     1     130.409 142.610 138.672  1.00  0.00     0.075 C 
BRANCH  16  17
ATOM     17  C   UNL     1     131.161 141.458 139.285  1.00  0.00     0.129 C 
ATOM     18  O   UNL     1     132.351 141.320 139.044  1.00  0.00    -0.300 OA
ATOM     19  C   UNL     1     130.476 140.458 140.169  1.00  0.00     0.087 C 
ENDBRANCH  16  17
ENDBRANCH  15  16
ENDBRANCH  14  15
ENDBRANCH  12  14
ENDBRANCH  11  12
ENDBRANCH   1  11
TORSDOF 12
ENDMDL
MODEL 9
REMARK VINA RESULT:    -2.289      1.322      3.913
REMARK INTER + INTRA:          -6.665
REMARK INTER:                  -4.382
REMARK INTRA:                  -2.283
REMARK UNBOUND:                -2.770
REMARK SMILES CC(=O)CCC[C@H](C)CCC[C@@H](C)CCCC(C)C
REMARK SMILES IDX 10 1 11 2 12 3 13 4 14 5 15 6 16 7 17 8 18 9 19 10 9 11 7 12
REMARK SMILES IDX 8 13 6 14 5 15 4 16 2 17 3 18 1 19
REMARK H PARENT
REMARK Flexibility Score: inf
ROOT
ATOM      1  C   UNL     1     129.054 143.535 139.549  1.00  0.00     0.001 C 
ENDROOT
BRANCH   1   2
ATOM      2  C   UNL     1     128.615 144.707 138.648  1.00  0.00     0.003 C 
BRANCH   2   3
ATOM      3  C   UNL     1     129.393 146.034 138.841  1.00  0.00    -0.014 C 
ATOM      4  C   UNL     1     129.459 146.431 140.328  1.00  0.00     0.007 C 
BRANCH   3   5
ATOM      5  C   UNL     1     130.815 145.892 138.243  1.00  0.00     0.003 C 
BRANCH   5   6
ATOM      6  C   UNL     1     131.877 146.669 139.044  1.00  0.00     0.001 C 
BRANCH   6   7
ATOM      7  C   UNL     1     133.071 145.793 139.468  1.00  0.00     0.003 C 
BRANCH   7   8
ATOM      8  C   UNL     1     132.824 144.267 139.411  1.00  0.00    -0.017 C 
ATOM      9  C   UNL     1     132.622 143.721 140.831  1.00  0.00     0.007 C 
ATOM     10  C   UNL     1     133.977 143.516 138.725  1.00  0.00     0.007 C 
ENDBRANCH   7   8
ENDBRANCH   6   7
ENDBRANCH   5   6
ENDBRANCH   3   5
ENDBRANCH   2   3
ENDBRANCH   1   2
BRANCH   1  11
ATOM     11  C   UNL     1     129.225 142.215 138.780  1.00  0.00     0.003 C 
BRANCH  11  12
ATOM     12  C   UNL     1     130.392 141.347 139.315  1.00  0.00    -0.014 C 
ATOM     13  C   UNL     1     129.816 140.145 140.079  1.00  0.00     0.007 C 
BRANCH  12  14
ATOM     14  C   UNL     1     131.342 140.855 138.184  1.00  0.00     0.004 C 
BRANCH  14  15
ATOM     15  C   UNL     1     131.282 141.721 136.906  1.00  0.00     0.008 C 
BRANCH  15  16
ATOM     16  C   UNL     1     131.142 140.896 135.616  1.00  0.00     0.075 C 
BRANCH  16  17
ATOM     17  C   UNL     1     132.435 140.241 135.208  1.00  0.00     0.129 C 
ATOM     18  O   UNL     1     133.397 140.937 134.921  1.00  0.00    -0.300 OA
ATOM     19  C   UNL     1     132.563 138.749 135.120  1.00  0.00     0.087 C 
ENDBRANCH  16  17
ENDBRANCH  15  16
ENDBRANCH  14  15
ENDBRANCH  12  14
ENDBRANCH  11  12
ENDBRANCH   1  11
TORSDOF 12
ENDMDL
