MODEL 1
REMARK VINA RESULT:    -6.834      0.000      0.000
REMARK INTER + INTRA:          -8.548
REMARK INTER:                  -8.232
REMARK INTRA:                  -0.316
REMARK UNBOUND:                -0.316
REMARK SMILES O=c1c(O)c(-c2ccc(O)c(O)c2)oc2cc(O)cc(O)c12
REMARK SMILES IDX 5 1 3 2 2 3 1 4 22 5 20 6 19 7 17 8 16 9 15 10 14 11 6 12
REMARK SMILES IDX 7 13 8 14 9 15 13 16 11 17 10 18 12 20 4 22 21 24 18 26
REMARK H PARENT 10 19 12 21 4 23 21 25 18 27
REMARK Flexibility Score: inf
ROOT
ATOM      1  C   UNL     1     -24.523  81.758 -18.951  1.00  0.00     0.180 A 
ATOM      2  C   UNL     1     -25.579  81.276 -19.742  1.00  0.00     0.208 A 
ATOM      3  C   UNL     1     -26.098  82.095 -20.760  1.00  0.00     0.238 A 
ATOM      4  O   UNL     1     -27.006  81.637 -21.501  1.00  0.00    -0.285 OA
ATOM      5  C   UNL     1     -25.564  83.391 -20.961  1.00  0.00     0.111 A 
ATOM      6  C   UNL     1     -26.039  84.321 -21.934  1.00  0.00     0.134 A 
ATOM      7  C   UNL     1     -25.352  85.524 -22.133  1.00  0.00     0.093 A 
ATOM      8  C   UNL     1     -24.246  85.860 -21.348  1.00  0.00     0.123 A 
ATOM      9  C   UNL     1     -23.811  84.985 -20.355  1.00  0.00     0.094 A 
ATOM     10  C   UNL     1     -24.454  83.761 -20.157  1.00  0.00     0.146 A 
ATOM     11  O   UNL     1     -24.001  82.952 -19.207  1.00  0.00    -0.452 OA
ENDROOT
BRANCH   1  12
ATOM     12  C   UNL     1     -23.941  80.964 -17.844  1.00  0.00     0.025 A 
ATOM     13  C   UNL     1     -22.724  80.292 -18.042  1.00  0.00     0.016 A 
ATOM     14  C   UNL     1     -22.147  79.554 -17.006  1.00  0.00     0.051 A 
ATOM     15  C   UNL     1     -22.771  79.490 -15.753  1.00  0.00     0.157 A 
ATOM     16  C   UNL     1     -24.553  80.914 -16.579  1.00  0.00     0.062 A 
ATOM     17  C   UNL     1     -23.973  80.174 -15.538  1.00  0.00     0.158 A 
BRANCH  15  18
ATOM     18  O   UNL     1     -22.199  78.754 -14.717  1.00  0.00    -0.504 OA
ATOM     19  H   UNL     1     -22.356  77.756 -14.626  1.00  0.00     0.293 HD
ENDBRANCH  15  18
BRANCH  17  20
ATOM     20  O   UNL     1     -24.583  80.121 -14.286  1.00  0.00    -0.504 OA
ATOM     21  H   UNL     1     -24.249  79.500 -13.558  1.00  0.00     0.293 HD
ENDBRANCH  17  20
ENDBRANCH   1  12
BRANCH   2  22
ATOM     22  O   UNL     1     -26.076  79.985 -19.542  1.00  0.00    -0.502 OA
ATOM     23  H   UNL     1     -25.654  79.336 -18.889  1.00  0.00     0.293 HD
ENDBRANCH   2  22
BRANCH   6  24
ATOM     24  O   UNL     1     -27.187  84.123 -22.706  1.00  0.00    -0.507 OA
ATOM     25  H   UNL     1     -28.003  84.715 -22.686  1.00  0.00     0.293 HD
ENDBRANCH   6  24
BRANCH   8  26
ATOM     26  O   UNL     1     -23.576  87.067 -21.541  1.00  0.00    -0.508 OA
ATOM     27  H   UNL     1     -22.566  87.108 -21.598  1.00  0.00     0.293 HD
ENDBRANCH   8  26
TORSDOF 6
ENDMDL
MODEL 2
REMARK VINA RESULT:    -6.806      9.868     12.845
REMARK INTER + INTRA:          -8.515
REMARK INTER:                  -8.180
REMARK INTRA:                  -0.335
REMARK UNBOUND:                -0.316
REMARK SMILES O=c1c(O)c(-c2ccc(O)c(O)c2)oc2cc(O)cc(O)c12
REMARK SMILES IDX 5 1 3 2 2 3 1 4 22 5 20 6 19 7 17 8 16 9 15 10 14 11 6 12
REMARK SMILES IDX 7 13 8 14 9 15 13 16 11 17 10 18 12 20 4 22 21 24 18 26
REMARK H PARENT 10 19 12 21 4 23 21 25 18 27
REMARK Flexibility Score: inf
ROOT
ATOM      1  C   UNL     1     -24.972  92.145 -13.828  1.00  0.00     0.180 A 
ATOM      2  C   UNL     1     -26.165  92.428 -13.140  1.00  0.00     0.208 A 
ATOM      3  C   UNL     1     -26.615  91.531 -12.158  1.00  0.00     0.238 A 
ATOM      4  O   UNL     1     -27.653  91.817 -11.507  1.00  0.00    -0.285 OA
ATOM      5  C   UNL     1     -25.875  90.353 -11.888  1.00  0.00     0.111 A 
ATOM      6  C   UNL     1     -26.259  89.354 -10.944  1.00  0.00     0.134 A 
ATOM      7  C   UNL     1     -25.385  88.296 -10.665  1.00  0.00     0.093 A 
ATOM      8  C   UNL     1     -24.172  88.165 -11.344  1.00  0.00     0.123 A 
ATOM      9  C   UNL     1     -23.816  89.104 -12.311  1.00  0.00     0.094 A 
ATOM     10  C   UNL     1     -24.650  90.190 -12.585  1.00  0.00     0.146 A 
ATOM     11  O   UNL     1     -24.268  91.066 -13.506  1.00  0.00    -0.452 OA
ENDROOT
BRANCH   1  12
ATOM     12  C   UNL     1     -24.448  93.030 -14.894  1.00  0.00     0.025 A 
ATOM     13  C   UNL     1     -23.514  94.026 -14.567  1.00  0.00     0.016 A 
ATOM     14  C   UNL     1     -22.991  94.858 -15.559  1.00  0.00     0.051 A 
ATOM     15  C   UNL     1     -23.383  94.697 -16.895  1.00  0.00     0.157 A 
ATOM     16  C   UNL     1     -24.823  92.858 -16.238  1.00  0.00     0.062 A 
ATOM     17  C   UNL     1     -24.296  93.693 -17.235  1.00  0.00     0.158 A 
BRANCH  15  18
ATOM     18  O   UNL     1     -22.864  95.526 -17.887  1.00  0.00    -0.504 OA
ATOM     19  H   UNL     1     -23.463  96.124 -18.445  1.00  0.00     0.293 HD
ENDBRANCH  15  18
BRANCH  17  20
ATOM     20  O   UNL     1     -24.673  93.524 -18.567  1.00  0.00    -0.504 OA
ATOM     21  H   UNL     1     -23.986  93.454 -19.308  1.00  0.00     0.293 HD
ENDBRANCH  17  20
ENDBRANCH   1  12
BRANCH   2  22
ATOM     22  O   UNL     1     -26.867  93.607 -13.406  1.00  0.00    -0.502 OA
ATOM     23  H   UNL     1     -26.796  94.427 -12.816  1.00  0.00     0.293 HD
ENDBRANCH   2  22
BRANCH   6  24
ATOM     24  O   UNL     1     -27.488  89.341 -10.278  1.00  0.00    -0.507 OA
ATOM     25  H   UNL     1     -28.293  88.806 -10.567  1.00  0.00     0.293 HD
ENDBRANCH   6  24
BRANCH   8  26
ATOM     26  O   UNL     1     -23.315  87.101 -11.072  1.00  0.00    -0.508 OA
ATOM     27  H   UNL     1     -22.998  86.905 -10.130  1.00  0.00     0.293 HD
ENDBRANCH   8  26
TORSDOF 6
ENDMDL
MODEL 3
REMARK VINA RESULT:    -6.754      2.023      7.064
REMARK INTER + INTRA:          -8.453
REMARK INTER:                  -8.174
REMARK INTRA:                  -0.278
REMARK UNBOUND:                -0.316
REMARK SMILES O=c1c(O)c(-c2ccc(O)c(O)c2)oc2cc(O)cc(O)c12
REMARK SMILES IDX 5 1 3 2 2 3 1 4 22 5 20 6 19 7 17 8 16 9 15 10 14 11 6 12
REMARK SMILES IDX 7 13 8 14 9 15 13 16 11 17 10 18 12 20 4 22 21 24 18 26
REMARK H PARENT 10 19 12 21 4 23 21 25 18 27
REMARK Flexibility Score: inf
ROOT
ATOM      1  C   UNL     1     -25.418  83.571 -19.883  1.00  0.00     0.180 A 
ATOM      2  C   UNL     1     -26.259  84.056 -18.867  1.00  0.00     0.208 A 
ATOM      3  C   UNL     1     -26.374  83.327 -17.672  1.00  0.00     0.238 A 
ATOM      4  O   UNL     1     -27.085  83.795 -16.744  1.00  0.00    -0.285 OA
ATOM      5  C   UNL     1     -25.661  82.114 -17.515  1.00  0.00     0.111 A 
ATOM      6  C   UNL     1     -25.734  81.273 -16.364  1.00  0.00     0.134 A 
ATOM      7  C   UNL     1     -24.886  80.164 -16.263  1.00  0.00     0.093 A 
ATOM      8  C   UNL     1     -24.013  79.828 -17.301  1.00  0.00     0.123 A 
ATOM      9  C   UNL     1     -23.977  80.610 -18.454  1.00  0.00     0.094 A 
ATOM     10  C   UNL     1     -24.786  81.743 -18.569  1.00  0.00     0.146 A 
ATOM     11  O   UNL     1     -24.712  82.464 -19.680  1.00  0.00    -0.452 OA
ENDROOT
BRANCH   1  12
ATOM     12  C   UNL     1     -25.264  84.270 -21.180  1.00  0.00     0.025 A 
ATOM     13  C   UNL     1     -25.976  83.812 -22.300  1.00  0.00     0.016 A 
ATOM     14  C   UNL     1     -25.861  84.468 -23.527  1.00  0.00     0.051 A 
ATOM     15  C   UNL     1     -25.046  85.601 -23.649  1.00  0.00     0.157 A 
ATOM     16  C   UNL     1     -24.463  85.419 -21.301  1.00  0.00     0.062 A 
ATOM     17  C   UNL     1     -24.349  86.080 -22.533  1.00  0.00     0.158 A 
BRANCH  15  18
ATOM     18  O   UNL     1     -24.929  86.258 -24.872  1.00  0.00    -0.504 OA
ATOM     19  H   UNL     1     -25.743  86.495 -25.428  1.00  0.00     0.293 HD
ENDBRANCH  15  18
BRANCH  17  20
ATOM     20  O   UNL     1     -23.551  87.216 -22.653  1.00  0.00    -0.504 OA
ATOM     21  H   UNL     1     -23.225  87.724 -21.840  1.00  0.00     0.293 HD
ENDBRANCH  17  20
ENDBRANCH   1  12
BRANCH   2  22
ATOM     22  O   UNL     1     -26.936  85.268 -19.033  1.00  0.00    -0.502 OA
ATOM     23  H   UNL     1     -27.756  85.356 -19.621  1.00  0.00     0.293 HD
ENDBRANCH   2  22
BRANCH   6  24
ATOM     24  O   UNL     1     -26.636  81.468 -15.313  1.00  0.00    -0.507 OA
ATOM     25  H   UNL     1     -27.618  81.668 -15.427  1.00  0.00     0.293 HD
ENDBRANCH   6  24
BRANCH   8  26
ATOM     26  O   UNL     1     -23.183  78.714 -17.199  1.00  0.00    -0.508 OA
ATOM     27  H   UNL     1     -22.180  78.790 -17.317  1.00  0.00     0.293 HD
ENDBRANCH   8  26
TORSDOF 6
ENDMDL
MODEL 4
REMARK VINA RESULT:    -6.753      2.105      7.443
REMARK INTER + INTRA:          -8.451
REMARK INTER:                  -8.146
REMARK INTRA:                  -0.305
REMARK UNBOUND:                -0.316
REMARK SMILES O=c1c(O)c(-c2ccc(O)c(O)c2)oc2cc(O)cc(O)c12
REMARK SMILES IDX 5 1 3 2 2 3 1 4 22 5 20 6 19 7 17 8 16 9 15 10 14 11 6 12
REMARK SMILES IDX 7 13 8 14 9 15 13 16 11 17 10 18 12 20 4 22 21 24 18 26
REMARK H PARENT 10 19 12 21 4 23 21 25 18 27
REMARK Flexibility Score: inf
ROOT
ATOM      1  C   UNL     1     -23.231  80.674 -17.802  1.00  0.00     0.180 A 
ATOM      2  C   UNL     1     -23.610  80.514 -16.458  1.00  0.00     0.208 A 
ATOM      3  C   UNL     1     -22.907  79.600 -15.656  1.00  0.00     0.238 A 
ATOM      4  O   UNL     1     -23.215  79.502 -14.440  1.00  0.00    -0.285 OA
ATOM      5  C   UNL     1     -21.845  78.847 -16.212  1.00  0.00     0.111 A 
ATOM      6  C   UNL     1     -21.090  77.864 -15.503  1.00  0.00     0.134 A 
ATOM      7  C   UNL     1     -19.978  77.274 -16.114  1.00  0.00     0.093 A 
ATOM      8  C   UNL     1     -19.632  77.582 -17.432  1.00  0.00     0.123 A 
ATOM      9  C   UNL     1     -20.398  78.497 -18.152  1.00  0.00     0.094 A 
ATOM     10  C   UNL     1     -21.492  79.129 -17.557  1.00  0.00     0.146 A 
ATOM     11  O   UNL     1     -22.188  80.001 -18.276  1.00  0.00    -0.452 OA
ENDROOT
BRANCH   1  12
ATOM     12  C   UNL     1     -23.940  81.599 -18.717  1.00  0.00     0.025 A 
ATOM     13  C   UNL     1     -25.140  81.189 -19.319  1.00  0.00     0.016 A 
ATOM     14  C   UNL     1     -25.836  82.052 -20.168  1.00  0.00     0.051 A 
ATOM     15  C   UNL     1     -25.349  83.342 -20.416  1.00  0.00     0.157 A 
ATOM     16  C   UNL     1     -23.466  82.901 -18.952  1.00  0.00     0.062 A 
ATOM     17  C   UNL     1     -24.165  83.769 -19.804  1.00  0.00     0.158 A 
BRANCH  15  18
ATOM     18  O   UNL     1     -26.040  84.206 -21.264  1.00  0.00    -0.504 OA
ATOM     19  H   UNL     1     -26.243  85.163 -20.997  1.00  0.00     0.293 HD
ENDBRANCH  15  18
BRANCH  17  20
ATOM     20  O   UNL     1     -23.692  85.058 -20.041  1.00  0.00    -0.504 OA
ATOM     21  H   UNL     1     -24.311  85.860 -20.040  1.00  0.00     0.293 HD
ENDBRANCH  17  20
ENDBRANCH   1  12
BRANCH   2  22
ATOM     22  O   UNL     1     -24.647  81.285 -15.924  1.00  0.00    -0.502 OA
ATOM     23  H   UNL     1     -25.621  81.026 -16.019  1.00  0.00     0.293 HD
ENDBRANCH   2  22
BRANCH   6  24
ATOM     24  O   UNL     1     -21.407  77.417 -14.216  1.00  0.00    -0.507 OA
ATOM     25  H   UNL     1     -20.786  77.464 -13.423  1.00  0.00     0.293 HD
ENDBRANCH   6  24
BRANCH   8  26
ATOM     26  O   UNL     1     -18.532  76.979 -18.038  1.00  0.00    -0.508 OA
ATOM     27  H   UNL     1     -18.133  77.345 -18.894  1.00  0.00     0.293 HD
ENDBRANCH   8  26
TORSDOF 6
ENDMDL
MODEL 5
REMARK VINA RESULT:    -6.734      2.101      2.433
REMARK INTER + INTRA:          -8.428
REMARK INTER:                  -8.158
REMARK INTRA:                  -0.269
REMARK UNBOUND:                -0.316
REMARK SMILES O=c1c(O)c(-c2ccc(O)c(O)c2)oc2cc(O)cc(O)c12
REMARK SMILES IDX 5 1 3 2 2 3 1 4 22 5 20 6 19 7 17 8 16 9 15 10 14 11 6 12
REMARK SMILES IDX 7 13 8 14 9 15 13 16 11 17 10 18 12 20 4 22 21 24 18 26
REMARK H PARENT 10 19 12 21 4 23 21 25 18 27
REMARK Flexibility Score: inf
ROOT
ATOM      1  C   UNL     1     -25.087  83.171 -19.413  1.00  0.00     0.180 A 
ATOM      2  C   UNL     1     -25.703  82.986 -20.662  1.00  0.00     0.208 A 
ATOM      3  C   UNL     1     -26.374  84.067 -21.258  1.00  0.00     0.238 A 
ATOM      4  O   UNL     1     -26.877  83.912 -22.401  1.00  0.00    -0.285 OA
ATOM      5  C   UNL     1     -26.434  85.314 -20.589  1.00  0.00     0.111 A 
ATOM      6  C   UNL     1     -27.121  86.465 -21.079  1.00  0.00     0.134 A 
ATOM      7  C   UNL     1     -27.004  87.682 -20.397  1.00  0.00     0.093 A 
ATOM      8  C   UNL     1     -26.280  87.774 -19.206  1.00  0.00     0.123 A 
ATOM      9  C   UNL     1     -25.654  86.641 -18.688  1.00  0.00     0.094 A 
ATOM     10  C   UNL     1     -25.723  85.422 -19.365  1.00  0.00     0.146 A 
ATOM     11  O   UNL     1     -25.105  84.370 -18.841  1.00  0.00    -0.452 OA
ENDROOT
BRANCH   1  12
ATOM     12  C   UNL     1     -24.383  82.073 -18.711  1.00  0.00     0.025 A 
ATOM     13  C   UNL     1     -22.983  82.105 -18.607  1.00  0.00     0.016 A 
ATOM     14  C   UNL     1     -22.301  81.091 -17.933  1.00  0.00     0.051 A 
ATOM     15  C   UNL     1     -23.009  80.038 -17.338  1.00  0.00     0.157 A 
ATOM     16  C   UNL     1     -25.091  81.026 -18.096  1.00  0.00     0.062 A 
ATOM     17  C   UNL     1     -24.406  80.008 -17.416  1.00  0.00     0.158 A 
BRANCH  15  18
ATOM     18  O   UNL     1     -22.331  79.023 -16.665  1.00  0.00    -0.504 OA
ATOM     19  H   UNL     1     -21.740  79.220 -15.866  1.00  0.00     0.293 HD
ENDBRANCH  15  18
BRANCH  17  20
ATOM     20  O   UNL     1     -25.108  78.967 -16.811  1.00  0.00    -0.504 OA
ATOM     21  H   UNL     1     -25.675  78.324 -17.352  1.00  0.00     0.293 HD
ENDBRANCH  17  20
ENDBRANCH   1  12
BRANCH   2  22
ATOM     22  O   UNL     1     -25.612  81.754 -21.315  1.00  0.00    -0.502 OA
ATOM     23  H   UNL     1     -24.725  81.342 -21.578  1.00  0.00     0.293 HD
ENDBRANCH   2  22
BRANCH   6  24
ATOM     24  O   UNL     1     -27.946  86.458 -22.208  1.00  0.00    -0.507 OA
ATOM     25  H   UNL     1     -28.789  85.913 -22.301  1.00  0.00     0.293 HD
ENDBRANCH   6  24
BRANCH   8  26
ATOM     26  O   UNL     1     -26.181  88.985 -18.525  1.00  0.00    -0.508 OA
ATOM     27  H   UNL     1     -25.886  89.025 -17.557  1.00  0.00     0.293 HD
ENDBRANCH   8  26
TORSDOF 6
ENDMDL
MODEL 6
REMARK VINA RESULT:    -6.701     10.031     12.801
REMARK INTER + INTRA:          -8.389
REMARK INTER:                  -8.105
REMARK INTRA:                  -0.284
REMARK UNBOUND:                -0.316
REMARK SMILES O=c1c(O)c(-c2ccc(O)c(O)c2)oc2cc(O)cc(O)c12
REMARK SMILES IDX 5 1 3 2 2 3 1 4 22 5 20 6 19 7 17 8 16 9 15 10 14 11 6 12
REMARK SMILES IDX 7 13 8 14 9 15 13 16 11 17 10 18 12 20 4 22 21 24 18 26
REMARK H PARENT 10 19 12 21 4 23 21 25 18 27
REMARK Flexibility Score: inf
ROOT
ATOM      1  C   UNL     1     -24.967  91.749 -13.515  1.00  0.00     0.180 A 
ATOM      2  C   UNL     1     -26.197  91.985 -12.876  1.00  0.00     0.208 A 
ATOM      3  C   UNL     1     -26.647  91.074 -11.906  1.00  0.00     0.238 A 
ATOM      4  O   UNL     1     -27.721  91.321 -11.298  1.00  0.00    -0.285 OA
ATOM      5  C   UNL     1     -25.871  89.930 -11.600  1.00  0.00     0.111 A 
ATOM      6  C   UNL     1     -26.249  88.920 -10.665  1.00  0.00     0.134 A 
ATOM      7  C   UNL     1     -25.345  87.901 -10.346  1.00  0.00     0.093 A 
ATOM      8  C   UNL     1     -24.102  87.817 -10.977  1.00  0.00     0.123 A 
ATOM      9  C   UNL     1     -23.747  88.765 -11.935  1.00  0.00     0.094 A 
ATOM     10  C   UNL     1     -24.614  89.815 -12.248  1.00  0.00     0.146 A 
ATOM     11  O   UNL     1     -24.232  90.701 -13.159  1.00  0.00    -0.452 OA
ENDROOT
BRANCH   1  12
ATOM     12  C   UNL     1     -24.438  92.650 -14.565  1.00  0.00     0.025 A 
ATOM     13  C   UNL     1     -24.980  92.594 -15.859  1.00  0.00     0.016 A 
ATOM     14  C   UNL     1     -24.510  93.448 -16.859  1.00  0.00     0.051 A 
ATOM     15  C   UNL     1     -23.504  94.381 -16.576  1.00  0.00     0.157 A 
ATOM     16  C   UNL     1     -23.443  93.601 -14.279  1.00  0.00     0.062 A 
ATOM     17  C   UNL     1     -22.973  94.460 -15.283  1.00  0.00     0.158 A 
BRANCH  15  18
ATOM     18  O   UNL     1     -23.032  95.235 -17.571  1.00  0.00    -0.504 OA
ATOM     19  H   UNL     1     -22.766  94.887 -18.486  1.00  0.00     0.293 HD
ENDBRANCH  15  18
BRANCH  17  20
ATOM     20  O   UNL     1     -21.982  95.400 -15.000  1.00  0.00    -0.504 OA
ATOM     21  H   UNL     1     -21.494  95.405 -14.113  1.00  0.00     0.293 HD
ENDBRANCH  17  20
ENDBRANCH   1  12
BRANCH   2  22
ATOM     22  O   UNL     1     -26.935  93.133 -13.176  1.00  0.00    -0.502 OA
ATOM     23  H   UNL     1     -27.639  93.152 -13.905  1.00  0.00     0.293 HD
ENDBRANCH   2  22
BRANCH   6  24
ATOM     24  O   UNL     1     -27.502  88.860 -10.048  1.00  0.00    -0.507 OA
ATOM     25  H   UNL     1     -28.343  89.283 -10.411  1.00  0.00     0.293 HD
ENDBRANCH   6  24
BRANCH   8  26
ATOM     26  O   UNL     1     -23.213  86.791 -10.664  1.00  0.00    -0.508 OA
ATOM     27  H   UNL     1     -22.274  86.985 -10.336  1.00  0.00     0.293 HD
ENDBRANCH   8  26
TORSDOF 6
ENDMDL
MODEL 7
REMARK VINA RESULT:    -6.587      1.519      6.903
REMARK INTER + INTRA:          -8.251
REMARK INTER:                  -7.967
REMARK INTRA:                  -0.284
REMARK UNBOUND:                -0.316
REMARK SMILES O=c1c(O)c(-c2ccc(O)c(O)c2)oc2cc(O)cc(O)c12
REMARK SMILES IDX 5 1 3 2 2 3 1 4 22 5 20 6 19 7 17 8 16 9 15 10 14 11 6 12
REMARK SMILES IDX 7 13 8 14 9 15 13 16 11 17 10 18 12 20 4 22 21 24 18 26
REMARK H PARENT 10 19 12 21 4 23 21 25 18 27
REMARK Flexibility Score: inf
ROOT
ATOM      1  C   UNL     1     -24.736  82.423 -18.988  1.00  0.00     0.180 A 
ATOM      2  C   UNL     1     -25.650  82.301 -17.927  1.00  0.00     0.208 A 
ATOM      3  C   UNL     1     -25.407  81.348 -16.924  1.00  0.00     0.238 A 
ATOM      4  O   UNL     1     -26.199  81.282 -15.948  1.00  0.00    -0.285 OA
ATOM      5  C   UNL     1     -24.262  80.519 -17.003  1.00  0.00     0.111 A 
ATOM      6  C   UNL     1     -23.938  79.493 -16.065  1.00  0.00     0.134 A 
ATOM      7  C   UNL     1     -22.714  78.822 -16.171  1.00  0.00     0.093 A 
ATOM      8  C   UNL     1     -21.831  79.094 -17.218  1.00  0.00     0.123 A 
ATOM      9  C   UNL     1     -22.165  80.053 -18.173  1.00  0.00     0.094 A 
ATOM     10  C   UNL     1     -23.364  80.764 -18.074  1.00  0.00     0.146 A 
ATOM     11  O   UNL     1     -23.638  81.675 -18.999  1.00  0.00    -0.452 OA
ENDROOT
BRANCH   1  12
ATOM     12  C   UNL     1     -24.937  83.386 -20.095  1.00  0.00     0.025 A 
ATOM     13  C   UNL     1     -25.873  83.097 -21.100  1.00  0.00     0.016 A 
ATOM     14  C   UNL     1     -26.094  84.000 -22.142  1.00  0.00     0.051 A 
ATOM     15  C   UNL     1     -25.393  85.212 -22.186  1.00  0.00     0.157 A 
ATOM     16  C   UNL     1     -24.251  84.613 -20.131  1.00  0.00     0.062 A 
ATOM     17  C   UNL     1     -24.473  85.521 -21.177  1.00  0.00     0.158 A 
BRANCH  15  18
ATOM     18  O   UNL     1     -25.609  86.116 -23.225  1.00  0.00    -0.504 OA
ATOM     19  H   UNL     1     -25.233  85.957 -24.153  1.00  0.00     0.293 HD
ENDBRANCH  15  18
BRANCH  17  20
ATOM     20  O   UNL     1     -23.788  86.734 -21.214  1.00  0.00    -0.504 OA
ATOM     21  H   UNL     1     -22.845  86.823 -20.857  1.00  0.00     0.293 HD
ENDBRANCH  17  20
ENDBRANCH   1  12
BRANCH   2  22
ATOM     22  O   UNL     1     -26.761  83.145 -17.856  1.00  0.00    -0.502 OA
ATOM     23  H   UNL     1     -26.676  84.151 -17.770  1.00  0.00     0.293 HD
ENDBRANCH   2  22
BRANCH   6  24
ATOM     24  O   UNL     1     -24.790  79.080 -15.037  1.00  0.00    -0.507 OA
ATOM     25  H   UNL     1     -25.687  78.640 -15.174  1.00  0.00     0.293 HD
ENDBRANCH   6  24
BRANCH   8  26
ATOM     26  O   UNL     1     -20.621  78.411 -17.325  1.00  0.00    -0.508 OA
ATOM     27  H   UNL     1     -20.318  77.757 -16.613  1.00  0.00     0.293 HD
ENDBRANCH   8  26
TORSDOF 6
ENDMDL
MODEL 8
REMARK VINA RESULT:    -6.574      9.899     10.757
REMARK INTER + INTRA:          -8.235
REMARK INTER:                  -7.967
REMARK INTRA:                  -0.268
REMARK UNBOUND:                -0.316
REMARK SMILES O=c1c(O)c(-c2ccc(O)c(O)c2)oc2cc(O)cc(O)c12
REMARK SMILES IDX 5 1 3 2 2 3 1 4 22 5 20 6 19 7 17 8 16 9 15 10 14 11 6 12
REMARK SMILES IDX 7 13 8 14 9 15 13 16 11 17 10 18 12 20 4 22 21 24 18 26
REMARK H PARENT 10 19 12 21 4 23 21 25 18 27
REMARK Flexibility Score: inf
ROOT
ATOM      1  C   UNL     1     -25.064  90.781 -12.940  1.00  0.00     0.180 A 
ATOM      2  C   UNL     1     -26.213  90.603 -13.731  1.00  0.00     0.208 A 
ATOM      3  C   UNL     1     -26.432  91.465 -14.818  1.00  0.00     0.238 A 
ATOM      4  O   UNL     1     -27.432  91.266 -15.556  1.00  0.00    -0.285 OA
ATOM      5  C   UNL     1     -25.509  92.504 -15.091  1.00  0.00     0.111 A 
ATOM      6  C   UNL     1     -25.652  93.460 -16.140  1.00  0.00     0.134 A 
ATOM      7  C   UNL     1     -24.613  94.363 -16.399  1.00  0.00     0.093 A 
ATOM      8  C   UNL     1     -23.466  94.387 -15.603  1.00  0.00     0.123 A 
ATOM      9  C   UNL     1     -23.343  93.496 -14.538  1.00  0.00     0.094 A 
ATOM     10  C   UNL     1     -24.346  92.560 -14.278  1.00  0.00     0.146 A 
ATOM     11  O   UNL     1     -24.184  91.723 -13.261  1.00  0.00    -0.452 OA
ENDROOT
BRANCH   1  12
ATOM     12  C   UNL     1     -24.778  89.929 -11.763  1.00  0.00     0.025 A 
ATOM     13  C   UNL     1     -25.506  90.121 -10.578  1.00  0.00     0.016 A 
ATOM     14  C   UNL     1     -25.266  89.315  -9.463  1.00  0.00     0.051 A 
ATOM     15  C   UNL     1     -24.307  88.297  -9.521  1.00  0.00     0.157 A 
ATOM     16  C   UNL     1     -23.830  88.892 -11.824  1.00  0.00     0.062 A 
ATOM     17  C   UNL     1     -23.591  88.082 -10.704  1.00  0.00     0.158 A 
BRANCH  15  18
ATOM     18  O   UNL     1     -24.064  87.491  -8.409  1.00  0.00    -0.504 OA
ATOM     19  H   UNL     1     -23.236  86.910  -8.346  1.00  0.00     0.293 HD
ENDBRANCH  15  18
BRANCH  17  20
ATOM     20  O   UNL     1     -22.647  87.058 -10.764  1.00  0.00    -0.504 OA
ATOM     21  H   UNL     1     -21.681  87.209 -10.497  1.00  0.00     0.293 HD
ENDBRANCH  17  20
ENDBRANCH   1  12
BRANCH   2  22
ATOM     22  O   UNL     1     -27.098  89.557 -13.458  1.00  0.00    -0.502 OA
ATOM     23  H   UNL     1     -27.046  88.662 -13.931  1.00  0.00     0.293 HD
ENDBRANCH   2  22
BRANCH   6  24
ATOM     24  O   UNL     1     -26.796  93.581 -16.934  1.00  0.00    -0.507 OA
ATOM     25  H   UNL     1     -27.037  94.397 -17.476  1.00  0.00     0.293 HD
ENDBRANCH   6  24
BRANCH   8  26
ATOM     26  O   UNL     1     -22.443  95.299 -15.857  1.00  0.00    -0.508 OA
ATOM     27  H   UNL     1     -22.236  96.054 -15.215  1.00  0.00     0.293 HD
ENDBRANCH   8  26
TORSDOF 6
ENDMDL
MODEL 9
REMARK VINA RESULT:    -6.564      9.942     11.305
REMARK INTER + INTRA:          -8.223
REMARK INTER:                  -7.912
REMARK INTRA:                  -0.311
REMARK UNBOUND:                -0.316
REMARK SMILES O=c1c(O)c(-c2ccc(O)c(O)c2)oc2cc(O)cc(O)c12
REMARK SMILES IDX 5 1 3 2 2 3 1 4 22 5 20 6 19 7 17 8 16 9 15 10 14 11 6 12
REMARK SMILES IDX 7 13 8 14 9 15 13 16 11 17 10 18 12 20 4 22 21 24 18 26
REMARK H PARENT 10 19 12 21 4 23 21 25 18 27
REMARK Flexibility Score: inf
ROOT
ATOM      1  C   UNL     1     -24.475  91.430 -13.441  1.00  0.00     0.180 A 
ATOM      2  C   UNL     1     -25.423  91.579 -14.468  1.00  0.00     0.208 A 
ATOM      3  C   UNL     1     -25.271  92.629 -15.389  1.00  0.00     0.238 A 
ATOM      4  O   UNL     1     -26.091  92.724 -16.339  1.00  0.00    -0.285 OA
ATOM      5  C   UNL     1     -24.183  93.526 -15.261  1.00  0.00     0.111 A 
ATOM      6  C   UNL     1     -23.953  94.648 -16.111  1.00  0.00     0.134 A 
ATOM      7  C   UNL     1     -22.774  95.391 -15.972  1.00  0.00     0.093 A 
ATOM      8  C   UNL     1     -21.849  95.092 -14.970  1.00  0.00     0.123 A 
ATOM      9  C   UNL     1     -22.092  94.034 -14.096  1.00  0.00     0.094 A 
ATOM     10  C   UNL     1     -23.242  93.253 -14.233  1.00  0.00     0.146 A 
ATOM     11  O   UNL     1     -23.430  92.248 -13.386  1.00  0.00    -0.452 OA
ENDROOT
BRANCH   1  12
ATOM     12  C   UNL     1     -24.583  90.364 -12.418  1.00  0.00     0.025 A 
ATOM     13  C   UNL     1     -23.768  89.225 -12.520  1.00  0.00     0.016 A 
ATOM     14  C   UNL     1     -23.838  88.217 -11.556  1.00  0.00     0.051 A 
ATOM     15  C   UNL     1     -24.712  88.340 -10.468  1.00  0.00     0.157 A 
ATOM     16  C   UNL     1     -25.444  90.493 -11.314  1.00  0.00     0.062 A 
ATOM     17  C   UNL     1     -25.513  89.481 -10.345  1.00  0.00     0.158 A 
BRANCH  15  18
ATOM     18  O   UNL     1     -24.785  87.336  -9.505  1.00  0.00    -0.504 OA
ATOM     19  H   UNL     1     -24.153  87.312  -8.713  1.00  0.00     0.293 HD
ENDBRANCH  15  18
BRANCH  17  20
ATOM     20  O   UNL     1     -26.371  89.608  -9.253  1.00  0.00    -0.504 OA
ATOM     21  H   UNL     1     -27.251  89.109  -9.209  1.00  0.00     0.293 HD
ENDBRANCH  17  20
ENDBRANCH   1  12
BRANCH   2  22
ATOM     22  O   UNL     1     -26.476  90.669 -14.590  1.00  0.00    -0.502 OA
ATOM     23  H   UNL     1     -26.916  90.461 -15.478  1.00  0.00     0.293 HD
ENDBRANCH   2  22
BRANCH   6  24
ATOM     24  O   UNL     1     -24.857  95.088 -17.083  1.00  0.00    -0.507 OA
ATOM     25  H   UNL     1     -24.695  95.051 -18.078  1.00  0.00     0.293 HD
ENDBRANCH   6  24
BRANCH   8  26
ATOM     26  O   UNL     1     -20.685  95.845 -14.829  1.00  0.00    -0.508 OA
ATOM     27  H   UNL     1     -20.264  96.003 -13.921  1.00  0.00     0.293 HD
ENDBRANCH   8  26
TORSDOF 6
ENDMDL
