MODEL 1
REMARK VINA RESULT:    -7.346      0.000      0.000
REMARK INTER + INTRA:         -11.693
REMARK INTER:                 -10.353
REMARK INTRA:                  -1.340
REMARK UNBOUND:                -1.340
REMARK SMILES COc1c(O[C@H]2O[C@H](C(=O)[O-])[C@H](O)[C@H](O)[C@H]2O)cc(O)c2c(=O)cc(-c3ccccc3)oc12
REMARK SMILES IDX 5 1 6 2 8 3 12 4 7 5 14 6 16 7 9 8 10 9 11 10 13 11 15 13
REMARK SMILES IDX 17 15 4 17 3 18 18 19 33 20 19 21 21 22 32 23 22 24 25 25
REMARK SMILES IDX 24 26 23 27 2 28 1 29 20 30 26 32 27 33 31 34 28 35 30 36
REMARK SMILES IDX 29 37
REMARK H PARENT 13 12 15 14 17 16 20 31
REMARK Flexibility Score: inf
ROOT
ATOM      1  O   UNL     1      15.339  48.420  44.999  1.00  0.00    -0.458 OA
ENDROOT
BRANCH   1   2
ATOM      2  C   UNL     1      14.519  47.245  45.131  1.00  0.00     0.339 C 
ATOM      3  C   UNL     1      13.042  48.207  46.707  1.00  0.00     0.199 C 
ATOM      4  C   UNL     1      11.834  48.148  45.749  1.00  0.00     0.180 C 
ATOM      5  O   UNL     1      13.968  47.162  46.438  1.00  0.00    -0.328 OA
ATOM      6  C   UNL     1      12.338  48.248  44.299  1.00  0.00     0.181 C 
ATOM      7  C   UNL     1      13.411  47.175  44.051  1.00  0.00     0.214 C 
BRANCH   3   8
ATOM      8  C   UNL     1      12.574  48.108  48.132  1.00  0.00     0.073 C 
ATOM      9  O   UNL     1      13.334  47.650  49.030  1.00  0.00    -0.547 OA
ATOM     10  O   UNL     1      11.276  48.486  48.464  1.00  0.00    -0.547 OA
ENDBRANCH   3   8
BRANCH   4  11
ATOM     11  O   UNL     1      11.129  46.945  45.947  1.00  0.00    -0.387 OA
ATOM     12  H   UNL     1      10.571  47.065  46.758  1.00  0.00     0.211 HD
ENDBRANCH   4  11
BRANCH   6  13
ATOM     13  O   UNL     1      11.280  48.074  43.393  1.00  0.00    -0.387 OA
ATOM     14  H   UNL     1      10.511  48.591  43.748  1.00  0.00     0.211 HD
ENDBRANCH   6  13
BRANCH   7  15
ATOM     15  O   UNL     1      13.940  47.269  42.753  1.00  0.00    -0.384 OA
ATOM     16  H   UNL     1      14.635  46.568  42.652  1.00  0.00     0.211 HD
ENDBRANCH   7  15
ENDBRANCH   1   2
BRANCH   1  17
ATOM     17  C   UNL     1      16.725  48.444  44.732  1.00  0.00     0.172 A 
ATOM     18  C   UNL     1      17.591  49.121  45.617  1.00  0.00     0.205 A 
ATOM     19  C   UNL     1      17.280  47.791  43.614  1.00  0.00     0.097 A 
ATOM     20  C   UNL     1      18.979  49.056  45.431  1.00  0.00     0.188 A 
ATOM     21  C   UNL     1      18.658  47.778  43.378  1.00  0.00     0.134 A 
ATOM     22  C   UNL     1      19.538  48.367  44.323  1.00  0.00     0.111 A 
ATOM     23  O   UNL     1      19.764  49.668  46.312  1.00  0.00    -0.452 OA
ATOM     24  C   UNL     1      20.951  48.304  44.253  1.00  0.00     0.197 A 
ATOM     25  C   UNL     1      21.091  49.674  46.234  1.00  0.00     0.138 A 
ATOM     26  C   UNL     1      21.723  48.977  45.199  1.00  0.00     0.100 A 
ATOM     27  O   UNL     1      21.545  47.627  43.374  1.00  0.00    -0.289 OA
BRANCH  18  28
ATOM     28  O   UNL     1      17.128  49.873  46.707  1.00  0.00    -0.490 OA
ATOM     29  C   UNL     1      16.698  49.318  47.949  1.00  0.00     0.278 C 
ENDBRANCH  18  28
BRANCH  21  30
ATOM     30  O   UNL     1      19.079  47.193  42.181  1.00  0.00    -0.507 OA
ATOM     31  H   UNL     1      18.497  46.633  41.576  1.00  0.00     0.293 HD
ENDBRANCH  21  30
BRANCH  25  32
ATOM     32  C   UNL     1      21.864  50.410  47.260  1.00  0.00     0.017 A 
ATOM     33  C   UNL     1      21.245  50.903  48.427  1.00  0.00     0.012 A 
ATOM     34  C   UNL     1      23.252  50.578  47.099  1.00  0.00     0.012 A 
ATOM     35  C   UNL     1      22.005  51.549  49.407  1.00  0.00     0.001 A 
ATOM     36  C   UNL     1      24.003  51.235  48.079  1.00  0.00     0.001 A 
ATOM     37  C   UNL     1      23.382  51.714  49.234  1.00  0.00     0.000 A 
ENDBRANCH  25  32
ENDBRANCH   1  17
TORSDOF 9
ENDMDL
MODEL 2
REMARK VINA RESULT:    -7.226      1.370      1.969
REMARK INTER + INTRA:         -11.523
REMARK INTER:                 -10.320
REMARK INTRA:                  -1.202
REMARK UNBOUND:                -1.340
REMARK SMILES COc1c(O[C@H]2O[C@H](C(=O)[O-])[C@H](O)[C@H](O)[C@H]2O)cc(O)c2c(=O)cc(-c3ccccc3)oc12
REMARK SMILES IDX 5 1 6 2 8 3 12 4 7 5 14 6 16 7 9 8 10 9 11 10 13 11 15 13
REMARK SMILES IDX 17 15 4 17 3 18 18 19 33 20 19 21 21 22 32 23 22 24 25 25
REMARK SMILES IDX 24 26 23 27 2 28 1 29 20 30 26 32 27 33 31 34 28 35 30 36
REMARK SMILES IDX 29 37
REMARK H PARENT 13 12 15 14 17 16 20 31
REMARK Flexibility Score: inf
ROOT
ATOM      1  O   UNL     1      15.253  48.326  44.724  1.00  0.00    -0.458 OA
ENDROOT
BRANCH   1   2
ATOM      2  C   UNL     1      14.231  47.811  43.851  1.00  0.00     0.339 C 
ATOM      3  C   UNL     1      13.394  46.253  45.421  1.00  0.00     0.199 C 
ATOM      4  C   UNL     1      12.027  46.961  45.534  1.00  0.00     0.180 C 
ATOM      5  O   UNL     1      13.972  46.443  44.136  1.00  0.00    -0.328 OA
ATOM      6  C   UNL     1      12.216  48.462  45.255  1.00  0.00     0.181 C 
ATOM      7  C   UNL     1      12.931  48.650  43.907  1.00  0.00     0.214 C 
BRANCH   3   8
ATOM      8  C   UNL     1      13.234  44.782  45.687  1.00  0.00     0.073 C 
ATOM      9  O   UNL     1      14.009  43.942  45.150  1.00  0.00    -0.547 OA
ATOM     10  O   UNL     1      12.199  44.333  46.501  1.00  0.00    -0.547 OA
ENDBRANCH   3   8
BRANCH   4  11
ATOM     11  O   UNL     1      11.123  46.396  44.615  1.00  0.00    -0.387 OA
ATOM     12  H   UNL     1      11.649  46.116  43.823  1.00  0.00     0.211 HD
ENDBRANCH   4  11
BRANCH   6  13
ATOM     13  O   UNL     1      10.976  49.120  45.227  1.00  0.00    -0.387 OA
ATOM     14  H   UNL     1      11.169  50.093  45.215  1.00  0.00     0.211 HD
ENDBRANCH   6  13
BRANCH   7  15
ATOM     15  O   UNL     1      13.175  50.008  43.641  1.00  0.00    -0.384 OA
ATOM     16  H   UNL     1      12.853  50.537  44.417  1.00  0.00     0.211 HD
ENDBRANCH   7  15
ENDBRANCH   1   2
BRANCH   1  17
ATOM     17  C   UNL     1      16.642  48.325  44.472  1.00  0.00     0.172 A 
ATOM     18  C   UNL     1      17.508  49.008  45.353  1.00  0.00     0.205 A 
ATOM     19  C   UNL     1      17.200  47.644  43.373  1.00  0.00     0.097 A 
ATOM     20  C   UNL     1      18.897  48.920  45.184  1.00  0.00     0.188 A 
ATOM     21  C   UNL     1      18.580  47.607  43.152  1.00  0.00     0.134 A 
ATOM     22  C   UNL     1      19.458  48.202  44.096  1.00  0.00     0.111 A 
ATOM     23  O   UNL     1      19.681  49.538  46.062  1.00  0.00    -0.452 OA
ATOM     24  C   UNL     1      20.871  48.118  44.042  1.00  0.00     0.197 A 
ATOM     25  C   UNL     1      21.009  49.525  45.998  1.00  0.00     0.138 A 
ATOM     26  C   UNL     1      21.641  48.799  44.984  1.00  0.00     0.100 A 
ATOM     27  O   UNL     1      21.464  47.416  43.183  1.00  0.00    -0.289 OA
BRANCH  18  28
ATOM     28  O   UNL     1      17.044  49.788  46.424  1.00  0.00    -0.490 OA
ATOM     29  C   UNL     1      16.596  49.264  47.672  1.00  0.00     0.278 C 
ENDBRANCH  18  28
BRANCH  21  30
ATOM     30  O   UNL     1      19.006  46.993  41.972  1.00  0.00    -0.507 OA
ATOM     31  H   UNL     1      19.649  47.401  41.309  1.00  0.00     0.293 HD
ENDBRANCH  21  30
BRANCH  25  32
ATOM     32  C   UNL     1      21.780  50.270  47.018  1.00  0.00     0.017 A 
ATOM     33  C   UNL     1      23.168  50.471  46.882  1.00  0.00     0.012 A 
ATOM     34  C   UNL     1      21.112  50.837  48.119  1.00  0.00     0.012 A 
ATOM     35  C   UNL     1      23.867  51.223  47.832  1.00  0.00     0.001 A 
ATOM     36  C   UNL     1      21.820  51.579  49.071  1.00  0.00     0.001 A 
ATOM     37  C   UNL     1      23.194  51.777  48.924  1.00  0.00     0.000 A 
ENDBRANCH  25  32
ENDBRANCH   1  17
TORSDOF 9
ENDMDL
MODEL 3
REMARK VINA RESULT:    -7.096      1.390      2.116
REMARK INTER + INTRA:         -11.340
REMARK INTER:                  -9.993
REMARK INTRA:                  -1.347
REMARK UNBOUND:                -1.340
REMARK SMILES COc1c(O[C@H]2O[C@H](C(=O)[O-])[C@H](O)[C@H](O)[C@H]2O)cc(O)c2c(=O)cc(-c3ccccc3)oc12
REMARK SMILES IDX 5 1 6 2 8 3 12 4 7 5 14 6 16 7 9 8 10 9 11 10 13 11 15 13
REMARK SMILES IDX 17 15 4 17 3 18 18 19 33 20 19 21 21 22 32 23 22 24 25 25
REMARK SMILES IDX 24 26 23 27 2 28 1 29 20 30 26 32 27 33 31 34 28 35 30 36
REMARK SMILES IDX 29 37
REMARK H PARENT 13 12 15 14 17 16 20 31
REMARK Flexibility Score: inf
ROOT
ATOM      1  O   UNL     1      13.826  48.404  44.900  1.00  0.00    -0.458 OA
ENDROOT
BRANCH   1   2
ATOM      2  C   UNL     1      12.798  47.437  45.185  1.00  0.00     0.339 C 
ATOM      3  C   UNL     1      12.427  48.186  47.397  1.00  0.00     0.199 C 
ATOM      4  C   UNL     1      10.990  48.660  47.094  1.00  0.00     0.180 C 
ATOM      5  O   UNL     1      12.800  47.096  46.564  1.00  0.00    -0.328 OA
ATOM      6  C   UNL     1      10.899  49.069  45.614  1.00  0.00     0.181 C 
ATOM      7  C   UNL     1      11.398  47.916  44.729  1.00  0.00     0.214 C 
BRANCH   3   8
ATOM      8  C   UNL     1      12.540  47.778  48.840  1.00  0.00     0.073 C 
ATOM      9  O   UNL     1      12.102  46.660  49.229  1.00  0.00    -0.547 OA
ATOM     10  O   UNL     1      13.097  48.654  49.766  1.00  0.00    -0.547 OA
ENDBRANCH   3   8
BRANCH   4  11
ATOM     11  O   UNL     1      10.079  47.625  47.380  1.00  0.00    -0.387 OA
ATOM     12  H   UNL     1       9.171  48.022  47.355  1.00  0.00     0.211 HD
ENDBRANCH   4  11
BRANCH   6  13
ATOM     13  O   UNL     1       9.576  49.389  45.269  1.00  0.00    -0.387 OA
ATOM     14  H   UNL     1       9.179  48.573  44.868  1.00  0.00     0.211 HD
ENDBRANCH   6  13
BRANCH   7  15
ATOM     15  O   UNL     1      11.385  48.270  43.369  1.00  0.00    -0.384 OA
ATOM     16  H   UNL     1      12.213  47.917  42.951  1.00  0.00     0.211 HD
ENDBRANCH   7  15
ENDBRANCH   1   2
BRANCH   1  17
ATOM     17  C   UNL     1      15.101  48.129  44.359  1.00  0.00     0.172 A 
ATOM     18  C   UNL     1      16.245  48.709  44.949  1.00  0.00     0.205 A 
ATOM     19  C   UNL     1      15.273  47.274  43.254  1.00  0.00     0.097 A 
ATOM     20  C   UNL     1      17.524  48.355  44.498  1.00  0.00     0.188 A 
ATOM     21  C   UNL     1      16.540  46.969  42.749  1.00  0.00     0.134 A 
ATOM     22  C   UNL     1      17.697  47.465  43.407  1.00  0.00     0.111 A 
ATOM     23  O   UNL     1      18.579  48.886  45.110  1.00  0.00    -0.452 OA
ATOM     24  C   UNL     1      19.026  47.120  43.063  1.00  0.00     0.197 A 
ATOM     25  C   UNL     1      19.836  48.626  44.765  1.00  0.00     0.138 A 
ATOM     26  C   UNL     1      20.093  47.719  43.732  1.00  0.00     0.100 A 
ATOM     27  O   UNL     1      19.285  46.256  42.185  1.00  0.00    -0.289 OA
BRANCH  18  28
ATOM     28  O   UNL     1      16.172  49.641  45.995  1.00  0.00    -0.490 OA
ATOM     29  C   UNL     1      16.021  49.302  47.372  1.00  0.00     0.278 C 
ENDBRANCH  18  28
BRANCH  21  30
ATOM     30  O   UNL     1      16.578  46.197  41.584  1.00  0.00    -0.507 OA
ATOM     31  H   UNL     1      17.314  45.549  41.345  1.00  0.00     0.293 HD
ENDBRANCH  21  30
BRANCH  25  32
ATOM     32  C   UNL     1      20.932  49.294  45.503  1.00  0.00     0.017 A 
ATOM     33  C   UNL     1      20.718  49.857  46.777  1.00  0.00     0.012 A 
ATOM     34  C   UNL     1      22.226  49.325  44.950  1.00  0.00     0.012 A 
ATOM     35  C   UNL     1      21.781  50.437  47.478  1.00  0.00     0.001 A 
ATOM     36  C   UNL     1      23.281  49.917  45.652  1.00  0.00     0.001 A 
ATOM     37  C   UNL     1      23.060  50.466  46.917  1.00  0.00     0.000 A 
ENDBRANCH  25  32
ENDBRANCH   1  17
TORSDOF 9
ENDMDL
MODEL 4
REMARK VINA RESULT:    -7.089      2.133      3.876
REMARK INTER + INTRA:         -11.331
REMARK INTER:                 -10.113
REMARK INTRA:                  -1.218
REMARK UNBOUND:                -1.340
REMARK SMILES COc1c(O[C@H]2O[C@H](C(=O)[O-])[C@H](O)[C@H](O)[C@H]2O)cc(O)c2c(=O)cc(-c3ccccc3)oc12
REMARK SMILES IDX 5 1 6 2 8 3 12 4 7 5 14 6 16 7 9 8 10 9 11 10 13 11 15 13
REMARK SMILES IDX 17 15 4 17 3 18 18 19 33 20 19 21 21 22 32 23 22 24 25 25
REMARK SMILES IDX 24 26 23 27 2 28 1 29 20 30 26 32 27 33 31 34 28 35 30 36
REMARK SMILES IDX 29 37
REMARK H PARENT 13 12 15 14 17 16 20 31
REMARK Flexibility Score: inf
ROOT
ATOM      1  O   UNL     1      13.270  47.941  46.124  1.00  0.00    -0.458 OA
ENDROOT
BRANCH   1   2
ATOM      2  C   UNL     1      11.893  47.620  45.857  1.00  0.00     0.339 C 
ATOM      3  C   UNL     1      12.047  45.400  46.656  1.00  0.00     0.199 C 
ATOM      4  C   UNL     1      11.081  45.658  47.832  1.00  0.00     0.180 C 
ATOM      5  O   UNL     1      11.751  46.240  45.548  1.00  0.00    -0.328 OA
ATOM      6  C   UNL     1      11.182  47.136  48.247  1.00  0.00     0.181 C 
ATOM      7  C   UNL     1      10.957  48.033  47.019  1.00  0.00     0.214 C 
BRANCH   3   8
ATOM      8  C   UNL     1      11.965  43.960  46.230  1.00  0.00     0.073 C 
ATOM      9  O   UNL     1      10.912  43.503  45.705  1.00  0.00    -0.547 OA
ATOM     10  O   UNL     1      13.044  43.110  46.450  1.00  0.00    -0.547 OA
ENDBRANCH   3   8
BRANCH   4  11
ATOM     11  O   UNL     1       9.766  45.339  47.445  1.00  0.00    -0.387 OA
ATOM     12  H   UNL     1       9.168  45.632  48.179  1.00  0.00     0.211 HD
ENDBRANCH   4  11
BRANCH   6  13
ATOM     13  O   UNL     1      10.228  47.439  49.232  1.00  0.00    -0.387 OA
ATOM     14  H   UNL     1       9.439  46.867  49.052  1.00  0.00     0.211 HD
ENDBRANCH   6  13
BRANCH   7  15
ATOM     15  O   UNL     1      11.097  49.393  47.345  1.00  0.00    -0.384 OA
ATOM     16  H   UNL     1      10.553  49.573  48.155  1.00  0.00     0.211 HD
ENDBRANCH   7  15
ENDBRANCH   1   2
BRANCH   1  17
ATOM     17  C   UNL     1      14.191  48.493  45.206  1.00  0.00     0.172 A 
ATOM     18  C   UNL     1      15.534  48.681  45.597  1.00  0.00     0.205 A 
ATOM     19  C   UNL     1      13.815  48.847  43.895  1.00  0.00     0.097 A 
ATOM     20  C   UNL     1      16.484  49.118  44.663  1.00  0.00     0.188 A 
ATOM     21  C   UNL     1      14.738  49.351  42.975  1.00  0.00     0.134 A 
ATOM     22  C   UNL     1      16.109  49.439  43.333  1.00  0.00     0.111 A 
ATOM     23  O   UNL     1      17.748  49.238  45.056  1.00  0.00    -0.452 OA
ATOM     24  C   UNL     1      17.148  49.813  42.445  1.00  0.00     0.197 A 
ATOM     25  C   UNL     1      18.730  49.646  44.259  1.00  0.00     0.138 A 
ATOM     26  C   UNL     1      18.453  49.935  42.919  1.00  0.00     0.100 A 
ATOM     27  O   UNL     1      16.939  50.011  41.220  1.00  0.00    -0.289 OA
BRANCH  18  28
ATOM     28  O   UNL     1      15.985  48.443  46.904  1.00  0.00    -0.490 OA
ATOM     29  C   UNL     1      15.849  49.361  47.987  1.00  0.00     0.278 C 
ENDBRANCH  18  28
BRANCH  21  30
ATOM     30  O   UNL     1      14.226  49.767  41.743  1.00  0.00    -0.507 OA
ATOM     31  H   UNL     1      14.373  49.289  40.866  1.00  0.00     0.293 HD
ENDBRANCH  21  30
BRANCH  25  32
ATOM     32  C   UNL     1      20.097  49.765  44.814  1.00  0.00     0.017 A 
ATOM     33  C   UNL     1      20.311  49.999  46.187  1.00  0.00     0.012 A 
ATOM     34  C   UNL     1      21.209  49.590  43.969  1.00  0.00     0.012 A 
ATOM     35  C   UNL     1      21.612  50.056  46.697  1.00  0.00     0.001 A 
ATOM     36  C   UNL     1      22.507  49.659  44.485  1.00  0.00     0.001 A 
ATOM     37  C   UNL     1      22.709  49.884  45.848  1.00  0.00     0.000 A 
ENDBRANCH  25  32
ENDBRANCH   1  17
TORSDOF 9
ENDMDL
MODEL 5
REMARK VINA RESULT:    -6.972      3.713      6.741
REMARK INTER + INTRA:         -11.166
REMARK INTER:                  -9.713
REMARK INTRA:                  -1.453
REMARK UNBOUND:                -1.340
REMARK SMILES COc1c(O[C@H]2O[C@H](C(=O)[O-])[C@H](O)[C@H](O)[C@H]2O)cc(O)c2c(=O)cc(-c3ccccc3)oc12
REMARK SMILES IDX 5 1 6 2 8 3 12 4 7 5 14 6 16 7 9 8 10 9 11 10 13 11 15 13
REMARK SMILES IDX 17 15 4 17 3 18 18 19 33 20 19 21 21 22 32 23 22 24 25 25
REMARK SMILES IDX 24 26 23 27 2 28 1 29 20 30 26 32 27 33 31 34 28 35 30 36
REMARK SMILES IDX 29 37
REMARK H PARENT 13 12 15 14 17 16 20 31
REMARK Flexibility Score: inf
ROOT
ATOM      1  O   UNL     1      15.637  45.562  40.903  1.00  0.00    -0.458 OA
ENDROOT
BRANCH   1   2
ATOM      2  C   UNL     1      15.215  46.166  39.667  1.00  0.00     0.339 C 
ATOM      3  C   UNL     1      16.989  45.267  38.387  1.00  0.00     0.199 C 
ATOM      4  C   UNL     1      16.050  44.395  37.527  1.00  0.00     0.180 C 
ATOM      5  O   UNL     1      16.334  46.446  38.837  1.00  0.00    -0.328 OA
ATOM      6  C   UNL     1      14.808  44.026  38.357  1.00  0.00     0.181 C 
ATOM      7  C   UNL     1      14.166  45.305  38.919  1.00  0.00     0.214 C 
BRANCH   3   8
ATOM      8  C   UNL     1      18.211  45.642  37.596  1.00  0.00     0.073 C 
ATOM      9  O   UNL     1      19.120  46.351  38.111  1.00  0.00    -0.547 OA
ATOM     10  O   UNL     1      18.328  45.240  36.269  1.00  0.00    -0.547 OA
ENDBRANCH   3   8
BRANCH   4  11
ATOM     11  O   UNL     1      15.680  45.099  36.366  1.00  0.00    -0.387 OA
ATOM     12  H   UNL     1      14.958  45.727  36.624  1.00  0.00     0.211 HD
ENDBRANCH   4  11
BRANCH   6  13
ATOM     13  O   UNL     1      13.873  43.337  37.570  1.00  0.00    -0.387 OA
ATOM     14  H   UNL     1      13.928  43.721  36.657  1.00  0.00     0.211 HD
ENDBRANCH   6  13
BRANCH   7  15
ATOM     15  O   UNL     1      13.059  45.009  39.732  1.00  0.00    -0.384 OA
ATOM     16  H   UNL     1      13.309  45.196  40.674  1.00  0.00     0.211 HD
ENDBRANCH   7  15
ENDBRANCH   1   2
BRANCH   1  17
ATOM     17  C   UNL     1      15.877  46.235  42.120  1.00  0.00     0.172 A 
ATOM     18  C   UNL     1      17.170  46.729  42.397  1.00  0.00     0.205 A 
ATOM     19  C   UNL     1      14.857  46.449  43.067  1.00  0.00     0.097 A 
ATOM     20  C   UNL     1      17.397  47.500  43.546  1.00  0.00     0.188 A 
ATOM     21  C   UNL     1      15.087  47.156  44.251  1.00  0.00     0.134 A 
ATOM     22  C   UNL     1      16.358  47.745  44.481  1.00  0.00     0.111 A 
ATOM     23  O   UNL     1      18.617  47.988  43.749  1.00  0.00    -0.452 OA
ATOM     24  C   UNL     1      16.666  48.585  45.579  1.00  0.00     0.197 A 
ATOM     25  C   UNL     1      18.947  48.728  44.803  1.00  0.00     0.138 A 
ATOM     26  C   UNL     1      17.968  49.056  45.746  1.00  0.00     0.100 A 
ATOM     27  O   UNL     1      15.790  48.953  46.403  1.00  0.00    -0.289 OA
BRANCH  18  28
ATOM     28  O   UNL     1      18.271  46.491  41.561  1.00  0.00    -0.490 OA
ATOM     29  C   UNL     1      19.025  45.281  41.541  1.00  0.00     0.278 C 
ENDBRANCH  18  28
BRANCH  21  30
ATOM     30  O   UNL     1      14.027  47.210  45.160  1.00  0.00    -0.507 OA
ATOM     31  H   UNL     1      13.087  47.499  44.934  1.00  0.00     0.293 HD
ENDBRANCH  21  30
BRANCH  25  32
ATOM     32  C   UNL     1      20.344  49.197  44.937  1.00  0.00     0.017 A 
ATOM     33  C   UNL     1      20.898  49.493  46.199  1.00  0.00     0.012 A 
ATOM     34  C   UNL     1      21.157  49.300  43.792  1.00  0.00     0.012 A 
ATOM     35  C   UNL     1      22.236  49.885  46.305  1.00  0.00     0.001 A 
ATOM     36  C   UNL     1      22.491  49.703  43.907  1.00  0.00     0.001 A 
ATOM     37  C   UNL     1      23.032  49.988  45.162  1.00  0.00     0.000 A 
ENDBRANCH  25  32
ENDBRANCH   1  17
TORSDOF 9
ENDMDL
MODEL 6
REMARK VINA RESULT:    -6.901      2.045      3.917
REMARK INTER + INTRA:         -11.065
REMARK INTER:                  -9.701
REMARK INTRA:                  -1.364
REMARK UNBOUND:                -1.340
REMARK SMILES COc1c(O[C@H]2O[C@H](C(=O)[O-])[C@H](O)[C@H](O)[C@H]2O)cc(O)c2c(=O)cc(-c3ccccc3)oc12
REMARK SMILES IDX 5 1 6 2 8 3 12 4 7 5 14 6 16 7 9 8 10 9 11 10 13 11 15 13
REMARK SMILES IDX 17 15 4 17 3 18 18 19 33 20 19 21 21 22 32 23 22 24 25 25
REMARK SMILES IDX 24 26 23 27 2 28 1 29 20 30 26 32 27 33 31 34 28 35 30 36
REMARK SMILES IDX 29 37
REMARK H PARENT 13 12 15 14 17 16 20 31
REMARK Flexibility Score: inf
ROOT
ATOM      1  O   UNL     1      13.210  47.605  45.882  1.00  0.00    -0.458 OA
ENDROOT
BRANCH   1   2
ATOM      2  C   UNL     1      12.333  48.238  46.831  1.00  0.00     0.339 C 
ATOM      3  C   UNL     1      10.357  47.777  45.618  1.00  0.00     0.199 C 
ATOM      4  C   UNL     1       9.796  46.839  46.708  1.00  0.00     0.180 C 
ATOM      5  O   UNL     1      11.194  48.780  46.178  1.00  0.00    -0.328 OA
ATOM      6  C   UNL     1      10.969  46.189  47.462  1.00  0.00     0.181 C 
ATOM      7  C   UNL     1      11.919  47.282  47.978  1.00  0.00     0.214 C 
BRANCH   3   8
ATOM      8  C   UNL     1       9.227  48.427  44.868  1.00  0.00     0.073 C 
ATOM      9  O   UNL     1       8.635  49.436  45.342  1.00  0.00    -0.547 OA
ATOM     10  O   UNL     1       8.801  47.891  43.657  1.00  0.00    -0.547 OA
ENDBRANCH   3   8
BRANCH   4  11
ATOM     11  O   UNL     1       8.983  47.573  47.592  1.00  0.00    -0.387 OA
ATOM     12  H   UNL     1       8.879  48.480  47.208  1.00  0.00     0.211 HD
ENDBRANCH   4  11
BRANCH   6  13
ATOM     13  O   UNL     1      10.501  45.425  48.542  1.00  0.00    -0.387 OA
ATOM     14  H   UNL     1      11.295  45.002  48.959  1.00  0.00     0.211 HD
ENDBRANCH   6  13
BRANCH   7  15
ATOM     15  O   UNL     1      13.036  46.727  48.624  1.00  0.00    -0.384 OA
ATOM     16  H   UNL     1      13.750  47.417  48.653  1.00  0.00     0.211 HD
ENDBRANCH   7  15
ENDBRANCH   1   2
BRANCH   1  17
ATOM     17  C   UNL     1      14.121  48.258  45.024  1.00  0.00     0.172 A 
ATOM     18  C   UNL     1      15.450  48.466  45.450  1.00  0.00     0.205 A 
ATOM     19  C   UNL     1      13.750  48.697  43.738  1.00  0.00     0.097 A 
ATOM     20  C   UNL     1      16.396  49.007  44.568  1.00  0.00     0.188 A 
ATOM     21  C   UNL     1      14.666  49.303  42.873  1.00  0.00     0.134 A 
ATOM     22  C   UNL     1      16.028  49.415  43.259  1.00  0.00     0.111 A 
ATOM     23  O   UNL     1      17.649  49.144  44.990  1.00  0.00    -0.452 OA
ATOM     24  C   UNL     1      17.064  49.893  42.420  1.00  0.00     0.197 A 
ATOM     25  C   UNL     1      18.626  49.647  44.243  1.00  0.00     0.138 A 
ATOM     26  C   UNL     1      18.357  50.027  42.924  1.00  0.00     0.100 A 
ATOM     27  O   UNL     1      16.864  50.176  41.210  1.00  0.00    -0.289 OA
BRANCH  18  28
ATOM     28  O   UNL     1      15.893  48.146  46.743  1.00  0.00    -0.490 OA
ATOM     29  C   UNL     1      15.846  49.035  47.857  1.00  0.00     0.278 C 
ENDBRANCH  18  28
BRANCH  21  30
ATOM     30  O   UNL     1      14.156  49.792  41.668  1.00  0.00    -0.507 OA
ATOM     31  H   UNL     1      14.708  50.219  40.938  1.00  0.00     0.293 HD
ENDBRANCH  21  30
BRANCH  25  32
ATOM     32  C   UNL     1      19.980  49.774  44.828  1.00  0.00     0.017 A 
ATOM     33  C   UNL     1      20.162  49.999  46.207  1.00  0.00     0.012 A 
ATOM     34  C   UNL     1      21.111  49.616  44.005  1.00  0.00     0.012 A 
ATOM     35  C   UNL     1      21.451  50.064  46.745  1.00  0.00     0.001 A 
ATOM     36  C   UNL     1      22.397  49.692  44.550  1.00  0.00     0.001 A 
ATOM     37  C   UNL     1      22.567  49.909  45.919  1.00  0.00     0.000 A 
ENDBRANCH  25  32
ENDBRANCH   1  17
TORSDOF 9
ENDMDL
MODEL 7
REMARK VINA RESULT:    -6.836      2.516      4.851
REMARK INTER + INTRA:         -10.974
REMARK INTER:                  -9.671
REMARK INTRA:                  -1.303
REMARK UNBOUND:                -1.340
REMARK SMILES COc1c(O[C@H]2O[C@H](C(=O)[O-])[C@H](O)[C@H](O)[C@H]2O)cc(O)c2c(=O)cc(-c3ccccc3)oc12
REMARK SMILES IDX 5 1 6 2 8 3 12 4 7 5 14 6 16 7 9 8 10 9 11 10 13 11 15 13
REMARK SMILES IDX 17 15 4 17 3 18 18 19 33 20 19 21 21 22 32 23 22 24 25 25
REMARK SMILES IDX 24 26 23 27 2 28 1 29 20 30 26 32 27 33 31 34 28 35 30 36
REMARK SMILES IDX 29 37
REMARK H PARENT 13 12 15 14 17 16 20 31
REMARK Flexibility Score: inf
ROOT
ATOM      1  O   UNL     1      16.687  46.510  44.287  1.00  0.00    -0.458 OA
ENDROOT
BRANCH   1   2
ATOM      2  C   UNL     1      15.475  46.725  43.541  1.00  0.00     0.339 C 
ATOM      3  C   UNL     1      16.452  48.232  42.003  1.00  0.00     0.199 C 
ATOM      4  C   UNL     1      16.252  47.283  40.803  1.00  0.00     0.180 C 
ATOM      5  O   UNL     1      15.450  48.036  42.993  1.00  0.00    -0.328 OA
ATOM      6  C   UNL     1      16.281  45.829  41.305  1.00  0.00     0.181 C 
ATOM      7  C   UNL     1      15.262  45.655  42.442  1.00  0.00     0.214 C 
BRANCH   3   8
ATOM      8  C   UNL     1      16.424  49.662  41.537  1.00  0.00     0.073 C 
ATOM      9  O   UNL     1      17.448  50.393  41.642  1.00  0.00    -0.547 OA
ATOM     10  O   UNL     1      15.249  50.200  41.022  1.00  0.00    -0.547 OA
ENDBRANCH   3   8
BRANCH   4  11
ATOM     11  O   UNL     1      15.025  47.566  40.173  1.00  0.00    -0.387 OA
ATOM     12  H   UNL     1      14.909  48.550  40.191  1.00  0.00     0.211 HD
ENDBRANCH   4  11
BRANCH   6  13
ATOM     13  O   UNL     1      15.979  44.939  40.262  1.00  0.00    -0.387 OA
ATOM     14  H   UNL     1      16.804  44.419  40.081  1.00  0.00     0.211 HD
ENDBRANCH   6  13
BRANCH   7  15
ATOM     15  O   UNL     1      15.298  44.352  42.968  1.00  0.00    -0.384 OA
ATOM     16  H   UNL     1      16.134  43.918  42.660  1.00  0.00     0.211 HD
ENDBRANCH   7  15
ENDBRANCH   1   2
BRANCH   1  17
ATOM     17  C   UNL     1      16.996  47.059  45.551  1.00  0.00     0.172 A 
ATOM     18  C   UNL     1      18.266  47.636  45.764  1.00  0.00     0.205 A 
ATOM     19  C   UNL     1      16.066  47.068  46.607  1.00  0.00     0.097 A 
ATOM     20  C   UNL     1      18.548  48.288  46.973  1.00  0.00     0.188 A 
ATOM     21  C   UNL     1      16.359  47.652  47.843  1.00  0.00     0.134 A 
ATOM     22  C   UNL     1      17.596  48.327  48.024  1.00  0.00     0.111 A 
ATOM     23  O   UNL     1      19.739  48.860  47.120  1.00  0.00    -0.452 OA
ATOM     24  C   UNL     1      17.948  49.060  49.183  1.00  0.00     0.197 A 
ATOM     25  C   UNL     1      20.116  49.501  48.221  1.00  0.00     0.138 A 
ATOM     26  C   UNL     1      19.217  49.628  49.285  1.00  0.00     0.100 A 
ATOM     27  O   UNL     1      17.134  49.249  50.125  1.00  0.00    -0.289 OA
BRANCH  18  28
ATOM     28  O   UNL     1      19.290  47.597  44.806  1.00  0.00    -0.490 OA
ATOM     29  C   UNL     1      20.141  46.476  44.575  1.00  0.00     0.278 C 
ENDBRANCH  18  28
BRANCH  21  30
ATOM     30  O   UNL     1      15.399  47.504  48.847  1.00  0.00    -0.507 OA
ATOM     31  H   UNL     1      14.779  48.235  49.165  1.00  0.00     0.293 HD
ENDBRANCH  21  30
BRANCH  25  32
ATOM     32  C   UNL     1      21.477  50.080  48.281  1.00  0.00     0.017 A 
ATOM     33  C   UNL     1      22.266  50.215  47.121  1.00  0.00     0.012 A 
ATOM     34  C   UNL     1      21.979  50.554  49.507  1.00  0.00     0.012 A 
ATOM     35  C   UNL     1      23.528  50.812  47.193  1.00  0.00     0.001 A 
ATOM     36  C   UNL     1      23.247  51.140  49.573  1.00  0.00     0.001 A 
ATOM     37  C   UNL     1      24.018  51.275  48.417  1.00  0.00     0.000 A 
ENDBRANCH  25  32
ENDBRANCH   1  17
TORSDOF 9
ENDMDL
MODEL 8
REMARK VINA RESULT:    -6.825      3.999      8.904
REMARK INTER + INTRA:         -10.959
REMARK INTER:                  -9.646
REMARK INTRA:                  -1.313
REMARK UNBOUND:                -1.340
REMARK SMILES COc1c(O[C@H]2O[C@H](C(=O)[O-])[C@H](O)[C@H](O)[C@H]2O)cc(O)c2c(=O)cc(-c3ccccc3)oc12
REMARK SMILES IDX 5 1 6 2 8 3 12 4 7 5 14 6 16 7 9 8 10 9 11 10 13 11 15 13
REMARK SMILES IDX 17 15 4 17 3 18 18 19 33 20 19 21 21 22 32 23 22 24 25 25
REMARK SMILES IDX 24 26 23 27 2 28 1 29 20 30 26 32 27 33 31 34 28 35 30 36
REMARK SMILES IDX 29 37
REMARK H PARENT 13 12 15 14 17 16 20 31
REMARK Flexibility Score: inf
ROOT
ATOM      1  O   UNL     1      16.623  48.560  44.295  1.00  0.00    -0.458 OA
ENDROOT
BRANCH   1   2
ATOM      2  C   UNL     1      17.605  48.468  45.342  1.00  0.00     0.339 C 
ATOM      3  C   UNL     1      19.463  48.603  43.886  1.00  0.00     0.199 C 
ATOM      4  C   UNL     1      19.931  49.958  44.457  1.00  0.00     0.180 C 
ATOM      5  O   UNL     1      18.784  47.832  44.869  1.00  0.00    -0.328 OA
ATOM      6  C   UNL     1      18.707  50.729  44.981  1.00  0.00     0.181 C 
ATOM      7  C   UNL     1      17.927  49.848  45.970  1.00  0.00     0.214 C 
BRANCH   3   8
ATOM      8  C   UNL     1      20.644  47.828  43.369  1.00  0.00     0.073 C 
ATOM      9  O   UNL     1      21.777  48.374  43.264  1.00  0.00    -0.547 OA
ATOM     10  O   UNL     1      20.482  46.507  42.963  1.00  0.00    -0.547 OA
ENDBRANCH   3   8
BRANCH   4  11
ATOM     11  O   UNL     1      20.862  49.742  45.491  1.00  0.00    -0.387 OA
ATOM     12  H   UNL     1      21.152  50.634  45.811  1.00  0.00     0.211 HD
ENDBRANCH   4  11
BRANCH   6  13
ATOM     13  O   UNL     1      19.105  51.914  45.621  1.00  0.00    -0.387 OA
ATOM     14  H   UNL     1      19.112  51.725  46.594  1.00  0.00     0.211 HD
ENDBRANCH   6  13
BRANCH   7  15
ATOM     15  O   UNL     1      16.768  50.495  46.430  1.00  0.00    -0.384 OA
ATOM     16  H   UNL     1      16.156  50.617  45.658  1.00  0.00     0.211 HD
ENDBRANCH   7  15
ENDBRANCH   1   2
BRANCH   1  17
ATOM     17  C   UNL     1      16.108  47.484  43.539  1.00  0.00     0.172 A 
ATOM     18  C   UNL     1      16.473  47.352  42.182  1.00  0.00     0.205 A 
ATOM     19  C   UNL     1      15.251  46.520  44.103  1.00  0.00     0.097 A 
ATOM     20  C   UNL     1      16.065  46.228  41.450  1.00  0.00     0.188 A 
ATOM     21  C   UNL     1      14.779  45.431  43.364  1.00  0.00     0.134 A 
ATOM     22  C   UNL     1      15.231  45.238  42.031  1.00  0.00     0.111 A 
ATOM     23  O   UNL     1      16.468  46.115  40.188  1.00  0.00    -0.452 OA
ATOM     24  C   UNL     1      14.921  44.110  41.234  1.00  0.00     0.197 A 
ATOM     25  C   UNL     1      16.140  45.096  39.400  1.00  0.00     0.138 A 
ATOM     26  C   UNL     1      15.362  44.054  39.913  1.00  0.00     0.100 A 
ATOM     27  O   UNL     1      14.282  43.126  41.690  1.00  0.00    -0.289 OA
BRANCH  18  28
ATOM     28  O   UNL     1      17.248  48.307  41.506  1.00  0.00    -0.490 OA
ATOM     29  C   UNL     1      16.777  49.590  41.099  1.00  0.00     0.278 C 
ENDBRANCH  18  28
BRANCH  21  30
ATOM     30  O   UNL     1      13.851  44.602  43.999  1.00  0.00    -0.507 OA
ATOM     31  H   UNL     1      13.919  44.285  44.955  1.00  0.00     0.293 HD
ENDBRANCH  21  30
BRANCH  25  32
ATOM     32  C   UNL     1      16.628  45.089  38.003  1.00  0.00     0.017 A 
ATOM     33  C   UNL     1      17.891  45.615  37.666  1.00  0.00     0.012 A 
ATOM     34  C   UNL     1      15.843  44.498  36.995  1.00  0.00     0.012 A 
ATOM     35  C   UNL     1      18.352  45.549  36.347  1.00  0.00     0.001 A 
ATOM     36  C   UNL     1      16.306  44.446  35.676  1.00  0.00     0.001 A 
ATOM     37  C   UNL     1      17.562  44.965  35.354  1.00  0.00     0.000 A 
ENDBRANCH  25  32
ENDBRANCH   1  17
TORSDOF 9
ENDMDL
MODEL 9
REMARK VINA RESULT:    -6.745      3.084      5.862
REMARK INTER + INTRA:         -10.846
REMARK INTER:                  -9.555
REMARK INTRA:                  -1.291
REMARK UNBOUND:                -1.340
REMARK SMILES COc1c(O[C@H]2O[C@H](C(=O)[O-])[C@H](O)[C@H](O)[C@H]2O)cc(O)c2c(=O)cc(-c3ccccc3)oc12
REMARK SMILES IDX 5 1 6 2 8 3 12 4 7 5 14 6 16 7 9 8 10 9 11 10 13 11 15 13
REMARK SMILES IDX 17 15 4 17 3 18 18 19 33 20 19 21 21 22 32 23 22 24 25 25
REMARK SMILES IDX 24 26 23 27 2 28 1 29 20 30 26 32 27 33 31 34 28 35 30 36
REMARK SMILES IDX 29 37
REMARK H PARENT 13 12 15 14 17 16 20 31
REMARK Flexibility Score: inf
ROOT
ATOM      1  O   UNL     1      17.447  47.018  41.131  1.00  0.00    -0.458 OA
ENDROOT
BRANCH   1   2
ATOM      2  C   UNL     1      17.587  45.668  40.654  1.00  0.00     0.339 C 
ATOM      3  C   UNL     1      15.387  45.529  39.799  1.00  0.00     0.199 C 
ATOM      4  C   UNL     1      15.863  45.404  38.337  1.00  0.00     0.180 C 
ATOM      5  O   UNL     1      16.341  44.987  40.704  1.00  0.00    -0.328 OA
ATOM      6  C   UNL     1      17.209  46.133  38.185  1.00  0.00     0.181 C 
ATOM      7  C   UNL     1      18.202  45.607  39.233  1.00  0.00     0.214 C 
BRANCH   3   8
ATOM      8  C   UNL     1      14.072  44.820  39.974  1.00  0.00     0.073 C 
ATOM      9  O   UNL     1      13.389  44.474  38.971  1.00  0.00    -0.547 OA
ATOM     10  O   UNL     1      13.580  44.578  41.253  1.00  0.00    -0.547 OA
ENDBRANCH   3   8
BRANCH   4  11
ATOM     11  O   UNL     1      15.993  44.045  37.994  1.00  0.00    -0.387 OA
ATOM     12  H   UNL     1      16.936  43.902  37.726  1.00  0.00     0.211 HD
ENDBRANCH   4  11
BRANCH   6  13
ATOM     13  O   UNL     1      17.736  45.938  36.898  1.00  0.00    -0.387 OA
ATOM     14  H   UNL     1      18.682  45.663  37.015  1.00  0.00     0.211 HD
ENDBRANCH   6  13
BRANCH   7  15
ATOM     15  O   UNL     1      19.429  46.288  39.166  1.00  0.00    -0.384 OA
ATOM     16  H   UNL     1      20.151  45.615  39.066  1.00  0.00     0.211 HD
ENDBRANCH   7  15
ENDBRANCH   1   2
BRANCH   1  17
ATOM     17  C   UNL     1      17.147  47.408  42.455  1.00  0.00     0.172 A 
ATOM     18  C   UNL     1      18.193  47.799  43.318  1.00  0.00     0.205 A 
ATOM     19  C   UNL     1      15.826  47.437  42.941  1.00  0.00     0.097 A 
ATOM     20  C   UNL     1      17.902  48.299  44.595  1.00  0.00     0.188 A 
ATOM     21  C   UNL     1      15.527  47.866  44.238  1.00  0.00     0.134 A 
ATOM     22  C   UNL     1      16.566  48.362  45.070  1.00  0.00     0.111 A 
ATOM     23  O   UNL     1      18.910  48.702  45.361  1.00  0.00    -0.452 OA
ATOM     24  C   UNL     1      16.365  48.937  46.348  1.00  0.00     0.197 A 
ATOM     25  C   UNL     1      18.753  49.189  46.588  1.00  0.00     0.138 A 
ATOM     26  C   UNL     1      17.463  49.330  47.111  1.00  0.00     0.100 A 
ATOM     27  O   UNL     1      15.213  49.140  46.814  1.00  0.00    -0.289 OA
BRANCH  18  28
ATOM     28  O   UNL     1      19.547  47.720  42.957  1.00  0.00    -0.490 OA
ATOM     29  C   UNL     1      20.332  46.532  43.019  1.00  0.00     0.278 C 
ENDBRANCH  18  28
BRANCH  21  30
ATOM     30  O   UNL     1      14.195  47.748  44.642  1.00  0.00    -0.507 OA
ATOM     31  H   UNL     1      13.545  48.517  44.720  1.00  0.00     0.293 HD
ENDBRANCH  21  30
BRANCH  25  32
ATOM     32  C   UNL     1      19.952  49.584  47.359  1.00  0.00     0.017 A 
ATOM     33  C   UNL     1      21.108  50.069  46.715  1.00  0.00     0.012 A 
ATOM     34  C   UNL     1      19.926  49.528  48.765  1.00  0.00     0.012 A 
ATOM     35  C   UNL     1      22.211  50.486  47.468  1.00  0.00     0.001 A 
ATOM     36  C   UNL     1      21.037  49.937  49.510  1.00  0.00     0.001 A 
ATOM     37  C   UNL     1      22.175  50.422  48.863  1.00  0.00     0.000 A 
ENDBRANCH  25  32
ENDBRANCH   1  17
TORSDOF 9
ENDMDL
