MODEL 1
REMARK VINA RESULT:    -3.302      0.000      0.000
REMARK INTER + INTRA:          -4.224
REMARK INTER:                  -4.075
REMARK INTRA:                  -0.149
REMARK UNBOUND:                -0.149
REMARK SMILES CCCCCC(=O)[O-]
REMARK SMILES IDX 4 1 5 2 6 3 7 4 8 5 3 6 2 7 1 8
REMARK H PARENT
REMARK Flexibility Score: inf
ROOT
ATOM      1  C   UNL     1     161.197 160.993 182.827  1.00  0.00     0.006 C 
ENDROOT
BRANCH   1   2
ATOM      2  C   UNL     1     160.098 160.591 181.839  1.00  0.00     0.053 C 
BRANCH   2   3
ATOM      3  C   UNL     1     160.627 160.592 180.439  1.00  0.00     0.041 C 
ATOM      4  O   UNL     1     159.876 160.901 179.478  1.00  0.00    -0.550 OA
ATOM      5  O   UNL     1     161.963 160.298 180.201  1.00  0.00    -0.550 OA
ENDBRANCH   2   3
ENDBRANCH   1   2
BRANCH   1   6
ATOM      6  C   UNL     1     160.830 162.293 183.557  1.00  0.00     0.000 C 
BRANCH   6   7
ATOM      7  C   UNL     1     161.153 163.547 182.729  1.00  0.00    -0.003 C 
ATOM      8  C   UNL     1     159.905 164.195 182.129  1.00  0.00     0.004 C 
ENDBRANCH   6   7
ENDBRANCH   1   6
TORSDOF 4
ENDMDL
MODEL 2
REMARK VINA RESULT:    -3.291      1.232      2.056
REMARK INTER + INTRA:          -4.211
REMARK INTER:                  -3.979
REMARK INTRA:                  -0.231
REMARK UNBOUND:                -0.149
REMARK SMILES CCCCCC(=O)[O-]
REMARK SMILES IDX 4 1 5 2 6 3 7 4 8 5 3 6 2 7 1 8
REMARK H PARENT
REMARK Flexibility Score: inf
ROOT
ATOM      1  C   UNL     1     160.234 161.779 182.329  1.00  0.00     0.006 C 
ENDROOT
BRANCH   1   2
ATOM      2  C   UNL     1     160.079 160.461 181.564  1.00  0.00     0.053 C 
BRANCH   2   3
ATOM      3  C   UNL     1     160.603 160.600 180.170  1.00  0.00     0.041 C 
ATOM      4  O   UNL     1     159.876 161.085 179.264  1.00  0.00    -0.550 OA
ATOM      5  O   UNL     1     161.912 160.238 179.879  1.00  0.00    -0.550 OA
ENDBRANCH   2   3
ENDBRANCH   1   2
BRANCH   1   6
ATOM      6  C   UNL     1     161.314 161.661 183.413  1.00  0.00     0.000 C 
BRANCH   6   7
ATOM      7  C   UNL     1     162.717 162.008 182.889  1.00  0.00    -0.003 C 
ATOM      8  C   UNL     1     163.661 160.805 182.887  1.00  0.00     0.004 C 
ENDBRANCH   6   7
ENDBRANCH   1   6
TORSDOF 4
ENDMDL
MODEL 3
REMARK VINA RESULT:    -3.262      2.037      3.072
REMARK INTER + INTRA:          -4.174
REMARK INTER:                  -3.963
REMARK INTRA:                  -0.211
REMARK UNBOUND:                -0.149
REMARK SMILES CCCCCC(=O)[O-]
REMARK SMILES IDX 4 1 5 2 6 3 7 4 8 5 3 6 2 7 1 8
REMARK H PARENT
REMARK Flexibility Score: inf
ROOT
ATOM      1  C   UNL     1     162.376 162.209 182.713  1.00  0.00     0.006 C 
ENDROOT
BRANCH   1   2
ATOM      2  C   UNL     1     163.359 161.088 183.063  1.00  0.00     0.053 C 
BRANCH   2   3
ATOM      3  C   UNL     1     163.944 160.496 181.820  1.00  0.00     0.041 C 
ATOM      4  O   UNL     1     163.334 160.593 180.723  1.00  0.00    -0.550 OA
ATOM      5  O   UNL     1     165.187 159.876 181.862  1.00  0.00    -0.550 OA
ENDBRANCH   2   3
ENDBRANCH   1   2
BRANCH   1   6
ATOM      6  C   UNL     1     161.086 162.084 183.536  1.00  0.00     0.000 C 
BRANCH   6   7
ATOM      7  C   UNL     1     160.263 160.842 183.160  1.00  0.00    -0.003 C 
ATOM      8  C   UNL     1     159.960 160.765 181.664  1.00  0.00     0.004 C 
ENDBRANCH   6   7
ENDBRANCH   1   6
TORSDOF 4
ENDMDL
MODEL 4
REMARK VINA RESULT:    -3.213      1.632      2.210
REMARK INTER + INTRA:          -4.114
REMARK INTER:                  -3.906
REMARK INTRA:                  -0.208
REMARK UNBOUND:                -0.149
REMARK SMILES CCCCCC(=O)[O-]
REMARK SMILES IDX 4 1 5 2 6 3 7 4 8 5 3 6 2 7 1 8
REMARK H PARENT
REMARK Flexibility Score: inf
ROOT
ATOM      1  C   UNL     1     160.242 161.263 181.119  1.00  0.00     0.006 C 
ENDROOT
BRANCH   1   2
ATOM      2  C   UNL     1     161.023 160.305 180.216  1.00  0.00     0.053 C 
BRANCH   2   3
ATOM      3  C   UNL     1     162.451 160.738 180.103  1.00  0.00     0.041 C 
ATOM      4  O   UNL     1     162.890 161.670 180.826  1.00  0.00    -0.550 OA
ATOM      5  O   UNL     1     163.310 160.081 179.231  1.00  0.00    -0.550 OA
ENDBRANCH   2   3
ENDBRANCH   1   2
BRANCH   1   6
ATOM      6  C   UNL     1     159.985 160.633 182.496  1.00  0.00     0.000 C 
BRANCH   6   7
ATOM      7  C   UNL     1     160.602 161.448 183.643  1.00  0.00    -0.003 C 
ATOM      8  C   UNL     1     160.762 162.929 183.296  1.00  0.00     0.004 C 
ENDBRANCH   6   7
ENDBRANCH   1   6
TORSDOF 4
ENDMDL
MODEL 5
REMARK VINA RESULT:    -3.167      1.656      2.427
REMARK INTER + INTRA:          -4.057
REMARK INTER:                  -3.829
REMARK INTRA:                  -0.228
REMARK UNBOUND:                -0.149
REMARK SMILES CCCCCC(=O)[O-]
REMARK SMILES IDX 4 1 5 2 6 3 7 4 8 5 3 6 2 7 1 8
REMARK H PARENT
REMARK Flexibility Score: inf
ROOT
ATOM      1  C   UNL     1     160.021 160.146 180.735  1.00  0.00     0.006 C 
ENDROOT
BRANCH   1   2
ATOM      2  C   UNL     1     161.141 160.937 180.053  1.00  0.00     0.053 C 
BRANCH   2   3
ATOM      3  C   UNL     1     160.574 162.081 179.272  1.00  0.00     0.041 C 
ATOM      4  O   UNL     1     160.266 161.931 178.061  1.00  0.00    -0.550 OA
ATOM      5  O   UNL     1     160.340 163.300 179.895  1.00  0.00    -0.550 OA
ENDBRANCH   2   3
ENDBRANCH   1   2
BRANCH   1   6
ATOM      6  C   UNL     1     159.875 160.558 182.207  1.00  0.00     0.000 C 
BRANCH   6   7
ATOM      7  C   UNL     1     161.182 161.111 182.798  1.00  0.00    -0.003 C 
ATOM      8  C   UNL     1     160.994 162.463 183.485  1.00  0.00     0.004 C 
ENDBRANCH   6   7
ENDBRANCH   1   6
TORSDOF 4
ENDMDL
MODEL 6
REMARK VINA RESULT:    -3.078      1.723      3.086
REMARK INTER + INTRA:          -3.947
REMARK INTER:                  -3.710
REMARK INTRA:                  -0.237
REMARK UNBOUND:                -0.149
REMARK SMILES CCCCCC(=O)[O-]
REMARK SMILES IDX 4 1 5 2 6 3 7 4 8 5 3 6 2 7 1 8
REMARK H PARENT
REMARK Flexibility Score: inf
ROOT
ATOM      1  C   UNL     1     161.228 163.572 182.792  1.00  0.00     0.006 C 
ENDROOT
BRANCH   1   2
ATOM      2  C   UNL     1     160.189 164.095 181.796  1.00  0.00     0.053 C 
BRANCH   2   3
ATOM      3  C   UNL     1     160.620 163.810 180.391  1.00  0.00     0.041 C 
ATOM      4  O   UNL     1     161.363 164.621 179.779  1.00  0.00    -0.550 OA
ATOM      5  O   UNL     1     160.240 162.625 179.774  1.00  0.00    -0.550 OA
ENDBRANCH   2   3
ENDBRANCH   1   2
BRANCH   1   6
ATOM      6  C   UNL     1     160.692 162.352 183.553  1.00  0.00     0.000 C 
BRANCH   6   7
ATOM      7  C   UNL     1     161.084 161.022 182.890  1.00  0.00    -0.003 C 
ATOM      8  C   UNL     1     159.875 160.233 182.387  1.00  0.00     0.004 C 
ENDBRANCH   6   7
ENDBRANCH   1   6
TORSDOF 4
ENDMDL
MODEL 7
REMARK VINA RESULT:    -3.071      1.708      2.184
REMARK INTER + INTRA:          -3.938
REMARK INTER:                  -3.703
REMARK INTRA:                  -0.235
REMARK UNBOUND:                -0.149
REMARK SMILES CCCCCC(=O)[O-]
REMARK SMILES IDX 4 1 5 2 6 3 7 4 8 5 3 6 2 7 1 8
REMARK H PARENT
REMARK Flexibility Score: inf
ROOT
ATOM      1  C   UNL     1     161.357 161.018 182.915  1.00  0.00     0.006 C 
ENDROOT
BRANCH   1   2
ATOM      2  C   UNL     1     162.888 160.983 182.884  1.00  0.00     0.053 C 
BRANCH   2   3
ATOM      3  C   UNL     1     163.381 160.873 181.475  1.00  0.00     0.041 C 
ATOM      4  O   UNL     1     162.745 161.419 180.536  1.00  0.00    -0.550 OA
ATOM      5  O   UNL     1     164.570 160.207 181.205  1.00  0.00    -0.550 OA
ENDBRANCH   2   3
ENDBRANCH   1   2
BRANCH   1   6
ATOM      6  C   UNL     1     160.851 162.286 183.617  1.00  0.00     0.000 C 
BRANCH   6   7
ATOM      7  C   UNL     1     160.306 163.330 182.629  1.00  0.00    -0.003 C 
ATOM      8  C   UNL     1     161.366 164.341 182.193  1.00  0.00     0.004 C 
ENDBRANCH   6   7
ENDBRANCH   1   6
TORSDOF 4
ENDMDL
MODEL 8
REMARK VINA RESULT:    -2.997     15.279     16.150
REMARK INTER + INTRA:          -3.847
REMARK INTER:                  -3.742
REMARK INTRA:                  -0.105
REMARK UNBOUND:                -0.149
REMARK SMILES CCCCCC(=O)[O-]
REMARK SMILES IDX 4 1 5 2 6 3 7 4 8 5 3 6 2 7 1 8
REMARK H PARENT
REMARK Flexibility Score: inf
ROOT
ATOM      1  C   UNL     1     176.783 161.743 182.950  1.00  0.00     0.006 C 
ENDROOT
BRANCH   1   2
ATOM      2  C   UNL     1     176.553 163.248 182.784  1.00  0.00     0.053 C 
BRANCH   2   3
ATOM      3  C   UNL     1     177.631 163.852 181.941  1.00  0.00     0.041 C 
ATOM      4  O   UNL     1     178.046 165.016 182.180  1.00  0.00    -0.550 OA
ATOM      5  O   UNL     1     178.212 163.112 180.918  1.00  0.00    -0.550 OA
ENDBRANCH   2   3
ENDBRANCH   1   2
BRANCH   1   6
ATOM      6  C   UNL     1     175.695 160.938 182.226  1.00  0.00     0.000 C 
BRANCH   6   7
ATOM      7  C   UNL     1     175.044 159.878 183.129  1.00  0.00    -0.003 C 
ATOM      8  C   UNL     1     173.551 160.127 183.350  1.00  0.00     0.004 C 
ENDBRANCH   6   7
ENDBRANCH   1   6
TORSDOF 4
ENDMDL
MODEL 9
REMARK VINA RESULT:    -2.968      2.124      3.623
REMARK INTER + INTRA:          -3.812
REMARK INTER:                  -3.565
REMARK INTRA:                  -0.247
REMARK UNBOUND:                -0.149
REMARK SMILES CCCCCC(=O)[O-]
REMARK SMILES IDX 4 1 5 2 6 3 7 4 8 5 3 6 2 7 1 8
REMARK H PARENT
REMARK Flexibility Score: inf
ROOT
ATOM      1  C   UNL     1     161.106 161.080 182.892  1.00  0.00     0.006 C 
ENDROOT
BRANCH   1   2
ATOM      2  C   UNL     1     160.954 162.453 183.551  1.00  0.00     0.053 C 
BRANCH   2   3
ATOM      3  C   UNL     1     161.026 163.539 182.524  1.00  0.00     0.041 C 
ATOM      4  O   UNL     1     162.118 163.803 181.957  1.00  0.00    -0.550 OA
ATOM      5  O   UNL     1     159.877 164.228 182.159  1.00  0.00    -0.550 OA
ENDBRANCH   2   3
ENDBRANCH   1   2
BRANCH   1   6
ATOM      6  C   UNL     1     159.875 160.741 182.038  1.00  0.00     0.000 C 
BRANCH   6   7
ATOM      7  C   UNL     1     160.250 160.176 180.659  1.00  0.00    -0.003 C 
ATOM      8  C   UNL     1     161.626 160.643 180.183  1.00  0.00     0.004 C 
ENDBRANCH   6   7
ENDBRANCH   1   6
TORSDOF 4
ENDMDL
