MODEL 1
REMARK VINA RESULT:    -6.718      0.000      0.000
REMARK INTER + INTRA:         -13.275
REMARK INTER:                 -12.216
REMARK INTRA:                  -1.059
REMARK UNBOUND:                -1.059
REMARK SMILES CCCCCCCCCCCCCCCC(=O)[O-]
REMARK SMILES IDX 9 1 10 2 11 3 12 4 13 5 14 6 15 7 16 8 17 9 18 10 8 11 7 12
REMARK SMILES IDX 6 13 5 14 4 15 3 16 2 17 1 18
REMARK H PARENT
REMARK Flexibility Score: inf
ROOT
ATOM      1  C   UNL     1      -4.071   0.998   3.436  1.00  0.00     0.000 C 
ENDROOT
BRANCH   1   2
ATOM      2  C   UNL     1      -5.111   0.459   2.439  1.00  0.00     0.000 C 
BRANCH   2   3
ATOM      3  C   UNL     1      -6.476   0.181   3.093  1.00  0.00     0.000 C 
BRANCH   3   4
ATOM      4  C   UNL     1      -6.677  -1.264   3.592  1.00  0.00     0.000 C 
BRANCH   4   5
ATOM      5  C   UNL     1      -6.220  -1.529   5.037  1.00  0.00     0.000 C 
BRANCH   5   6
ATOM      6  C   UNL     1      -4.884  -2.288   5.111  1.00  0.00     0.006 C 
BRANCH   6   7
ATOM      7  C   UNL     1      -3.858  -1.569   5.997  1.00  0.00     0.053 C 
BRANCH   7   8
ATOM      8  C   UNL     1      -2.896  -2.528   6.628  1.00  0.00     0.041 C 
ATOM      9  O   UNL     1      -1.772  -2.125   7.031  1.00  0.00    -0.550 OA
ATOM     10  O   UNL     1      -3.250  -3.860   6.801  1.00  0.00    -0.550 OA
ENDBRANCH   7   8
ENDBRANCH   6   7
ENDBRANCH   5   6
ENDBRANCH   4   5
ENDBRANCH   3   4
ENDBRANCH   2   3
ENDBRANCH   1   2
BRANCH   1  11
ATOM     11  C   UNL     1      -4.322   2.466   3.814  1.00  0.00     0.000 C 
BRANCH  11  12
ATOM     12  C   UNL     1      -3.275   3.007   4.799  1.00  0.00    -0.000 C 
BRANCH  12  13
ATOM     13  C   UNL     1      -3.411   4.525   4.965  1.00  0.00    -0.000 C 
BRANCH  13  14
ATOM     14  C   UNL     1      -4.888   4.939   5.068  1.00  0.00    -0.000 C 
BRANCH  14  15
ATOM     15  C   UNL     1      -5.262   6.032   4.043  1.00  0.00    -0.000 C 
BRANCH  15  16
ATOM     16  C   UNL     1      -6.724   5.956   3.563  1.00  0.00    -0.000 C 
BRANCH  16  17
ATOM     17  C   UNL     1      -6.922   6.224   2.062  1.00  0.00    -0.003 C 
ATOM     18  C   UNL     1      -5.805   7.075   1.459  1.00  0.00     0.004 C 
ENDBRANCH  16  17
ENDBRANCH  15  16
ENDBRANCH  14  15
ENDBRANCH  13  14
ENDBRANCH  12  13
ENDBRANCH  11  12
ENDBRANCH   1  11
TORSDOF 14
ENDMDL
MODEL 2
REMARK VINA RESULT:    -6.511      4.402      5.503
REMARK INTER + INTRA:         -12.899
REMARK INTER:                 -12.271
REMARK INTRA:                  -0.629
REMARK UNBOUND:                -1.059
REMARK SMILES CCCCCCCCCCCCCCCC(=O)[O-]
REMARK SMILES IDX 9 1 10 2 11 3 12 4 13 5 14 6 15 7 16 8 17 9 18 10 8 11 7 12
REMARK SMILES IDX 6 13 5 14 4 15 3 16 2 17 1 18
REMARK H PARENT
REMARK Flexibility Score: inf
ROOT
ATOM      1  C   UNL     1      -4.319   0.701   3.158  1.00  0.00     0.000 C 
ENDROOT
BRANCH   1   2
ATOM      2  C   UNL     1      -5.167   0.402   1.910  1.00  0.00     0.000 C 
BRANCH   2   3
ATOM      3  C   UNL     1      -4.338   0.401   0.614  1.00  0.00     0.000 C 
BRANCH   3   4
ATOM      4  C   UNL     1      -5.134   0.089  -0.669  1.00  0.00     0.000 C 
BRANCH   4   5
ATOM      5  C   UNL     1      -4.341   0.222  -1.982  1.00  0.00     0.000 C 
BRANCH   5   6
ATOM      6  C   UNL     1      -4.739  -0.832  -3.029  1.00  0.00     0.006 C 
BRANCH   6   7
ATOM      7  C   UNL     1      -3.518  -1.539  -3.633  1.00  0.00     0.053 C 
BRANCH   7   8
ATOM      8  C   UNL     1      -3.378  -2.941  -3.127  1.00  0.00     0.041 C 
ATOM      9  O   UNL     1      -2.239  -3.404  -2.852  1.00  0.00    -0.550 OA
ATOM     10  O   UNL     1      -4.506  -3.728  -2.931  1.00  0.00    -0.550 OA
ENDBRANCH   7   8
ENDBRANCH   6   7
ENDBRANCH   5   6
ENDBRANCH   4   5
ENDBRANCH   3   4
ENDBRANCH   2   3
ENDBRANCH   1   2
BRANCH   1  11
ATOM     11  C   UNL     1      -4.285   2.198   3.504  1.00  0.00     0.000 C 
BRANCH  11  12
ATOM     12  C   UNL     1      -3.527   2.485   4.808  1.00  0.00    -0.000 C 
BRANCH  12  13
ATOM     13  C   UNL     1      -3.143   3.966   4.906  1.00  0.00    -0.000 C 
BRANCH  13  14
ATOM     14  C   UNL     1      -4.323   4.809   5.415  1.00  0.00    -0.000 C 
BRANCH  14  15
ATOM     15  C   UNL     1      -4.728   5.913   4.414  1.00  0.00    -0.000 C 
BRANCH  15  16
ATOM     16  C   UNL     1      -6.239   5.955   4.118  1.00  0.00    -0.000 C 
BRANCH  16  17
ATOM     17  C   UNL     1      -6.604   5.872   2.627  1.00  0.00    -0.003 C 
ATOM     18  C   UNL     1      -5.917   6.950   1.788  1.00  0.00     0.004 C 
ENDBRANCH  16  17
ENDBRANCH  15  16
ENDBRANCH  14  15
ENDBRANCH  13  14
ENDBRANCH  12  13
ENDBRANCH  11  12
ENDBRANCH   1  11
TORSDOF 14
ENDMDL
MODEL 3
REMARK VINA RESULT:    -6.505      4.113      7.981
REMARK INTER + INTRA:         -12.888
REMARK INTER:                 -11.724
REMARK INTRA:                  -1.164
REMARK UNBOUND:                -1.059
REMARK SMILES CCCCCCCCCCCCCCCC(=O)[O-]
REMARK SMILES IDX 9 1 10 2 11 3 12 4 13 5 14 6 15 7 16 8 17 9 18 10 8 11 7 12
REMARK SMILES IDX 6 13 5 14 4 15 3 16 2 17 1 18
REMARK H PARENT
REMARK Flexibility Score: inf
ROOT
ATOM      1  C   UNL     1      -3.651   3.203   5.079  1.00  0.00     0.000 C 
ENDROOT
BRANCH   1   2
ATOM      2  C   UNL     1      -4.338   4.482   5.587  1.00  0.00     0.000 C 
BRANCH   2   3
ATOM      3  C   UNL     1      -4.150   5.676   4.635  1.00  0.00     0.000 C 
BRANCH   3   4
ATOM      4  C   UNL     1      -5.457   6.355   4.176  1.00  0.00     0.000 C 
BRANCH   4   5
ATOM      5  C   UNL     1      -5.538   6.670   2.671  1.00  0.00     0.000 C 
BRANCH   5   6
ATOM      6  C   UNL     1      -6.877   6.247   2.044  1.00  0.00     0.006 C 
BRANCH   6   7
ATOM      7  C   UNL     1      -7.909   5.836   3.104  1.00  0.00     0.053 C 
BRANCH   7   8
ATOM      8  C   UNL     1      -9.236   5.506   2.493  1.00  0.00     0.041 C 
ATOM      9  O   UNL     1     -10.072   4.812   3.130  1.00  0.00    -0.550 OA
ATOM     10  O   UNL     1      -9.564   5.992   1.233  1.00  0.00    -0.550 OA
ENDBRANCH   7   8
ENDBRANCH   6   7
ENDBRANCH   5   6
ENDBRANCH   4   5
ENDBRANCH   3   4
ENDBRANCH   2   3
ENDBRANCH   1   2
BRANCH   1  11
ATOM     11  C   UNL     1      -4.311   2.643   3.810  1.00  0.00     0.000 C 
BRANCH  11  12
ATOM     12  C   UNL     1      -3.932   1.178   3.545  1.00  0.00    -0.000 C 
BRANCH  12  13
ATOM     13  C   UNL     1      -4.896   0.534   2.542  1.00  0.00    -0.000 C 
BRANCH  13  14
ATOM     14  C   UNL     1      -6.280   0.310   3.173  1.00  0.00    -0.000 C 
BRANCH  14  15
ATOM     15  C   UNL     1      -6.526  -1.172   3.531  1.00  0.00    -0.000 C 
BRANCH  15  16
ATOM     16  C   UNL     1      -6.159  -1.527   4.985  1.00  0.00    -0.000 C 
BRANCH  16  17
ATOM     17  C   UNL     1      -4.825  -2.274   5.147  1.00  0.00    -0.003 C 
ATOM     18  C   UNL     1      -3.823  -1.516   6.017  1.00  0.00     0.004 C 
ENDBRANCH  16  17
ENDBRANCH  15  16
ENDBRANCH  14  15
ENDBRANCH  13  14
ENDBRANCH  12  13
ENDBRANCH  11  12
ENDBRANCH   1  11
TORSDOF 14
ENDMDL
MODEL 4
REMARK VINA RESULT:    -6.402      1.147      1.773
REMARK INTER + INTRA:         -12.701
REMARK INTER:                 -11.698
REMARK INTRA:                  -1.003
REMARK UNBOUND:                -1.059
REMARK SMILES CCCCCCCCCCCCCCCC(=O)[O-]
REMARK SMILES IDX 9 1 10 2 11 3 12 4 13 5 14 6 15 7 16 8 17 9 18 10 8 11 7 12
REMARK SMILES IDX 6 13 5 14 4 15 3 16 2 17 1 18
REMARK H PARENT
REMARK Flexibility Score: inf
ROOT
ATOM      1  C   UNL     1      -3.615   2.227   4.539  1.00  0.00     0.000 C 
ENDROOT
BRANCH   1   2
ATOM      2  C   UNL     1      -4.542   2.138   3.316  1.00  0.00     0.000 C 
BRANCH   2   3
ATOM      3  C   UNL     1      -4.629   0.715   2.737  1.00  0.00     0.000 C 
BRANCH   3   4
ATOM      4  C   UNL     1      -5.957  -0.021   3.011  1.00  0.00     0.000 C 
BRANCH   4   5
ATOM      5  C   UNL     1      -5.881  -1.141   4.064  1.00  0.00     0.000 C 
BRANCH   5   6
ATOM      6  C   UNL     1      -4.436  -1.545   4.402  1.00  0.00     0.006 C 
BRANCH   6   7
ATOM      7  C   UNL     1      -4.330  -2.217   5.778  1.00  0.00     0.053 C 
BRANCH   7   8
ATOM      8  C   UNL     1      -3.130  -1.744   6.539  1.00  0.00     0.041 C 
ATOM      9  O   UNL     1      -3.113  -0.589   7.042  1.00  0.00    -0.550 OA
ATOM     10  O   UNL     1      -2.042  -2.589   6.722  1.00  0.00    -0.550 OA
ENDBRANCH   7   8
ENDBRANCH   6   7
ENDBRANCH   5   6
ENDBRANCH   4   5
ENDBRANCH   3   4
ENDBRANCH   2   3
ENDBRANCH   1   2
BRANCH   1  11
ATOM     11  C   UNL     1      -2.955   3.608   4.680  1.00  0.00     0.000 C 
BRANCH  11  12
ATOM     12  C   UNL     1      -3.933   4.680   5.181  1.00  0.00    -0.000 C 
BRANCH  12  13
ATOM     13  C   UNL     1      -3.785   5.977   4.377  1.00  0.00    -0.000 C 
BRANCH  13  14
ATOM     14  C   UNL     1      -5.142   6.679   4.208  1.00  0.00    -0.000 C 
BRANCH  14  15
ATOM     15  C   UNL     1      -6.284   5.682   3.913  1.00  0.00    -0.000 C 
BRANCH  15  16
ATOM     16  C   UNL     1      -7.050   5.986   2.611  1.00  0.00    -0.000 C 
BRANCH  16  17
ATOM     17  C   UNL     1      -8.548   5.643   2.652  1.00  0.00    -0.003 C 
ATOM     18  C   UNL     1      -9.276   6.013   1.360  1.00  0.00     0.004 C 
ENDBRANCH  16  17
ENDBRANCH  15  16
ENDBRANCH  14  15
ENDBRANCH  13  14
ENDBRANCH  12  13
ENDBRANCH  11  12
ENDBRANCH   1  11
TORSDOF 14
ENDMDL
MODEL 5
REMARK VINA RESULT:    -6.389      3.808      7.851
REMARK INTER + INTRA:         -12.677
REMARK INTER:                 -11.377
REMARK INTRA:                  -1.300
REMARK UNBOUND:                -1.059
REMARK SMILES CCCCCCCCCCCCCCCC(=O)[O-]
REMARK SMILES IDX 9 1 10 2 11 3 12 4 13 5 14 6 15 7 16 8 17 9 18 10 8 11 7 12
REMARK SMILES IDX 6 13 5 14 4 15 3 16 2 17 1 18
REMARK H PARENT
REMARK Flexibility Score: inf
ROOT
ATOM      1  C   UNL     1      -4.296   1.831   4.033  1.00  0.00     0.000 C 
ENDROOT
BRANCH   1   2
ATOM      2  C   UNL     1      -3.211   2.883   4.322  1.00  0.00     0.000 C 
BRANCH   2   3
ATOM      3  C   UNL     1      -3.577   3.808   5.496  1.00  0.00     0.000 C 
BRANCH   3   4
ATOM      4  C   UNL     1      -4.723   4.800   5.212  1.00  0.00     0.000 C 
BRANCH   4   5
ATOM      5  C   UNL     1      -4.336   6.024   4.364  1.00  0.00     0.000 C 
BRANCH   5   6
ATOM      6  C   UNL     1      -5.552   6.718   3.726  1.00  0.00     0.006 C 
BRANCH   6   7
ATOM      7  C   UNL     1      -6.304   5.794   2.759  1.00  0.00     0.053 C 
BRANCH   7   8
ATOM      8  C   UNL     1      -7.789   5.919   2.908  1.00  0.00     0.041 C 
ATOM      9  O   UNL     1      -8.530   5.930   1.889  1.00  0.00    -0.550 OA
ATOM     10  O   UNL     1      -8.360   5.992   4.173  1.00  0.00    -0.550 OA
ENDBRANCH   7   8
ENDBRANCH   6   7
ENDBRANCH   5   6
ENDBRANCH   4   5
ENDBRANCH   3   4
ENDBRANCH   2   3
ENDBRANCH   1   2
BRANCH   1  11
ATOM     11  C   UNL     1      -3.965   0.963   2.809  1.00  0.00     0.000 C 
BRANCH  11  12
ATOM     12  C   UNL     1      -5.214   0.323   2.186  1.00  0.00    -0.000 C 
BRANCH  12  13
ATOM     13  C   UNL     1      -6.348   0.219   3.212  1.00  0.00    -0.000 C 
BRANCH  13  14
ATOM     14  C   UNL     1      -6.593  -1.243   3.618  1.00  0.00    -0.000 C 
BRANCH  14  15
ATOM     15  C   UNL     1      -6.046  -1.559   5.027  1.00  0.00    -0.000 C 
BRANCH  15  16
ATOM     16  C   UNL     1      -4.568  -1.990   5.036  1.00  0.00    -0.000 C 
BRANCH  16  17
ATOM     17  C   UNL     1      -3.721  -1.360   6.154  1.00  0.00    -0.003 C 
ATOM     18  C   UNL     1      -2.625  -2.293   6.666  1.00  0.00     0.004 C 
ENDBRANCH  16  17
ENDBRANCH  15  16
ENDBRANCH  14  15
ENDBRANCH  13  14
ENDBRANCH  12  13
ENDBRANCH  11  12
ENDBRANCH   1  11
TORSDOF 14
ENDMDL
MODEL 6
REMARK VINA RESULT:    -6.281      2.345      3.907
REMARK INTER + INTRA:         -12.480
REMARK INTER:                 -11.428
REMARK INTRA:                  -1.052
REMARK UNBOUND:                -1.059
REMARK SMILES CCCCCCCCCCCCCCCC(=O)[O-]
REMARK SMILES IDX 9 1 10 2 11 3 12 4 13 5 14 6 15 7 16 8 17 9 18 10 8 11 7 12
REMARK SMILES IDX 6 13 5 14 4 15 3 16 2 17 1 18
REMARK H PARENT
REMARK Flexibility Score: inf
ROOT
ATOM      1  C   UNL     1      -3.325   2.996   7.588  1.00  0.00     0.000 C 
ENDROOT
BRANCH   1   2
ATOM      2  C   UNL     1      -2.341   2.648   8.718  1.00  0.00     0.000 C 
BRANCH   2   3
ATOM      3  C   UNL     1      -2.451   1.182   9.173  1.00  0.00     0.000 C 
BRANCH   3   4
ATOM      4  C   UNL     1      -1.386   0.235   8.583  1.00  0.00     0.000 C 
BRANCH   4   5
ATOM      5  C   UNL     1      -1.941  -1.005   7.858  1.00  0.00     0.000 C 
BRANCH   5   6
ATOM      6  C   UNL     1      -3.060  -0.662   6.859  1.00  0.00     0.006 C 
BRANCH   6   7
ATOM      7  C   UNL     1      -3.596  -1.908   6.141  1.00  0.00     0.053 C 
BRANCH   7   8
ATOM      8  C   UNL     1      -4.296  -1.558   4.864  1.00  0.00     0.041 C 
ATOM      9  O   UNL     1      -4.870  -2.454   4.190  1.00  0.00    -0.550 OA
ATOM     10  O   UNL     1      -4.341  -0.238   4.432  1.00  0.00    -0.550 OA
ENDBRANCH   7   8
ENDBRANCH   6   7
ENDBRANCH   5   6
ENDBRANCH   4   5
ENDBRANCH   3   4
ENDBRANCH   2   3
ENDBRANCH   1   2
BRANCH   1  11
ATOM     11  C   UNL     1      -2.664   2.968   6.201  1.00  0.00     0.000 C 
BRANCH  11  12
ATOM     12  C   UNL     1      -3.634   3.362   5.078  1.00  0.00    -0.000 C 
BRANCH  12  13
ATOM     13  C   UNL     1      -4.474   4.580   5.480  1.00  0.00    -0.000 C 
BRANCH  13  14
ATOM     14  C   UNL     1      -4.224   5.760   4.528  1.00  0.00    -0.000 C 
BRANCH  14  15
ATOM     15  C   UNL     1      -5.527   6.508   4.170  1.00  0.00    -0.000 C 
BRANCH  15  16
ATOM     16  C   UNL     1      -6.523   5.663   3.354  1.00  0.00    -0.000 C 
BRANCH  16  17
ATOM     17  C   UNL     1      -6.942   6.281   2.010  1.00  0.00    -0.003 C 
ATOM     18  C   UNL     1      -5.789   6.988   1.298  1.00  0.00     0.004 C 
ENDBRANCH  16  17
ENDBRANCH  15  16
ENDBRANCH  14  15
ENDBRANCH  13  14
ENDBRANCH  12  13
ENDBRANCH  11  12
ENDBRANCH   1  11
TORSDOF 14
ENDMDL
MODEL 7
REMARK VINA RESULT:    -6.242      2.376      3.257
REMARK INTER + INTRA:         -12.409
REMARK INTER:                 -11.463
REMARK INTRA:                  -0.946
REMARK UNBOUND:                -1.059
REMARK SMILES CCCCCCCCCCCCCCCC(=O)[O-]
REMARK SMILES IDX 9 1 10 2 11 3 12 4 13 5 14 6 15 7 16 8 17 9 18 10 8 11 7 12
REMARK SMILES IDX 6 13 5 14 4 15 3 16 2 17 1 18
REMARK H PARENT
REMARK Flexibility Score: inf
ROOT
ATOM      1  C   UNL     1      -4.436   0.347   2.918  1.00  0.00     0.000 C 
ENDROOT
BRANCH   1   2
ATOM      2  C   UNL     1      -4.992  -0.661   3.938  1.00  0.00     0.000 C 
BRANCH   2   3
ATOM      3  C   UNL     1      -3.884  -1.413   4.696  1.00  0.00     0.000 C 
BRANCH   3   4
ATOM      4  C   UNL     1      -3.954  -1.302   6.233  1.00  0.00     0.000 C 
BRANCH   4   5
ATOM      5  C   UNL     1      -2.596  -1.350   6.956  1.00  0.00     0.000 C 
BRANCH   5   6
ATOM      6  C   UNL     1      -2.317  -0.087   7.788  1.00  0.00     0.006 C 
BRANCH   6   7
ATOM      7  C   UNL     1      -1.217  -0.312   8.833  1.00  0.00     0.053 C 
BRANCH   7   8
ATOM      8  C   UNL     1      -0.693   0.979   9.380  1.00  0.00     0.041 C 
ATOM      9  O   UNL     1      -0.887   1.281  10.588  1.00  0.00    -0.550 OA
ATOM     10  O   UNL     1       0.037   1.837   8.567  1.00  0.00    -0.550 OA
ENDBRANCH   7   8
ENDBRANCH   6   7
ENDBRANCH   5   6
ENDBRANCH   4   5
ENDBRANCH   3   4
ENDBRANCH   2   3
ENDBRANCH   1   2
BRANCH   1  11
ATOM     11  C   UNL     1      -4.484   1.794   3.433  1.00  0.00     0.000 C 
BRANCH  11  12
ATOM     12  C   UNL     1      -3.150   2.246   4.045  1.00  0.00    -0.000 C 
BRANCH  12  13
ATOM     13  C   UNL     1      -3.383   3.132   5.274  1.00  0.00    -0.000 C 
BRANCH  13  14
ATOM     14  C   UNL     1      -3.516   4.609   4.873  1.00  0.00    -0.000 C 
BRANCH  14  15
ATOM     15  C   UNL     1      -4.961   5.131   5.030  1.00  0.00    -0.000 C 
BRANCH  15  16
ATOM     16  C   UNL     1      -5.262   6.385   4.188  1.00  0.00    -0.000 C 
BRANCH  16  17
ATOM     17  C   UNL     1      -6.401   6.218   3.170  1.00  0.00    -0.003 C 
ATOM     18  C   UNL     1      -6.052   6.779   1.792  1.00  0.00     0.004 C 
ENDBRANCH  16  17
ENDBRANCH  15  16
ENDBRANCH  14  15
ENDBRANCH  13  14
ENDBRANCH  12  13
ENDBRANCH  11  12
ENDBRANCH   1  11
TORSDOF 14
ENDMDL
MODEL 8
REMARK VINA RESULT:    -6.235      2.561      4.699
REMARK INTER + INTRA:         -12.396
REMARK INTER:                 -11.418
REMARK INTRA:                  -0.979
REMARK UNBOUND:                -1.059
REMARK SMILES CCCCCCCCCCCCCCCC(=O)[O-]
REMARK SMILES IDX 9 1 10 2 11 3 12 4 13 5 14 6 15 7 16 8 17 9 18 10 8 11 7 12
REMARK SMILES IDX 6 13 5 14 4 15 3 16 2 17 1 18
REMARK H PARENT
REMARK Flexibility Score: inf
ROOT
ATOM      1  C   UNL     1      -4.382   5.729   4.566  1.00  0.00     0.000 C 
ENDROOT
BRANCH   1   2
ATOM      2  C   UNL     1      -4.507   4.537   5.530  1.00  0.00     0.000 C 
BRANCH   2   3
ATOM      3  C   UNL     1      -3.305   3.579   5.450  1.00  0.00     0.000 C 
BRANCH   3   4
ATOM      4  C   UNL     1      -3.200   2.772   4.141  1.00  0.00     0.000 C 
BRANCH   4   5
ATOM      5  C   UNL     1      -4.516   2.140   3.654  1.00  0.00     0.000 C 
BRANCH   5   6
ATOM      6  C   UNL     1      -4.307   0.779   2.968  1.00  0.00     0.006 C 
BRANCH   6   7
ATOM      7  C   UNL     1      -4.389  -0.389   3.961  1.00  0.00     0.053 C 
BRANCH   7   8
ATOM      8  C   UNL     1      -5.777  -0.942   4.058  1.00  0.00     0.041 C 
ATOM      9  O   UNL     1      -6.054  -1.809   4.929  1.00  0.00    -0.550 OA
ATOM     10  O   UNL     1      -6.774  -0.479   3.208  1.00  0.00    -0.550 OA
ENDBRANCH   7   8
ENDBRANCH   6   7
ENDBRANCH   5   6
ENDBRANCH   4   5
ENDBRANCH   3   4
ENDBRANCH   2   3
ENDBRANCH   1   2
BRANCH   1  11
ATOM     11  C   UNL     1      -5.749   6.261   4.106  1.00  0.00     0.000 C 
BRANCH  11  12
ATOM     12  C   UNL     1      -5.719   6.793   2.666  1.00  0.00    -0.000 C 
BRANCH  12  13
ATOM     13  C   UNL     1      -6.902   6.250   1.856  1.00  0.00    -0.000 C 
BRANCH  13  14
ATOM     14  C   UNL     1      -7.965   5.632   2.777  1.00  0.00    -0.000 C 
BRANCH  14  15
ATOM     15  C   UNL     1      -9.395   5.809   2.222  1.00  0.00    -0.000 C 
BRANCH  15  16
ATOM     16  C   UNL     1     -10.491   5.747   3.303  1.00  0.00    -0.000 C 
BRANCH  16  17
ATOM     17  C   UNL     1     -10.374   6.818   4.399  1.00  0.00    -0.003 C 
ATOM     18  C   UNL     1     -10.541   6.247   5.807  1.00  0.00     0.004 C 
ENDBRANCH  16  17
ENDBRANCH  15  16
ENDBRANCH  14  15
ENDBRANCH  13  14
ENDBRANCH  12  13
ENDBRANCH  11  12
ENDBRANCH   1  11
TORSDOF 14
ENDMDL
MODEL 9
REMARK VINA RESULT:    -6.193      1.169      2.638
REMARK INTER + INTRA:         -12.322
REMARK INTER:                 -11.244
REMARK INTRA:                  -1.077
REMARK UNBOUND:                -1.059
REMARK SMILES CCCCCCCCCCCCCCCC(=O)[O-]
REMARK SMILES IDX 9 1 10 2 11 3 12 4 13 5 14 6 15 7 16 8 17 9 18 10 8 11 7 12
REMARK SMILES IDX 6 13 5 14 4 15 3 16 2 17 1 18
REMARK H PARENT
REMARK Flexibility Score: inf
ROOT
ATOM      1  C   UNL     1      -6.424   0.210   3.201  1.00  0.00     0.000 C 
ENDROOT
BRANCH   1   2
ATOM      2  C   UNL     1      -6.587  -1.256   3.637  1.00  0.00     0.000 C 
BRANCH   2   3
ATOM      3  C   UNL     1      -6.046  -1.519   5.053  1.00  0.00     0.000 C 
BRANCH   3   4
ATOM      4  C   UNL     1      -4.665  -2.203   5.107  1.00  0.00     0.000 C 
BRANCH   4   5
ATOM      5  C   UNL     1      -3.635  -1.529   6.031  1.00  0.00     0.000 C 
BRANCH   5   6
ATOM      6  C   UNL     1      -2.849  -2.539   6.885  1.00  0.00     0.006 C 
BRANCH   6   7
ATOM      7  C   UNL     1      -3.313  -3.982   6.650  1.00  0.00     0.053 C 
BRANCH   7   8
ATOM      8  C   UNL     1      -2.774  -4.918   7.687  1.00  0.00     0.041 C 
ATOM      9  O   UNL     1      -2.899  -4.648   8.911  1.00  0.00    -0.550 OA
ATOM     10  O   UNL     1      -2.160  -6.105   7.305  1.00  0.00    -0.550 OA
ENDBRANCH   7   8
ENDBRANCH   6   7
ENDBRANCH   5   6
ENDBRANCH   4   5
ENDBRANCH   3   4
ENDBRANCH   2   3
ENDBRANCH   1   2
BRANCH   1  11
ATOM     11  C   UNL     1      -5.124   0.452   2.418  1.00  0.00     0.000 C 
BRANCH  11  12
ATOM     12  C   UNL     1      -4.004   1.025   3.298  1.00  0.00    -0.000 C 
BRANCH  12  13
ATOM     13  C   UNL     1      -4.389   2.402   3.849  1.00  0.00    -0.000 C 
BRANCH  13  14
ATOM     14  C   UNL     1      -3.237   3.014   4.662  1.00  0.00    -0.000 C 
BRANCH  14  15
ATOM     15  C   UNL     1      -3.455   4.516   4.947  1.00  0.00    -0.000 C 
BRANCH  15  16
ATOM     16  C   UNL     1      -4.938   4.925   5.017  1.00  0.00    -0.000 C 
BRANCH  16  17
ATOM     17  C   UNL     1      -5.308   6.148   4.163  1.00  0.00    -0.003 C 
ATOM     18  C   UNL     1      -6.647   5.986   3.443  1.00  0.00     0.004 C 
ENDBRANCH  16  17
ENDBRANCH  15  16
ENDBRANCH  14  15
ENDBRANCH  13  14
ENDBRANCH  12  13
ENDBRANCH  11  12
ENDBRANCH   1  11
TORSDOF 14
ENDMDL
