MODEL 1
REMARK VINA RESULT:    -3.781      0.000      0.000
REMARK INTER + INTRA:          -5.712
REMARK INTER:                  -5.439
REMARK INTRA:                  -0.273
REMARK UNBOUND:                -0.273
REMARK SMILES CCCCCCCCCO
REMARK SMILES IDX 6 1 5 2 4 3 3 4 2 5 1 6 7 7 8 8 9 9 10 10
REMARK H PARENT 10 11
REMARK Flexibility Score: inf
ROOT
ATOM      1  C   UNL     1     212.753 197.110 213.720  1.00  0.00     0.000 C 
ENDROOT
BRANCH   1   2
ATOM      2  C   UNL     1     212.272 197.824 212.445  1.00  0.00     0.000 C 
BRANCH   2   3
ATOM      3  C   UNL     1     212.402 196.952 211.188  1.00  0.00    -0.000 C 
BRANCH   3   4
ATOM      4  C   UNL     1     211.754 197.636 209.975  1.00  0.00    -0.000 C 
BRANCH   4   5
ATOM      5  C   UNL     1     210.621 198.593 210.374  1.00  0.00    -0.003 C 
ATOM      6  C   UNL     1     210.678 199.924 209.625  1.00  0.00     0.004 C 
ENDBRANCH   4   5
ENDBRANCH   3   4
ENDBRANCH   2   3
ENDBRANCH   1   2
BRANCH   1   7
ATOM      7  C   UNL     1     213.628 197.997 214.633  1.00  0.00     0.002 C 
BRANCH   7   8
ATOM      8  C   UNL     1     213.346 197.749 216.123  1.00  0.00     0.028 C 
BRANCH   8   9
ATOM      9  C   UNL     1     212.261 196.686 216.327  1.00  0.00     0.156 C 
BRANCH   9  10
ATOM     10  O   UNL     1     211.093 197.255 216.854  1.00  0.00    -0.396 OA
ATOM     11  H   UNL     1     210.734 196.606 217.514  1.00  0.00     0.210 HD
ENDBRANCH   9  10
ENDBRANCH   8   9
ENDBRANCH   7   8
ENDBRANCH   1   7
TORSDOF 8
ENDMDL
MODEL 2
REMARK VINA RESULT:    -3.688      2.270      5.707
REMARK INTER + INTRA:          -5.578
REMARK INTER:                  -5.316
REMARK INTRA:                  -0.263
REMARK UNBOUND:                -0.273
REMARK SMILES CCCCCCCCCO
REMARK SMILES IDX 6 1 5 2 4 3 3 4 2 5 1 6 7 7 8 8 9 9 10 10
REMARK H PARENT 10 11
REMARK Flexibility Score: inf
ROOT
ATOM      1  C   UNL     1     212.328 197.014 211.395  1.00  0.00     0.000 C 
ENDROOT
BRANCH   1   2
ATOM      2  C   UNL     1     212.385 197.815 212.707  1.00  0.00     0.000 C 
BRANCH   2   3
ATOM      3  C   UNL     1     212.888 196.982 213.894  1.00  0.00    -0.000 C 
BRANCH   3   4
ATOM      4  C   UNL     1     213.646 197.859 214.900  1.00  0.00    -0.000 C 
BRANCH   4   5
ATOM      5  C   UNL     1     213.286 197.531 216.357  1.00  0.00    -0.003 C 
ATOM      6  C   UNL     1     211.959 196.782 216.486  1.00  0.00     0.004 C 
ENDBRANCH   4   5
ENDBRANCH   3   4
ENDBRANCH   2   3
ENDBRANCH   1   2
BRANCH   1   7
ATOM      7  C   UNL     1     211.267 197.530 210.400  1.00  0.00     0.002 C 
BRANCH   7   8
ATOM      8  C   UNL     1     211.884 198.405 209.296  1.00  0.00     0.028 C 
BRANCH   8   9
ATOM      9  C   UNL     1     211.264 199.806 209.270  1.00  0.00     0.156 C 
BRANCH   9  10
ATOM     10  O   UNL     1     211.008 200.266 210.570  1.00  0.00    -0.396 OA
ATOM     11  H   UNL     1     211.891 200.428 210.993  1.00  0.00     0.210 HD
ENDBRANCH   9  10
ENDBRANCH   8   9
ENDBRANCH   7   8
ENDBRANCH   1   7
TORSDOF 8
ENDMDL
MODEL 3
REMARK VINA RESULT:    -3.474      1.580      2.090
REMARK INTER + INTRA:          -5.269
REMARK INTER:                  -4.975
REMARK INTRA:                  -0.294
REMARK UNBOUND:                -0.273
REMARK SMILES CCCCCCCCCO
REMARK SMILES IDX 6 1 5 2 4 3 3 4 2 5 1 6 7 7 8 8 9 9 10 10
REMARK H PARENT 10 11
REMARK Flexibility Score: inf
ROOT
ATOM      1  C   UNL     1     211.935 198.016 212.268  1.00  0.00     0.000 C 
ENDROOT
BRANCH   1   2
ATOM      2  C   UNL     1     212.294 196.789 211.412  1.00  0.00     0.000 C 
BRANCH   2   3
ATOM      3  C   UNL     1     212.525 197.138 209.935  1.00  0.00    -0.000 C 
BRANCH   3   4
ATOM      4  C   UNL     1     211.738 198.395 209.537  1.00  0.00    -0.000 C 
BRANCH   4   5
ATOM      5  C   UNL     1     212.374 199.138 208.352  1.00  0.00    -0.003 C 
ATOM      6  C   UNL     1     213.364 198.272 207.573  1.00  0.00     0.004 C 
ENDBRANCH   4   5
ENDBRANCH   3   4
ENDBRANCH   2   3
ENDBRANCH   1   2
BRANCH   1   7
ATOM      7  C   UNL     1     212.811 198.168 213.530  1.00  0.00     0.002 C 
BRANCH   7   8
ATOM      8  C   UNL     1     213.005 196.832 214.266  1.00  0.00     0.028 C 
BRANCH   8   9
ATOM      9  C   UNL     1     212.902 197.000 215.785  1.00  0.00     0.156 C 
BRANCH   9  10
ATOM     10  O   UNL     1     213.225 195.806 216.446  1.00  0.00    -0.396 OA
ATOM     11  H   UNL     1     212.526 195.666 217.136  1.00  0.00     0.210 HD
ENDBRANCH   9  10
ENDBRANCH   8   9
ENDBRANCH   7   8
ENDBRANCH   1   7
TORSDOF 8
ENDMDL
MODEL 4
REMARK VINA RESULT:    -3.452      2.913      5.831
REMARK INTER + INTRA:          -5.238
REMARK INTER:                  -4.962
REMARK INTRA:                  -0.276
REMARK UNBOUND:                -0.273
REMARK SMILES CCCCCCCCCO
REMARK SMILES IDX 6 1 5 2 4 3 3 4 2 5 1 6 7 7 8 8 9 9 10 10
REMARK H PARENT 10 11
REMARK Flexibility Score: inf
ROOT
ATOM      1  C   UNL     1     211.677 197.853 211.654  1.00  0.00     0.000 C 
ENDROOT
BRANCH   1   2
ATOM      2  C   UNL     1     212.271 196.438 211.753  1.00  0.00     0.000 C 
BRANCH   2   3
ATOM      3  C   UNL     1     213.111 196.230 213.021  1.00  0.00    -0.000 C 
BRANCH   3   4
ATOM      4  C   UNL     1     212.858 197.352 214.039  1.00  0.00    -0.000 C 
BRANCH   4   5
ATOM      5  C   UNL     1     212.530 196.814 215.440  1.00  0.00    -0.003 C 
ATOM      6  C   UNL     1     213.486 197.334 216.513  1.00  0.00     0.004 C 
ENDBRANCH   4   5
ENDBRANCH   3   4
ENDBRANCH   2   3
ENDBRANCH   1   2
BRANCH   1   7
ATOM      7  C   UNL     1     210.943 198.124 210.323  1.00  0.00     0.002 C 
BRANCH   7   8
ATOM      8  C   UNL     1     211.860 198.781 209.279  1.00  0.00     0.028 C 
BRANCH   8   9
ATOM      9  C   UNL     1     212.582 197.736 208.421  1.00  0.00     0.156 C 
BRANCH   9  10
ATOM     10  O   UNL     1     211.782 196.601 208.231  1.00  0.00    -0.396 OA
ATOM     11  H   UNL     1     212.286 195.832 208.604  1.00  0.00     0.210 HD
ENDBRANCH   9  10
ENDBRANCH   8   9
ENDBRANCH   7   8
ENDBRANCH   1   7
TORSDOF 8
ENDMDL
MODEL 5
REMARK VINA RESULT:    -3.409     15.916     18.064
REMARK INTER + INTRA:          -5.177
REMARK INTER:                  -4.978
REMARK INTRA:                  -0.199
REMARK UNBOUND:                -0.273
REMARK SMILES CCCCCCCCCO
REMARK SMILES IDX 6 1 5 2 4 3 3 4 2 5 1 6 7 7 8 8 9 9 10 10
REMARK H PARENT 10 11
REMARK Flexibility Score: inf
ROOT
ATOM      1  C   UNL     1     196.373 207.176 208.548  1.00  0.00     0.000 C 
ENDROOT
BRANCH   1   2
ATOM      2  C   UNL     1     196.553 205.887 207.728  1.00  0.00     0.000 C 
BRANCH   2   3
ATOM      3  C   UNL     1     197.764 205.058 208.176  1.00  0.00    -0.000 C 
BRANCH   3   4
ATOM      4  C   UNL     1     197.598 203.583 207.782  1.00  0.00    -0.000 C 
BRANCH   4   5
ATOM      5  C   UNL     1     198.944 202.871 207.582  1.00  0.00    -0.003 C 
ATOM      6  C   UNL     1     198.788 201.440 207.070  1.00  0.00     0.004 C 
ENDBRANCH   4   5
ENDBRANCH   3   4
ENDBRANCH   2   3
ENDBRANCH   1   2
BRANCH   1   7
ATOM      7  C   UNL     1     197.378 207.314 209.712  1.00  0.00     0.002 C 
BRANCH   7   8
ATOM      8  C   UNL     1     197.007 208.462 210.665  1.00  0.00     0.028 C 
BRANCH   8   9
ATOM      9  C   UNL     1     196.428 209.663 209.909  1.00  0.00     0.156 C 
BRANCH   9  10
ATOM     10  O   UNL     1     196.053 210.681 210.797  1.00  0.00    -0.396 OA
ATOM     11  H   UNL     1     195.795 211.462 210.241  1.00  0.00     0.210 HD
ENDBRANCH   9  10
ENDBRANCH   8   9
ENDBRANCH   7   8
ENDBRANCH   1   7
TORSDOF 8
ENDMDL
MODEL 6
REMARK VINA RESULT:    -3.398      2.325      3.384
REMARK INTER + INTRA:          -5.160
REMARK INTER:                  -4.948
REMARK INTRA:                  -0.212
REMARK UNBOUND:                -0.273
REMARK SMILES CCCCCCCCCO
REMARK SMILES IDX 6 1 5 2 4 3 3 4 2 5 1 6 7 7 8 8 9 9 10 10
REMARK H PARENT 10 11
REMARK Flexibility Score: inf
ROOT
ATOM      1  C   UNL     1     211.511 198.749 211.653  1.00  0.00     0.000 C 
ENDROOT
BRANCH   1   2
ATOM      2  C   UNL     1     211.499 198.284 210.187  1.00  0.00     0.000 C 
BRANCH   2   3
ATOM      3  C   UNL     1     211.553 199.451 209.190  1.00  0.00    -0.000 C 
BRANCH   3   4
ATOM      4  C   UNL     1     210.346 200.384 209.369  1.00  0.00    -0.000 C 
BRANCH   4   5
ATOM      5  C   UNL     1     210.476 201.678 208.552  1.00  0.00    -0.003 C 
ATOM      6  C   UNL     1     209.167 202.462 208.470  1.00  0.00     0.004 C 
ENDBRANCH   4   5
ENDBRANCH   3   4
ENDBRANCH   2   3
ENDBRANCH   1   2
BRANCH   1   7
ATOM      7  C   UNL     1     212.240 197.776 212.604  1.00  0.00     0.002 C 
BRANCH   7   8
ATOM      8  C   UNL     1     212.523 196.419 211.940  1.00  0.00     0.028 C 
BRANCH   8   9
ATOM      9  C   UNL     1     213.527 195.590 212.748  1.00  0.00     0.156 C 
BRANCH   9  10
ATOM     10  O   UNL     1     213.309 195.738 214.124  1.00  0.00    -0.396 OA
ATOM     11  H   UNL     1     213.510 194.859 214.540  1.00  0.00     0.210 HD
ENDBRANCH   9  10
ENDBRANCH   8   9
ENDBRANCH   7   8
ENDBRANCH   1   7
TORSDOF 8
ENDMDL
MODEL 7
REMARK VINA RESULT:    -3.312     15.306     16.321
REMARK INTER + INTRA:          -5.036
REMARK INTER:                  -4.649
REMARK INTRA:                  -0.387
REMARK UNBOUND:                -0.273
REMARK SMILES CCCCCCCCCO
REMARK SMILES IDX 6 1 5 2 4 3 3 4 2 5 1 6 7 7 8 8 9 9 10 10
REMARK H PARENT 10 11
REMARK Flexibility Score: inf
ROOT
ATOM      1  C   UNL     1     198.548 201.024 206.869  1.00  0.00     0.000 C 
ENDROOT
BRANCH   1   2
ATOM      2  C   UNL     1     198.866 202.497 206.562  1.00  0.00     0.000 C 
BRANCH   2   3
ATOM      3  C   UNL     1     197.702 203.441 206.896  1.00  0.00    -0.000 C 
BRANCH   3   4
ATOM      4  C   UNL     1     198.060 204.361 208.073  1.00  0.00    -0.000 C 
BRANCH   4   5
ATOM      5  C   UNL     1     199.576 204.549 208.234  1.00  0.00    -0.003 C 
ATOM      6  C   UNL     1     199.935 205.620 209.263  1.00  0.00     0.004 C 
ENDBRANCH   4   5
ENDBRANCH   3   4
ENDBRANCH   2   3
ENDBRANCH   1   2
BRANCH   1   7
ATOM      7  C   UNL     1     197.058 200.763 207.174  1.00  0.00     0.002 C 
BRANCH   7   8
ATOM      8  C   UNL     1     196.461 199.680 206.260  1.00  0.00     0.028 C 
BRANCH   8   9
ATOM      9  C   UNL     1     197.478 198.576 205.950  1.00  0.00     0.156 C 
BRANCH   9  10
ATOM     10  O   UNL     1     197.400 197.541 206.892  1.00  0.00    -0.396 OA
ATOM     11  H   UNL     1     198.312 197.159 206.971  1.00  0.00     0.210 HD
ENDBRANCH   9  10
ENDBRANCH   8   9
ENDBRANCH   7   8
ENDBRANCH   1   7
TORSDOF 8
ENDMDL
MODEL 8
REMARK VINA RESULT:    -3.310      8.582     11.126
REMARK INTER + INTRA:          -5.034
REMARK INTER:                  -4.678
REMARK INTRA:                  -0.356
REMARK UNBOUND:                -0.273
REMARK SMILES CCCCCCCCCO
REMARK SMILES IDX 6 1 5 2 4 3 3 4 2 5 1 6 7 7 8 8 9 9 10 10
REMARK H PARENT 10 11
REMARK Flexibility Score: inf
ROOT
ATOM      1  C   UNL     1     210.780 206.347 207.873  1.00  0.00     0.000 C 
ENDROOT
BRANCH   1   2
ATOM      2  C   UNL     1     209.313 205.885 207.848  1.00  0.00     0.000 C 
BRANCH   2   3
ATOM      3  C   UNL     1     209.131 204.508 207.194  1.00  0.00    -0.000 C 
BRANCH   3   4
ATOM      4  C   UNL     1     210.043 203.462 207.851  1.00  0.00    -0.000 C 
BRANCH   4   5
ATOM      5  C   UNL     1     209.251 202.350 208.556  1.00  0.00    -0.003 C 
ATOM      6  C   UNL     1     207.750 202.631 208.605  1.00  0.00     0.004 C 
ENDBRANCH   4   5
ENDBRANCH   3   4
ENDBRANCH   2   3
ENDBRANCH   1   2
BRANCH   1   7
ATOM      7  C   UNL     1     211.344 206.693 206.479  1.00  0.00     0.002 C 
BRANCH   7   8
ATOM      8  C   UNL     1     211.834 208.148 206.396  1.00  0.00     0.028 C 
BRANCH   8   9
ATOM      9  C   UNL     1     210.666 209.138 206.347  1.00  0.00     0.156 C 
BRANCH   9  10
ATOM     10  O   UNL     1     210.640 209.942 207.495  1.00  0.00    -0.396 OA
ATOM     11  H   UNL     1     211.505 210.429 207.520  1.00  0.00     0.210 HD
ENDBRANCH   9  10
ENDBRANCH   8   9
ENDBRANCH   7   8
ENDBRANCH   1   7
TORSDOF 8
ENDMDL
MODEL 9
REMARK VINA RESULT:    -3.285      4.641      6.588
REMARK INTER + INTRA:          -4.997
REMARK INTER:                  -4.530
REMARK INTRA:                  -0.467
REMARK UNBOUND:                -0.273
REMARK SMILES CCCCCCCCCO
REMARK SMILES IDX 6 1 5 2 4 3 3 4 2 5 1 6 7 7 8 8 9 9 10 10
REMARK H PARENT 10 11
REMARK Flexibility Score: inf
ROOT
ATOM      1  C   UNL     1     211.521 200.666 208.252  1.00  0.00     0.000 C 
ENDROOT
BRANCH   1   2
ATOM      2  C   UNL     1     211.151 201.982 207.547  1.00  0.00     0.000 C 
BRANCH   2   3
ATOM      3  C   UNL     1     210.085 202.786 208.305  1.00  0.00    -0.000 C 
BRANCH   3   4
ATOM      4  C   UNL     1     209.037 203.359 207.340  1.00  0.00    -0.000 C 
BRANCH   4   5
ATOM      5  C   UNL     1     207.599 203.052 207.782  1.00  0.00    -0.003 C 
ATOM      6  C   UNL     1     207.526 202.450 209.185  1.00  0.00     0.004 C 
ENDBRANCH   4   5
ENDBRANCH   3   4
ENDBRANCH   2   3
ENDBRANCH   1   2
BRANCH   1   7
ATOM      7  C   UNL     1     210.552 200.279 209.389  1.00  0.00     0.002 C 
BRANCH   7   8
ATOM      8  C   UNL     1     210.990 198.994 210.111  1.00  0.00     0.028 C 
BRANCH   8   9
ATOM      9  C   UNL     1     212.047 198.225 209.311  1.00  0.00     0.156 C 
BRANCH   9  10
ATOM     10  O   UNL     1     211.563 196.970 208.917  1.00  0.00    -0.396 OA
ATOM     11  H   UNL     1     210.628 197.107 208.616  1.00  0.00     0.210 HD
ENDBRANCH   9  10
ENDBRANCH   8   9
ENDBRANCH   7   8
ENDBRANCH   1   7
TORSDOF 8
ENDMDL
