MODEL 1
REMARK VINA RESULT:    -4.980      0.000      0.000
REMARK INTER + INTRA:          -9.424
REMARK INTER:                  -6.872
REMARK INTRA:                  -2.552
REMARK UNBOUND:                -2.552
REMARK SMILES CC[C@@H](CC[C@@H](C)[C@H]1CC[C@@H]2[C@H]3CC=C4C[C@H](O)CC[C@]4(C)[C@H]3CC[C@]21C)C(C)C
REMARK SMILES IDX 5 1 4 2 3 3 2 4 1 5 28 6 29 7 30 8 6 9 7 10 8 11 9 12 26 13
REMARK SMILES IDX 10 14 11 15 25 16 27 17 12 18 24 19 23 20 13 21 21 22 14 23
REMARK SMILES IDX 15 24 20 25 22 26 16 27 19 28 17 29 18 30
REMARK H PARENT 18 31
REMARK Flexibility Score: inf
ROOT
ATOM      1  C   UNL     1      18.601   1.697 -27.029  1.00  0.00     0.004 C 
ENDROOT
BRANCH   1   2
ATOM      2  C   UNL     1      19.265   1.348 -25.669  1.00  0.00     0.004 C 
BRANCH   2   3
ATOM      3  C   UNL     1      20.488   0.380 -25.767  1.00  0.00    -0.009 C 
BRANCH   3   4
ATOM      4  C   UNL     1      20.144  -0.995 -25.117  1.00  0.00     0.000 C 
ATOM      5  C   UNL     1      20.192  -2.174 -26.091  1.00  0.00     0.004 C 
ENDBRANCH   3   4
BRANCH   3   6
ATOM      6  C   UNL     1      21.796   1.017 -25.186  1.00  0.00    -0.014 C 
ATOM      7  C   UNL     1      21.879   2.541 -25.392  1.00  0.00     0.007 C 
ATOM      8  C   UNL     1      23.067   0.337 -25.723  1.00  0.00     0.007 C 
ENDBRANCH   3   6
ENDBRANCH   2   3
ENDBRANCH   1   2
BRANCH   1   9
ATOM      9  C   UNL     1      18.605   0.551 -28.080  1.00  0.00    -0.011 C 
ATOM     10  C   UNL     1      17.210  -0.071 -28.174  1.00  0.00     0.008 C 
BRANCH   9  11
ATOM     11  C   UNL     1      19.272   1.100 -29.420  1.00  0.00    -0.002 C 
ATOM     12  C   UNL     1      20.324   2.165 -28.990  1.00  0.00     0.005 C 
ATOM     13  C   UNL     1      20.126   0.193 -30.380  1.00  0.00    -0.026 C 
ATOM     14  C   UNL     1      21.698   1.459 -29.023  1.00  0.00     0.005 C 
ATOM     15  C   UNL     1      21.415   0.049 -29.554  1.00  0.00    -0.001 C 
ATOM     16  C   UNL     1      19.574  -1.200 -30.846  1.00  0.00     0.007 C 
ATOM     17  C   UNL     1      20.386   1.000 -31.707  1.00  0.00     0.012 C 
ATOM     18  C   UNL     1      22.549  -0.659 -30.334  1.00  0.00     0.000 C 
ATOM     19  C   UNL     1      20.570  -2.356 -30.611  1.00  0.00     0.005 C 
ATOM     20  C   UNL     1      22.030  -1.983 -31.024  1.00  0.00     0.003 C 
ATOM     21  C   UNL     1      23.770  -0.886 -29.433  1.00  0.00     0.031 C 
ATOM     22  C   UNL     1      23.023  -3.223 -30.955  1.00  0.00    -0.008 C 
ATOM     23  C   UNL     1      24.813  -1.674 -30.163  1.00  0.00    -0.027 C 
ATOM     24  C   UNL     1      24.483  -2.748 -30.906  1.00  0.00    -0.065 C 
ATOM     25  C   UNL     1      22.798  -4.101 -32.229  1.00  0.00     0.014 C 
ATOM     26  C   UNL     1      22.770  -4.097 -29.697  1.00  0.00     0.016 C 
ATOM     27  C   UNL     1      25.615  -3.642 -31.386  1.00  0.00     0.063 C 
ATOM     28  C   UNL     1      23.892  -5.149 -32.457  1.00  0.00     0.033 C 
ATOM     29  C   UNL     1      25.260  -4.486 -32.616  1.00  0.00     0.118 C 
BRANCH  29  30
ATOM     30  O   UNL     1      25.277  -3.687 -33.773  1.00  0.00    -0.393 OA
ATOM     31  H   UNL     1      25.862  -2.907 -33.581  1.00  0.00     0.210 HD
ENDBRANCH  29  30
ENDBRANCH   9  11
ENDBRANCH   1   9
TORSDOF 7
ENDMDL
MODEL 2
REMARK VINA RESULT:    -4.979      3.256      6.785
REMARK INTER + INTRA:          -9.424
REMARK INTER:                  -6.700
REMARK INTRA:                  -2.723
REMARK UNBOUND:                -2.552
REMARK SMILES CC[C@@H](CC[C@@H](C)[C@H]1CC[C@@H]2[C@H]3CC=C4C[C@H](O)CC[C@]4(C)[C@H]3CC[C@]21C)C(C)C
REMARK SMILES IDX 5 1 4 2 3 3 2 4 1 5 28 6 29 7 30 8 6 9 7 10 8 11 9 12 26 13
REMARK SMILES IDX 10 14 11 15 25 16 27 17 12 18 24 19 23 20 13 21 21 22 14 23
REMARK SMILES IDX 15 24 20 25 22 26 16 27 19 28 17 29 18 30
REMARK H PARENT 18 31
REMARK Flexibility Score: inf
ROOT
ATOM      1  C   UNL     1      19.330   0.982 -30.353  1.00  0.00     0.004 C 
ENDROOT
BRANCH   1   2
ATOM      2  C   UNL     1      20.000  -0.253 -31.015  1.00  0.00     0.004 C 
BRANCH   2   3
ATOM      3  C   UNL     1      21.518  -0.427 -30.690  1.00  0.00    -0.009 C 
BRANCH   3   4
ATOM      4  C   UNL     1      22.370  -0.299 -31.989  1.00  0.00     0.000 C 
ATOM      5  C   UNL     1      23.116   1.030 -32.117  1.00  0.00     0.004 C 
ENDBRANCH   3   4
BRANCH   3   6
ATOM      6  C   UNL     1      21.807  -1.750 -29.902  1.00  0.00    -0.014 C 
ATOM      7  C   UNL     1      20.539  -2.564 -29.586  1.00  0.00     0.007 C 
ATOM      8  C   UNL     1      22.614  -1.502 -28.616  1.00  0.00     0.007 C 
ENDBRANCH   3   6
ENDBRANCH   2   3
ENDBRANCH   1   2
BRANCH   1   9
ATOM      9  C   UNL     1      20.186   1.696 -29.269  1.00  0.00    -0.011 C 
ATOM     10  C   UNL     1      20.750   3.004 -29.832  1.00  0.00     0.008 C 
BRANCH   9  11
ATOM     11  C   UNL     1      19.335   1.766 -27.923  1.00  0.00    -0.002 C 
ATOM     12  C   UNL     1      18.150   0.769 -28.091  1.00  0.00     0.005 C 
ATOM     13  C   UNL     1      19.912   1.326 -26.527  1.00  0.00    -0.026 C 
ATOM     14  C   UNL     1      18.556  -0.520 -27.343  1.00  0.00     0.005 C 
ATOM     15  C   UNL     1      19.908  -0.202 -26.692  1.00  0.00    -0.001 C 
ATOM     16  C   UNL     1      21.309   1.857 -26.050  1.00  0.00     0.007 C 
ATOM     17  C   UNL     1      18.895   1.783 -25.415  1.00  0.00     0.012 C 
ATOM     18  C   UNL     1      20.260  -0.947 -25.383  1.00  0.00     0.000 C 
ATOM     19  C   UNL     1      22.264   0.730 -25.600  1.00  0.00     0.005 C 
ATOM     20  C   UNL     1      21.553  -0.338 -24.707  1.00  0.00     0.003 C 
ATOM     21  C   UNL     1      20.360  -2.459 -25.626  1.00  0.00     0.031 C 
ATOM     22  C   UNL     1      22.567  -1.399 -24.094  1.00  0.00    -0.008 C 
ATOM     23  C   UNL     1      20.816  -3.155 -24.380  1.00  0.00    -0.027 C 
ATOM     24  C   UNL     1      21.821  -2.660 -23.633  1.00  0.00    -0.065 C 
ATOM     25  C   UNL     1      23.288  -0.738 -22.874  1.00  0.00     0.014 C 
ATOM     26  C   UNL     1      23.639  -1.839 -25.129  1.00  0.00     0.016 C 
ATOM     27  C   UNL     1      22.395  -3.558 -22.549  1.00  0.00     0.063 C 
ATOM     28  C   UNL     1      24.055  -1.734 -21.998  1.00  0.00     0.033 C 
ATOM     29  C   UNL     1      23.116  -2.798 -21.430  1.00  0.00     0.118 C 
BRANCH  29  30
ATOM     30  O   UNL     1      22.177  -2.202 -20.567  1.00  0.00    -0.393 OA
ATOM     31  H   UNL     1      21.556  -1.673 -21.133  1.00  0.00     0.210 HD
ENDBRANCH  29  30
ENDBRANCH   9  11
ENDBRANCH   1   9
TORSDOF 7
ENDMDL
MODEL 3
REMARK VINA RESULT:    -4.901      1.705      4.463
REMARK INTER + INTRA:          -9.315
REMARK INTER:                  -6.802
REMARK INTRA:                  -2.514
REMARK UNBOUND:                -2.552
REMARK SMILES CC[C@@H](CC[C@@H](C)[C@H]1CC[C@@H]2[C@H]3CC=C4C[C@H](O)CC[C@]4(C)[C@H]3CC[C@]21C)C(C)C
REMARK SMILES IDX 5 1 4 2 3 3 2 4 1 5 28 6 29 7 30 8 6 9 7 10 8 11 9 12 26 13
REMARK SMILES IDX 10 14 11 15 25 16 27 17 12 18 24 19 23 20 13 21 21 22 14 23
REMARK SMILES IDX 15 24 20 25 22 26 16 27 19 28 17 29 18 30
REMARK H PARENT 18 31
REMARK Flexibility Score: inf
ROOT
ATOM      1  C   UNL     1      19.424   1.337 -25.559  1.00  0.00     0.004 C 
ENDROOT
BRANCH   1   2
ATOM      2  C   UNL     1      18.634   1.651 -26.859  1.00  0.00     0.004 C 
BRANCH   2   3
ATOM      3  C   UNL     1      19.376   1.277 -28.183  1.00  0.00    -0.009 C 
BRANCH   3   4
ATOM      4  C   UNL     1      19.740   2.565 -28.983  1.00  0.00     0.000 C 
ATOM      5  C   UNL     1      21.244   2.818 -29.106  1.00  0.00     0.004 C 
ENDBRANCH   3   4
BRANCH   3   6
ATOM      6  C   UNL     1      18.575   0.237 -29.037  1.00  0.00    -0.014 C 
ATOM      7  C   UNL     1      17.547  -0.566 -28.219  1.00  0.00     0.007 C 
ATOM      8  C   UNL     1      19.497  -0.717 -29.816  1.00  0.00     0.007 C 
ENDBRANCH   3   6
ENDBRANCH   2   3
ENDBRANCH   1   2
BRANCH   1   9
ATOM      9  C   UNL     1      20.952   1.119 -25.751  1.00  0.00    -0.011 C 
ATOM     10  C   UNL     1      21.712   2.377 -25.324  1.00  0.00     0.008 C 
BRANCH   9  11
ATOM     11  C   UNL     1      21.352  -0.265 -25.068  1.00  0.00    -0.002 C 
ATOM     12  C   UNL     1      20.079  -1.162 -25.099  1.00  0.00     0.005 C 
ATOM     13  C   UNL     1      22.428  -1.237 -25.678  1.00  0.00    -0.026 C 
ATOM     14  C   UNL     1      20.248  -2.119 -26.300  1.00  0.00     0.005 C 
ATOM     15  C   UNL     1      21.641  -1.814 -26.866  1.00  0.00    -0.001 C 
ATOM     16  C   UNL     1      23.827  -0.682 -26.121  1.00  0.00     0.007 C 
ATOM     17  C   UNL     1      22.742  -2.347 -24.608  1.00  0.00     0.012 C 
ATOM     18  C   UNL     1      22.389  -2.968 -27.575  1.00  0.00     0.000 C 
ATOM     19  C   UNL     1      24.207  -1.079 -27.564  1.00  0.00     0.005 C 
ATOM     20  C   UNL     1      23.890  -2.577 -27.878  1.00  0.00     0.003 C 
ATOM     21  C   UNL     1      21.622  -3.430 -28.821  1.00  0.00     0.031 C 
ATOM     22  C   UNL     1      24.443  -3.037 -29.297  1.00  0.00    -0.008 C 
ATOM     23  C   UNL     1      22.413  -4.464 -29.562  1.00  0.00    -0.027 C 
ATOM     24  C   UNL     1      23.735  -4.317 -29.766  1.00  0.00    -0.065 C 
ATOM     25  C   UNL     1      25.978  -3.303 -29.161  1.00  0.00     0.014 C 
ATOM     26  C   UNL     1      24.220  -1.950 -30.383  1.00  0.00     0.016 C 
ATOM     27  C   UNL     1      24.402  -5.265 -30.749  1.00  0.00     0.063 C 
ATOM     28  C   UNL     1      26.582  -4.048 -30.355  1.00  0.00     0.033 C 
ATOM     29  C   UNL     1      25.915  -5.411 -30.544  1.00  0.00     0.118 C 
BRANCH  29  30
ATOM     30  O   UNL     1      26.175  -6.233 -29.432  1.00  0.00    -0.393 OA
ATOM     31  H   UNL     1      26.602  -7.062 -29.775  1.00  0.00     0.210 HD
ENDBRANCH  29  30
ENDBRANCH   9  11
ENDBRANCH   1   9
TORSDOF 7
ENDMDL
MODEL 4
REMARK VINA RESULT:    -4.847      2.652      7.277
REMARK INTER + INTRA:          -9.240
REMARK INTER:                  -6.551
REMARK INTRA:                  -2.690
REMARK UNBOUND:                -2.552
REMARK SMILES CC[C@@H](CC[C@@H](C)[C@H]1CC[C@@H]2[C@H]3CC=C4C[C@H](O)CC[C@]4(C)[C@H]3CC[C@]21C)C(C)C
REMARK SMILES IDX 5 1 4 2 3 3 2 4 1 5 28 6 29 7 30 8 6 9 7 10 8 11 9 12 26 13
REMARK SMILES IDX 10 14 11 15 25 16 27 17 12 18 24 19 23 20 13 21 21 22 14 23
REMARK SMILES IDX 15 24 20 25 22 26 16 27 19 28 17 29 18 30
REMARK H PARENT 18 31
REMARK Flexibility Score: inf
ROOT
ATOM      1  C   UNL     1      24.949  -3.254 -33.753  1.00  0.00     0.004 C 
ENDROOT
BRANCH   1   2
ATOM      2  C   UNL     1      25.399  -4.328 -32.725  1.00  0.00     0.004 C 
BRANCH   2   3
ATOM      3  C   UNL     1      24.809  -4.149 -31.289  1.00  0.00    -0.009 C 
BRANCH   3   4
ATOM      4  C   UNL     1      25.901  -3.606 -30.317  1.00  0.00     0.000 C 
ATOM      5  C   UNL     1      25.542  -2.274 -29.658  1.00  0.00     0.004 C 
ENDBRANCH   3   4
BRANCH   3   6
ATOM      6  C   UNL     1      24.122  -5.454 -30.764  1.00  0.00    -0.014 C 
ATOM      7  C   UNL     1      23.318  -6.201 -31.844  1.00  0.00     0.007 C 
ATOM      8  C   UNL     1      23.242  -5.198 -29.528  1.00  0.00     0.007 C 
ENDBRANCH   3   6
ENDBRANCH   2   3
ENDBRANCH   1   2
BRANCH   1   9
ATOM      9  C   UNL     1      24.845  -1.807 -33.193  1.00  0.00    -0.011 C 
ATOM     10  C   UNL     1      26.026  -0.972 -33.694  1.00  0.00     0.008 C 
BRANCH   9  11
ATOM     11  C   UNL     1      23.373  -1.264 -33.473  1.00  0.00    -0.002 C 
ATOM     12  C   UNL     1      22.470  -2.515 -33.694  1.00  0.00     0.005 C 
ATOM     13  C   UNL     1      22.540  -0.469 -32.402  1.00  0.00    -0.026 C 
ATOM     14  C   UNL     1      21.736  -2.764 -32.358  1.00  0.00     0.005 C 
ATOM     15  C   UNL     1      22.159  -1.608 -31.443  1.00  0.00    -0.001 C 
ATOM     16  C   UNL     1      23.187   0.741 -31.641  1.00  0.00     0.007 C 
ATOM     17  C   UNL     1      21.269   0.124 -33.117  1.00  0.00     0.012 C 
ATOM     18  C   UNL     1      21.157  -1.162 -30.351  1.00  0.00     0.000 C 
ATOM     19  C   UNL     1      23.050   0.636 -30.107  1.00  0.00     0.005 C 
ATOM     20  C   UNL     1      21.622   0.182 -29.662  1.00  0.00     0.003 C 
ATOM     21  C   UNL     1      20.900  -2.296 -29.350  1.00  0.00     0.031 C 
ATOM     22  C   UNL     1      21.421   0.247 -28.085  1.00  0.00    -0.008 C 
ATOM     23  C   UNL     1      20.023  -1.815 -28.236  1.00  0.00    -0.027 C 
ATOM     24  C   UNL     1      20.227  -0.618 -27.654  1.00  0.00    -0.065 C 
ATOM     25  C   UNL     1      21.164   1.736 -27.685  1.00  0.00     0.014 C 
ATOM     26  C   UNL     1      22.673  -0.266 -27.322  1.00  0.00     0.016 C 
ATOM     27  C   UNL     1      19.473  -0.327 -26.367  1.00  0.00     0.063 C 
ATOM     28  C   UNL     1      20.645   1.909 -26.254  1.00  0.00     0.033 C 
ATOM     29  C   UNL     1      19.322   1.167 -26.059  1.00  0.00     0.118 C 
BRANCH  29  30
ATOM     30  O   UNL     1      18.327   1.732 -26.878  1.00  0.00    -0.393 OA
ATOM     31  H   UNL     1      18.647   2.633 -27.147  1.00  0.00     0.210 HD
ENDBRANCH  29  30
ENDBRANCH   9  11
ENDBRANCH   1   9
TORSDOF 7
ENDMDL
MODEL 5
REMARK VINA RESULT:    -4.841      1.911      3.994
REMARK INTER + INTRA:          -9.233
REMARK INTER:                  -6.802
REMARK INTRA:                  -2.431
REMARK UNBOUND:                -2.552
REMARK SMILES CC[C@@H](CC[C@@H](C)[C@H]1CC[C@@H]2[C@H]3CC=C4C[C@H](O)CC[C@]4(C)[C@H]3CC[C@]21C)C(C)C
REMARK SMILES IDX 5 1 4 2 3 3 2 4 1 5 28 6 29 7 30 8 6 9 7 10 8 11 9 12 26 13
REMARK SMILES IDX 10 14 11 15 25 16 27 17 12 18 24 19 23 20 13 21 21 22 14 23
REMARK SMILES IDX 15 24 20 25 22 26 16 27 19 28 17 29 18 30
REMARK H PARENT 18 31
REMARK Flexibility Score: inf
ROOT
ATOM      1  C   UNL     1      21.983   1.888 -25.383  1.00  0.00     0.004 C 
ENDROOT
BRANCH   1   2
ATOM      2  C   UNL     1      20.568   1.300 -25.131  1.00  0.00     0.004 C 
BRANCH   2   3
ATOM      3  C   UNL     1      19.935   0.566 -26.356  1.00  0.00    -0.009 C 
BRANCH   3   4
ATOM      4  C   UNL     1      18.626   1.284 -26.804  1.00  0.00     0.000 C 
ATOM      5  C   UNL     1      18.717   1.944 -28.180  1.00  0.00     0.004 C 
ENDBRANCH   3   4
BRANCH   3   6
ATOM      6  C   UNL     1      19.728  -0.963 -26.087  1.00  0.00    -0.014 C 
ATOM      7  C   UNL     1      20.262  -1.423 -24.718  1.00  0.00     0.007 C 
ATOM      8  C   UNL     1      20.311  -1.841 -27.207  1.00  0.00     0.007 C 
ENDBRANCH   3   6
ENDBRANCH   2   3
ENDBRANCH   1   2
BRANCH   1   9
ATOM      9  C   UNL     1      22.612   1.527 -26.759  1.00  0.00    -0.011 C 
ATOM     10  C   UNL     1      22.481   2.716 -27.716  1.00  0.00     0.008 C 
BRANCH   9  11
ATOM     11  C   UNL     1      24.067   0.928 -26.505  1.00  0.00    -0.002 C 
ATOM     12  C   UNL     1      23.969   0.045 -25.225  1.00  0.00     0.005 C 
ATOM     13  C   UNL     1      24.768  -0.061 -27.508  1.00  0.00    -0.026 C 
ATOM     14  C   UNL     1      23.844  -1.416 -25.711  1.00  0.00     0.005 C 
ATOM     15  C   UNL     1      23.967  -1.345 -27.238  1.00  0.00    -0.001 C 
ATOM     16  C   UNL     1      24.825   0.279 -29.038  1.00  0.00     0.007 C 
ATOM     17  C   UNL     1      26.269  -0.221 -27.063  1.00  0.00     0.012 C 
ATOM     18  C   UNL     1      24.554  -2.580 -27.963  1.00  0.00     0.000 C 
ATOM     19  C   UNL     1      24.312  -0.869 -29.935  1.00  0.00     0.005 C 
ATOM     20  C   UNL     1      24.847  -2.267 -29.484  1.00  0.00     0.003 C 
ATOM     21  C   UNL     1      23.657  -3.809 -27.761  1.00  0.00     0.031 C 
ATOM     22  C   UNL     1      24.471  -3.426 -30.505  1.00  0.00    -0.008 C 
ATOM     23  C   UNL     1      24.173  -4.964 -28.562  1.00  0.00    -0.027 C 
ATOM     24  C   UNL     1      24.589  -4.802 -29.832  1.00  0.00    -0.065 C 
ATOM     25  C   UNL     1      25.454  -3.348 -31.718  1.00  0.00     0.014 C 
ATOM     26  C   UNL     1      23.017  -3.283 -31.031  1.00  0.00     0.016 C 
ATOM     27  C   UNL     1      24.839  -6.057 -30.653  1.00  0.00     0.063 C 
ATOM     28  C   UNL     1      25.417  -4.583 -32.623  1.00  0.00     0.033 C 
ATOM     29  C   UNL     1      25.785  -5.845 -31.841  1.00  0.00     0.118 C 
BRANCH  29  30
ATOM     30  O   UNL     1      27.116  -5.763 -31.391  1.00  0.00    -0.393 OA
ATOM     31  H   UNL     1      27.692  -6.122 -32.116  1.00  0.00     0.210 HD
ENDBRANCH  29  30
ENDBRANCH   9  11
ENDBRANCH   1   9
TORSDOF 7
ENDMDL
MODEL 6
REMARK VINA RESULT:    -4.776      1.438      2.303
REMARK INTER + INTRA:          -9.144
REMARK INTER:                  -6.574
REMARK INTRA:                  -2.570
REMARK UNBOUND:                -2.552
REMARK SMILES CC[C@@H](CC[C@@H](C)[C@H]1CC[C@@H]2[C@H]3CC=C4C[C@H](O)CC[C@]4(C)[C@H]3CC[C@]21C)C(C)C
REMARK SMILES IDX 5 1 4 2 3 3 2 4 1 5 28 6 29 7 30 8 6 9 7 10 8 11 9 12 26 13
REMARK SMILES IDX 10 14 11 15 25 16 27 17 12 18 24 19 23 20 13 21 21 22 14 23
REMARK SMILES IDX 15 24 20 25 22 26 16 27 19 28 17 29 18 30
REMARK H PARENT 18 31
REMARK Flexibility Score: inf
ROOT
ATOM      1  C   UNL     1      21.309   1.713 -25.097  1.00  0.00     0.004 C 
ENDROOT
BRANCH   1   2
ATOM      2  C   UNL     1      21.926   0.480 -24.381  1.00  0.00     0.004 C 
BRANCH   2   3
ATOM      3  C   UNL     1      21.604  -0.895 -25.050  1.00  0.00    -0.009 C 
BRANCH   3   4
ATOM      4  C   UNL     1      20.497  -1.644 -24.247  1.00  0.00     0.000 C 
ATOM      5  C   UNL     1      20.964  -2.179 -22.892  1.00  0.00     0.004 C 
ENDBRANCH   3   4
BRANCH   3   6
ATOM      6  C   UNL     1      22.889  -1.762 -25.269  1.00  0.00    -0.014 C 
ATOM      7  C   UNL     1      24.196  -0.950 -25.199  1.00  0.00     0.007 C 
ATOM      8  C   UNL     1      22.836  -2.572 -26.575  1.00  0.00     0.007 C 
ENDBRANCH   3   6
ENDBRANCH   2   3
ENDBRANCH   1   2
BRANCH   1   9
ATOM      9  C   UNL     1      20.510   1.393 -26.392  1.00  0.00    -0.011 C 
ATOM     10  C   UNL     1      19.015   1.610 -26.146  1.00  0.00     0.008 C 
BRANCH   9  11
ATOM     11  C   UNL     1      21.189   2.172 -27.606  1.00  0.00    -0.002 C 
ATOM     12  C   UNL     1      22.531   2.754 -27.069  1.00  0.00     0.005 C 
ATOM     13  C   UNL     1      21.670   1.451 -28.919  1.00  0.00    -0.026 C 
ATOM     14  C   UNL     1      23.643   1.789 -27.537  1.00  0.00     0.005 C 
ATOM     15  C   UNL     1      22.931   0.741 -28.401  1.00  0.00    -0.001 C 
ATOM     16  C   UNL     1      20.711   0.462 -29.670  1.00  0.00     0.007 C 
ATOM     17  C   UNL     1      22.033   2.559 -29.977  1.00  0.00     0.012 C 
ATOM     18  C   UNL     1      23.750   0.075 -29.532  1.00  0.00     0.000 C 
ATOM     19  C   UNL     1      21.358  -0.911 -29.954  1.00  0.00     0.005 C 
ATOM     20  C   UNL     1      22.824  -0.786 -30.481  1.00  0.00     0.003 C 
ATOM     21  C   UNL     1      24.930  -0.720 -28.956  1.00  0.00     0.031 C 
ATOM     22  C   UNL     1      23.431  -2.180 -30.945  1.00  0.00    -0.008 C 
ATOM     23  C   UNL     1      25.644  -1.453 -30.049  1.00  0.00    -0.027 C 
ATOM     24  C   UNL     1      24.964  -2.113 -31.006  1.00  0.00    -0.065 C 
ATOM     25  C   UNL     1      22.862  -2.514 -32.363  1.00  0.00     0.014 C 
ATOM     26  C   UNL     1      23.049  -3.329 -29.972  1.00  0.00     0.016 C 
ATOM     27  C   UNL     1      25.754  -3.045 -31.910  1.00  0.00     0.063 C 
ATOM     28  C   UNL     1      23.593  -3.661 -33.067  1.00  0.00     0.033 C 
ATOM     29  C   UNL     1      25.074  -3.331 -33.254  1.00  0.00     0.118 C 
BRANCH  29  30
ATOM     30  O   UNL     1      25.217  -2.226 -34.114  1.00  0.00    -0.393 OA
ATOM     31  H   UNL     1      25.453  -2.583 -35.011  1.00  0.00     0.210 HD
ENDBRANCH  29  30
ENDBRANCH   9  11
ENDBRANCH   1   9
TORSDOF 7
ENDMDL
MODEL 7
REMARK VINA RESULT:    -4.775      1.448      4.125
REMARK INTER + INTRA:          -9.141
REMARK INTER:                  -6.476
REMARK INTRA:                  -2.665
REMARK UNBOUND:                -2.552
REMARK SMILES CC[C@@H](CC[C@@H](C)[C@H]1CC[C@@H]2[C@H]3CC=C4C[C@H](O)CC[C@]4(C)[C@H]3CC[C@]21C)C(C)C
REMARK SMILES IDX 5 1 4 2 3 3 2 4 1 5 28 6 29 7 30 8 6 9 7 10 8 11 9 12 26 13
REMARK SMILES IDX 10 14 11 15 25 16 27 17 12 18 24 19 23 20 13 21 21 22 14 23
REMARK SMILES IDX 15 24 20 25 22 26 16 27 19 28 17 29 18 30
REMARK H PARENT 18 31
REMARK Flexibility Score: inf
ROOT
ATOM      1  C   UNL     1      19.981   1.252 -25.696  1.00  0.00     0.004 C 
ENDROOT
BRANCH   1   2
ATOM      2  C   UNL     1      18.885   1.614 -26.735  1.00  0.00     0.004 C 
BRANCH   2   3
ATOM      3  C   UNL     1      19.247   1.271 -28.215  1.00  0.00    -0.009 C 
BRANCH   3   4
ATOM      4  C   UNL     1      19.598   2.569 -29.004  1.00  0.00     0.000 C 
ATOM      5  C   UNL     1      21.026   2.598 -29.553  1.00  0.00     0.004 C 
ENDBRANCH   3   4
BRANCH   3   6
ATOM      6  C   UNL     1      18.135   0.417 -28.914  1.00  0.00    -0.014 C 
ATOM      7  C   UNL     1      17.630  -0.755 -28.052  1.00  0.00     0.007 C 
ATOM      8  C   UNL     1      18.567  -0.089 -30.300  1.00  0.00     0.007 C 
ENDBRANCH   3   6
ENDBRANCH   2   3
ENDBRANCH   1   2
BRANCH   1   9
ATOM      9  C   UNL     1      21.444   1.483 -26.171  1.00  0.00    -0.011 C 
ATOM     10  C   UNL     1      22.012   2.740 -25.508  1.00  0.00     0.008 C 
BRANCH   9  11
ATOM     11  C   UNL     1      22.249   0.117 -26.000  1.00  0.00    -0.002 C 
ATOM     12  C   UNL     1      21.188  -0.999 -25.760  1.00  0.00     0.005 C 
ATOM     13  C   UNL     1      23.107  -0.516 -27.156  1.00  0.00    -0.026 C 
ATOM     14  C   UNL     1      20.986  -1.707 -27.118  1.00  0.00     0.005 C 
ATOM     15  C   UNL     1      21.992  -1.049 -28.071  1.00  0.00    -0.001 C 
ATOM     16  C   UNL     1      24.137   0.365 -27.946  1.00  0.00     0.007 C 
ATOM     17  C   UNL     1      23.954  -1.693 -26.544  1.00  0.00     0.012 C 
ATOM     18  C   UNL     1      22.534  -1.909 -29.237  1.00  0.00     0.000 C 
ATOM     19  C   UNL     1      23.960   0.279 -29.477  1.00  0.00     0.005 C 
ATOM     20  C   UNL     1      23.732  -1.186 -29.973  1.00  0.00     0.003 C 
ATOM     21  C   UNL     1      21.400  -2.317 -30.187  1.00  0.00     0.031 C 
ATOM     22  C   UNL     1      23.731  -1.304 -31.559  1.00  0.00    -0.008 C 
ATOM     23  C   UNL     1      21.954  -3.047 -31.371  1.00  0.00    -0.027 C 
ATOM     24  C   UNL     1      23.059  -2.611 -32.005  1.00  0.00    -0.065 C 
ATOM     25  C   UNL     1      25.214  -1.279 -32.053  1.00  0.00     0.014 C 
ATOM     26  C   UNL     1      22.964  -0.130 -32.225  1.00  0.00     0.016 C 
ATOM     27  C   UNL     1      23.394  -3.247 -33.345  1.00  0.00     0.063 C 
ATOM     28  C   UNL     1      25.384  -1.697 -33.516  1.00  0.00     0.033 C 
ATOM     29  C   UNL     1      24.870  -3.120 -33.742  1.00  0.00     0.118 C 
BRANCH  29  30
ATOM     30  O   UNL     1      25.648  -4.035 -33.009  1.00  0.00    -0.393 OA
ATOM     31  H   UNL     1      25.265  -4.077 -32.094  1.00  0.00     0.210 HD
ENDBRANCH  29  30
ENDBRANCH   9  11
ENDBRANCH   1   9
TORSDOF 7
ENDMDL
MODEL 8
REMARK VINA RESULT:    -4.765      3.679      6.686
REMARK INTER + INTRA:          -9.128
REMARK INTER:                  -6.702
REMARK INTRA:                  -2.426
REMARK UNBOUND:                -2.552
REMARK SMILES CC[C@@H](CC[C@@H](C)[C@H]1CC[C@@H]2[C@H]3CC=C4C[C@H](O)CC[C@]4(C)[C@H]3CC[C@]21C)C(C)C
REMARK SMILES IDX 5 1 4 2 3 3 2 4 1 5 28 6 29 7 30 8 6 9 7 10 8 11 9 12 26 13
REMARK SMILES IDX 10 14 11 15 25 16 27 17 12 18 24 19 23 20 13 21 21 22 14 23
REMARK SMILES IDX 15 24 20 25 22 26 16 27 19 28 17 29 18 30
REMARK H PARENT 18 31
REMARK Flexibility Score: inf
ROOT
ATOM      1  C   UNL     1      19.373   1.410 -29.543  1.00  0.00     0.004 C 
ENDROOT
BRANCH   1   2
ATOM      2  C   UNL     1      18.715   0.059 -29.933  1.00  0.00     0.004 C 
BRANCH   2   3
ATOM      3  C   UNL     1      18.850  -1.070 -28.861  1.00  0.00    -0.009 C 
BRANCH   3   4
ATOM      4  C   UNL     1      19.776  -2.210 -29.385  1.00  0.00     0.000 C 
ATOM      5  C   UNL     1      21.014  -2.455 -28.521  1.00  0.00     0.004 C 
ENDBRANCH   3   4
BRANCH   3   6
ATOM      6  C   UNL     1      17.457  -1.594 -28.374  1.00  0.00    -0.014 C 
ATOM      7  C   UNL     1      17.041  -2.925 -29.028  1.00  0.00     0.007 C 
ATOM      8  C   UNL     1      16.343  -0.546 -28.544  1.00  0.00     0.007 C 
ENDBRANCH   3   6
ENDBRANCH   2   3
ENDBRANCH   1   2
BRANCH   1   9
ATOM      9  C   UNL     1      20.828   1.306 -29.003  1.00  0.00    -0.011 C 
ATOM     10  C   UNL     1      21.811   1.801 -30.067  1.00  0.00     0.008 C 
BRANCH   9  11
ATOM     11  C   UNL     1      20.879   1.985 -27.562  1.00  0.00    -0.002 C 
ATOM     12  C   UNL     1      19.416   2.006 -27.026  1.00  0.00     0.005 C 
ATOM     13  C   UNL     1      21.643   1.345 -26.345  1.00  0.00    -0.026 C 
ATOM     14  C   UNL     1      19.289   0.808 -26.060  1.00  0.00     0.005 C 
ATOM     15  C   UNL     1      20.691   0.191 -25.994  1.00  0.00    -0.001 C 
ATOM     16  C   UNL     1      23.122   0.849 -26.518  1.00  0.00     0.007 C 
ATOM     17  C   UNL     1      21.698   2.412 -25.190  1.00  0.00     0.012 C 
ATOM     18  C   UNL     1      21.088  -0.535 -24.687  1.00  0.00     0.000 C 
ATOM     19  C   UNL     1      23.333  -0.604 -26.039  1.00  0.00     0.005 C 
ATOM     20  C   UNL     1      22.627  -0.895 -24.675  1.00  0.00     0.003 C 
ATOM     21  C   UNL     1      20.182  -1.750 -24.441  1.00  0.00     0.031 C 
ATOM     22  C   UNL     1      22.989  -2.328 -24.089  1.00  0.00    -0.008 C 
ATOM     23  C   UNL     1      20.650  -2.510 -23.239  1.00  0.00    -0.027 C 
ATOM     24  C   UNL     1      21.957  -2.762 -23.038  1.00  0.00    -0.065 C 
ATOM     25  C   UNL     1      24.406  -2.245 -23.433  1.00  0.00     0.014 C 
ATOM     26  C   UNL     1      23.016  -3.415 -25.198  1.00  0.00     0.016 C 
ATOM     27  C   UNL     1      22.319  -3.761 -21.950  1.00  0.00     0.063 C 
ATOM     28  C   UNL     1      24.753  -3.454 -22.559  1.00  0.00     0.033 C 
ATOM     29  C   UNL     1      23.748  -3.608 -21.416  1.00  0.00     0.118 C 
BRANCH  29  30
ATOM     30  O   UNL     1      23.826  -2.500 -20.553  1.00  0.00    -0.393 OA
ATOM     31  H   UNL     1      23.104  -2.604 -19.878  1.00  0.00     0.210 HD
ENDBRANCH  29  30
ENDBRANCH   9  11
ENDBRANCH   1   9
TORSDOF 7
ENDMDL
MODEL 9
REMARK VINA RESULT:    -4.748      2.838      7.809
REMARK INTER + INTRA:          -9.105
REMARK INTER:                  -6.595
REMARK INTRA:                  -2.510
REMARK UNBOUND:                -2.552
REMARK SMILES CC[C@@H](CC[C@@H](C)[C@H]1CC[C@@H]2[C@H]3CC=C4C[C@H](O)CC[C@]4(C)[C@H]3CC[C@]21C)C(C)C
REMARK SMILES IDX 5 1 4 2 3 3 2 4 1 5 28 6 29 7 30 8 6 9 7 10 8 11 9 12 26 13
REMARK SMILES IDX 10 14 11 15 25 16 27 17 12 18 24 19 23 20 13 21 21 22 14 23
REMARK SMILES IDX 15 24 20 25 22 26 16 27 19 28 17 29 18 30
REMARK H PARENT 18 31
REMARK Flexibility Score: inf
ROOT
ATOM      1  C   UNL     1      26.085  -5.404 -31.825  1.00  0.00     0.004 C 
ENDROOT
BRANCH   1   2
ATOM      2  C   UNL     1      25.507  -4.795 -33.131  1.00  0.00     0.004 C 
BRANCH   2   3
ATOM      3  C   UNL     1      24.073  -4.190 -32.993  1.00  0.00    -0.009 C 
BRANCH   3   4
ATOM      4  C   UNL     1      23.031  -5.087 -33.729  1.00  0.00     0.000 C 
ATOM      5  C   UNL     1      21.982  -5.709 -32.806  1.00  0.00     0.004 C 
ENDBRANCH   3   4
BRANCH   3   6
ATOM      6  C   UNL     1      24.016  -2.693 -33.450  1.00  0.00    -0.014 C 
ATOM      7  C   UNL     1      25.406  -2.056 -33.637  1.00  0.00     0.007 C 
ATOM      8  C   UNL     1      23.155  -1.826 -32.515  1.00  0.00     0.007 C 
ENDBRANCH   3   6
ENDBRANCH   2   3
ENDBRANCH   1   2
BRANCH   1   9
ATOM      9  C   UNL     1      25.120  -5.389 -30.605  1.00  0.00    -0.011 C 
ATOM     10  C   UNL     1      24.572  -6.798 -30.361  1.00  0.00     0.008 C 
BRANCH   9  11
ATOM     11  C   UNL     1      25.849  -4.649 -29.396  1.00  0.00    -0.002 C 
ATOM     12  C   UNL     1      26.839  -3.627 -30.030  1.00  0.00     0.005 C 
ATOM     13  C   UNL     1      25.082  -3.738 -28.368  1.00  0.00    -0.026 C 
ATOM     14  C   UNL     1      26.138  -2.251 -29.977  1.00  0.00     0.005 C 
ATOM     15  C   UNL     1      24.818  -2.498 -29.238  1.00  0.00    -0.001 C 
ATOM     16  C   UNL     1      23.771  -4.259 -27.681  1.00  0.00     0.007 C 
ATOM     17  C   UNL     1      26.066  -3.407 -27.185  1.00  0.00     0.012 C 
ATOM     18  C   UNL     1      24.222  -1.320 -28.433  1.00  0.00     0.000 C 
ATOM     19  C   UNL     1      22.589  -3.273 -27.807  1.00  0.00     0.005 C 
ATOM     20  C   UNL     1      23.010  -1.793 -27.535  1.00  0.00     0.003 C 
ATOM     21  C   UNL     1      23.865  -0.150 -29.361  1.00  0.00     0.031 C 
ATOM     22  C   UNL     1      21.768  -0.801 -27.484  1.00  0.00    -0.008 C 
ATOM     23  C   UNL     1      23.182   0.935 -28.588  1.00  0.00    -0.027 C 
ATOM     24  C   UNL     1      22.225   0.652 -27.684  1.00  0.00    -0.065 C 
ATOM     25  C   UNL     1      21.079  -0.950 -26.089  1.00  0.00     0.014 C 
ATOM     26  C   UNL     1      20.727  -1.122 -28.591  1.00  0.00     0.016 C 
ATOM     27  C   UNL     1      21.403   1.813 -27.147  1.00  0.00     0.063 C 
ATOM     28  C   UNL     1      20.068   0.159 -25.779  1.00  0.00     0.033 C 
ATOM     29  C   UNL     1      20.741   1.532 -25.793  1.00  0.00     0.118 C 
BRANCH  29  30
ATOM     30  O   UNL     1      21.695   1.611 -24.762  1.00  0.00    -0.393 OA
ATOM     31  H   UNL     1      21.549   2.476 -24.295  1.00  0.00     0.210 HD
ENDBRANCH  29  30
ENDBRANCH   9  11
ENDBRANCH   1   9
TORSDOF 7
ENDMDL
