MODEL 1
REMARK VINA RESULT:    -3.438      0.000      0.000
REMARK INTER + INTRA:         -14.672
REMARK INTER:                  -9.067
REMARK INTRA:                  -5.606
REMARK UNBOUND:                -5.606
REMARK SMILES CCCCCCCCCCCCCCCCCCCCCCCCCCCCCC(=O)[O-]
REMARK SMILES IDX 16 1 17 2 18 3 19 4 20 5 21 6 22 7 23 8 24 9 25 10 26 11
REMARK SMILES IDX 27 12 28 13 29 14 30 15 31 16 32 17 15 18 14 19 13 20 12 21
REMARK SMILES IDX 11 22 10 23 9 24 8 25 7 26 6 27 5 28 4 29 3 30 2 31 1 32
REMARK H PARENT
REMARK Flexibility Score: inf
ROOT
ATOM      1  C   UNL     1     -41.966 -19.116  25.072  1.00  0.00     0.000 C 
ENDROOT
BRANCH   1   2
ATOM      2  C   UNL     1     -42.750 -19.729  26.243  1.00  0.00     0.000 C 
BRANCH   2   3
ATOM      3  C   UNL     1     -43.746 -20.813  25.793  1.00  0.00     0.000 C 
BRANCH   3   4
ATOM      4  C   UNL     1     -44.255 -21.675  26.962  1.00  0.00     0.000 C 
BRANCH   4   5
ATOM      5  C   UNL     1     -45.165 -22.847  26.553  1.00  0.00     0.000 C 
BRANCH   5   6
ATOM      6  C   UNL     1     -46.467 -22.903  27.368  1.00  0.00     0.000 C 
BRANCH   6   7
ATOM      7  C   UNL     1     -46.530 -21.748  28.379  1.00  0.00     0.000 C 
BRANCH   7   8
ATOM      8  C   UNL     1     -47.713 -20.794  28.131  1.00  0.00     0.000 C 
BRANCH   8   9
ATOM      9  C   UNL     1     -47.992 -20.475  26.650  1.00  0.00     0.000 C 
BRANCH   9  10
ATOM     10  C   UNL     1     -47.075 -19.374  26.091  1.00  0.00     0.000 C 
BRANCH  10  11
ATOM     11  C   UNL     1     -46.872 -18.213  27.076  1.00  0.00     0.000 C 
BRANCH  11  12
ATOM     12  C   UNL     1     -46.492 -16.901  26.374  1.00  0.00     0.000 C 
BRANCH  12  13
ATOM     13  C   UNL     1     -44.969 -16.728  26.310  1.00  0.00     0.006 C 
BRANCH  13  14
ATOM     14  C   UNL     1     -44.508 -16.440  24.876  1.00  0.00     0.053 C 
BRANCH  14  15
ATOM     15  C   UNL     1     -43.572 -15.271  24.836  1.00  0.00     0.041 C 
ATOM     16  O   UNL     1     -43.962 -14.165  24.372  1.00  0.00    -0.550 OA
ATOM     17  O   UNL     1     -42.285 -15.383  25.350  1.00  0.00    -0.550 OA
ENDBRANCH  14  15
ENDBRANCH  13  14
ENDBRANCH  12  13
ENDBRANCH  11  12
ENDBRANCH  10  11
ENDBRANCH   9  10
ENDBRANCH   8   9
ENDBRANCH   7   8
ENDBRANCH   6   7
ENDBRANCH   5   6
ENDBRANCH   4   5
ENDBRANCH   3   4
ENDBRANCH   2   3
ENDBRANCH   1   2
BRANCH   1  18
ATOM     18  C   UNL     1     -40.632 -18.490  25.514  1.00  0.00     0.000 C 
BRANCH  18  19
ATOM     19  C   UNL     1     -40.285 -18.780  26.986  1.00  0.00     0.000 C 
BRANCH  19  20
ATOM     20  C   UNL     1     -38.887 -19.376  27.235  1.00  0.00     0.000 C 
BRANCH  20  21
ATOM     21  C   UNL     1     -38.897 -20.568  28.205  1.00  0.00     0.000 C 
BRANCH  21  22
ATOM     22  C   UNL     1     -40.271 -20.790  28.860  1.00  0.00     0.000 C 
BRANCH  22  23
ATOM     23  C   UNL     1     -40.936 -22.129  28.473  1.00  0.00     0.000 C 
BRANCH  23  24
ATOM     24  C   UNL     1     -40.112 -22.904  27.428  1.00  0.00    -0.000 C 
BRANCH  24  25
ATOM     25  C   UNL     1     -40.764 -22.892  26.036  1.00  0.00    -0.000 C 
BRANCH  25  26
ATOM     26  C   UNL     1     -39.922 -22.131  24.998  1.00  0.00    -0.000 C 
BRANCH  26  27
ATOM     27  C   UNL     1     -38.515 -22.737  24.837  1.00  0.00    -0.000 C 
BRANCH  27  28
ATOM     28  C   UNL     1     -37.493 -21.750  24.230  1.00  0.00    -0.000 C 
BRANCH  28  29
ATOM     29  C   UNL     1     -38.114 -20.428  23.734  1.00  0.00    -0.000 C 
BRANCH  29  30
ATOM     30  C   UNL     1     -37.115 -19.258  23.636  1.00  0.00    -0.000 C 
BRANCH  30  31
ATOM     31  C   UNL     1     -37.808 -17.886  23.667  1.00  0.00    -0.003 C 
ATOM     32  C   UNL     1     -36.849 -16.776  23.247  1.00  0.00     0.004 C 
ENDBRANCH  30  31
ENDBRANCH  29  30
ENDBRANCH  28  29
ENDBRANCH  27  28
ENDBRANCH  26  27
ENDBRANCH  25  26
ENDBRANCH  24  25
ENDBRANCH  23  24
ENDBRANCH  22  23
ENDBRANCH  21  22
ENDBRANCH  20  21
ENDBRANCH  19  20
ENDBRANCH  18  19
ENDBRANCH   1  18
TORSDOF 28
ENDMDL
MODEL 2
REMARK VINA RESULT:    -3.342      1.694      4.217
REMARK INTER + INTRA:         -14.418
REMARK INTER:                  -9.461
REMARK INTRA:                  -4.957
REMARK UNBOUND:                -5.606
REMARK SMILES CCCCCCCCCCCCCCCCCCCCCCCCCCCCCC(=O)[O-]
REMARK SMILES IDX 16 1 17 2 18 3 19 4 20 5 21 6 22 7 23 8 24 9 25 10 26 11
REMARK SMILES IDX 27 12 28 13 29 14 30 15 31 16 32 17 15 18 14 19 13 20 12 21
REMARK SMILES IDX 11 22 10 23 9 24 8 25 7 26 6 27 5 28 4 29 3 30 2 31 1 32
REMARK H PARENT
REMARK Flexibility Score: inf
ROOT
ATOM      1  C   UNL     1     -46.125 -22.704  28.756  1.00  0.00     0.000 C 
ENDROOT
BRANCH   1   2
ATOM      2  C   UNL     1     -46.975 -22.051  27.655  1.00  0.00     0.000 C 
BRANCH   2   3
ATOM      3  C   UNL     1     -47.517 -20.668  28.060  1.00  0.00     0.000 C 
BRANCH   3   4
ATOM      4  C   UNL     1     -47.767 -19.750  26.850  1.00  0.00     0.000 C 
BRANCH   4   5
ATOM      5  C   UNL     1     -46.562 -19.580  25.907  1.00  0.00     0.000 C 
BRANCH   5   6
ATOM      6  C   UNL     1     -45.638 -18.425  26.324  1.00  0.00     0.000 C 
BRANCH   6   7
ATOM      7  C   UNL     1     -46.446 -17.275  26.945  1.00  0.00     0.000 C 
BRANCH   7   8
ATOM      8  C   UNL     1     -46.926 -16.245  25.907  1.00  0.00     0.000 C 
BRANCH   8   9
ATOM      9  C   UNL     1     -45.823 -15.684  24.989  1.00  0.00     0.000 C 
BRANCH   9  10
ATOM     10  C   UNL     1     -44.644 -15.078  25.770  1.00  0.00     0.000 C 
BRANCH  10  11
ATOM     11  C   UNL     1     -43.290 -15.674  25.358  1.00  0.00     0.000 C 
BRANCH  11  12
ATOM     12  C   UNL     1     -43.117 -15.749  23.833  1.00  0.00     0.000 C 
BRANCH  12  13
ATOM     13  C   UNL     1     -41.752 -16.343  23.461  1.00  0.00     0.006 C 
BRANCH  13  14
ATOM     14  C   UNL     1     -40.608 -15.475  24.000  1.00  0.00     0.053 C 
BRANCH  14  15
ATOM     15  C   UNL     1     -40.637 -14.107  23.388  1.00  0.00     0.041 C 
ATOM     16  O   UNL     1     -40.489 -13.969  22.143  1.00  0.00    -0.550 OA
ATOM     17  O   UNL     1     -40.871 -12.989  24.179  1.00  0.00    -0.550 OA
ENDBRANCH  14  15
ENDBRANCH  13  14
ENDBRANCH  12  13
ENDBRANCH  11  12
ENDBRANCH  10  11
ENDBRANCH   9  10
ENDBRANCH   8   9
ENDBRANCH   7   8
ENDBRANCH   6   7
ENDBRANCH   5   6
ENDBRANCH   4   5
ENDBRANCH   3   4
ENDBRANCH   2   3
ENDBRANCH   1   2
BRANCH   1  18
ATOM     18  C   UNL     1     -44.614 -22.601  28.480  1.00  0.00     0.000 C 
BRANCH  18  19
ATOM     19  C   UNL     1     -44.291 -22.221  27.023  1.00  0.00     0.000 C 
BRANCH  19  20
ATOM     20  C   UNL     1     -42.816 -21.879  26.737  1.00  0.00     0.000 C 
BRANCH  20  21
ATOM     21  C   UNL     1     -41.862 -23.062  26.970  1.00  0.00     0.000 C 
BRANCH  21  22
ATOM     22  C   UNL     1     -40.870 -22.809  28.118  1.00  0.00     0.000 C 
BRANCH  22  23
ATOM     23  C   UNL     1     -41.069 -21.451  28.824  1.00  0.00     0.000 C 
BRANCH  23  24
ATOM     24  C   UNL     1     -39.742 -20.693  29.007  1.00  0.00    -0.000 C 
BRANCH  24  25
ATOM     25  C   UNL     1     -38.515 -21.574  28.723  1.00  0.00    -0.000 C 
BRANCH  25  26
ATOM     26  C   UNL     1     -37.682 -21.059  27.537  1.00  0.00    -0.000 C 
BRANCH  26  27
ATOM     27  C   UNL     1     -37.739 -22.015  26.331  1.00  0.00    -0.000 C 
BRANCH  27  28
ATOM     28  C   UNL     1     -38.683 -21.527  25.211  1.00  0.00    -0.000 C 
BRANCH  28  29
ATOM     29  C   UNL     1     -38.997 -20.018  25.267  1.00  0.00    -0.000 C 
BRANCH  29  30
ATOM     30  C   UNL     1     -40.464 -19.665  24.949  1.00  0.00    -0.000 C 
BRANCH  30  31
ATOM     31  C   UNL     1     -41.116 -18.807  26.045  1.00  0.00    -0.003 C 
ATOM     32  C   UNL     1     -40.082 -17.927  26.742  1.00  0.00     0.004 C 
ENDBRANCH  30  31
ENDBRANCH  29  30
ENDBRANCH  28  29
ENDBRANCH  27  28
ENDBRANCH  26  27
ENDBRANCH  25  26
ENDBRANCH  24  25
ENDBRANCH  23  24
ENDBRANCH  22  23
ENDBRANCH  21  22
ENDBRANCH  20  21
ENDBRANCH  19  20
ENDBRANCH  18  19
ENDBRANCH   1  18
TORSDOF 28
ENDMDL
MODEL 3
REMARK VINA RESULT:    -3.340      2.346      7.177
REMARK INTER + INTRA:         -14.412
REMARK INTER:                  -8.662
REMARK INTRA:                  -5.750
REMARK UNBOUND:                -5.606
REMARK SMILES CCCCCCCCCCCCCCCCCCCCCCCCCCCCCC(=O)[O-]
REMARK SMILES IDX 16 1 17 2 18 3 19 4 20 5 21 6 22 7 23 8 24 9 25 10 26 11
REMARK SMILES IDX 27 12 28 13 29 14 30 15 31 16 32 17 15 18 14 19 13 20 12 21
REMARK SMILES IDX 11 22 10 23 9 24 8 25 7 26 6 27 5 28 4 29 3 30 2 31 1 32
REMARK H PARENT
REMARK Flexibility Score: inf
ROOT
ATOM      1  C   UNL     1     -42.048 -21.886  27.876  1.00  0.00     0.000 C 
ENDROOT
BRANCH   1   2
ATOM      2  C   UNL     1     -41.286 -21.802  29.208  1.00  0.00     0.000 C 
BRANCH   2   3
ATOM      3  C   UNL     1     -40.265 -20.651  29.241  1.00  0.00     0.000 C 
BRANCH   3   4
ATOM      4  C   UNL     1     -40.154 -19.917  27.892  1.00  0.00     0.000 C 
BRANCH   4   5
ATOM      5  C   UNL     1     -38.762 -19.978  27.236  1.00  0.00     0.000 C 
BRANCH   5   6
ATOM      6  C   UNL     1     -37.803 -20.933  27.961  1.00  0.00     0.000 C 
BRANCH   6   7
ATOM      7  C   UNL     1     -37.522 -22.180  27.107  1.00  0.00     0.000 C 
BRANCH   7   8
ATOM      8  C   UNL     1     -38.097 -23.471  27.718  1.00  0.00     0.000 C 
BRANCH   8   9
ATOM      9  C   UNL     1     -39.335 -24.036  26.996  1.00  0.00     0.000 C 
BRANCH   9  10
ATOM     10  C   UNL     1     -39.264 -23.874  25.468  1.00  0.00     0.000 C 
BRANCH  10  11
ATOM     11  C   UNL     1     -40.585 -23.378  24.861  1.00  0.00     0.000 C 
BRANCH  11  12
ATOM     12  C   UNL     1     -40.373 -22.321  23.767  1.00  0.00     0.000 C 
BRANCH  12  13
ATOM     13  C   UNL     1     -38.906 -21.877  23.704  1.00  0.00     0.006 C 
BRANCH  13  14
ATOM     14  C   UNL     1     -38.789 -20.350  23.788  1.00  0.00     0.053 C 
BRANCH  14  15
ATOM     15  C   UNL     1     -37.413 -19.894  23.409  1.00  0.00     0.041 C 
ATOM     16  O   UNL     1     -37.109 -18.672  23.483  1.00  0.00    -0.550 OA
ATOM     17  O   UNL     1     -36.451 -20.817  23.017  1.00  0.00    -0.550 OA
ENDBRANCH  14  15
ENDBRANCH  13  14
ENDBRANCH  12  13
ENDBRANCH  11  12
ENDBRANCH  10  11
ENDBRANCH   9  10
ENDBRANCH   8   9
ENDBRANCH   7   8
ENDBRANCH   6   7
ENDBRANCH   5   6
ENDBRANCH   4   5
ENDBRANCH   3   4
ENDBRANCH   2   3
ENDBRANCH   1   2
BRANCH   1  18
ATOM     18  C   UNL     1     -42.965 -23.119  27.793  1.00  0.00     0.000 C 
BRANCH  18  19
ATOM     19  C   UNL     1     -44.448 -22.788  28.041  1.00  0.00     0.000 C 
BRANCH  19  20
ATOM     20  C   UNL     1     -45.398 -23.069  26.862  1.00  0.00     0.000 C 
BRANCH  20  21
ATOM     21  C   UNL     1     -46.833 -22.575  27.106  1.00  0.00     0.000 C 
BRANCH  21  22
ATOM     22  C   UNL     1     -46.970 -21.763  28.406  1.00  0.00     0.000 C 
BRANCH  22  23
ATOM     23  C   UNL     1     -47.867 -20.514  28.267  1.00  0.00     0.000 C 
BRANCH  23  24
ATOM     24  C   UNL     1     -47.915 -19.994  26.819  1.00  0.00    -0.000 C 
BRANCH  24  25
ATOM     25  C   UNL     1     -46.886 -18.883  26.556  1.00  0.00    -0.000 C 
BRANCH  25  26
ATOM     26  C   UNL     1     -45.856 -19.276  25.483  1.00  0.00    -0.000 C 
BRANCH  26  27
ATOM     27  C   UNL     1     -44.472 -19.572  26.090  1.00  0.00    -0.000 C 
BRANCH  27  28
ATOM     28  C   UNL     1     -43.486 -20.199  25.081  1.00  0.00    -0.000 C 
BRANCH  28  29
ATOM     29  C   UNL     1     -42.226 -19.346  24.821  1.00  0.00    -0.000 C 
BRANCH  29  30
ATOM     30  C   UNL     1     -42.206 -18.001  25.576  1.00  0.00    -0.000 C 
BRANCH  30  31
ATOM     31  C   UNL     1     -40.916 -17.205  25.328  1.00  0.00    -0.003 C 
ATOM     32  C   UNL     1     -41.109 -15.728  25.659  1.00  0.00     0.004 C 
ENDBRANCH  30  31
ENDBRANCH  29  30
ENDBRANCH  28  29
ENDBRANCH  27  28
ENDBRANCH  26  27
ENDBRANCH  25  26
ENDBRANCH  24  25
ENDBRANCH  23  24
ENDBRANCH  22  23
ENDBRANCH  21  22
ENDBRANCH  20  21
ENDBRANCH  19  20
ENDBRANCH  18  19
ENDBRANCH   1  18
TORSDOF 28
ENDMDL
MODEL 4
REMARK VINA RESULT:    -3.316      2.390      5.612
REMARK INTER + INTRA:         -14.350
REMARK INTER:                  -9.461
REMARK INTRA:                  -4.889
REMARK UNBOUND:                -5.606
REMARK SMILES CCCCCCCCCCCCCCCCCCCCCCCCCCCCCC(=O)[O-]
REMARK SMILES IDX 16 1 17 2 18 3 19 4 20 5 21 6 22 7 23 8 24 9 25 10 26 11
REMARK SMILES IDX 27 12 28 13 29 14 30 15 31 16 32 17 15 18 14 19 13 20 12 21
REMARK SMILES IDX 11 22 10 23 9 24 8 25 7 26 6 27 5 28 4 29 3 30 2 31 1 32
REMARK H PARENT
REMARK Flexibility Score: inf
ROOT
ATOM      1  C   UNL     1     -46.796 -21.853  27.455  1.00  0.00     0.000 C 
ENDROOT
BRANCH   1   2
ATOM      2  C   UNL     1     -47.666 -20.792  28.148  1.00  0.00     0.000 C 
BRANCH   2   3
ATOM      3  C   UNL     1     -47.682 -19.450  27.395  1.00  0.00     0.000 C 
BRANCH   3   4
ATOM      4  C   UNL     1     -46.933 -19.514  26.051  1.00  0.00     0.000 C 
BRANCH   4   5
ATOM      5  C   UNL     1     -46.098 -18.264  25.716  1.00  0.00     0.000 C 
BRANCH   5   6
ATOM      6  C   UNL     1     -45.973 -17.297  26.903  1.00  0.00     0.000 C 
BRANCH   6   7
ATOM      7  C   UNL     1     -45.092 -16.092  26.536  1.00  0.00     0.000 C 
BRANCH   7   8
ATOM      8  C   UNL     1     -44.249 -16.324  25.269  1.00  0.00     0.000 C 
BRANCH   8   9
ATOM      9  C   UNL     1     -43.225 -15.218  24.957  1.00  0.00     0.000 C 
BRANCH   9  10
ATOM     10  C   UNL     1     -43.883 -13.872  24.607  1.00  0.00     0.000 C 
BRANCH  10  11
ATOM     11  C   UNL     1     -44.873 -13.982  23.438  1.00  0.00     0.000 C 
BRANCH  11  12
ATOM     12  C   UNL     1     -46.309 -13.614  23.843  1.00  0.00     0.000 C 
BRANCH  12  13
ATOM     13  C   UNL     1     -47.263 -14.798  23.636  1.00  0.00     0.006 C 
BRANCH  13  14
ATOM     14  C   UNL     1     -48.146 -15.014  24.871  1.00  0.00     0.053 C 
BRANCH  14  15
ATOM     15  C   UNL     1     -49.166 -13.924  25.000  1.00  0.00     0.041 C 
ATOM     16  O   UNL     1     -50.175 -13.910  24.243  1.00  0.00    -0.550 OA
ATOM     17  O   UNL     1     -49.032 -12.949  25.981  1.00  0.00    -0.550 OA
ENDBRANCH  14  15
ENDBRANCH  13  14
ENDBRANCH  12  13
ENDBRANCH  11  12
ENDBRANCH  10  11
ENDBRANCH   9  10
ENDBRANCH   8   9
ENDBRANCH   7   8
ENDBRANCH   6   7
ENDBRANCH   5   6
ENDBRANCH   4   5
ENDBRANCH   3   4
ENDBRANCH   2   3
ENDBRANCH   1   2
BRANCH   1  18
ATOM     18  C   UNL     1     -45.844 -22.569  28.430  1.00  0.00     0.000 C 
BRANCH  18  19
ATOM     19  C   UNL     1     -44.359 -22.396  28.061  1.00  0.00     0.000 C 
BRANCH  19  20
ATOM     20  C   UNL     1     -44.049 -21.255  27.074  1.00  0.00     0.000 C 
BRANCH  20  21
ATOM     21  C   UNL     1     -43.362 -21.736  25.785  1.00  0.00     0.000 C 
BRANCH  21  22
ATOM     22  C   UNL     1     -42.436 -20.672  25.172  1.00  0.00     0.000 C 
BRANCH  22  23
ATOM     23  C   UNL     1     -42.463 -19.320  25.916  1.00  0.00     0.000 C 
BRANCH  23  24
ATOM     24  C   UNL     1     -41.247 -18.442  25.569  1.00  0.00    -0.000 C 
BRANCH  24  25
ATOM     25  C   UNL     1     -40.238 -18.348  26.725  1.00  0.00    -0.000 C 
BRANCH  25  26
ATOM     26  C   UNL     1     -39.064 -19.328  26.564  1.00  0.00    -0.000 C 
BRANCH  26  27
ATOM     27  C   UNL     1     -38.832 -20.169  27.833  1.00  0.00    -0.000 C 
BRANCH  27  28
ATOM     28  C   UNL     1     -40.140 -20.529  28.572  1.00  0.00    -0.000 C 
BRANCH  28  29
ATOM     29  C   UNL     1     -40.466 -22.037  28.572  1.00  0.00    -0.000 C 
BRANCH  29  30
ATOM     30  C   UNL     1     -40.191 -22.743  27.229  1.00  0.00    -0.000 C 
BRANCH  30  31
ATOM     31  C   UNL     1     -39.266 -23.961  27.382  1.00  0.00    -0.003 C 
ATOM     32  C   UNL     1     -38.327 -23.793  28.573  1.00  0.00     0.004 C 
ENDBRANCH  30  31
ENDBRANCH  29  30
ENDBRANCH  28  29
ENDBRANCH  27  28
ENDBRANCH  26  27
ENDBRANCH  25  26
ENDBRANCH  24  25
ENDBRANCH  23  24
ENDBRANCH  22  23
ENDBRANCH  21  22
ENDBRANCH  20  21
ENDBRANCH  19  20
ENDBRANCH  18  19
ENDBRANCH   1  18
TORSDOF 28
ENDMDL
MODEL 5
REMARK VINA RESULT:    -3.288      1.709      4.125
REMARK INTER + INTRA:         -14.275
REMARK INTER:                  -9.468
REMARK INTRA:                  -4.807
REMARK UNBOUND:                -5.606
REMARK SMILES CCCCCCCCCCCCCCCCCCCCCCCCCCCCCC(=O)[O-]
REMARK SMILES IDX 16 1 17 2 18 3 19 4 20 5 21 6 22 7 23 8 24 9 25 10 26 11
REMARK SMILES IDX 27 12 28 13 29 14 30 15 31 16 32 17 15 18 14 19 13 20 12 21
REMARK SMILES IDX 11 22 10 23 9 24 8 25 7 26 6 27 5 28 4 29 3 30 2 31 1 32
REMARK H PARENT
REMARK Flexibility Score: inf
ROOT
ATOM      1  C   UNL     1     -44.782 -22.281  28.311  1.00  0.00     0.000 C 
ENDROOT
BRANCH   1   2
ATOM      2  C   UNL     1     -46.318 -22.330  28.302  1.00  0.00     0.000 C 
BRANCH   2   3
ATOM      3  C   UNL     1     -46.911 -22.199  26.888  1.00  0.00     0.000 C 
BRANCH   3   4
ATOM      4  C   UNL     1     -48.003 -21.117  26.800  1.00  0.00     0.000 C 
BRANCH   4   5
ATOM      5  C   UNL     1     -47.615 -19.755  27.406  1.00  0.00     0.000 C 
BRANCH   5   6
ATOM      6  C   UNL     1     -46.722 -18.921  26.475  1.00  0.00     0.000 C 
BRANCH   6   7
ATOM      7  C   UNL     1     -46.694 -17.450  26.916  1.00  0.00     0.000 C 
BRANCH   7   8
ATOM      8  C   UNL     1     -45.340 -16.767  26.651  1.00  0.00     0.000 C 
BRANCH   8   9
ATOM      9  C   UNL     1     -45.416 -15.471  25.822  1.00  0.00     0.000 C 
BRANCH   9  10
ATOM     10  C   UNL     1     -45.687 -15.729  24.330  1.00  0.00     0.000 C 
BRANCH  10  11
ATOM     11  C   UNL     1     -44.412 -15.669  23.476  1.00  0.00     0.000 C 
BRANCH  11  12
ATOM     12  C   UNL     1     -43.369 -14.691  24.038  1.00  0.00     0.000 C 
BRANCH  12  13
ATOM     13  C   UNL     1     -43.528 -13.297  23.417  1.00  0.00     0.006 C 
BRANCH  13  14
ATOM     14  C   UNL     1     -44.174 -12.323  24.411  1.00  0.00     0.053 C 
BRANCH  14  15
ATOM     15  C   UNL     1     -43.301 -12.122  25.611  1.00  0.00     0.041 C 
ATOM     16  O   UNL     1     -42.069 -11.889  25.465  1.00  0.00    -0.550 OA
ATOM     17  O   UNL     1     -43.847 -12.145  26.889  1.00  0.00    -0.550 OA
ENDBRANCH  14  15
ENDBRANCH  13  14
ENDBRANCH  12  13
ENDBRANCH  11  12
ENDBRANCH  10  11
ENDBRANCH   9  10
ENDBRANCH   8   9
ENDBRANCH   7   8
ENDBRANCH   6   7
ENDBRANCH   5   6
ENDBRANCH   4   5
ENDBRANCH   3   4
ENDBRANCH   2   3
ENDBRANCH   1   2
BRANCH   1  18
ATOM     18  C   UNL     1     -44.201 -21.625  27.045  1.00  0.00     0.000 C 
BRANCH  18  19
ATOM     19  C   UNL     1     -42.687 -21.858  26.884  1.00  0.00     0.000 C 
BRANCH  19  20
ATOM     20  C   UNL     1     -42.124 -23.095  27.611  1.00  0.00     0.000 C 
BRANCH  20  21
ATOM     21  C   UNL     1     -40.989 -22.758  28.592  1.00  0.00     0.000 C 
BRANCH  21  22
ATOM     22  C   UNL     1     -41.006 -21.287  29.040  1.00  0.00     0.000 C 
BRANCH  22  23
ATOM     23  C   UNL     1     -39.638 -20.583  28.913  1.00  0.00     0.000 C 
BRANCH  23  24
ATOM     24  C   UNL     1     -38.515 -21.563  28.531  1.00  0.00    -0.000 C 
BRANCH  24  25
ATOM     25  C   UNL     1     -37.853 -21.209  27.190  1.00  0.00    -0.000 C 
BRANCH  25  26
ATOM     26  C   UNL     1     -38.596 -21.814  25.987  1.00  0.00    -0.000 C 
BRANCH  26  27
ATOM     27  C   UNL     1     -39.460 -20.771  25.255  1.00  0.00    -0.000 C 
BRANCH  27  28
ATOM     28  C   UNL     1     -38.837 -19.357  25.254  1.00  0.00    -0.000 C 
BRANCH  28  29
ATOM     29  C   UNL     1     -39.701 -18.290  25.957  1.00  0.00    -0.000 C 
BRANCH  29  30
ATOM     30  C   UNL     1     -41.173 -18.702  26.161  1.00  0.00    -0.000 C 
BRANCH  30  31
ATOM     31  C   UNL     1     -42.123 -18.004  25.175  1.00  0.00    -0.003 C 
ATOM     32  C   UNL     1     -43.100 -18.998  24.554  1.00  0.00     0.004 C 
ENDBRANCH  30  31
ENDBRANCH  29  30
ENDBRANCH  28  29
ENDBRANCH  27  28
ENDBRANCH  26  27
ENDBRANCH  25  26
ENDBRANCH  24  25
ENDBRANCH  23  24
ENDBRANCH  22  23
ENDBRANCH  21  22
ENDBRANCH  20  21
ENDBRANCH  19  20
ENDBRANCH  18  19
ENDBRANCH   1  18
TORSDOF 28
ENDMDL
MODEL 6
REMARK VINA RESULT:    -3.268      1.817      3.661
REMARK INTER + INTRA:         -14.224
REMARK INTER:                  -8.400
REMARK INTRA:                  -5.824
REMARK UNBOUND:                -5.606
REMARK SMILES CCCCCCCCCCCCCCCCCCCCCCCCCCCCCC(=O)[O-]
REMARK SMILES IDX 16 1 17 2 18 3 19 4 20 5 21 6 22 7 23 8 24 9 25 10 26 11
REMARK SMILES IDX 27 12 28 13 29 14 30 15 31 16 32 17 15 18 14 19 13 20 12 21
REMARK SMILES IDX 11 22 10 23 9 24 8 25 7 26 6 27 5 28 4 29 3 30 2 31 1 32
REMARK H PARENT
REMARK Flexibility Score: inf
ROOT
ATOM      1  C   UNL     1     -39.442 -22.935  25.485  1.00  0.00     0.000 C 
ENDROOT
BRANCH   1   2
ATOM      2  C   UNL     1     -40.156 -23.988  26.347  1.00  0.00     0.000 C 
BRANCH   2   3
ATOM      3  C   UNL     1     -41.368 -23.418  27.104  1.00  0.00     0.000 C 
BRANCH   3   4
ATOM      4  C   UNL     1     -42.193 -22.435  26.253  1.00  0.00     0.000 C 
BRANCH   4   5
ATOM      5  C   UNL     1     -43.281 -21.666  27.024  1.00  0.00     0.000 C 
BRANCH   5   6
ATOM      6  C   UNL     1     -43.640 -22.326  28.364  1.00  0.00     0.000 C 
BRANCH   6   7
ATOM      7  C   UNL     1     -45.128 -22.708  28.405  1.00  0.00     0.000 C 
BRANCH   7   8
ATOM      8  C   UNL     1     -45.501 -23.788  27.374  1.00  0.00     0.000 C 
BRANCH   8   9
ATOM      9  C   UNL     1     -46.823 -23.541  26.622  1.00  0.00     0.000 C 
BRANCH   9  10
ATOM     10  C   UNL     1     -46.894 -22.147  25.976  1.00  0.00     0.000 C 
BRANCH  10  11
ATOM     11  C   UNL     1     -48.141 -21.358  26.401  1.00  0.00     0.000 C 
BRANCH  11  12
ATOM     12  C   UNL     1     -47.829 -20.274  27.444  1.00  0.00     0.000 C 
BRANCH  12  13
ATOM     13  C   UNL     1     -46.553 -19.505  27.077  1.00  0.00     0.006 C 
BRANCH  13  14
ATOM     14  C   UNL     1     -46.890 -18.137  26.472  1.00  0.00     0.053 C 
BRANCH  14  15
ATOM     15  C   UNL     1     -46.499 -18.077  25.027  1.00  0.00     0.041 C 
ATOM     16  O   UNL     1     -45.864 -19.033  24.503  1.00  0.00    -0.550 OA
ATOM     17  O   UNL     1     -46.870 -16.990  24.243  1.00  0.00    -0.550 OA
ENDBRANCH  14  15
ENDBRANCH  13  14
ENDBRANCH  12  13
ENDBRANCH  11  12
ENDBRANCH  10  11
ENDBRANCH   9  10
ENDBRANCH   8   9
ENDBRANCH   7   8
ENDBRANCH   6   7
ENDBRANCH   5   6
ENDBRANCH   4   5
ENDBRANCH   3   4
ENDBRANCH   2   3
ENDBRANCH   1   2
BRANCH   1  18
ATOM     18  C   UNL     1     -37.934 -22.850  25.779  1.00  0.00     0.000 C 
BRANCH  18  19
ATOM     19  C   UNL     1     -37.619 -22.677  27.277  1.00  0.00     0.000 C 
BRANCH  19  20
ATOM     20  C   UNL     1     -37.828 -21.258  27.840  1.00  0.00     0.000 C 
BRANCH  20  21
ATOM     21  C   UNL     1     -39.016 -21.159  28.810  1.00  0.00     0.000 C 
BRANCH  21  22
ATOM     22  C   UNL     1     -40.076 -20.143  28.351  1.00  0.00     0.000 C 
BRANCH  22  23
ATOM     23  C   UNL     1     -39.789 -19.529  26.964  1.00  0.00     0.000 C 
BRANCH  23  24
ATOM     24  C   UNL     1     -40.183 -18.042  26.896  1.00  0.00    -0.000 C 
BRANCH  24  25
ATOM     25  C   UNL     1     -40.929 -17.688  25.599  1.00  0.00    -0.000 C 
BRANCH  25  26
ATOM     26  C   UNL     1     -42.172 -18.567  25.376  1.00  0.00    -0.000 C 
BRANCH  26  27
ATOM     27  C   UNL     1     -42.251 -19.103  23.935  1.00  0.00    -0.000 C 
BRANCH  27  28
ATOM     28  C   UNL     1     -41.177 -20.168  23.621  1.00  0.00    -0.000 C 
BRANCH  28  29
ATOM     29  C   UNL     1     -40.011 -19.648  22.755  1.00  0.00    -0.000 C 
BRANCH  29  30
ATOM     30  C   UNL     1     -38.718 -20.481  22.869  1.00  0.00    -0.000 C 
BRANCH  30  31
ATOM     31  C   UNL     1     -37.636 -19.779  23.705  1.00  0.00    -0.003 C 
ATOM     32  C   UNL     1     -37.899 -18.279  23.797  1.00  0.00     0.004 C 
ENDBRANCH  30  31
ENDBRANCH  29  30
ENDBRANCH  28  29
ENDBRANCH  27  28
ENDBRANCH  26  27
ENDBRANCH  25  26
ENDBRANCH  24  25
ENDBRANCH  23  24
ENDBRANCH  22  23
ENDBRANCH  21  22
ENDBRANCH  20  21
ENDBRANCH  19  20
ENDBRANCH  18  19
ENDBRANCH   1  18
TORSDOF 28
ENDMDL
MODEL 7
REMARK VINA RESULT:    -3.241      1.886      5.918
REMARK INTER + INTRA:         -14.151
REMARK INTER:                  -7.802
REMARK INTRA:                  -6.348
REMARK UNBOUND:                -5.606
REMARK SMILES CCCCCCCCCCCCCCCCCCCCCCCCCCCCCC(=O)[O-]
REMARK SMILES IDX 16 1 17 2 18 3 19 4 20 5 21 6 22 7 23 8 24 9 25 10 26 11
REMARK SMILES IDX 27 12 28 13 29 14 30 15 31 16 32 17 15 18 14 19 13 20 12 21
REMARK SMILES IDX 11 22 10 23 9 24 8 25 7 26 6 27 5 28 4 29 3 30 2 31 1 32
REMARK H PARENT
REMARK Flexibility Score: inf
ROOT
ATOM      1  C   UNL     1     -46.296 -23.035  26.934  1.00  0.00     0.000 C 
ENDROOT
BRANCH   1   2
ATOM      2  C   UNL     1     -45.405 -22.663  28.130  1.00  0.00     0.000 C 
BRANCH   2   3
ATOM      3  C   UNL     1     -43.913 -22.937  27.871  1.00  0.00     0.000 C 
BRANCH   3   4
ATOM      4  C   UNL     1     -42.994 -22.229  28.884  1.00  0.00     0.000 C 
BRANCH   4   5
ATOM      5  C   UNL     1     -41.524 -22.102  28.444  1.00  0.00     0.000 C 
BRANCH   5   6
ATOM      6  C   UNL     1     -40.767 -23.438  28.505  1.00  0.00     0.000 C 
BRANCH   6   7
ATOM      7  C   UNL     1     -39.273 -23.234  28.210  1.00  0.00     0.000 C 
BRANCH   7   8
ATOM      8  C   UNL     1     -38.770 -21.829  28.587  1.00  0.00     0.000 C 
BRANCH   8   9
ATOM      9  C   UNL     1     -37.790 -21.197  27.580  1.00  0.00     0.000 C 
BRANCH   9  10
ATOM     10  C   UNL     1     -38.468 -20.192  26.634  1.00  0.00     0.000 C 
BRANCH  10  11
ATOM     11  C   UNL     1     -39.416 -19.232  27.368  1.00  0.00     0.000 C 
BRANCH  11  12
ATOM     12  C   UNL     1     -40.680 -18.913  26.555  1.00  0.00     0.000 C 
BRANCH  12  13
ATOM     13  C   UNL     1     -40.381 -18.893  25.051  1.00  0.00     0.006 C 
BRANCH  13  14
ATOM     14  C   UNL     1     -41.322 -17.931  24.315  1.00  0.00     0.053 C 
BRANCH  14  15
ATOM     15  C   UNL     1     -40.953 -16.505  24.588  1.00  0.00     0.041 C 
ATOM     16  O   UNL     1     -41.625 -15.824  25.410  1.00  0.00    -0.550 OA
ATOM     17  O   UNL     1     -39.843 -15.936  23.973  1.00  0.00    -0.550 OA
ENDBRANCH  14  15
ENDBRANCH  13  14
ENDBRANCH  12  13
ENDBRANCH  11  12
ENDBRANCH  10  11
ENDBRANCH   9  10
ENDBRANCH   8   9
ENDBRANCH   7   8
ENDBRANCH   6   7
ENDBRANCH   5   6
ENDBRANCH   4   5
ENDBRANCH   3   4
ENDBRANCH   2   3
ENDBRANCH   1   2
BRANCH   1  18
ATOM     18  C   UNL     1     -47.367 -21.971  26.637  1.00  0.00     0.000 C 
BRANCH  18  19
ATOM     19  C   UNL     1     -47.535 -20.948  27.777  1.00  0.00     0.000 C 
BRANCH  19  20
ATOM     20  C   UNL     1     -47.373 -19.471  27.373  1.00  0.00     0.000 C 
BRANCH  20  21
ATOM     21  C   UNL     1     -46.665 -19.284  26.022  1.00  0.00     0.000 C 
BRANCH  21  22
ATOM     22  C   UNL     1     -45.221 -18.773  26.172  1.00  0.00     0.000 C 
BRANCH  22  23
ATOM     23  C   UNL     1     -44.150 -19.862  25.946  1.00  0.00     0.000 C 
BRANCH  23  24
ATOM     24  C   UNL     1     -44.452 -20.724  24.707  1.00  0.00    -0.000 C 
BRANCH  24  25
ATOM     25  C   UNL     1     -43.189 -21.369  24.115  1.00  0.00    -0.000 C 
BRANCH  25  26
ATOM     26  C   UNL     1     -43.237 -22.906  24.158  1.00  0.00    -0.000 C 
BRANCH  26  27
ATOM     27  C   UNL     1     -41.956 -23.508  24.765  1.00  0.00    -0.000 C 
BRANCH  27  28
ATOM     28  C   UNL     1     -40.820 -22.476  24.937  1.00  0.00    -0.000 C 
BRANCH  28  29
ATOM     29  C   UNL     1     -39.556 -22.790  24.110  1.00  0.00    -0.000 C 
BRANCH  29  30
ATOM     30  C   UNL     1     -38.635 -23.853  24.742  1.00  0.00    -0.000 C 
BRANCH  30  31
ATOM     31  C   UNL     1     -37.157 -23.429  24.740  1.00  0.00    -0.003 C 
ATOM     32  C   UNL     1     -36.324 -24.334  25.644  1.00  0.00     0.004 C 
ENDBRANCH  30  31
ENDBRANCH  29  30
ENDBRANCH  28  29
ENDBRANCH  27  28
ENDBRANCH  26  27
ENDBRANCH  25  26
ENDBRANCH  24  25
ENDBRANCH  23  24
ENDBRANCH  22  23
ENDBRANCH  21  22
ENDBRANCH  20  21
ENDBRANCH  19  20
ENDBRANCH  18  19
ENDBRANCH   1  18
TORSDOF 28
ENDMDL
MODEL 8
REMARK VINA RESULT:    -3.223      1.857      6.549
REMARK INTER + INTRA:         -14.104
REMARK INTER:                  -7.985
REMARK INTRA:                  -6.119
REMARK UNBOUND:                -5.606
REMARK SMILES CCCCCCCCCCCCCCCCCCCCCCCCCCCCCC(=O)[O-]
REMARK SMILES IDX 16 1 17 2 18 3 19 4 20 5 21 6 22 7 23 8 24 9 25 10 26 11
REMARK SMILES IDX 27 12 28 13 29 14 30 15 31 16 32 17 15 18 14 19 13 20 12 21
REMARK SMILES IDX 11 22 10 23 9 24 8 25 7 26 6 27 5 28 4 29 3 30 2 31 1 32
REMARK H PARENT
REMARK Flexibility Score: inf
ROOT
ATOM      1  C   UNL     1     -41.462 -21.639  28.099  1.00  0.00     0.000 C 
ENDROOT
BRANCH   1   2
ATOM      2  C   UNL     1     -40.688 -21.004  29.265  1.00  0.00     0.000 C 
BRANCH   2   3
ATOM      3  C   UNL     1     -39.321 -20.442  28.838  1.00  0.00     0.000 C 
BRANCH   3   4
ATOM      4  C   UNL     1     -38.393 -21.520  28.250  1.00  0.00     0.000 C 
BRANCH   4   5
ATOM      5  C   UNL     1     -37.901 -21.240  26.818  1.00  0.00     0.000 C 
BRANCH   5   6
ATOM      6  C   UNL     1     -38.703 -22.004  25.753  1.00  0.00     0.000 C 
BRANCH   6   7
ATOM      7  C   UNL     1     -39.419 -21.031  24.804  1.00  0.00     0.000 C 
BRANCH   7   8
ATOM      8  C   UNL     1     -38.946 -19.575  24.964  1.00  0.00     0.000 C 
BRANCH   8   9
ATOM      9  C   UNL     1     -40.067 -18.519  24.925  1.00  0.00     0.000 C 
BRANCH   9  10
ATOM     10  C   UNL     1     -40.942 -18.525  26.190  1.00  0.00     0.000 C 
BRANCH  10  11
ATOM     11  C   UNL     1     -42.366 -19.036  25.924  1.00  0.00     0.000 C 
BRANCH  11  12
ATOM     12  C   UNL     1     -42.864 -18.691  24.512  1.00  0.00     0.000 C 
BRANCH  12  13
ATOM     13  C   UNL     1     -43.967 -17.626  24.559  1.00  0.00     0.006 C 
BRANCH  13  14
ATOM     14  C   UNL     1     -45.063 -18.013  25.561  1.00  0.00     0.053 C 
BRANCH  14  15
ATOM     15  C   UNL     1     -45.402 -16.862  26.458  1.00  0.00     0.041 C 
ATOM     16  O   UNL     1     -44.851 -15.741  26.284  1.00  0.00    -0.550 OA
ATOM     17  O   UNL     1     -46.357 -17.008  27.458  1.00  0.00    -0.550 OA
ENDBRANCH  14  15
ENDBRANCH  13  14
ENDBRANCH  12  13
ENDBRANCH  11  12
ENDBRANCH  10  11
ENDBRANCH   9  10
ENDBRANCH   8   9
ENDBRANCH   7   8
ENDBRANCH   6   7
ENDBRANCH   5   6
ENDBRANCH   4   5
ENDBRANCH   3   4
ENDBRANCH   2   3
ENDBRANCH   1   2
BRANCH   1  18
ATOM     18  C   UNL     1     -42.587 -22.576  28.574  1.00  0.00     0.000 C 
BRANCH  18  19
ATOM     19  C   UNL     1     -43.968 -22.197  28.008  1.00  0.00     0.000 C 
BRANCH  19  20
ATOM     20  C   UNL     1     -45.046 -23.294  28.095  1.00  0.00     0.000 C 
BRANCH  20  21
ATOM     21  C   UNL     1     -46.476 -22.756  27.932  1.00  0.00     0.000 C 
BRANCH  21  22
ATOM     22  C   UNL     1     -46.527 -21.221  27.833  1.00  0.00     0.000 C 
BRANCH  22  23
ATOM     23  C   UNL     1     -47.928 -20.666  27.498  1.00  0.00     0.000 C 
BRANCH  23  24
ATOM     24  C   UNL     1     -48.455 -21.198  26.153  1.00  0.00    -0.000 C 
BRANCH  24  25
ATOM     25  C   UNL     1     -47.624 -20.706  24.957  1.00  0.00    -0.000 C 
BRANCH  25  26
ATOM     26  C   UNL     1     -46.777 -21.825  24.328  1.00  0.00    -0.000 C 
BRANCH  26  27
ATOM     27  C   UNL     1     -45.273 -21.498  24.355  1.00  0.00    -0.000 C 
BRANCH  27  28
ATOM     28  C   UNL     1     -44.375 -22.752  24.285  1.00  0.00    -0.000 C 
BRANCH  28  29
ATOM     29  C   UNL     1     -42.872 -22.460  24.479  1.00  0.00    -0.000 C 
BRANCH  29  30
ATOM     30  C   UNL     1     -42.060 -23.657  25.015  1.00  0.00    -0.000 C 
BRANCH  30  31
ATOM     31  C   UNL     1     -42.923 -24.913  25.214  1.00  0.00    -0.003 C 
ATOM     32  C   UNL     1     -42.526 -25.658  26.486  1.00  0.00     0.004 C 
ENDBRANCH  30  31
ENDBRANCH  29  30
ENDBRANCH  28  29
ENDBRANCH  27  28
ENDBRANCH  26  27
ENDBRANCH  25  26
ENDBRANCH  24  25
ENDBRANCH  23  24
ENDBRANCH  22  23
ENDBRANCH  21  22
ENDBRANCH  20  21
ENDBRANCH  19  20
ENDBRANCH  18  19
ENDBRANCH   1  18
TORSDOF 28
ENDMDL
MODEL 9
REMARK VINA RESULT:    -3.220      3.188      5.673
REMARK INTER + INTRA:         -14.098
REMARK INTER:                  -7.543
REMARK INTRA:                  -6.554
REMARK UNBOUND:                -5.606
REMARK SMILES CCCCCCCCCCCCCCCCCCCCCCCCCCCCCC(=O)[O-]
REMARK SMILES IDX 16 1 17 2 18 3 19 4 20 5 21 6 22 7 23 8 24 9 25 10 26 11
REMARK SMILES IDX 27 12 28 13 29 14 30 15 31 16 32 17 15 18 14 19 13 20 12 21
REMARK SMILES IDX 11 22 10 23 9 24 8 25 7 26 6 27 5 28 4 29 3 30 2 31 1 32
REMARK H PARENT
REMARK Flexibility Score: inf
ROOT
ATOM      1  C   UNL     1     -42.852 -21.330  25.172  1.00  0.00     0.000 C 
ENDROOT
BRANCH   1   2
ATOM      2  C   UNL     1     -44.033 -20.555  25.777  1.00  0.00     0.000 C 
BRANCH   2   3
ATOM      3  C   UNL     1     -45.143 -20.263  24.752  1.00  0.00     0.000 C 
BRANCH   3   4
ATOM      4  C   UNL     1     -46.192 -19.266  25.280  1.00  0.00     0.000 C 
BRANCH   4   5
ATOM      5  C   UNL     1     -46.347 -19.241  26.811  1.00  0.00     0.000 C 
BRANCH   5   6
ATOM      6  C   UNL     1     -47.659 -19.885  27.287  1.00  0.00     0.000 C 
BRANCH   6   7
ATOM      7  C   UNL     1     -47.527 -21.415  27.346  1.00  0.00     0.000 C 
BRANCH   7   8
ATOM      8  C   UNL     1     -46.438 -21.890  28.324  1.00  0.00     0.000 C 
BRANCH   8   9
ATOM      9  C   UNL     1     -45.762 -23.223  27.949  1.00  0.00     0.000 C 
BRANCH   9  10
ATOM     10  C   UNL     1     -45.909 -23.571  26.458  1.00  0.00     0.000 C 
BRANCH  10  11
ATOM     11  C   UNL     1     -44.868 -24.595  25.982  1.00  0.00     0.000 C 
BRANCH  11  12
ATOM     12  C   UNL     1     -44.393 -25.523  27.110  1.00  0.00     0.000 C 
BRANCH  12  13
ATOM     13  C   UNL     1     -42.925 -25.923  26.914  1.00  0.00     0.006 C 
BRANCH  13  14
ATOM     14  C   UNL     1     -42.064 -25.450  28.092  1.00  0.00     0.053 C 
BRANCH  14  15
ATOM     15  C   UNL     1     -40.606 -25.649  27.808  1.00  0.00     0.041 C 
ATOM     16  O   UNL     1     -40.031 -24.945  26.934  1.00  0.00    -0.550 OA
ATOM     17  O   UNL     1     -39.869 -26.578  28.533  1.00  0.00    -0.550 OA
ENDBRANCH  14  15
ENDBRANCH  13  14
ENDBRANCH  12  13
ENDBRANCH  11  12
ENDBRANCH  10  11
ENDBRANCH   9  10
ENDBRANCH   8   9
ENDBRANCH   7   8
ENDBRANCH   6   7
ENDBRANCH   5   6
ENDBRANCH   4   5
ENDBRANCH   3   4
ENDBRANCH   2   3
ENDBRANCH   1   2
BRANCH   1  18
ATOM     18  C   UNL     1     -42.135 -22.221  26.202  1.00  0.00     0.000 C 
BRANCH  18  19
ATOM     19  C   UNL     1     -42.301 -21.723  27.650  1.00  0.00     0.000 C 
BRANCH  19  20
ATOM     20  C   UNL     1     -41.086 -21.944  28.572  1.00  0.00     0.000 C 
BRANCH  20  21
ATOM     21  C   UNL     1     -40.364 -20.640  28.947  1.00  0.00     0.000 C 
BRANCH  21  22
ATOM     22  C   UNL     1     -38.839 -20.729  28.759  1.00  0.00     0.000 C 
BRANCH  22  23
ATOM     23  C   UNL     1     -38.343 -22.137  28.367  1.00  0.00     0.000 C 
BRANCH  23  24
ATOM     24  C   UNL     1     -37.573 -22.130  27.034  1.00  0.00    -0.000 C 
BRANCH  24  25
ATOM     25  C   UNL     1     -38.488 -21.868  25.826  1.00  0.00    -0.000 C 
BRANCH  25  26
ATOM     26  C   UNL     1     -38.260 -20.480  25.205  1.00  0.00    -0.000 C 
BRANCH  26  27
ATOM     27  C   UNL     1     -39.583 -19.740  24.939  1.00  0.00    -0.000 C 
BRANCH  27  28
ATOM     28  C   UNL     1     -39.858 -18.602  25.947  1.00  0.00    -0.000 C 
BRANCH  28  29
ATOM     29  C   UNL     1     -41.253 -17.960  25.805  1.00  0.00    -0.000 C 
BRANCH  29  30
ATOM     30  C   UNL     1     -41.782 -17.911  24.356  1.00  0.00    -0.000 C 
BRANCH  30  31
ATOM     31  C   UNL     1     -43.051 -17.055  24.220  1.00  0.00    -0.003 C 
ATOM     32  C   UNL     1     -43.580 -16.634  25.588  1.00  0.00     0.004 C 
ENDBRANCH  30  31
ENDBRANCH  29  30
ENDBRANCH  28  29
ENDBRANCH  27  28
ENDBRANCH  26  27
ENDBRANCH  25  26
ENDBRANCH  24  25
ENDBRANCH  23  24
ENDBRANCH  22  23
ENDBRANCH  21  22
ENDBRANCH  20  21
ENDBRANCH  19  20
ENDBRANCH  18  19
ENDBRANCH   1  18
TORSDOF 28
ENDMDL
