MODEL 1
REMARK VINA RESULT:    -4.437      0.000      0.000
REMARK INTER + INTRA:          -4.891
REMARK INTER:                  -4.826
REMARK INTRA:                  -0.065
REMARK UNBOUND:                -0.065
REMARK SMILES COc1cc2ccc(=O)oc2cc1O
REMARK SMILES IDX 3 1 13 2 12 3 11 4 5 5 4 6 6 7 7 8 8 9 9 10 10 11 2 12 1 13
REMARK SMILES IDX 14 14
REMARK H PARENT 14 15
REMARK Flexibility Score: inf
ROOT
ATOM      1  C   UNL     1       2.735  38.926   5.800  1.00  0.00     0.161 A 
ATOM      2  C   UNL     1       1.680  39.527   6.505  1.00  0.00     0.161 A 
ATOM      3  C   UNL     1       0.537  38.785   6.835  1.00  0.00     0.098 A 
ATOM      4  C   UNL     1       0.438  37.441   6.467  1.00  0.00     0.142 A 
ATOM      5  C   UNL     1       1.493  36.830   5.759  1.00  0.00     0.022 A 
ATOM      6  C   UNL     1       2.637  37.570   5.429  1.00  0.00     0.062 A 
ATOM      7  C   UNL     1       1.365  35.483   5.404  1.00  0.00     0.019 A 
ATOM      8  C   UNL     1       0.209  34.789   5.757  1.00  0.00     0.094 A 
ATOM      9  C   UNL     1      -0.798  35.461   6.459  1.00  0.00     0.336 A 
ATOM     10  O   UNL     1      -1.850  34.852   6.786  1.00  0.00    -0.246 OA
ATOM     11  O   UNL     1      -0.650  36.743   6.784  1.00  0.00    -0.423 OA
ENDROOT
BRANCH   1  12
ATOM     12  O   UNL     1       3.861  39.707   5.491  1.00  0.00    -0.493 OA
ATOM     13  C   UNL     1       5.118  39.604   6.150  1.00  0.00     0.278 C 
ENDBRANCH   1  12
BRANCH   2  14
ATOM     14  O   UNL     1       1.776  40.868   6.873  1.00  0.00    -0.504 OA
ATOM     15  H   UNL     1       2.367  41.165   7.640  1.00  0.00     0.293 HD
ENDBRANCH   2  14
TORSDOF 2
ENDMDL
MODEL 2
REMARK VINA RESULT:    -4.245      1.387      5.366
REMARK INTER + INTRA:          -4.682
REMARK INTER:                  -4.620
REMARK INTRA:                  -0.062
REMARK UNBOUND:                -0.065
REMARK SMILES COc1cc2ccc(=O)oc2cc1O
REMARK SMILES IDX 3 1 13 2 12 3 11 4 5 5 4 6 6 7 7 8 8 9 9 10 10 11 2 12 1 13
REMARK SMILES IDX 14 14
REMARK H PARENT 14 15
REMARK Flexibility Score: inf
ROOT
ATOM      1  C   UNL     1      -0.161  36.479   6.285  1.00  0.00     0.161 A 
ATOM      2  C   UNL     1       0.807  35.667   5.671  1.00  0.00     0.161 A 
ATOM      3  C   UNL     1       2.084  36.175   5.395  1.00  0.00     0.098 A 
ATOM      4  C   UNL     1       2.406  37.492   5.727  1.00  0.00     0.142 A 
ATOM      5  C   UNL     1       1.440  38.315   6.344  1.00  0.00     0.022 A 
ATOM      6  C   UNL     1       0.163  37.808   6.621  1.00  0.00     0.062 A 
ATOM      7  C   UNL     1       1.792  39.630   6.665  1.00  0.00     0.019 A 
ATOM      8  C   UNL     1       3.076  40.087   6.370  1.00  0.00     0.094 A 
ATOM      9  C   UNL     1       3.982  39.215   5.757  1.00  0.00     0.336 A 
ATOM     10  O   UNL     1       5.146  39.608   5.482  1.00  0.00    -0.246 OA
ATOM     11  O   UNL     1       3.620  37.968   5.462  1.00  0.00    -0.423 OA
ENDROOT
BRANCH   1  12
ATOM     12  O   UNL     1      -1.426  35.929   6.543  1.00  0.00    -0.493 OA
ATOM     13  C   UNL     1      -1.833  35.400   7.801  1.00  0.00     0.278 C 
ENDBRANCH   1  12
BRANCH   2  14
ATOM     14  O   UNL     1       0.489  34.351   5.338  1.00  0.00    -0.504 OA
ATOM     15  H   UNL     1      -0.287  33.867   5.774  1.00  0.00     0.293 HD
ENDBRANCH   2  14
TORSDOF 2
ENDMDL
MODEL 3
REMARK VINA RESULT:    -4.093      2.493      5.550
REMARK INTER + INTRA:          -4.517
REMARK INTER:                  -4.472
REMARK INTRA:                  -0.045
REMARK UNBOUND:                -0.065
REMARK SMILES COc1cc2ccc(=O)oc2cc1O
REMARK SMILES IDX 3 1 13 2 12 3 11 4 5 5 4 6 6 7 7 8 8 9 9 10 10 11 2 12 1 13
REMARK SMILES IDX 14 14
REMARK H PARENT 14 15
REMARK Flexibility Score: inf
ROOT
ATOM      1  C   UNL     1       2.464  38.676   5.821  1.00  0.00     0.161 A 
ATOM      2  C   UNL     1       3.283  39.615   5.172  1.00  0.00     0.161 A 
ATOM      3  C   UNL     1       4.607  39.807   5.590  1.00  0.00     0.098 A 
ATOM      4  C   UNL     1       5.125  39.065   6.654  1.00  0.00     0.142 A 
ATOM      5  C   UNL     1       4.310  38.121   7.312  1.00  0.00     0.022 A 
ATOM      6  C   UNL     1       2.985  37.927   6.895  1.00  0.00     0.062 A 
ATOM      7  C   UNL     1       4.857  37.393   8.374  1.00  0.00     0.019 A 
ATOM      8  C   UNL     1       6.180  37.620   8.750  1.00  0.00     0.094 A 
ATOM      9  C   UNL     1       6.929  38.574   8.052  1.00  0.00     0.336 A 
ATOM     10  O   UNL     1       8.125  38.795   8.377  1.00  0.00    -0.246 OA
ATOM     11  O   UNL     1       6.383  39.252   7.045  1.00  0.00    -0.423 OA
ENDROOT
BRANCH   1  12
ATOM     12  O   UNL     1       1.144  38.517   5.370  1.00  0.00    -0.493 OA
ATOM     13  C   UNL     1       0.228  37.555   5.881  1.00  0.00     0.278 C 
ENDBRANCH   1  12
BRANCH   2  14
ATOM     14  O   UNL     1       2.768  40.357   4.110  1.00  0.00    -0.504 OA
ATOM     15  H   UNL     1       3.094  40.218   3.161  1.00  0.00     0.293 HD
ENDBRANCH   2  14
TORSDOF 2
ENDMDL
MODEL 4
REMARK VINA RESULT:    -4.063      1.655      5.094
REMARK INTER + INTRA:          -4.485
REMARK INTER:                  -4.438
REMARK INTRA:                  -0.046
REMARK UNBOUND:                -0.065
REMARK SMILES COc1cc2ccc(=O)oc2cc1O
REMARK SMILES IDX 3 1 13 2 12 3 11 4 5 5 4 6 6 7 7 8 8 9 9 10 10 11 2 12 1 13
REMARK SMILES IDX 14 14
REMARK H PARENT 14 15
REMARK Flexibility Score: inf
ROOT
ATOM      1  C   UNL     1      -1.687  35.504   6.850  1.00  0.00     0.161 A 
ATOM      2  C   UNL     1      -1.911  36.850   7.184  1.00  0.00     0.161 A 
ATOM      3  C   UNL     1      -0.963  37.828   6.854  1.00  0.00     0.098 A 
ATOM      4  C   UNL     1       0.212  37.475   6.188  1.00  0.00     0.142 A 
ATOM      5  C   UNL     1       0.446  36.126   5.848  1.00  0.00     0.022 A 
ATOM      6  C   UNL     1      -0.501  35.146   6.177  1.00  0.00     0.062 A 
ATOM      7  C   UNL     1       1.632  35.803   5.181  1.00  0.00     0.019 A 
ATOM      8  C   UNL     1       2.542  36.813   4.874  1.00  0.00     0.094 A 
ATOM      9  C   UNL     1       2.244  38.129   5.243  1.00  0.00     0.336 A 
ATOM     10  O   UNL     1       3.053  39.056   4.975  1.00  0.00    -0.246 OA
ATOM     11  O   UNL     1       1.108  38.409   5.877  1.00  0.00    -0.423 OA
ENDROOT
BRANCH   1  12
ATOM     12  O   UNL     1      -2.663  34.558   7.200  1.00  0.00    -0.493 OA
ATOM     13  C   UNL     1      -2.666  33.815   8.415  1.00  0.00     0.278 C 
ENDBRANCH   1  12
BRANCH   2  14
ATOM     14  O   UNL     1      -3.084  37.205   7.849  1.00  0.00    -0.504 OA
ATOM     15  H   UNL     1      -3.934  37.422   7.343  1.00  0.00     0.293 HD
ENDBRANCH   2  14
TORSDOF 2
ENDMDL
MODEL 5
REMARK VINA RESULT:    -4.009      2.183      5.803
REMARK INTER + INTRA:          -4.425
REMARK INTER:                  -4.360
REMARK INTRA:                  -0.065
REMARK UNBOUND:                -0.065
REMARK SMILES COc1cc2ccc(=O)oc2cc1O
REMARK SMILES IDX 3 1 13 2 12 3 11 4 5 5 4 6 6 7 7 8 8 9 9 10 10 11 2 12 1 13
REMARK SMILES IDX 14 14
REMARK H PARENT 14 15
REMARK Flexibility Score: inf
ROOT
ATOM      1  C   UNL     1      -2.916  36.209   7.391  1.00  0.00     0.161 A 
ATOM      2  C   UNL     1      -2.437  35.004   6.851  1.00  0.00     0.161 A 
ATOM      3  C   UNL     1      -1.164  34.948   6.268  1.00  0.00     0.098 A 
ATOM      4  C   UNL     1      -0.360  36.089   6.217  1.00  0.00     0.142 A 
ATOM      5  C   UNL     1      -0.833  37.303   6.757  1.00  0.00     0.022 A 
ATOM      6  C   UNL     1      -2.106  37.361   7.342  1.00  0.00     0.062 A 
ATOM      7  C   UNL     1      -0.006  38.429   6.692  1.00  0.00     0.019 A 
ATOM      8  C   UNL     1       1.252  38.321   6.101  1.00  0.00     0.094 A 
ATOM      9  C   UNL     1       1.655  37.084   5.586  1.00  0.00     0.336 A 
ATOM     10  O   UNL     1       2.788  36.965   5.049  1.00  0.00    -0.246 OA
ATOM     11  O   UNL     1       0.848  36.029   5.662  1.00  0.00    -0.423 OA
ENDROOT
BRANCH   1  12
ATOM     12  O   UNL     1      -4.197  36.220   7.966  1.00  0.00    -0.493 OA
ATOM     13  C   UNL     1      -4.451  36.275   9.366  1.00  0.00     0.278 C 
ENDBRANCH   1  12
BRANCH   2  14
ATOM     14  O   UNL     1      -3.237  33.864   6.900  1.00  0.00    -0.504 OA
ATOM     15  H   UNL     1      -4.144  33.834   6.450  1.00  0.00     0.293 HD
ENDBRANCH   2  14
TORSDOF 2
ENDMDL
MODEL 6
REMARK VINA RESULT:    -3.993      2.354      3.994
REMARK INTER + INTRA:          -4.408
REMARK INTER:                  -4.361
REMARK INTRA:                  -0.047
REMARK UNBOUND:                -0.065
REMARK SMILES COc1cc2ccc(=O)oc2cc1O
REMARK SMILES IDX 3 1 13 2 12 3 11 4 5 5 4 6 6 7 7 8 8 9 9 10 10 11 2 12 1 13
REMARK SMILES IDX 14 14
REMARK H PARENT 14 15
REMARK Flexibility Score: inf
ROOT
ATOM      1  C   UNL     1       1.014  36.628   5.619  1.00  0.00     0.161 A 
ATOM      2  C   UNL     1       0.239  35.479   5.846  1.00  0.00     0.161 A 
ATOM      3  C   UNL     1      -0.981  35.573   6.530  1.00  0.00     0.098 A 
ATOM      4  C   UNL     1      -1.437  36.810   6.992  1.00  0.00     0.142 A 
ATOM      5  C   UNL     1      -0.665  37.969   6.768  1.00  0.00     0.022 A 
ATOM      6  C   UNL     1       0.555  37.877   6.084  1.00  0.00     0.062 A 
ATOM      7  C   UNL     1      -1.148  39.193   7.243  1.00  0.00     0.019 A 
ATOM      8  C   UNL     1      -2.367  39.233   7.916  1.00  0.00     0.094 A 
ATOM      9  C   UNL     1      -3.079  38.043   8.102  1.00  0.00     0.336 A 
ATOM     10  O   UNL     1      -4.182  38.057   8.708  1.00  0.00    -0.246 OA
ATOM     11  O   UNL     1      -2.596  36.892   7.640  1.00  0.00    -0.423 OA
ENDROOT
BRANCH   1  12
ATOM     12  O   UNL     1       2.229  36.487   4.929  1.00  0.00    -0.493 OA
ATOM     13  C   UNL     1       2.824  37.504   4.130  1.00  0.00     0.278 C 
ENDBRANCH   1  12
BRANCH   2  14
ATOM     14  O   UNL     1       0.691  34.243   5.386  1.00  0.00    -0.504 OA
ATOM     15  H   UNL     1       0.270  33.790   4.584  1.00  0.00     0.293 HD
ENDBRANCH   2  14
TORSDOF 2
ENDMDL
MODEL 7
REMARK VINA RESULT:    -3.906      2.792      4.349
REMARK INTER + INTRA:          -4.313
REMARK INTER:                  -4.249
REMARK INTRA:                  -0.064
REMARK UNBOUND:                -0.065
REMARK SMILES COc1cc2ccc(=O)oc2cc1O
REMARK SMILES IDX 3 1 13 2 12 3 11 4 5 5 4 6 6 7 7 8 8 9 9 10 10 11 2 12 1 13
REMARK SMILES IDX 14 14
REMARK H PARENT 14 15
REMARK Flexibility Score: inf
ROOT
ATOM      1  C   UNL     1       6.423  38.646   7.558  1.00  0.00     0.161 A 
ATOM      2  C   UNL     1       5.686  37.755   8.356  1.00  0.00     0.161 A 
ATOM      3  C   UNL     1       4.368  37.422   8.011  1.00  0.00     0.098 A 
ATOM      4  C   UNL     1       3.777  37.972   6.872  1.00  0.00     0.142 A 
ATOM      5  C   UNL     1       4.510  38.868   6.066  1.00  0.00     0.022 A 
ATOM      6  C   UNL     1       5.828  39.201   6.409  1.00  0.00     0.062 A 
ATOM      7  C   UNL     1       3.890  39.403   4.931  1.00  0.00     0.019 A 
ATOM      8  C   UNL     1       2.579  39.039   4.632  1.00  0.00     0.094 A 
ATOM      9  C   UNL     1       1.913  38.146   5.478  1.00  0.00     0.336 A 
ATOM     10  O   UNL     1       0.727  37.805   5.225  1.00  0.00    -0.246 OA
ATOM     11  O   UNL     1       2.526  37.652   6.551  1.00  0.00    -0.423 OA
ENDROOT
BRANCH   1  12
ATOM     12  O   UNL     1       7.739  38.951   7.941  1.00  0.00    -0.493 OA
ATOM     13  C   UNL     1       8.123  40.133   8.634  1.00  0.00     0.278 C 
ENDBRANCH   1  12
BRANCH   2  14
ATOM     14  O   UNL     1       6.274  37.204   9.494  1.00  0.00    -0.504 OA
ATOM     15  H   UNL     1       7.273  37.051   9.552  1.00  0.00     0.293 HD
ENDBRANCH   2  14
TORSDOF 2
ENDMDL
MODEL 8
REMARK VINA RESULT:    -3.846      2.763      4.890
REMARK INTER + INTRA:          -4.248
REMARK INTER:                  -4.195
REMARK INTRA:                  -0.053
REMARK UNBOUND:                -0.065
REMARK SMILES COc1cc2ccc(=O)oc2cc1O
REMARK SMILES IDX 3 1 13 2 12 3 11 4 5 5 4 6 6 7 7 8 8 9 9 10 10 11 2 12 1 13
REMARK SMILES IDX 14 14
REMARK H PARENT 14 15
REMARK Flexibility Score: inf
ROOT
ATOM      1  C   UNL     1      -2.825  37.783   7.988  1.00  0.00     0.161 A 
ATOM      2  C   UNL     1      -2.026  38.875   7.611  1.00  0.00     0.161 A 
ATOM      3  C   UNL     1      -0.857  38.671   6.865  1.00  0.00     0.098 A 
ATOM      4  C   UNL     1      -0.475  37.381   6.491  1.00  0.00     0.142 A 
ATOM      5  C   UNL     1      -1.272  36.279   6.866  1.00  0.00     0.022 A 
ATOM      6  C   UNL     1      -2.442  36.481   7.611  1.00  0.00     0.062 A 
ATOM      7  C   UNL     1      -0.864  34.999   6.476  1.00  0.00     0.019 A 
ATOM      8  C   UNL     1       0.307  34.849   5.734  1.00  0.00     0.094 A 
ATOM      9  C   UNL     1       1.047  35.988   5.399  1.00  0.00     0.336 A 
ATOM     10  O   UNL     1       2.108  35.875   4.730  1.00  0.00    -0.246 OA
ATOM     11  O   UNL     1       0.636  37.194   5.783  1.00  0.00    -0.423 OA
ENDROOT
BRANCH   1  12
ATOM     12  O   UNL     1      -3.988  38.034   8.734  1.00  0.00    -0.493 OA
ATOM     13  C   UNL     1      -4.384  37.292   9.883  1.00  0.00     0.278 C 
ENDBRANCH   1  12
BRANCH   2  14
ATOM     14  O   UNL     1      -2.405  40.164   7.983  1.00  0.00    -0.504 OA
ATOM     15  H   UNL     1      -2.896  40.342   8.851  1.00  0.00     0.293 HD
ENDBRANCH   2  14
TORSDOF 2
ENDMDL
MODEL 9
REMARK VINA RESULT:    -3.836      2.670      5.502
REMARK INTER + INTRA:          -4.237
REMARK INTER:                  -4.173
REMARK INTRA:                  -0.064
REMARK UNBOUND:                -0.065
REMARK SMILES COc1cc2ccc(=O)oc2cc1O
REMARK SMILES IDX 3 1 13 2 12 3 11 4 5 5 4 6 6 7 7 8 8 9 9 10 10 11 2 12 1 13
REMARK SMILES IDX 14 14
REMARK H PARENT 14 15
REMARK Flexibility Score: inf
ROOT
ATOM      1  C   UNL     1       3.045  38.891   5.515  1.00  0.00     0.161 A 
ATOM      2  C   UNL     1       2.560  38.125   6.587  1.00  0.00     0.161 A 
ATOM      3  C   UNL     1       3.414  37.754   7.635  1.00  0.00     0.098 A 
ATOM      4  C   UNL     1       4.755  38.145   7.624  1.00  0.00     0.142 A 
ATOM      5  C   UNL     1       5.251  38.915   6.552  1.00  0.00     0.022 A 
ATOM      6  C   UNL     1       4.398  39.287   5.502  1.00  0.00     0.062 A 
ATOM      7  C   UNL     1       6.598  39.291   6.568  1.00  0.00     0.019 A 
ATOM      8  C   UNL     1       7.405  38.899   7.634  1.00  0.00     0.094 A 
ATOM      9  C   UNL     1       6.845  38.135   8.664  1.00  0.00     0.336 A 
ATOM     10  O   UNL     1       7.557  37.769   9.635  1.00  0.00    -0.246 OA
ATOM     11  O   UNL     1       5.560  37.791   8.623  1.00  0.00    -0.423 OA
ENDROOT
BRANCH   1  12
ATOM     12  O   UNL     1       2.155  39.239   4.487  1.00  0.00    -0.493 OA
ATOM     13  C   UNL     1       1.519  40.508   4.367  1.00  0.00     0.278 C 
ENDBRANCH   1  12
BRANCH   2  14
ATOM     14  O   UNL     1       1.222  37.733   6.601  1.00  0.00    -0.504 OA
ATOM     15  H   UNL     1       0.684  37.658   5.746  1.00  0.00     0.293 HD
ENDBRANCH   2  14
TORSDOF 2
ENDMDL
