MODEL 1
REMARK VINA RESULT:    -9.070      0.000      0.000
REMARK INTER + INTRA:          -9.865
REMARK INTER:                  -9.865
REMARK INTRA:                   0.000
REMARK UNBOUND:                 0.000
REMARK SMILES Cc1cc(O)c2c(c1)C(=O)c1cc(O)cc(O)c1C2=O
REMARK SMILES IDX 1 1 2 2 8 3 7 4 6 5 4 6 3 7 19 8 20 9 18 10 11 11 9 12 10 13
REMARK SMILES IDX 12 14 13 15 15 16 16 17 5 18 17 20 14 22
REMARK H PARENT 5 19 17 21 14 23
REMARK Flexibility Score: inf
ROOT
ATOM      1  C   UNL     1      14.751   3.657 128.443  1.00  0.00     0.044 C 
ATOM      2  C   UNL     1      15.054   4.445 129.683  1.00  0.00    -0.047 A 
ATOM      3  C   UNL     1      15.726   3.845 130.752  1.00  0.00     0.016 A 
ATOM      4  C   UNL     1      15.994   4.566 131.928  1.00  0.00     0.038 A 
ATOM      5  C   UNL     1      15.580   5.915 132.038  1.00  0.00     0.076 A 
ATOM      6  C   UNL     1      14.810   6.485 130.987  1.00  0.00     0.127 A 
ATOM      7  C   UNL     1      14.581   5.755 129.817  1.00  0.00     0.050 A 
ATOM      8  C   UNL     1      16.016   6.695 133.229  1.00  0.00     0.201 C 
ATOM      9  O   UNL     1      16.042   7.954 133.185  1.00  0.00    -0.288 OA
ATOM     10  C   UNL     1      16.534   5.994 134.434  1.00  0.00     0.076 A 
ATOM     11  C   UNL     1      16.882   4.630 134.336  1.00  0.00     0.041 A 
ATOM     12  C   UNL     1      16.696   3.910 133.057  1.00  0.00     0.194 C 
ATOM     13  O   UNL     1      17.122   2.729 132.933  1.00  0.00    -0.289 OA
ATOM     14  C   UNL     1      17.408   3.962 135.457  1.00  0.00     0.059 A 
ATOM     15  C   UNL     1      17.582   4.634 136.666  1.00  0.00     0.120 A 
ATOM     16  C   UNL     1      17.230   5.983 136.769  1.00  0.00     0.093 A 
ATOM     17  C   UNL     1      16.707   6.668 135.665  1.00  0.00     0.131 A 
ENDROOT
BRANCH   6  18
ATOM     18  O   UNL     1      14.224   7.749 131.075  1.00  0.00    -0.507 OA
ATOM     19  H   UNL     1      13.677   8.061 131.864  1.00  0.00     0.293 HD
ENDBRANCH   6  18
BRANCH  17  20
ATOM     20  O   UNL     1      16.352   8.010 135.798  1.00  0.00    -0.507 OA
ATOM     21  H   UNL     1      17.046   8.748 135.789  1.00  0.00     0.293 HD
ENDBRANCH  17  20
BRANCH  15  22
ATOM     22  O   UNL     1      18.104   3.952 137.763  1.00  0.00    -0.508 OA
ATOM     23  H   UNL     1      17.614   3.169 138.182  1.00  0.00     0.293 HD
ENDBRANCH  15  22
TORSDOF 3
ENDMDL
MODEL 2
REMARK VINA RESULT:    -8.782      2.545      6.891
REMARK INTER + INTRA:          -9.552
REMARK INTER:                  -9.552
REMARK INTRA:                   0.000
REMARK UNBOUND:                 0.000
REMARK SMILES Cc1cc(O)c2c(c1)C(=O)c1cc(O)cc(O)c1C2=O
REMARK SMILES IDX 1 1 2 2 8 3 7 4 6 5 4 6 3 7 19 8 20 9 18 10 11 11 9 12 10 13
REMARK SMILES IDX 12 14 13 15 15 16 16 17 5 18 17 20 14 22
REMARK H PARENT 5 19 17 21 14 23
REMARK Flexibility Score: inf
ROOT
ATOM      1  C   UNL     1      18.168   4.718 135.062  1.00  0.00     0.044 C 
ATOM      2  C   UNL     1      17.579   4.400 133.719  1.00  0.00    -0.047 A 
ATOM      3  C   UNL     1      17.456   5.401 132.750  1.00  0.00     0.016 A 
ATOM      4  C   UNL     1      16.883   5.121 131.497  1.00  0.00     0.038 A 
ATOM      5  C   UNL     1      16.422   3.814 131.209  1.00  0.00     0.076 A 
ATOM      6  C   UNL     1      16.459   2.831 132.235  1.00  0.00     0.127 A 
ATOM      7  C   UNL     1      17.059   3.127 133.462  1.00  0.00     0.050 A 
ATOM      8  C   UNL     1      15.967   3.513 129.824  1.00  0.00     0.201 C 
ATOM      9  O   UNL     1      15.948   2.324 129.408  1.00  0.00    -0.288 OA
ATOM     10  C   UNL     1      15.644   4.621 128.885  1.00  0.00     0.076 A 
ATOM     11  C   UNL     1      16.048   5.935 129.210  1.00  0.00     0.041 A 
ATOM     12  C   UNL     1      16.749   6.197 130.486  1.00  0.00     0.194 C 
ATOM     13  O   UNL     1      17.219   7.344 130.721  1.00  0.00    -0.289 OA
ATOM     14  C   UNL     1      15.783   6.987 128.316  1.00  0.00     0.059 A 
ATOM     15  C   UNL     1      15.119   6.746 127.113  1.00  0.00     0.120 A 
ATOM     16  C   UNL     1      14.711   5.449 126.792  1.00  0.00     0.093 A 
ATOM     17  C   UNL     1      14.965   4.385 127.667  1.00  0.00     0.131 A 
ENDROOT
BRANCH   6  18
ATOM     18  O   UNL     1      15.883   1.566 132.096  1.00  0.00    -0.507 OA
ATOM     19  H   UNL     1      14.967   1.407 131.702  1.00  0.00     0.293 HD
ENDBRANCH   6  18
BRANCH  17  20
ATOM     20  O   UNL     1      14.536   3.102 127.328  1.00  0.00    -0.507 OA
ATOM     21  H   UNL     1      13.754   2.950 126.702  1.00  0.00     0.293 HD
ENDBRANCH  17  20
BRANCH  15  22
ATOM     22  O   UNL     1      14.866   7.805 126.244  1.00  0.00    -0.508 OA
ATOM     23  H   UNL     1      13.932   8.181 126.122  1.00  0.00     0.293 HD
ENDBRANCH  15  22
TORSDOF 3
ENDMDL
MODEL 3
REMARK VINA RESULT:    -8.543      1.583      5.502
REMARK INTER + INTRA:          -9.293
REMARK INTER:                  -9.293
REMARK INTRA:                   0.000
REMARK UNBOUND:                 0.000
REMARK SMILES Cc1cc(O)c2c(c1)C(=O)c1cc(O)cc(O)c1C2=O
REMARK SMILES IDX 1 1 2 2 8 3 7 4 6 5 4 6 3 7 19 8 20 9 18 10 11 11 9 12 10 13
REMARK SMILES IDX 12 14 13 15 15 16 16 17 5 18 17 20 14 22
REMARK H PARENT 5 19 17 21 14 23
REMARK Flexibility Score: inf
ROOT
ATOM      1  C   UNL     1      17.400   3.977 137.331  1.00  0.00     0.044 C 
ATOM      2  C   UNL     1      16.993   4.713 136.089  1.00  0.00    -0.047 A 
ATOM      3  C   UNL     1      16.942   4.046 134.861  1.00  0.00     0.016 A 
ATOM      4  C   UNL     1      16.586   4.731 133.686  1.00  0.00     0.038 A 
ATOM      5  C   UNL     1      16.276   6.111 133.741  1.00  0.00     0.076 A 
ATOM      6  C   UNL     1      16.428   6.800 134.974  1.00  0.00     0.127 A 
ATOM      7  C   UNL     1      16.757   6.091 136.133  1.00  0.00     0.050 A 
ATOM      8  C   UNL     1      15.752   6.768 132.512  1.00  0.00     0.201 C 
ATOM      9  O   UNL     1      15.087   7.835 132.600  1.00  0.00    -0.288 OA
ATOM     10  C   UNL     1      15.908   6.111 131.187  1.00  0.00     0.076 A 
ATOM     11  C   UNL     1      16.283   4.751 131.136  1.00  0.00     0.041 A 
ATOM     12  C   UNL     1      16.549   4.012 132.391  1.00  0.00     0.194 C 
ATOM     13  O   UNL     1      16.762   2.768 132.354  1.00  0.00    -0.289 OA
ATOM     14  C   UNL     1      16.399   4.105 129.893  1.00  0.00     0.059 A 
ATOM     15  C   UNL     1      16.154   4.798 128.708  1.00  0.00     0.120 A 
ATOM     16  C   UNL     1      15.790   6.146 128.753  1.00  0.00     0.093 A 
ATOM     17  C   UNL     1      15.667   6.809 129.981  1.00  0.00     0.131 A 
ENDROOT
BRANCH   6  18
ATOM     18  O   UNL     1      16.301   8.187 135.091  1.00  0.00    -0.507 OA
ATOM     19  H   UNL     1      16.409   8.689 135.960  1.00  0.00     0.293 HD
ENDBRANCH   6  18
BRANCH  17  20
ATOM     20  O   UNL     1      15.315   8.159 129.998  1.00  0.00    -0.507 OA
ATOM     21  H   UNL     1      14.694   8.556 129.304  1.00  0.00     0.293 HD
ENDBRANCH  17  20
BRANCH  15  22
ATOM     22  O   UNL     1      16.276   4.137 127.487  1.00  0.00    -0.508 OA
ATOM     23  H   UNL     1      17.129   3.652 127.230  1.00  0.00     0.293 HD
ENDBRANCH  15  22
TORSDOF 3
ENDMDL
MODEL 4
REMARK VINA RESULT:    -8.416      1.335      6.241
REMARK INTER + INTRA:          -9.154
REMARK INTER:                  -9.154
REMARK INTRA:                   0.000
REMARK UNBOUND:                 0.000
REMARK SMILES Cc1cc(O)c2c(c1)C(=O)c1cc(O)cc(O)c1C2=O
REMARK SMILES IDX 1 1 2 2 8 3 7 4 6 5 4 6 3 7 19 8 20 9 18 10 11 11 9 12 10 13
REMARK SMILES IDX 12 14 13 15 15 16 16 17 5 18 17 20 14 22
REMARK H PARENT 5 19 17 21 14 23
REMARK Flexibility Score: inf
ROOT
ATOM      1  C   UNL     1      16.993   8.453 137.774  1.00  0.00     0.044 C 
ATOM      2  C   UNL     1      16.919   7.290 136.830  1.00  0.00    -0.047 A 
ATOM      3  C   UNL     1      16.449   7.470 135.526  1.00  0.00     0.016 A 
ATOM      4  C   UNL     1      16.352   6.383 134.640  1.00  0.00     0.038 A 
ATOM      5  C   UNL     1      16.731   5.089 135.069  1.00  0.00     0.076 A 
ATOM      6  C   UNL     1      17.111   4.898 136.425  1.00  0.00     0.127 A 
ATOM      7  C   UNL     1      17.226   6.001 137.278  1.00  0.00     0.050 A 
ATOM      8  C   UNL     1      16.765   3.991 134.063  1.00  0.00     0.201 C 
ATOM      9  O   UNL     1      17.467   2.965 134.270  1.00  0.00    -0.288 OA
ATOM     10  C   UNL     1      16.068   4.150 132.759  1.00  0.00     0.076 A 
ATOM     11  C   UNL     1      15.632   5.434 132.366  1.00  0.00     0.041 A 
ATOM     12  C   UNL     1      15.840   6.591 133.265  1.00  0.00     0.194 C 
ATOM     13  O   UNL     1      15.565   7.755 132.864  1.00  0.00    -0.289 OA
ATOM     14  C   UNL     1      15.005   5.606 131.120  1.00  0.00     0.059 A 
ATOM     15  C   UNL     1      14.802   4.518 130.270  1.00  0.00     0.120 A 
ATOM     16  C   UNL     1      15.225   3.245 130.660  1.00  0.00     0.093 A 
ATOM     17  C   UNL     1      15.854   3.050 131.896  1.00  0.00     0.131 A 
ENDROOT
BRANCH   6  18
ATOM     18  O   UNL     1      17.346   3.638 136.979  1.00  0.00    -0.507 OA
ATOM     19  H   UNL     1      17.295   3.440 137.968  1.00  0.00     0.293 HD
ENDBRANCH   6  18
BRANCH  17  20
ATOM     20  O   UNL     1      16.255   1.766 132.265  1.00  0.00    -0.507 OA
ATOM     21  H   UNL     1      15.588   1.012 132.376  1.00  0.00     0.293 HD
ENDBRANCH  17  20
BRANCH  15  22
ATOM     22  O   UNL     1      14.176   4.714 129.041  1.00  0.00    -0.508 OA
ATOM     23  H   UNL     1      14.674   5.106 128.249  1.00  0.00     0.293 HD
ENDBRANCH  15  22
TORSDOF 3
ENDMDL
MODEL 5
REMARK VINA RESULT:    -8.156      2.464      4.395
REMARK INTER + INTRA:          -8.872
REMARK INTER:                  -8.872
REMARK INTRA:                   0.000
REMARK UNBOUND:                 0.000
REMARK SMILES Cc1cc(O)c2c(c1)C(=O)c1cc(O)cc(O)c1C2=O
REMARK SMILES IDX 1 1 2 2 8 3 7 4 6 5 4 6 3 7 19 8 20 9 18 10 11 11 9 12 10 13
REMARK SMILES IDX 12 14 13 15 15 16 16 17 5 18 17 20 14 22
REMARK H PARENT 5 19 17 21 14 23
REMARK Flexibility Score: inf
ROOT
ATOM      1  C   UNL     1      14.491   7.020 125.852  1.00  0.00     0.044 C 
ATOM      2  C   UNL     1      14.700   6.054 126.981  1.00  0.00    -0.047 A 
ATOM      3  C   UNL     1      15.446   6.432 128.102  1.00  0.00     0.016 A 
ATOM      4  C   UNL     1      15.669   5.527 129.154  1.00  0.00     0.038 A 
ATOM      5  C   UNL     1      15.137   4.218 129.083  1.00  0.00     0.076 A 
ATOM      6  C   UNL     1      14.468   3.812 127.897  1.00  0.00     0.127 A 
ATOM      7  C   UNL     1      14.235   4.740 126.876  1.00  0.00     0.050 A 
ATOM      8  C   UNL     1      15.257   3.339 130.279  1.00  0.00     0.201 C 
ATOM      9  O   UNL     1      14.472   2.365 130.430  1.00  0.00    -0.288 OA
ATOM     10  C   UNL     1      16.223   3.673 131.359  1.00  0.00     0.076 A 
ATOM     11  C   UNL     1      16.803   4.960 131.387  1.00  0.00     0.041 A 
ATOM     12  C   UNL     1      16.473   5.941 130.329  1.00  0.00     0.194 C 
ATOM     13  O   UNL     1      16.891   7.128 130.420  1.00  0.00    -0.289 OA
ATOM     14  C   UNL     1      17.691   5.303 132.422  1.00  0.00     0.059 A 
ATOM     15  C   UNL     1      18.009   4.381 133.419  1.00  0.00     0.120 A 
ATOM     16  C   UNL     1      17.443   3.104 133.391  1.00  0.00     0.093 A 
ATOM     17  C   UNL     1      16.555   2.741 132.370  1.00  0.00     0.131 A 
ENDROOT
BRANCH   6  18
ATOM     18  O   UNL     1      14.051   2.498 127.671  1.00  0.00    -0.507 OA
ATOM     19  H   UNL     1      13.083   2.223 127.588  1.00  0.00     0.293 HD
ENDBRANCH   6  18
BRANCH  17  20
ATOM     20  O   UNL     1      16.014   1.455 132.357  1.00  0.00    -0.507 OA
ATOM     21  H   UNL     1      15.167   1.239 131.847  1.00  0.00     0.293 HD
ENDBRANCH  17  20
BRANCH  15  22
ATOM     22  O   UNL     1      18.891   4.744 134.434  1.00  0.00    -0.508 OA
ATOM     23  H   UNL     1      18.570   5.207 135.277  1.00  0.00     0.293 HD
ENDBRANCH  15  22
TORSDOF 3
ENDMDL
MODEL 6
REMARK VINA RESULT:    -8.105      1.695      4.220
REMARK INTER + INTRA:          -8.815
REMARK INTER:                  -8.815
REMARK INTRA:                   0.000
REMARK UNBOUND:                 0.000
REMARK SMILES Cc1cc(O)c2c(c1)C(=O)c1cc(O)cc(O)c1C2=O
REMARK SMILES IDX 1 1 2 2 8 3 7 4 6 5 4 6 3 7 19 8 20 9 18 10 11 11 9 12 10 13
REMARK SMILES IDX 12 14 13 15 15 16 16 17 5 18 17 20 14 22
REMARK H PARENT 5 19 17 21 14 23
REMARK Flexibility Score: inf
ROOT
ATOM      1  C   UNL     1      14.002   1.460 127.261  1.00  0.00     0.044 C 
ATOM      2  C   UNL     1      14.676   1.938 128.512  1.00  0.00    -0.047 A 
ATOM      3  C   UNL     1      14.343   3.180 129.061  1.00  0.00     0.016 A 
ATOM      4  C   UNL     1      14.986   3.649 130.220  1.00  0.00     0.038 A 
ATOM      5  C   UNL     1      15.984   2.861 130.841  1.00  0.00     0.076 A 
ATOM      6  C   UNL     1      16.386   1.648 130.219  1.00  0.00     0.127 A 
ATOM      7  C   UNL     1      15.712   1.190 129.083  1.00  0.00     0.050 A 
ATOM      8  C   UNL     1      16.531   3.313 132.149  1.00  0.00     0.201 C 
ATOM      9  O   UNL     1      17.082   2.486 132.925  1.00  0.00    -0.288 OA
ATOM     10  C   UNL     1      16.328   4.715 132.601  1.00  0.00     0.076 A 
ATOM     11  C   UNL     1      15.378   5.519 131.935  1.00  0.00     0.041 A 
ATOM     12  C   UNL     1      14.628   4.973 130.782  1.00  0.00     0.194 C 
ATOM     13  O   UNL     1      13.693   5.645 130.265  1.00  0.00    -0.289 OA
ATOM     14  C   UNL     1      15.147   6.835 132.373  1.00  0.00     0.059 A 
ATOM     15  C   UNL     1      15.854   7.357 133.457  1.00  0.00     0.120 A 
ATOM     16  C   UNL     1      16.801   6.566 134.114  1.00  0.00     0.093 A 
ATOM     17  C   UNL     1      17.045   5.252 133.695  1.00  0.00     0.131 A 
ENDROOT
BRANCH   6  18
ATOM     18  O   UNL     1      17.468   0.886 130.667  1.00  0.00    -0.507 OA
ATOM     19  H   UNL     1      17.970   1.074 131.524  1.00  0.00     0.293 HD
ENDBRANCH   6  18
BRANCH  17  20
ATOM     20  O   UNL     1      18.005   4.489 134.360  1.00  0.00    -0.507 OA
ATOM     21  H   UNL     1      18.954   4.408 134.015  1.00  0.00     0.293 HD
ENDBRANCH  17  20
BRANCH  15  22
ATOM     22  O   UNL     1      15.609   8.664 133.872  1.00  0.00    -0.508 OA
ATOM     23  H   UNL     1      15.194   9.349 133.250  1.00  0.00     0.293 HD
ENDBRANCH  15  22
TORSDOF 3
ENDMDL
MODEL 7
REMARK VINA RESULT:    -8.095      1.620      3.855
REMARK INTER + INTRA:          -8.805
REMARK INTER:                  -8.805
REMARK INTRA:                   0.000
REMARK UNBOUND:                 0.000
REMARK SMILES Cc1cc(O)c2c(c1)C(=O)c1cc(O)cc(O)c1C2=O
REMARK SMILES IDX 1 1 2 2 8 3 7 4 6 5 4 6 3 7 19 8 20 9 18 10 11 11 9 12 10 13
REMARK SMILES IDX 12 14 13 15 15 16 16 17 5 18 17 20 14 22
REMARK H PARENT 5 19 17 21 14 23
REMARK Flexibility Score: inf
ROOT
ATOM      1  C   UNL     1      14.763   6.261 126.047  1.00  0.00     0.044 C 
ATOM      2  C   UNL     1      15.120   5.709 127.395  1.00  0.00    -0.047 A 
ATOM      3  C   UNL     1      15.032   6.518 128.532  1.00  0.00     0.016 A 
ATOM      4  C   UNL     1      15.388   6.020 129.797  1.00  0.00     0.038 A 
ATOM      5  C   UNL     1      15.843   4.686 129.927  1.00  0.00     0.076 A 
ATOM      6  C   UNL     1      16.025   3.905 128.753  1.00  0.00     0.127 A 
ATOM      7  C   UNL     1      15.638   4.415 127.511  1.00  0.00     0.050 A 
ATOM      8  C   UNL     1      16.061   4.142 131.296  1.00  0.00     0.201 C 
ATOM      9  O   UNL     1      16.054   2.897 131.491  1.00  0.00    -0.288 OA
ATOM     10  C   UNL     1      16.170   5.063 132.458  1.00  0.00     0.076 A 
ATOM     11  C   UNL     1      15.777   6.411 132.305  1.00  0.00     0.041 A 
ATOM     12  C   UNL     1      15.299   6.895 130.991  1.00  0.00     0.194 C 
ATOM     13  O   UNL     1      14.832   8.062 130.883  1.00  0.00    -0.289 OA
ATOM     14  C   UNL     1      15.839   7.285 133.404  1.00  0.00     0.059 A 
ATOM     15  C   UNL     1      16.292   6.835 134.645  1.00  0.00     0.120 A 
ATOM     16  C   UNL     1      16.689   5.504 134.798  1.00  0.00     0.093 A 
ATOM     17  C   UNL     1      16.634   4.615 133.717  1.00  0.00     0.131 A 
ENDROOT
BRANCH   6  18
ATOM     18  O   UNL     1      16.618   2.641 128.767  1.00  0.00    -0.507 OA
ATOM     19  H   UNL     1      16.902   2.163 129.610  1.00  0.00     0.293 HD
ENDBRANCH   6  18
BRANCH  17  20
ATOM     20  O   UNL     1      17.048   3.295 133.894  1.00  0.00    -0.507 OA
ATOM     21  H   UNL     1      16.550   2.520 133.475  1.00  0.00     0.293 HD
ENDBRANCH  17  20
BRANCH  15  22
ATOM     22  O   UNL     1      16.345   7.720 135.719  1.00  0.00    -0.508 OA
ATOM     23  H   UNL     1      15.559   7.840 136.347  1.00  0.00     0.293 HD
ENDBRANCH  15  22
TORSDOF 3
ENDMDL
MODEL 8
REMARK VINA RESULT:    -7.704      2.250      3.709
REMARK INTER + INTRA:          -8.379
REMARK INTER:                  -8.379
REMARK INTRA:                   0.000
REMARK UNBOUND:                 0.000
REMARK SMILES Cc1cc(O)c2c(c1)C(=O)c1cc(O)cc(O)c1C2=O
REMARK SMILES IDX 1 1 2 2 8 3 7 4 6 5 4 6 3 7 19 8 20 9 18 10 11 11 9 12 10 13
REMARK SMILES IDX 12 14 13 15 15 16 16 17 5 18 17 20 14 22
REMARK H PARENT 5 19 17 21 14 23
REMARK Flexibility Score: inf
ROOT
ATOM      1  C   UNL     1      15.126   0.661 129.124  1.00  0.00     0.044 C 
ATOM      2  C   UNL     1      15.376   2.131 129.283  1.00  0.00    -0.047 A 
ATOM      3  C   UNL     1      15.565   2.680 130.556  1.00  0.00     0.016 A 
ATOM      4  C   UNL     1      15.775   4.060 130.719  1.00  0.00     0.038 A 
ATOM      5  C   UNL     1      15.795   4.909 129.587  1.00  0.00     0.076 A 
ATOM      6  C   UNL     1      15.502   4.358 128.310  1.00  0.00     0.127 A 
ATOM      7  C   UNL     1      15.324   2.978 128.171  1.00  0.00     0.050 A 
ATOM      8  C   UNL     1      16.175   6.336 129.778  1.00  0.00     0.201 C 
ATOM      9  O   UNL     1      16.607   7.011 128.806  1.00  0.00    -0.288 OA
ATOM     10  C   UNL     1      16.160   6.938 131.138  1.00  0.00     0.076 A 
ATOM     11  C   UNL     1      16.072   6.090 132.263  1.00  0.00     0.041 A 
ATOM     12  C   UNL     1      15.961   4.626 132.076  1.00  0.00     0.194 C 
ATOM     13  O   UNL     1      16.008   3.860 133.078  1.00  0.00    -0.289 OA
ATOM     14  C   UNL     1      16.093   6.642 133.556  1.00  0.00     0.059 A 
ATOM     15  C   UNL     1      16.193   8.021 133.738  1.00  0.00     0.120 A 
ATOM     16  C   UNL     1      16.272   8.864 132.627  1.00  0.00     0.093 A 
ATOM     17  C   UNL     1      16.255   8.336 131.329  1.00  0.00     0.131 A 
ENDROOT
BRANCH   6  18
ATOM     18  O   UNL     1      15.341   5.140 127.164  1.00  0.00    -0.507 OA
ATOM     19  H   UNL     1      16.111   5.517 126.629  1.00  0.00     0.293 HD
ENDBRANCH   6  18
BRANCH  17  20
ATOM     20  O   UNL     1      16.322   9.201 130.237  1.00  0.00    -0.507 OA
ATOM     21  H   UNL     1      16.629   8.885 129.325  1.00  0.00     0.293 HD
ENDBRANCH  17  20
BRANCH  15  22
ATOM     22  O   UNL     1      16.211   8.544 135.029  1.00  0.00    -0.508 OA
ATOM     23  H   UNL     1      16.585   8.017 135.810  1.00  0.00     0.293 HD
ENDBRANCH  15  22
TORSDOF 3
ENDMDL
MODEL 9
REMARK VINA RESULT:    -7.659      3.056      6.371
REMARK INTER + INTRA:          -8.331
REMARK INTER:                  -8.331
REMARK INTRA:                   0.000
REMARK UNBOUND:                 0.000
REMARK SMILES Cc1cc(O)c2c(c1)C(=O)c1cc(O)cc(O)c1C2=O
REMARK SMILES IDX 1 1 2 2 8 3 7 4 6 5 4 6 3 7 19 8 20 9 18 10 11 11 9 12 10 13
REMARK SMILES IDX 12 14 13 15 15 16 16 17 5 18 17 20 14 22
REMARK H PARENT 5 19 17 21 14 23
REMARK Flexibility Score: inf
ROOT
ATOM      1  C   UNL     1      18.361   4.329 133.255  1.00  0.00     0.044 C 
ATOM      2  C   UNL     1      17.287   4.925 132.394  1.00  0.00    -0.047 A 
ATOM      3  C   UNL     1      16.209   4.141 131.969  1.00  0.00     0.016 A 
ATOM      4  C   UNL     1      15.210   4.682 131.142  1.00  0.00     0.038 A 
ATOM      5  C   UNL     1      15.290   6.033 130.730  1.00  0.00     0.076 A 
ATOM      6  C   UNL     1      16.439   6.792 131.084  1.00  0.00     0.127 A 
ATOM      7  C   UNL     1      17.405   6.239 131.930  1.00  0.00     0.050 A 
ATOM      8  C   UNL     1      14.139   6.617 129.988  1.00  0.00     0.201 C 
ATOM      9  O   UNL     1      13.968   7.865 129.965  1.00  0.00    -0.288 OA
ATOM     10  C   UNL     1      13.121   5.728 129.368  1.00  0.00     0.076 A 
ATOM     11  C   UNL     1      13.087   4.365 129.732  1.00  0.00     0.041 A 
ATOM     12  C   UNL     1      14.082   3.833 130.691  1.00  0.00     0.194 C 
ATOM     13  O   UNL     1      13.977   2.648 131.111  1.00  0.00    -0.289 OA
ATOM     14  C   UNL     1      12.107   3.520 129.183  1.00  0.00     0.059 A 
ATOM     15  C   UNL     1      11.170   4.014 128.276  1.00  0.00     0.120 A 
ATOM     16  C   UNL     1      11.205   5.362 127.908  1.00  0.00     0.093 A 
ATOM     17  C   UNL     1      12.171   6.222 128.443  1.00  0.00     0.131 A 
ENDROOT
BRANCH   6  18
ATOM     18  O   UNL     1      16.682   8.076 130.593  1.00  0.00    -0.507 OA
ATOM     19  H   UNL     1      17.100   8.263 129.693  1.00  0.00     0.293 HD
ENDBRANCH   6  18
BRANCH  17  20
ATOM     20  O   UNL     1      12.192   7.560 128.048  1.00  0.00    -0.507 OA
ATOM     21  H   UNL     1      12.989   7.962 127.569  1.00  0.00     0.293 HD
ENDBRANCH  17  20
BRANCH  15  22
ATOM     22  O   UNL     1      10.209   3.157 127.745  1.00  0.00    -0.508 OA
ATOM     23  H   UNL     1      10.209   2.165 127.954  1.00  0.00     0.293 HD
ENDBRANCH  15  22
TORSDOF 3
ENDMDL
