MODEL 1
REMARK VINA RESULT:    -6.565      0.000      0.000
REMARK INTER + INTRA:          -8.192
REMARK INTER:                  -7.908
REMARK INTRA:                  -0.284
REMARK UNBOUND:                -0.284
REMARK SMILES Oc1cc(O)c2cc(O)c(-c3ccc(O)c(O)c3)[o+]c2c1
REMARK SMILES IDX 10 1 19 2 20 3 21 4 2 5 3 6 4 7 6 8 7 9 8 10 11 11 12 12
REMARK SMILES IDX 13 13 14 14 18 15 16 16 15 17 17 19 9 21 1 23 5 25
REMARK H PARENT 15 18 17 20 9 22 1 24 5 26
REMARK Flexibility Score: inf
ROOT
ATOM      1  C   UNL     1       9.273  52.753  20.260  1.00  0.00     0.402 A 
ATOM      2  O   UNL     1       9.771  52.073  21.289  1.00  0.00    -0.202 OA
ATOM      3  C   UNL     1      11.074  51.949  21.520  1.00  0.00     0.368 A 
ATOM      4  C   UNL     1      11.501  51.218  22.631  1.00  0.00     0.162 A 
ATOM      5  C   UNL     1      12.863  51.073  22.900  1.00  0.00     0.128 A 
ATOM      6  C   UNL     1      13.806  51.666  22.054  1.00  0.00     0.093 A 
ATOM      7  C   UNL     1      13.404  52.405  20.934  1.00  0.00     0.136 A 
ATOM      8  C   UNL     1      12.020  52.552  20.656  1.00  0.00     0.125 A 
ATOM      9  C   UNL     1      11.526  53.262  19.551  1.00  0.00     0.078 A 
ATOM     10  C   UNL     1      10.147  53.359  19.339  1.00  0.00     0.223 A 
ENDROOT
BRANCH   1  11
ATOM     11  C   UNL     1       7.801  52.827  20.116  1.00  0.00     0.087 A 
ATOM     12  C   UNL     1       7.022  53.639  20.958  1.00  0.00     0.022 A 
ATOM     13  C   UNL     1       5.633  53.675  20.817  1.00  0.00     0.051 A 
ATOM     14  C   UNL     1       5.000  52.891  19.844  1.00  0.00     0.157 A 
ATOM     15  C   UNL     1       7.160  52.028  19.155  1.00  0.00     0.068 A 
ATOM     16  C   UNL     1       5.768  52.062  19.011  1.00  0.00     0.158 A 
BRANCH  14  17
ATOM     17  O   UNL     1       3.613  52.930  19.705  1.00  0.00    -0.504 OA
ATOM     18  H   UNL     1       3.101  52.169  19.275  1.00  0.00     0.293 HD
ENDBRANCH  14  17
BRANCH  16  19
ATOM     19  O   UNL     1       5.168  51.264  18.037  1.00  0.00    -0.504 OA
ATOM     20  H   UNL     1       4.216  50.931  18.125  1.00  0.00     0.293 HD
ENDBRANCH  16  19
ENDBRANCH   1  11
BRANCH  10  21
ATOM     21  O   UNL     1       9.658  54.023  18.214  1.00  0.00    -0.500 OA
ATOM     22  H   UNL     1      10.226  54.159  17.386  1.00  0.00     0.294 HD
ENDBRANCH  10  21
BRANCH   5  23
ATOM     23  O   UNL     1      13.268  50.340  24.012  1.00  0.00    -0.507 OA
ATOM     24  H   UNL     1      12.597  49.950  24.664  1.00  0.00     0.293 HD
ENDBRANCH   5  23
BRANCH   7  25
ATOM     25  O   UNL     1      14.408  52.968  20.140  1.00  0.00    -0.507 OA
ATOM     26  H   UNL     1      15.395  52.790  20.257  1.00  0.00     0.293 HD
ENDBRANCH   7  25
TORSDOF 6
ENDMDL
MODEL 2
REMARK VINA RESULT:    -6.417      1.469      2.799
REMARK INTER + INTRA:          -8.015
REMARK INTER:                  -7.825
REMARK INTRA:                  -0.190
REMARK UNBOUND:                -0.284
REMARK SMILES Oc1cc(O)c2cc(O)c(-c3ccc(O)c(O)c3)[o+]c2c1
REMARK SMILES IDX 10 1 19 2 20 3 21 4 2 5 3 6 4 7 6 8 7 9 8 10 11 11 12 12
REMARK SMILES IDX 13 13 14 14 18 15 16 16 15 17 17 19 9 21 1 23 5 25
REMARK H PARENT 15 18 17 20 9 22 1 24 5 26
REMARK Flexibility Score: inf
ROOT
ATOM      1  C   UNL     1       8.348  52.358  21.621  1.00  0.00     0.402 A 
ATOM      2  O   UNL     1       9.547  52.378  21.046  1.00  0.00    -0.202 OA
ATOM      3  C   UNL     1      10.677  52.140  21.705  1.00  0.00     0.368 A 
ATOM      4  C   UNL     1      11.889  52.180  21.012  1.00  0.00     0.162 A 
ATOM      5  C   UNL     1      13.091  51.932  21.677  1.00  0.00     0.128 A 
ATOM      6  C   UNL     1      13.081  51.637  23.045  1.00  0.00     0.093 A 
ATOM      7  C   UNL     1      11.879  51.590  23.762  1.00  0.00     0.136 A 
ATOM      8  C   UNL     1      10.655  51.845  23.090  1.00  0.00     0.125 A 
ATOM      9  C   UNL     1       9.406  51.832  23.729  1.00  0.00     0.078 A 
ATOM     10  C   UNL     1       8.242  52.099  23.000  1.00  0.00     0.223 A 
ENDROOT
BRANCH   1  11
ATOM     11  C   UNL     1       7.162  52.630  20.777  1.00  0.00     0.087 A 
ATOM     12  C   UNL     1       6.354  53.760  20.991  1.00  0.00     0.022 A 
ATOM     13  C   UNL     1       5.227  53.983  20.196  1.00  0.00     0.051 A 
ATOM     14  C   UNL     1       4.882  53.075  19.186  1.00  0.00     0.157 A 
ATOM     15  C   UNL     1       6.801  51.713  19.776  1.00  0.00     0.068 A 
ATOM     16  C   UNL     1       5.673  51.933  18.977  1.00  0.00     0.158 A 
BRANCH  14  17
ATOM     17  O   UNL     1       3.758  53.302  18.393  1.00  0.00    -0.504 OA
ATOM     18  H   UNL     1       3.225  52.537  17.997  1.00  0.00     0.293 HD
ENDBRANCH  14  17
BRANCH  16  19
ATOM     19  O   UNL     1       5.354  51.007  17.985  1.00  0.00    -0.504 OA
ATOM     20  H   UNL     1       4.568  51.137  17.360  1.00  0.00     0.293 HD
ENDBRANCH  16  19
ENDBRANCH   1  11
BRANCH  10  21
ATOM     21  O   UNL     1       7.006  52.135  23.645  1.00  0.00    -0.500 OA
ATOM     22  H   UNL     1       6.150  52.343  23.144  1.00  0.00     0.294 HD
ENDBRANCH  10  21
BRANCH   5  23
ATOM     23  O   UNL     1      14.289  51.977  20.969  1.00  0.00    -0.507 OA
ATOM     24  H   UNL     1      15.063  51.364  21.198  1.00  0.00     0.293 HD
ENDBRANCH   5  23
BRANCH   7  25
ATOM     25  O   UNL     1      11.953  51.286  25.125  1.00  0.00    -0.507 OA
ATOM     26  H   UNL     1      11.639  50.418  25.533  1.00  0.00     0.293 HD
ENDBRANCH   7  25
TORSDOF 6
ENDMDL
MODEL 3
REMARK VINA RESULT:    -6.404      2.392      7.570
REMARK INTER + INTRA:          -7.998
REMARK INTER:                  -7.700
REMARK INTRA:                  -0.298
REMARK UNBOUND:                -0.284
REMARK SMILES Oc1cc(O)c2cc(O)c(-c3ccc(O)c(O)c3)[o+]c2c1
REMARK SMILES IDX 10 1 19 2 20 3 21 4 2 5 3 6 4 7 6 8 7 9 8 10 11 11 12 12
REMARK SMILES IDX 13 13 14 14 18 15 16 16 15 17 17 19 9 21 1 23 5 25
REMARK H PARENT 15 18 17 20 9 22 1 24 5 26
REMARK Flexibility Score: inf
ROOT
ATOM      1  C   UNL     1       6.731  52.876  21.152  1.00  0.00     0.402 A 
ATOM      2  O   UNL     1       6.121  54.011  21.483  1.00  0.00    -0.202 OA
ATOM      3  C   UNL     1       5.095  54.513  20.804  1.00  0.00     0.368 A 
ATOM      4  C   UNL     1       4.517  55.712  21.232  1.00  0.00     0.162 A 
ATOM      5  C   UNL     1       3.438  56.261  20.541  1.00  0.00     0.128 A 
ATOM      6  C   UNL     1       2.927  55.607  19.413  1.00  0.00     0.093 A 
ATOM      7  C   UNL     1       3.488  54.406  18.964  1.00  0.00     0.136 A 
ATOM      8  C   UNL     1       4.589  53.845  19.663  1.00  0.00     0.125 A 
ATOM      9  C   UNL     1       5.221  52.652  19.279  1.00  0.00     0.078 A 
ATOM     10  C   UNL     1       6.305  52.165  20.015  1.00  0.00     0.223 A 
ENDROOT
BRANCH   1  11
ATOM     11  C   UNL     1       7.857  52.415  21.995  1.00  0.00     0.087 A 
ATOM     12  C   UNL     1       7.639  51.825  23.253  1.00  0.00     0.022 A 
ATOM     13  C   UNL     1       8.719  51.419  24.039  1.00  0.00     0.051 A 
ATOM     14  C   UNL     1      10.033  51.606  23.589  1.00  0.00     0.157 A 
ATOM     15  C   UNL     1       9.176  52.619  21.557  1.00  0.00     0.068 A 
ATOM     16  C   UNL     1      10.261  52.212  22.342  1.00  0.00     0.158 A 
BRANCH  14  17
ATOM     17  O   UNL     1      11.109  51.198  24.376  1.00  0.00    -0.504 OA
ATOM     18  H   UNL     1      11.022  51.093  25.380  1.00  0.00     0.293 HD
ENDBRANCH  14  17
BRANCH  16  19
ATOM     19  O   UNL     1      11.556  52.419  21.869  1.00  0.00    -0.504 OA
ATOM     20  H   UNL     1      12.049  51.721  21.326  1.00  0.00     0.293 HD
ENDBRANCH  16  19
ENDBRANCH   1  11
BRANCH  10  21
ATOM     21  O   UNL     1       6.965  51.006  19.605  1.00  0.00    -0.500 OA
ATOM     22  H   UNL     1       6.485  50.270  19.100  1.00  0.00     0.294 HD
ENDBRANCH  10  21
BRANCH   5  23
ATOM     23  O   UNL     1       2.876  57.456  20.983  1.00  0.00    -0.507 OA
ATOM     24  H   UNL     1       3.337  58.346  20.834  1.00  0.00     0.293 HD
ENDBRANCH   5  23
BRANCH   7  25
ATOM     25  O   UNL     1       2.919  53.813  17.832  1.00  0.00    -0.507 OA
ATOM     26  H   UNL     1       2.075  53.261  17.842  1.00  0.00     0.293 HD
ENDBRANCH   7  25
TORSDOF 6
ENDMDL
MODEL 4
REMARK VINA RESULT:    -6.219      2.203      7.529
REMARK INTER + INTRA:          -7.776
REMARK INTER:                  -7.475
REMARK INTRA:                  -0.300
REMARK UNBOUND:                -0.284
REMARK SMILES Oc1cc(O)c2cc(O)c(-c3ccc(O)c(O)c3)[o+]c2c1
REMARK SMILES IDX 10 1 19 2 20 3 21 4 2 5 3 6 4 7 6 8 7 9 8 10 11 11 12 12
REMARK SMILES IDX 13 13 14 14 18 15 16 16 15 17 17 19 9 21 1 23 5 25
REMARK H PARENT 15 18 17 20 9 22 1 24 5 26
REMARK Flexibility Score: inf
ROOT
ATOM      1  C   UNL     1       8.674  52.555  19.406  1.00  0.00     0.402 A 
ATOM      2  O   UNL     1       8.007  52.845  18.292  1.00  0.00    -0.202 OA
ATOM      3  C   UNL     1       6.690  53.019  18.253  1.00  0.00     0.368 A 
ATOM      4  C   UNL     1       6.081  53.326  17.033  1.00  0.00     0.162 A 
ATOM      5  C   UNL     1       4.701  53.516  16.962  1.00  0.00     0.128 A 
ATOM      6  C   UNL     1       3.922  53.403  18.119  1.00  0.00     0.093 A 
ATOM      7  C   UNL     1       4.509  53.097  19.353  1.00  0.00     0.136 A 
ATOM      8  C   UNL     1       5.912  52.899  19.429  1.00  0.00     0.125 A 
ATOM      9  C   UNL     1       6.583  52.578  20.619  1.00  0.00     0.078 A 
ATOM     10  C   UNL     1       7.970  52.392  20.614  1.00  0.00     0.223 A 
ENDROOT
BRANCH   1  11
ATOM     11  C   UNL     1      10.143  52.395  19.322  1.00  0.00     0.087 A 
ATOM     12  C   UNL     1      10.725  51.220  18.814  1.00  0.00     0.022 A 
ATOM     13  C   UNL     1      12.114  51.084  18.767  1.00  0.00     0.051 A 
ATOM     14  C   UNL     1      12.943  52.111  19.237  1.00  0.00     0.157 A 
ATOM     15  C   UNL     1      10.978  53.414  19.811  1.00  0.00     0.068 A 
ATOM     16  C   UNL     1      12.370  53.281  19.764  1.00  0.00     0.158 A 
BRANCH  14  17
ATOM     17  O   UNL     1      14.329  51.973  19.186  1.00  0.00    -0.504 OA
ATOM     18  H   UNL     1      14.776  51.069  19.287  1.00  0.00     0.293 HD
ENDBRANCH  14  17
BRANCH  16  19
ATOM     19  O   UNL     1      13.166  54.319  20.247  1.00  0.00    -0.504 OA
ATOM     20  H   UNL     1      12.786  55.229  20.473  1.00  0.00     0.293 HD
ENDBRANCH  16  19
ENDBRANCH   1  11
BRANCH  10  21
ATOM     21  O   UNL     1       8.630  52.024  21.786  1.00  0.00    -0.500 OA
ATOM     22  H   UNL     1       8.480  52.516  22.659  1.00  0.00     0.294 HD
ENDBRANCH  10  21
BRANCH   5  23
ATOM     23  O   UNL     1       4.112  53.822  15.737  1.00  0.00    -0.507 OA
ATOM     24  H   UNL     1       3.109  53.774  15.605  1.00  0.00     0.293 HD
ENDBRANCH   5  23
BRANCH   7  25
ATOM     25  O   UNL     1       3.662  53.004  20.463  1.00  0.00    -0.507 OA
ATOM     26  H   UNL     1       3.946  52.662  21.369  1.00  0.00     0.293 HD
ENDBRANCH   7  25
TORSDOF 6
ENDMDL
MODEL 5
REMARK VINA RESULT:    -6.032      2.575      7.477
REMARK INTER + INTRA:          -7.550
REMARK INTER:                  -7.274
REMARK INTRA:                  -0.276
REMARK UNBOUND:                -0.284
REMARK SMILES Oc1cc(O)c2cc(O)c(-c3ccc(O)c(O)c3)[o+]c2c1
REMARK SMILES IDX 10 1 19 2 20 3 21 4 2 5 3 6 4 7 6 8 7 9 8 10 11 11 12 12
REMARK SMILES IDX 13 13 14 14 18 15 16 16 15 17 17 19 9 21 1 23 5 25
REMARK H PARENT 15 18 17 20 9 22 1 24 5 26
REMARK Flexibility Score: inf
ROOT
ATOM      1  C   UNL     1       6.340  52.863  19.704  1.00  0.00     0.402 A 
ATOM      2  O   UNL     1       6.263  51.933  18.757  1.00  0.00    -0.202 OA
ATOM      3  C   UNL     1       5.447  52.022  17.711  1.00  0.00     0.368 A 
ATOM      4  C   UNL     1       5.440  50.994  16.765  1.00  0.00     0.162 A 
ATOM      5  C   UNL     1       4.596  51.061  15.656  1.00  0.00     0.128 A 
ATOM      6  C   UNL     1       3.754  52.166  15.488  1.00  0.00     0.093 A 
ATOM      7  C   UNL     1       3.743  53.210  16.421  1.00  0.00     0.136 A 
ATOM      8  C   UNL     1       4.598  53.143  17.552  1.00  0.00     0.125 A 
ATOM      9  C   UNL     1       4.644  54.136  18.544  1.00  0.00     0.078 A 
ATOM     10  C   UNL     1       5.509  53.997  19.634  1.00  0.00     0.223 A 
ENDROOT
BRANCH   1  11
ATOM     11  C   UNL     1       7.296  52.654  20.815  1.00  0.00     0.087 A 
ATOM     12  C   UNL     1       6.858  52.300  22.103  1.00  0.00     0.022 A 
ATOM     13  C   UNL     1       7.778  52.131  23.140  1.00  0.00     0.051 A 
ATOM     14  C   UNL     1       9.146  52.325  22.911  1.00  0.00     0.157 A 
ATOM     15  C   UNL     1       8.668  52.867  20.595  1.00  0.00     0.068 A 
ATOM     16  C   UNL     1       9.592  52.697  21.632  1.00  0.00     0.158 A 
BRANCH  14  17
ATOM     17  O   UNL     1      10.062  52.152  23.949  1.00  0.00    -0.504 OA
ATOM     18  H   UNL     1      10.783  51.442  23.907  1.00  0.00     0.293 HD
ENDBRANCH  14  17
BRANCH  16  19
ATOM     19  O   UNL     1      10.946  52.904  21.374  1.00  0.00    -0.504 OA
ATOM     20  H   UNL     1      11.326  52.878  20.435  1.00  0.00     0.293 HD
ENDBRANCH  16  19
ENDBRANCH   1  11
BRANCH  10  21
ATOM     21  O   UNL     1       5.520  54.959  20.645  1.00  0.00    -0.500 OA
ATOM     22  H   UNL     1       4.814  54.976  21.371  1.00  0.00     0.294 HD
ENDBRANCH  10  21
BRANCH   5  23
ATOM     23  O   UNL     1       4.604  50.026  14.724  1.00  0.00    -0.507 OA
ATOM     24  H   UNL     1       4.647  49.055  15.011  1.00  0.00     0.293 HD
ENDBRANCH   5  23
BRANCH   7  25
ATOM     25  O   UNL     1       2.876  54.280  16.180  1.00  0.00    -0.507 OA
ATOM     26  H   UNL     1       2.023  54.450  16.693  1.00  0.00     0.293 HD
ENDBRANCH   7  25
TORSDOF 6
ENDMDL
MODEL 6
REMARK VINA RESULT:    -6.005      1.553      3.111
REMARK INTER + INTRA:          -7.518
REMARK INTER:                  -7.346
REMARK INTRA:                  -0.172
REMARK UNBOUND:                -0.284
REMARK SMILES Oc1cc(O)c2cc(O)c(-c3ccc(O)c(O)c3)[o+]c2c1
REMARK SMILES IDX 10 1 19 2 20 3 21 4 2 5 3 6 4 7 6 8 7 9 8 10 11 11 12 12
REMARK SMILES IDX 13 13 14 14 18 15 16 16 15 17 17 19 9 21 1 23 5 25
REMARK H PARENT 15 18 17 20 9 22 1 24 5 26
REMARK Flexibility Score: inf
ROOT
ATOM      1  C   UNL     1       8.428  52.317  21.597  1.00  0.00     0.402 A 
ATOM      2  O   UNL     1       9.622  52.301  21.012  1.00  0.00    -0.202 OA
ATOM      3  C   UNL     1      10.757  52.095  21.674  1.00  0.00     0.368 A 
ATOM      4  C   UNL     1      11.963  52.092  20.970  1.00  0.00     0.162 A 
ATOM      5  C   UNL     1      13.169  51.876  21.637  1.00  0.00     0.128 A 
ATOM      6  C   UNL     1      13.170  51.656  23.020  1.00  0.00     0.093 A 
ATOM      7  C   UNL     1      11.974  51.653  23.748  1.00  0.00     0.136 A 
ATOM      8  C   UNL     1      10.746  51.876  23.073  1.00  0.00     0.125 A 
ATOM      9  C   UNL     1       9.502  51.903  23.722  1.00  0.00     0.078 A 
ATOM     10  C   UNL     1       8.333  52.135  22.989  1.00  0.00     0.223 A 
ENDROOT
BRANCH   1  11
ATOM     11  C   UNL     1       7.236  52.548  20.750  1.00  0.00     0.087 A 
ATOM     12  C   UNL     1       6.876  51.649  19.730  1.00  0.00     0.022 A 
ATOM     13  C   UNL     1       5.760  51.900  18.929  1.00  0.00     0.051 A 
ATOM     14  C   UNL     1       4.995  53.057  19.124  1.00  0.00     0.157 A 
ATOM     15  C   UNL     1       6.477  53.716  20.928  1.00  0.00     0.068 A 
ATOM     16  C   UNL     1       5.358  53.970  20.127  1.00  0.00     0.158 A 
BRANCH  14  17
ATOM     17  O   UNL     1       3.880  53.303  18.323  1.00  0.00    -0.504 OA
ATOM     18  H   UNL     1       3.451  54.220  18.279  1.00  0.00     0.293 HD
ENDBRANCH  14  17
BRANCH  16  19
ATOM     19  O   UNL     1       4.621  55.135  20.342  1.00  0.00    -0.504 OA
ATOM     20  H   UNL     1       3.622  55.118  20.505  1.00  0.00     0.293 HD
ENDBRANCH  16  19
ENDBRANCH   1  11
BRANCH  10  21
ATOM     21  O   UNL     1       7.103  52.211  23.642  1.00  0.00    -0.500 OA
ATOM     22  H   UNL     1       6.801  53.056  24.114  1.00  0.00     0.294 HD
ENDBRANCH  10  21
BRANCH   5  23
ATOM     23  O   UNL     1      14.362  51.877  20.918  1.00  0.00    -0.507 OA
ATOM     24  H   UNL     1      14.959  51.059  20.881  1.00  0.00     0.293 HD
ENDBRANCH   5  23
BRANCH   7  25
ATOM     25  O   UNL     1      12.059  51.424  25.125  1.00  0.00    -0.507 OA
ATOM     26  H   UNL     1      11.404  50.865  25.651  1.00  0.00     0.293 HD
ENDBRANCH   7  25
TORSDOF 6
ENDMDL
MODEL 7
REMARK VINA RESULT:    -5.949      1.298      3.023
REMARK INTER + INTRA:          -7.450
REMARK INTER:                  -7.159
REMARK INTRA:                  -0.291
REMARK UNBOUND:                -0.284
REMARK SMILES Oc1cc(O)c2cc(O)c(-c3ccc(O)c(O)c3)[o+]c2c1
REMARK SMILES IDX 10 1 19 2 20 3 21 4 2 5 3 6 4 7 6 8 7 9 8 10 11 11 12 12
REMARK SMILES IDX 13 13 14 14 18 15 16 16 15 17 17 19 9 21 1 23 5 25
REMARK H PARENT 15 18 17 20 9 22 1 24 5 26
REMARK Flexibility Score: inf
ROOT
ATOM      1  C   UNL     1       9.382  52.841  20.222  1.00  0.00     0.402 A 
ATOM      2  O   UNL     1      10.075  53.511  19.305  1.00  0.00    -0.202 OA
ATOM      3  C   UNL     1      11.404  53.545  19.274  1.00  0.00     0.368 A 
ATOM      4  C   UNL     1      12.041  54.274  18.267  1.00  0.00     0.162 A 
ATOM      5  C   UNL     1      13.434  54.327  18.209  1.00  0.00     0.128 A 
ATOM      6  C   UNL     1      14.198  53.643  19.162  1.00  0.00     0.093 A 
ATOM      7  C   UNL     1      13.582  52.905  20.181  1.00  0.00     0.136 A 
ATOM      8  C   UNL     1      12.165  52.852  20.245  1.00  0.00     0.125 A 
ATOM      9  C   UNL     1      11.464  52.148  21.237  1.00  0.00     0.078 A 
ATOM     10  C   UNL     1      10.065  52.147  21.238  1.00  0.00     0.223 A 
ENDROOT
BRANCH   1  11
ATOM     11  C   UNL     1       7.904  52.870  20.143  1.00  0.00     0.087 A 
ATOM     12  C   UNL     1       7.139  53.658  21.021  1.00  0.00     0.022 A 
ATOM     13  C   UNL     1       5.744  53.651  20.942  1.00  0.00     0.051 A 
ATOM     14  C   UNL     1       5.093  52.849  19.995  1.00  0.00     0.157 A 
ATOM     15  C   UNL     1       7.246  52.054  19.209  1.00  0.00     0.068 A 
ATOM     16  C   UNL     1       5.849  52.045  19.127  1.00  0.00     0.158 A 
BRANCH  14  17
ATOM     17  O   UNL     1       3.701  52.847  19.918  1.00  0.00    -0.504 OA
ATOM     18  H   UNL     1       3.128  53.250  20.650  1.00  0.00     0.293 HD
ENDBRANCH  14  17
BRANCH  16  19
ATOM     19  O   UNL     1       5.231  51.231  18.178  1.00  0.00    -0.504 OA
ATOM     20  H   UNL     1       4.224  51.194  18.074  1.00  0.00     0.293 HD
ENDBRANCH  16  19
ENDBRANCH   1  11
BRANCH  10  21
ATOM     21  O   UNL     1       9.368  51.489  22.252  1.00  0.00    -0.500 OA
ATOM     22  H   UNL     1       9.755  50.684  22.729  1.00  0.00     0.294 HD
ENDBRANCH  10  21
BRANCH   5  23
ATOM     23  O   UNL     1      14.052  55.060  17.198  1.00  0.00    -0.507 OA
ATOM     24  H   UNL     1      14.445  55.977  17.373  1.00  0.00     0.293 HD
ENDBRANCH   5  23
BRANCH   7  25
ATOM     25  O   UNL     1      14.414  52.248  21.092  1.00  0.00    -0.507 OA
ATOM     26  H   UNL     1      14.401  52.402  22.090  1.00  0.00     0.293 HD
ENDBRANCH   7  25
TORSDOF 6
ENDMDL
MODEL 8
REMARK VINA RESULT:    -5.889      3.052      4.257
REMARK INTER + INTRA:          -7.378
REMARK INTER:                  -7.467
REMARK INTRA:                   0.089
REMARK UNBOUND:                -0.284
REMARK SMILES Oc1cc(O)c2cc(O)c(-c3ccc(O)c(O)c3)[o+]c2c1
REMARK SMILES IDX 10 1 19 2 20 3 21 4 2 5 3 6 4 7 6 8 7 9 8 10 11 11 12 12
REMARK SMILES IDX 13 13 14 14 18 15 16 16 15 17 17 19 9 21 1 23 5 25
REMARK H PARENT 15 18 17 20 9 22 1 24 5 26
REMARK Flexibility Score: inf
ROOT
ATOM      1  C   UNL     1      11.789  51.615  22.974  1.00  0.00     0.402 A 
ATOM      2  O   UNL     1      12.741  52.068  23.786  1.00  0.00    -0.202 OA
ATOM      3  C   UNL     1      14.035  52.036  23.483  1.00  0.00     0.368 A 
ATOM      4  C   UNL     1      14.961  52.540  24.400  1.00  0.00     0.162 A 
ATOM      5  C   UNL     1      16.325  52.521  24.108  1.00  0.00     0.128 A 
ATOM      6  C   UNL     1      16.769  51.998  22.889  1.00  0.00     0.093 A 
ATOM      7  C   UNL     1      15.861  51.487  21.953  1.00  0.00     0.136 A 
ATOM      8  C   UNL     1      14.473  51.501  22.247  1.00  0.00     0.125 A 
ATOM      9  C   UNL     1      13.494  51.000  21.376  1.00  0.00     0.078 A 
ATOM     10  C   UNL     1      12.144  51.043  21.738  1.00  0.00     0.223 A 
ENDROOT
BRANCH   1  11
ATOM     11  C   UNL     1      10.381  51.716  23.421  1.00  0.00     0.087 A 
ATOM     12  C   UNL     1      10.001  51.372  24.730  1.00  0.00     0.022 A 
ATOM     13  C   UNL     1       8.662  51.454  25.121  1.00  0.00     0.051 A 
ATOM     14  C   UNL     1       7.683  51.868  24.209  1.00  0.00     0.157 A 
ATOM     15  C   UNL     1       9.392  52.111  22.505  1.00  0.00     0.068 A 
ATOM     16  C   UNL     1       8.051  52.196  22.894  1.00  0.00     0.158 A 
BRANCH  14  17
ATOM     17  O   UNL     1       6.348  51.951  24.604  1.00  0.00    -0.504 OA
ATOM     18  H   UNL     1       5.879  52.843  24.703  1.00  0.00     0.293 HD
ENDBRANCH  14  17
BRANCH  16  19
ATOM     19  O   UNL     1       7.099  52.604  21.960  1.00  0.00    -0.504 OA
ATOM     20  H   UNL     1       6.545  53.442  22.087  1.00  0.00     0.293 HD
ENDBRANCH  16  19
ENDBRANCH   1  11
BRANCH  10  21
ATOM     21  O   UNL     1      11.175  50.500  20.894  1.00  0.00    -0.500 OA
ATOM     22  H   UNL     1      11.039  50.843  19.950  1.00  0.00     0.294 HD
ENDBRANCH  10  21
BRANCH   5  23
ATOM     23  O   UNL     1      17.232  53.029  25.035  1.00  0.00    -0.507 OA
ATOM     24  H   UNL     1      17.125  52.859  26.029  1.00  0.00     0.293 HD
ENDBRANCH   5  23
BRANCH   7  25
ATOM     25  O   UNL     1      16.384  50.984  20.757  1.00  0.00    -0.507 OA
ATOM     26  H   UNL     1      15.906  50.327  20.158  1.00  0.00     0.293 HD
ENDBRANCH   7  25
TORSDOF 6
ENDMDL
MODEL 9
REMARK VINA RESULT:    -5.778      3.016      5.508
REMARK INTER + INTRA:          -7.245
REMARK INTER:                  -6.902
REMARK INTRA:                  -0.343
REMARK UNBOUND:                -0.284
REMARK SMILES Oc1cc(O)c2cc(O)c(-c3ccc(O)c(O)c3)[o+]c2c1
REMARK SMILES IDX 10 1 19 2 20 3 21 4 2 5 3 6 4 7 6 8 7 9 8 10 11 11 12 12
REMARK SMILES IDX 13 13 14 14 18 15 16 16 15 17 17 19 9 21 1 23 5 25
REMARK H PARENT 15 18 17 20 9 22 1 24 5 26
REMARK Flexibility Score: inf
ROOT
ATOM      1  C   UNL     1      10.975  52.505  20.529  1.00  0.00     0.402 A 
ATOM      2  O   UNL     1      11.592  51.586  21.267  1.00  0.00    -0.202 OA
ATOM      3  C   UNL     1      11.126  51.153  22.434  1.00  0.00     0.368 A 
ATOM      4  C   UNL     1      11.845  50.181  23.135  1.00  0.00     0.162 A 
ATOM      5  C   UNL     1      11.380  49.707  24.361  1.00  0.00     0.128 A 
ATOM      6  C   UNL     1      10.184  50.204  24.892  1.00  0.00     0.093 A 
ATOM      7  C   UNL     1       9.445  51.178  24.209  1.00  0.00     0.136 A 
ATOM      8  C   UNL     1       9.917  51.666  22.962  1.00  0.00     0.125 A 
ATOM      9  C   UNL     1       9.250  52.649  22.215  1.00  0.00     0.078 A 
ATOM     10  C   UNL     1       9.781  53.084  20.996  1.00  0.00     0.223 A 
ENDROOT
BRANCH   1  11
ATOM     11  C   UNL     1      11.589  52.897  19.240  1.00  0.00     0.087 A 
ATOM     12  C   UNL     1      11.348  52.169  18.062  1.00  0.00     0.022 A 
ATOM     13  C   UNL     1      11.958  52.545  16.862  1.00  0.00     0.051 A 
ATOM     14  C   UNL     1      12.826  53.644  16.824  1.00  0.00     0.157 A 
ATOM     15  C   UNL     1      12.476  53.985  19.200  1.00  0.00     0.068 A 
ATOM     16  C   UNL     1      13.088  54.365  18.000  1.00  0.00     0.158 A 
BRANCH  14  17
ATOM     17  O   UNL     1      13.431  54.018  15.625  1.00  0.00    -0.504 OA
ATOM     18  H   UNL     1      12.977  53.867  14.732  1.00  0.00     0.293 HD
ENDBRANCH  14  17
BRANCH  16  19
ATOM     19  O   UNL     1      13.952  55.459  17.997  1.00  0.00    -0.504 OA
ATOM     20  H   UNL     1      13.626  56.403  17.827  1.00  0.00     0.293 HD
ENDBRANCH  16  19
ENDBRANCH   1  11
BRANCH  10  21
ATOM     21  O   UNL     1       9.144  54.096  20.278  1.00  0.00    -0.500 OA
ATOM     22  H   UNL     1       8.996  55.017  20.673  1.00  0.00     0.294 HD
ENDBRANCH  10  21
BRANCH   5  23
ATOM     23  O   UNL     1      12.111  48.738  25.044  1.00  0.00    -0.507 OA
ATOM     24  H   UNL     1      11.653  47.992  25.556  1.00  0.00     0.293 HD
ENDBRANCH   5  23
BRANCH   7  25
ATOM     25  O   UNL     1       8.260  51.621  24.804  1.00  0.00    -0.507 OA
ATOM     26  H   UNL     1       8.216  52.149  25.664  1.00  0.00     0.293 HD
ENDBRANCH   7  25
TORSDOF 6
ENDMDL
