MODEL 1
REMARK VINA RESULT:     0.264      0.000      0.000
REMARK INTER + INTRA:           0.550
REMARK INTER:                   0.326
REMARK INTRA:                   0.224
REMARK UNBOUND:                 0.224
REMARK SMILES C=C1CC[C@@H]2[C@@H]1[C@H]1[C@@H](CC[C@H]2C)C1(C)C
REMARK SMILES IDX 6 1 5 2 4 3 3 4 2 5 1 6 11 7 12 8 10 9 7 11 8 12 13 13 14 14
REMARK SMILES IDX 15 15 9 16
REMARK H PARENT
REMARK Flexibility Score: 80.00
ROOT
ATOM      1  C   UNL     1       1.887  11.696  11.963  1.00  0.00     0.022 C 
ATOM      2  C   UNL     1       2.168  13.172  11.630  1.00  0.00    -0.000 C 
ATOM      3  C   UNL     1       0.790  13.819  11.413  1.00  0.00     0.009 C 
ATOM      4  C   UNL     1      -0.108  12.711  10.877  1.00  0.00     0.031 C 
ATOM      5  C   UNL     1       0.545  11.458  11.348  1.00  0.00    -0.074 C 
ATOM      6  C   UNL     1      -0.045  10.257  11.279  1.00  0.00     0.008 C 
ENDROOT
BRANCH   2   7
ATOM      7  C   UNL     1       3.046  13.920  12.677  1.00  0.00    -0.011 C 
ATOM      8  C   UNL     1       3.900  15.002  11.999  1.00  0.00     0.008 C 
BRANCH   7   9
ATOM      9  C   UNL     1       3.916  13.001  13.568  1.00  0.00     0.004 CG0
ATOM     10  G   UNL     1       4.912  12.059  12.852  1.00  0.00     0.000 G0
ENDBRANCH   7   9
ENDBRANCH   2   7
BRANCH   1  11
ATOM     11  C   UNL     1       2.963  10.815  11.304  1.00  0.00     0.006 C 
ATOM     12  C   UNL     1       4.422  11.127  11.695  1.00  0.00    -0.001 C 
ATOM     13  C   UNL     1       3.785   9.772  12.076  1.00  0.00    -0.029 C 
ATOM     14  C   UNL     1       3.341   9.435  13.510  1.00  0.00     0.012 C 
ATOM     15  C   UNL     1       4.206   8.570  11.221  1.00  0.00     0.012 C 
BRANCH  12  16
ATOM     16  C   UNL     1       4.891  12.037  12.865  1.00  0.00     0.005 CG0
ATOM     17  G   UNL     1       3.907  12.992  13.581  1.00  0.00     0.000 G0
ENDBRANCH  12  16
ENDBRANCH   1  11
TORSDOF 0
ENDMDL
MODEL 2
REMARK VINA RESULT:     1.389      0.986      3.656
REMARK INTER + INTRA:           1.938
REMARK INTER:                   1.789
REMARK INTRA:                   0.149
REMARK UNBOUND:                 0.224
REMARK SMILES C=C1CC[C@@H]2[C@@H]1[C@H]1[C@@H](CC[C@H]2C)C1(C)C
REMARK SMILES IDX 6 1 5 2 4 3 3 4 2 5 1 6 11 7 12 8 10 9 7 11 8 12 13 13 14 14
REMARK SMILES IDX 15 15 9 16
REMARK H PARENT
REMARK Flexibility Score: 80.00
ROOT
ATOM      1  C   UNL     1       2.076  12.314  11.388  1.00  0.00     0.022 C 
ATOM      2  C   UNL     1       2.206  10.807  11.677  1.00  0.00    -0.000 C 
ATOM      3  C   UNL     1       0.980  10.151  11.020  1.00  0.00     0.009 C 
ATOM      4  C   UNL     1      -0.125  11.199  11.065  1.00  0.00     0.031 C 
ATOM      5  C   UNL     1       0.609  12.492  11.165  1.00  0.00    -0.074 C 
ATOM      6  C   UNL     1       0.014  13.682  11.006  1.00  0.00     0.008 C 
ENDROOT
BRANCH   2   7
ATOM      7  C   UNL     1       3.559  10.174  11.237  1.00  0.00    -0.011 C 
ATOM      8  C   UNL     1       3.955   9.026  12.177  1.00  0.00     0.008 C 
BRANCH   7   9
ATOM      9  C   UNL     1       4.721  11.182  11.067  1.00  0.00     0.004 CG0
ATOM     10  G   UNL     1       5.043  12.100  12.269  1.00  0.00     0.000 G0
ENDBRANCH   7   9
ENDBRANCH   2   7
BRANCH   1  11
ATOM     11  C   UNL     1       2.549  13.108  12.618  1.00  0.00     0.006 C 
ATOM     12  C   UNL     1       4.001  12.849  13.070  1.00  0.00    -0.001 C 
ATOM     13  C   UNL     1       3.585  14.240  12.542  1.00  0.00    -0.029 C 
ATOM     14  C   UNL     1       3.979  14.750  11.145  1.00  0.00     0.012 C 
ATOM     15  C   UNL     1       3.383  15.326  13.604  1.00  0.00     0.012 C 
BRANCH  12  16
ATOM     16  C   UNL     1       5.097  12.091  12.268  1.00  0.00     0.005 CG0
ATOM     17  G   UNL     1       4.731  11.178  11.075  1.00  0.00     0.000 G0
ENDBRANCH  12  16
ENDBRANCH   1  11
TORSDOF 0
ENDMDL
MODEL 3
REMARK VINA RESULT:     2.111      4.367      6.751
REMARK INTER + INTRA:           2.830
REMARK INTER:                   2.560
REMARK INTRA:                   0.270
REMARK UNBOUND:                 0.224
REMARK SMILES C=C1CC[C@@H]2[C@@H]1[C@H]1[C@@H](CC[C@H]2C)C1(C)C
REMARK SMILES IDX 6 1 5 2 4 3 3 4 2 5 1 6 11 7 12 8 10 9 7 11 8 12 13 13 14 14
REMARK SMILES IDX 15 15 9 16
REMARK H PARENT
REMARK Flexibility Score: 80.00
ROOT
ATOM      1  C   UNL     1       5.613   7.770  12.109  1.00  0.00     0.022 C 
ATOM      2  C   UNL     1       4.322   7.078  12.583  1.00  0.00    -0.000 C 
ATOM      3  C   UNL     1       3.179   7.763  11.817  1.00  0.00     0.009 C 
ATOM      4  C   UNL     1       3.645   9.193  11.567  1.00  0.00     0.031 C 
ATOM      5  C   UNL     1       5.130   9.104  11.637  1.00  0.00    -0.074 C 
ATOM      6  C   UNL     1       5.939  10.100  11.253  1.00  0.00     0.008 C 
ENDROOT
BRANCH   2   7
ATOM      7  C   UNL     1       4.324   5.527  12.437  1.00  0.00    -0.011 C 
ATOM      8  C   UNL     1       3.475   4.875  13.539  1.00  0.00     0.008 C 
BRANCH   7   9
ATOM      9  C   UNL     1       5.730   4.885  12.364  1.00  0.00     0.004 CG0
ATOM     10  G   UNL     1       6.694   5.158  13.542  1.00  0.00     0.000 G0
ENDBRANCH   7   9
ENDBRANCH   2   7
BRANCH   1  11
ATOM     11  C   UNL     1       6.574   7.920  13.303  1.00  0.00     0.006 C 
ATOM     12  C   UNL     1       6.953   6.615  14.031  1.00  0.00    -0.001 C 
ATOM     13  C   UNL     1       8.029   7.429  13.278  1.00  0.00    -0.029 C 
ATOM     14  C   UNL     1       8.608   6.988  11.923  1.00  0.00     0.012 C 
ATOM     15  C   UNL     1       8.971   8.263  14.154  1.00  0.00     0.012 C 
BRANCH  12  16
ATOM     16  C   UNL     1       6.688   5.167  13.530  1.00  0.00     0.005 CG0
ATOM     17  G   UNL     1       5.745   4.892  12.336  1.00  0.00     0.000 G0
ENDBRANCH  12  16
ENDBRANCH   1  11
TORSDOF 0
ENDMDL
MODEL 4
REMARK VINA RESULT:     2.198      1.669      4.411
REMARK INTER + INTRA:           2.936
REMARK INTER:                   2.681
REMARK INTRA:                   0.256
REMARK UNBOUND:                 0.224
REMARK SMILES C=C1CC[C@@H]2[C@@H]1[C@H]1[C@@H](CC[C@H]2C)C1(C)C
REMARK SMILES IDX 6 1 5 2 4 3 3 4 2 5 1 6 11 7 12 8 10 9 7 11 8 12 13 13 14 14
REMARK SMILES IDX 15 15 9 16
REMARK H PARENT
REMARK Flexibility Score: 80.00
ROOT
ATOM      1  C   UNL     1       3.454  11.136  12.203  1.00  0.00     0.022 C 
ATOM      2  C   UNL     1       2.373  10.381  11.408  1.00  0.00    -0.000 C 
ATOM      3  C   UNL     1       2.877   8.934  11.292  1.00  0.00     0.009 C 
ATOM      4  C   UNL     1       4.399   9.023  11.289  1.00  0.00     0.031 C 
ATOM      5  C   UNL     1       4.684  10.321  11.962  1.00  0.00    -0.074 C 
ATOM      6  C   UNL     1       5.911  10.680  12.363  1.00  0.00     0.008 C 
ENDROOT
BRANCH   2   7
ATOM      7  C   UNL     1       0.936  10.492  11.997  1.00  0.00    -0.011 C 
ATOM      8  C   UNL     1      -0.116  10.454  10.879  1.00  0.00     0.008 C 
BRANCH   7   9
ATOM      9  C   UNL     1       0.711  11.705  12.932  1.00  0.00     0.004 CG0
ATOM     10  G   UNL     1       1.002  13.109  12.353  1.00  0.00     0.000 G0
ENDBRANCH   7   9
ENDBRANCH   2   7
BRANCH   1  11
ATOM     11  C   UNL     1       3.609  12.555  11.627  1.00  0.00     0.006 C 
ATOM     12  C   UNL     1       2.330  13.416  11.606  1.00  0.00    -0.001 C 
ATOM     13  C   UNL     1       3.531  13.825  12.487  1.00  0.00    -0.029 C 
ATOM     14  C   UNL     1       3.537  13.651  14.016  1.00  0.00     0.012 C 
ATOM     15  C   UNL     1       4.390  14.978  11.955  1.00  0.00     0.012 C 
BRANCH  12  16
ATOM     16  C   UNL     1       0.994  13.105  12.338  1.00  0.00     0.005 CG0
ATOM     17  G   UNL     1       0.716  11.708  12.939  1.00  0.00     0.000 G0
ENDBRANCH  12  16
ENDBRANCH   1  11
TORSDOF 0
ENDMDL
MODEL 5
REMARK VINA RESULT:     2.687      3.288      6.553
REMARK INTER + INTRA:           3.540
REMARK INTER:                   3.314
REMARK INTRA:                   0.226
REMARK UNBOUND:                 0.224
REMARK SMILES C=C1CC[C@@H]2[C@@H]1[C@H]1[C@@H](CC[C@H]2C)C1(C)C
REMARK SMILES IDX 6 1 5 2 4 3 3 4 2 5 1 6 11 7 12 8 10 9 7 11 8 12 13 13 14 14
REMARK SMILES IDX 15 15 9 16
REMARK H PARENT
REMARK Flexibility Score: 80.00
ROOT
ATOM      1  C   UNL     1       6.006   8.110  12.800  1.00  0.00     0.022 C 
ATOM      2  C   UNL     1       5.745   6.620  12.517  1.00  0.00    -0.000 C 
ATOM      3  C   UNL     1       7.021   5.883  12.955  1.00  0.00     0.009 C 
ATOM      4  C   UNL     1       8.163   6.870  12.743  1.00  0.00     0.031 C 
ATOM      5  C   UNL     1       7.499   8.202  12.782  1.00  0.00    -0.074 C 
ATOM      6  C   UNL     1       8.179   9.354  12.856  1.00  0.00     0.008 C 
ENDROOT
BRANCH   2   7
ATOM      7  C   UNL     1       4.447   6.052  13.165  1.00  0.00    -0.011 C 
ATOM      8  C   UNL     1       3.835   4.950  12.286  1.00  0.00     0.008 C 
BRANCH   7   9
ATOM      9  C   UNL     1       3.389   7.118  13.538  1.00  0.00     0.004 CG0
ATOM     10  G   UNL     1       2.895   8.050  12.408  1.00  0.00     0.000 G0
ENDBRANCH   7   9
ENDBRANCH   2   7
BRANCH   1  11
ATOM     11  C   UNL     1       5.386   8.956  11.675  1.00  0.00     0.006 C 
ATOM     12  C   UNL     1       3.871   8.771  11.449  1.00  0.00    -0.001 C 
ATOM     13  C   UNL     1       4.428  10.128  11.934  1.00  0.00    -0.029 C 
ATOM     14  C   UNL     1       4.278  10.617  13.385  1.00  0.00     0.012 C 
ATOM     15  C   UNL     1       4.512  11.233  10.875  1.00  0.00     0.012 C 
BRANCH  12  16
ATOM     16  C   UNL     1       2.879   8.038  12.396  1.00  0.00     0.005 CG0
ATOM     17  G   UNL     1       3.385   7.143  13.550  1.00  0.00     0.000 G0
ENDBRANCH  12  16
ENDBRANCH   1  11
TORSDOF 0
ENDMDL
MODEL 6
REMARK VINA RESULT:     2.700      1.901      3.779
REMARK INTER + INTRA:           3.556
REMARK INTER:                   3.331
REMARK INTRA:                   0.225
REMARK UNBOUND:                 0.224
REMARK SMILES C=C1CC[C@@H]2[C@@H]1[C@H]1[C@@H](CC[C@H]2C)C1(C)C
REMARK SMILES IDX 6 1 5 2 4 3 3 4 2 5 1 6 11 7 12 8 10 9 7 11 8 12 13 13 14 14
REMARK SMILES IDX 15 15 9 16
REMARK H PARENT
REMARK Flexibility Score: 80.00
ROOT
ATOM      1  C   UNL     1       2.773  10.614  12.480  1.00  0.00     0.022 C 
ATOM      2  C   UNL     1       3.978  11.272  11.783  1.00  0.00    -0.000 C 
ATOM      3  C   UNL     1       4.695  10.137  11.034  1.00  0.00     0.009 C 
ATOM      4  C   UNL     1       4.436   8.875  11.848  1.00  0.00     0.031 C 
ATOM      5  C   UNL     1       3.193   9.185  12.607  1.00  0.00    -0.074 C 
ATOM      6  C   UNL     1       2.498   8.257  13.278  1.00  0.00     0.008 C 
ENDROOT
BRANCH   2   7
ATOM      7  C   UNL     1       3.621  12.486  10.875  1.00  0.00    -0.011 C 
ATOM      8  C   UNL     1       4.757  13.520  10.876  1.00  0.00     0.008 C 
BRANCH   7   9
ATOM      9  C   UNL     1       2.261  13.153  11.190  1.00  0.00     0.004 CG0
ATOM     10  G   UNL     1       2.047  13.681  12.628  1.00  0.00     0.000 G0
ENDBRANCH   7   9
ENDBRANCH   2   7
BRANCH   1  11
ATOM     11  C   UNL     1       2.576  11.258  13.864  1.00  0.00     0.006 C 
ATOM     12  C   UNL     1       2.358  12.785  13.872  1.00  0.00    -0.001 C 
ATOM     13  C   UNL     1       1.234  11.834  14.340  1.00  0.00    -0.029 C 
ATOM     14  C   UNL     1      -0.012  11.536  13.487  1.00  0.00     0.012 C 
ATOM     15  C   UNL     1       1.029  11.736  15.856  1.00  0.00     0.012 C 
BRANCH  12  16
ATOM     16  C   UNL     1       2.053  13.682  12.639  1.00  0.00     0.005 CG0
ATOM     17  G   UNL     1       2.250  13.156  11.198  1.00  0.00     0.000 G0
ENDBRANCH  12  16
ENDBRANCH   1  11
TORSDOF 0
ENDMDL
MODEL 7
REMARK VINA RESULT:     2.811      1.779      3.353
REMARK INTER + INTRA:           3.693
REMARK INTER:                   3.445
REMARK INTRA:                   0.248
REMARK UNBOUND:                 0.224
REMARK SMILES C=C1CC[C@@H]2[C@@H]1[C@H]1[C@@H](CC[C@H]2C)C1(C)C
REMARK SMILES IDX 6 1 5 2 4 3 3 4 2 5 1 6 11 7 12 8 10 9 7 11 8 12 13 13 14 14
REMARK SMILES IDX 15 15 9 16
REMARK H PARENT
REMARK Flexibility Score: 80.00
ROOT
ATOM      1  C   UNL     1       2.725  12.354  13.932  1.00  0.00     0.022 C 
ATOM      2  C   UNL     1       3.145  13.675  13.261  1.00  0.00    -0.000 C 
ATOM      3  C   UNL     1       3.678  14.566  14.395  1.00  0.00     0.009 C 
ATOM      4  C   UNL     1       2.911  14.149  15.645  1.00  0.00     0.031 C 
ATOM      5  C   UNL     1       2.466  12.760  15.347  1.00  0.00    -0.074 C 
ATOM      6  C   UNL     1       1.947  11.946  16.276  1.00  0.00     0.008 C 
ENDROOT
BRANCH   2   7
ATOM      7  C   UNL     1       4.143  13.515  12.077  1.00  0.00    -0.011 C 
ATOM      8  C   UNL     1       3.914  14.605  11.019  1.00  0.00     0.008 C 
BRANCH   7   9
ATOM      9  C   UNL     1       4.164  12.108  11.432  1.00  0.00     0.004 CG0
ATOM     10  G   UNL     1       2.826  11.563  10.880  1.00  0.00     0.000 G0
ENDBRANCH   7   9
ENDBRANCH   2   7
BRANCH   1  11
ATOM     11  C   UNL     1       1.441  11.833  13.262  1.00  0.00     0.006 C 
ATOM     12  C   UNL     1       1.523  11.600  11.739  1.00  0.00    -0.001 C 
ATOM     13  C   UNL     1       1.305  10.410  12.700  1.00  0.00    -0.029 C 
ATOM     14  C   UNL     1       2.416   9.401  13.039  1.00  0.00     0.012 C 
ATOM     15  C   UNL     1      -0.124   9.859  12.769  1.00  0.00     0.012 C 
BRANCH  12  16
ATOM     16  C   UNL     1       2.816  11.579  10.875  1.00  0.00     0.005 CG0
ATOM     17  G   UNL     1       4.157  12.117  11.426  1.00  0.00     0.000 G0
ENDBRANCH  12  16
ENDBRANCH   1  11
TORSDOF 0
ENDMDL
