MODEL 1
REMARK VINA RESULT:    -4.146      0.000      0.000
REMARK INTER + INTRA:          -7.088
REMARK INTER:                  -6.327
REMARK INTRA:                  -0.761
REMARK UNBOUND:                -0.761
REMARK SMILES O=C([O-])CCCCCCCCC(=O)[O-]
REMARK SMILES IDX 7 1 6 2 5 3 4 4 2 5 1 6 3 7 8 8 9 9 10 10 11 11 12 12 13 13
REMARK SMILES IDX 14 14
REMARK H PARENT
REMARK Flexibility Score: inf
ROOT
ATOM      1  C   UNL     1      13.243 -22.600  21.869  1.00  0.00     0.000 C 
ENDROOT
BRANCH   1   2
ATOM      2  C   UNL     1      12.792 -21.264  22.478  1.00  0.00     0.000 C 
BRANCH   2   3
ATOM      3  C   UNL     1      13.970 -20.322  22.778  1.00  0.00     0.006 C 
BRANCH   3   4
ATOM      4  C   UNL     1      14.385 -20.367  24.254  1.00  0.00     0.053 C 
BRANCH   4   5
ATOM      5  C   UNL     1      15.685 -21.085  24.448  1.00  0.00     0.041 C 
ATOM      6  O   UNL     1      16.562 -21.063  23.544  1.00  0.00    -0.550 OA
ATOM      7  O   UNL     1      15.916 -21.806  25.613  1.00  0.00    -0.550 OA
ENDBRANCH   4   5
ENDBRANCH   3   4
ENDBRANCH   2   3
ENDBRANCH   1   2
BRANCH   1   8
ATOM      8  C   UNL     1      14.548 -22.478  21.064  1.00  0.00     0.000 C 
BRANCH   8   9
ATOM      9  C   UNL     1      14.283 -22.136  19.583  1.00  0.00     0.000 C 
BRANCH   9  10
ATOM     10  C   UNL     1      15.047 -20.895  19.083  1.00  0.00     0.006 C 
BRANCH  10  11
ATOM     11  C   UNL     1      16.077 -20.343  20.086  1.00  0.00     0.053 C 
BRANCH  11  12
ATOM     12  C   UNL     1      16.260 -18.857  19.981  1.00  0.00     0.041 C 
ATOM     13  O   UNL     1      17.310 -18.377  19.478  1.00  0.00    -0.550 OA
ATOM     14  O   UNL     1      15.239 -18.001  20.377  1.00  0.00    -0.550 OA
ENDBRANCH  11  12
ENDBRANCH  10  11
ENDBRANCH   9  10
ENDBRANCH   8   9
ENDBRANCH   1   8
TORSDOF 9
ENDMDL
MODEL 2
REMARK VINA RESULT:    -4.145      0.525      4.408
REMARK INTER + INTRA:          -7.088
REMARK INTER:                  -6.176
REMARK INTRA:                  -0.912
REMARK UNBOUND:                -0.761
REMARK SMILES O=C([O-])CCCCCCCCC(=O)[O-]
REMARK SMILES IDX 7 1 6 2 5 3 4 4 2 5 1 6 3 7 8 8 9 9 10 10 11 11 12 12 13 13
REMARK SMILES IDX 14 14
REMARK H PARENT
REMARK Flexibility Score: inf
ROOT
ATOM      1  C   UNL     1      14.503 -22.684  21.093  1.00  0.00     0.000 C 
ENDROOT
BRANCH   1   2
ATOM      2  C   UNL     1      14.284 -22.362  19.607  1.00  0.00     0.000 C 
BRANCH   2   3
ATOM      3  C   UNL     1      14.717 -20.932  19.242  1.00  0.00     0.006 C 
BRANCH   3   4
ATOM      4  C   UNL     1      15.854 -20.425  20.140  1.00  0.00     0.053 C 
BRANCH   4   5
ATOM      5  C   UNL     1      15.851 -18.932  20.254  1.00  0.00     0.041 C 
ATOM      6  O   UNL     1      16.885 -18.273  19.964  1.00  0.00    -0.550 OA
ATOM      7  O   UNL     1      14.719 -18.269  20.711  1.00  0.00    -0.550 OA
ENDBRANCH   4   5
ENDBRANCH   3   4
ENDBRANCH   2   3
ENDBRANCH   1   2
BRANCH   1   8
ATOM      8  C   UNL     1      13.222 -22.531  21.932  1.00  0.00     0.000 C 
BRANCH   8   9
ATOM      9  C   UNL     1      12.939 -21.058  22.291  1.00  0.00     0.000 C 
BRANCH   9  10
ATOM     10  C   UNL     1      13.412 -20.658  23.702  1.00  0.00     0.006 C 
BRANCH  10  11
ATOM     11  C   UNL     1      14.825 -20.047  23.743  1.00  0.00     0.053 C 
BRANCH  11  12
ATOM     12  C   UNL     1      15.870 -21.016  24.214  1.00  0.00     0.041 C 
ATOM     13  O   UNL     1      15.748 -21.597  25.324  1.00  0.00    -0.550 OA
ATOM     14  O   UNL     1      16.947 -21.329  23.394  1.00  0.00    -0.550 OA
ENDBRANCH  11  12
ENDBRANCH  10  11
ENDBRANCH   9  10
ENDBRANCH   8   9
ENDBRANCH   1   8
TORSDOF 9
ENDMDL
MODEL 3
REMARK VINA RESULT:    -4.142      1.780      4.059
REMARK INTER + INTRA:          -7.082
REMARK INTER:                  -6.138
REMARK INTRA:                  -0.943
REMARK UNBOUND:                -0.761
REMARK SMILES O=C([O-])CCCCCCCCC(=O)[O-]
REMARK SMILES IDX 7 1 6 2 5 3 4 4 2 5 1 6 3 7 8 8 9 9 10 10 11 11 12 12 13 13
REMARK SMILES IDX 14 14
REMARK H PARENT
REMARK Flexibility Score: inf
ROOT
ATOM      1  C   UNL     1      13.221 -22.872  21.800  1.00  0.00     0.000 C 
ENDROOT
BRANCH   1   2
ATOM      2  C   UNL     1      12.565 -21.694  22.536  1.00  0.00     0.000 C 
BRANCH   2   3
ATOM      3  C   UNL     1      11.973 -20.651  21.574  1.00  0.00     0.006 C 
BRANCH   3   4
ATOM      4  C   UNL     1      12.484 -19.235  21.870  1.00  0.00     0.053 C 
BRANCH   4   5
ATOM      5  C   UNL     1      13.538 -18.806  20.897  1.00  0.00     0.041 C 
ATOM      6  O   UNL     1      14.532 -18.141  21.291  1.00  0.00    -0.550 OA
ATOM      7  O   UNL     1      13.408 -19.113  19.548  1.00  0.00    -0.550 OA
ENDBRANCH   4   5
ENDBRANCH   3   4
ENDBRANCH   2   3
ENDBRANCH   1   2
BRANCH   1   8
ATOM      8  C   UNL     1      14.354 -22.430  20.857  1.00  0.00     0.000 C 
BRANCH   8   9
ATOM      9  C   UNL     1      15.736 -22.508  21.539  1.00  0.00     0.000 C 
BRANCH   9  10
ATOM     10  C   UNL     1      16.281 -21.144  22.002  1.00  0.00     0.006 C 
BRANCH  10  11
ATOM     11  C   UNL     1      16.887 -21.156  23.418  1.00  0.00     0.053 C 
BRANCH  11  12
ATOM     12  C   UNL     1      15.860 -20.985  24.498  1.00  0.00     0.041 C 
ATOM     13  O   UNL     1      15.876 -21.725  25.517  1.00  0.00    -0.550 OA
ATOM     14  O   UNL     1      14.925 -19.961  24.412  1.00  0.00    -0.550 OA
ENDBRANCH  11  12
ENDBRANCH  10  11
ENDBRANCH   9  10
ENDBRANCH   8   9
ENDBRANCH   1   8
TORSDOF 9
ENDMDL
MODEL 4
REMARK VINA RESULT:    -4.105      2.650      4.364
REMARK INTER + INTRA:          -7.026
REMARK INTER:                  -6.119
REMARK INTRA:                  -0.907
REMARK UNBOUND:                -0.761
REMARK SMILES O=C([O-])CCCCCCCCC(=O)[O-]
REMARK SMILES IDX 7 1 6 2 5 3 4 4 2 5 1 6 3 7 8 8 9 9 10 10 11 11 12 12 13 13
REMARK SMILES IDX 14 14
REMARK H PARENT
REMARK Flexibility Score: inf
ROOT
ATOM      1  C   UNL     1      14.563 -18.867  21.024  1.00  0.00     0.000 C 
ENDROOT
BRANCH   1   2
ATOM      2  C   UNL     1      13.478 -19.026  19.947  1.00  0.00     0.000 C 
BRANCH   2   3
ATOM      3  C   UNL     1      12.064 -19.130  20.543  1.00  0.00     0.006 C 
BRANCH   3   4
ATOM      4  C   UNL     1      12.069 -19.778  21.934  1.00  0.00     0.053 C 
BRANCH   4   5
ATOM      5  C   UNL     1      11.524 -21.172  21.902  1.00  0.00     0.041 C 
ATOM      6  O   UNL     1      12.301 -22.158  22.003  1.00  0.00    -0.550 OA
ATOM      7  O   UNL     1      10.162 -21.385  21.730  1.00  0.00    -0.550 OA
ENDBRANCH   4   5
ENDBRANCH   3   4
ENDBRANCH   2   3
ENDBRANCH   1   2
BRANCH   1   8
ATOM      8  C   UNL     1      15.806 -19.732  20.750  1.00  0.00     0.000 C 
BRANCH   8   9
ATOM      9  C   UNL     1      15.455 -21.230  20.642  1.00  0.00     0.000 C 
BRANCH   9  10
ATOM     10  C   UNL     1      15.814 -22.047  21.898  1.00  0.00     0.006 C 
BRANCH  10  11
ATOM     11  C   UNL     1      16.516 -21.233  23.000  1.00  0.00     0.053 C 
BRANCH  11  12
ATOM     12  C   UNL     1      15.709 -21.132  24.261  1.00  0.00     0.041 C 
ATOM     13  O   UNL     1      16.174 -21.554  25.352  1.00  0.00    -0.550 OA
ATOM     14  O   UNL     1      14.468 -20.507  24.243  1.00  0.00    -0.550 OA
ENDBRANCH  11  12
ENDBRANCH  10  11
ENDBRANCH   9  10
ENDBRANCH   8   9
ENDBRANCH   1   8
TORSDOF 9
ENDMDL
MODEL 5
REMARK VINA RESULT:    -4.076      2.206      3.535
REMARK INTER + INTRA:          -6.982
REMARK INTER:                  -6.244
REMARK INTRA:                  -0.737
REMARK UNBOUND:                -0.761
REMARK SMILES O=C([O-])CCCCCCCCC(=O)[O-]
REMARK SMILES IDX 7 1 6 2 5 3 4 4 2 5 1 6 3 7 8 8 9 9 10 10 11 11 12 12 13 13
REMARK SMILES IDX 14 14
REMARK H PARENT
REMARK Flexibility Score: inf
ROOT
ATOM      1  C   UNL     1      14.244 -21.830  20.452  1.00  0.00     0.000 C 
ENDROOT
BRANCH   1   2
ATOM      2  C   UNL     1      15.551 -21.205  20.962  1.00  0.00     0.000 C 
BRANCH   2   3
ATOM      3  C   UNL     1      16.195 -22.023  22.094  1.00  0.00     0.006 C 
BRANCH   3   4
ATOM      4  C   UNL     1      16.753 -21.129  23.209  1.00  0.00     0.053 C 
BRANCH   4   5
ATOM      5  C   UNL     1      15.817 -21.040  24.375  1.00  0.00     0.041 C 
ATOM      6  O   UNL     1      16.071 -21.662  25.440  1.00  0.00    -0.550 OA
ATOM      7  O   UNL     1      14.648 -20.297  24.274  1.00  0.00    -0.550 OA
ENDBRANCH   4   5
ENDBRANCH   3   4
ENDBRANCH   2   3
ENDBRANCH   1   2
BRANCH   1   8
ATOM      8  C   UNL     1      13.594 -22.775  21.478  1.00  0.00     0.000 C 
BRANCH   8   9
ATOM      9  C   UNL     1      12.412 -22.107  22.211  1.00  0.00     0.000 C 
BRANCH   9  10
ATOM     10  C   UNL     1      11.761 -20.955  21.423  1.00  0.00     0.006 C 
BRANCH  10  11
ATOM     11  C   UNL     1      11.938 -19.570  22.071  1.00  0.00     0.053 C 
BRANCH  11  12
ATOM     12  C   UNL     1      11.421 -18.450  21.215  1.00  0.00     0.041 C 
ATOM     13  O   UNL     1      10.273 -18.518  20.701  1.00  0.00    -0.550 OA
ATOM     14  O   UNL     1      12.181 -17.300  21.041  1.00  0.00    -0.550 OA
ENDBRANCH  11  12
ENDBRANCH  10  11
ENDBRANCH   9  10
ENDBRANCH   8   9
ENDBRANCH   1   8
TORSDOF 9
ENDMDL
MODEL 6
REMARK VINA RESULT:    -3.979      2.867      4.930
REMARK INTER + INTRA:          -6.833
REMARK INTER:                  -6.053
REMARK INTRA:                  -0.780
REMARK UNBOUND:                -0.761
REMARK SMILES O=C([O-])CCCCCCCCC(=O)[O-]
REMARK SMILES IDX 7 1 6 2 5 3 4 4 2 5 1 6 3 7 8 8 9 9 10 10 11 11 12 12 13 13
REMARK SMILES IDX 14 14
REMARK H PARENT
REMARK Flexibility Score: inf
ROOT
ATOM      1  C   UNL     1      16.282 -20.670  24.215  1.00  0.00     0.000 C 
ENDROOT
BRANCH   1   2
ATOM      2  C   UNL     1      16.968 -21.191  22.943  1.00  0.00     0.000 C 
BRANCH   2   3
ATOM      3  C   UNL     1      16.001 -21.949  22.018  1.00  0.00     0.006 C 
BRANCH   3   4
ATOM      4  C   UNL     1      15.599 -21.117  20.794  1.00  0.00     0.053 C 
BRANCH   4   5
ATOM      5  C   UNL     1      14.484 -21.757  20.025  1.00  0.00     0.041 C 
ATOM      6  O   UNL     1      14.327 -23.006  20.059  1.00  0.00    -0.550 OA
ATOM      7  O   UNL     1      13.637 -20.978  19.247  1.00  0.00    -0.550 OA
ENDBRANCH   4   5
ENDBRANCH   3   4
ENDBRANCH   2   3
ENDBRANCH   1   2
BRANCH   1   8
ATOM      8  C   UNL     1      14.841 -21.186  24.369  1.00  0.00     0.000 C 
BRANCH   8   9
ATOM      9  C   UNL     1      13.801 -20.063  24.170  1.00  0.00     0.000 C 
BRANCH   9  10
ATOM     10  C   UNL     1      12.732 -20.385  23.108  1.00  0.00     0.006 C 
BRANCH  10  11
ATOM     11  C   UNL     1      12.455 -19.234  22.124  1.00  0.00     0.053 C 
BRANCH  11  12
ATOM     12  C   UNL     1      10.995 -18.907  22.000  1.00  0.00     0.041 C 
ATOM     13  O   UNL     1      10.193 -19.745  21.512  1.00  0.00    -0.550 OA
ATOM     14  O   UNL     1      10.510 -17.700  22.487  1.00  0.00    -0.550 OA
ENDBRANCH  11  12
ENDBRANCH  10  11
ENDBRANCH   9  10
ENDBRANCH   8   9
ENDBRANCH   1   8
TORSDOF 9
ENDMDL
MODEL 7
REMARK VINA RESULT:    -3.956      2.424      4.408
REMARK INTER + INTRA:          -6.798
REMARK INTER:                  -6.227
REMARK INTRA:                  -0.571
REMARK UNBOUND:                -0.761
REMARK SMILES O=C([O-])CCCCCCCCC(=O)[O-]
REMARK SMILES IDX 7 1 6 2 5 3 4 4 2 5 1 6 3 7 8 8 9 9 10 10 11 11 12 12 13 13
REMARK SMILES IDX 14 14
REMARK H PARENT
REMARK Flexibility Score: inf
ROOT
ATOM      1  C   UNL     1      14.329 -22.222  19.419  1.00  0.00     0.000 C 
ENDROOT
BRANCH   1   2
ATOM      2  C   UNL     1      14.491 -20.712  19.653  1.00  0.00     0.000 C 
BRANCH   2   3
ATOM      3  C   UNL     1      13.150 -19.960  19.618  1.00  0.00     0.006 C 
BRANCH   3   4
ATOM      4  C   UNL     1      12.870 -19.213  20.928  1.00  0.00     0.053 C 
BRANCH   4   5
ATOM      5  C   UNL     1      11.651 -19.738  21.621  1.00  0.00     0.041 C 
ATOM      6  O   UNL     1      10.879 -18.950  22.229  1.00  0.00    -0.550 OA
ATOM      7  O   UNL     1      11.384 -21.101  21.624  1.00  0.00    -0.550 OA
ENDBRANCH   4   5
ENDBRANCH   3   4
ENDBRANCH   2   3
ENDBRANCH   1   2
BRANCH   1   8
ATOM      8  C   UNL     1      14.335 -23.032  20.726  1.00  0.00     0.000 C 
BRANCH   8   9
ATOM      9  C   UNL     1      14.719 -22.164  21.943  1.00  0.00     0.000 C 
BRANCH   9  10
ATOM     10  C   UNL     1      16.228 -22.157  22.252  1.00  0.00     0.006 C 
BRANCH  10  11
ATOM     11  C   UNL     1      16.675 -21.012  23.179  1.00  0.00     0.053 C 
BRANCH  11  12
ATOM     12  C   UNL     1      15.805 -20.864  24.392  1.00  0.00     0.041 C 
ATOM     13  O   UNL     1      14.923 -19.966  24.440  1.00  0.00    -0.550 OA
ATOM     14  O   UNL     1      15.921 -21.764  25.445  1.00  0.00    -0.550 OA
ENDBRANCH  11  12
ENDBRANCH  10  11
ENDBRANCH   9  10
ENDBRANCH   8   9
ENDBRANCH   1   8
TORSDOF 9
ENDMDL
MODEL 8
REMARK VINA RESULT:    -3.934      1.873      2.911
REMARK INTER + INTRA:          -6.765
REMARK INTER:                  -5.635
REMARK INTRA:                  -1.130
REMARK UNBOUND:                -0.761
REMARK SMILES O=C([O-])CCCCCCCCC(=O)[O-]
REMARK SMILES IDX 7 1 6 2 5 3 4 4 2 5 1 6 3 7 8 8 9 9 10 10 11 11 12 12 13 13
REMARK SMILES IDX 14 14
REMARK H PARENT
REMARK Flexibility Score: inf
ROOT
ATOM      1  C   UNL     1      13.920 -21.835  19.630  1.00  0.00     0.000 C 
ENDROOT
BRANCH   1   2
ATOM      2  C   UNL     1      14.324 -23.113  20.382  1.00  0.00     0.000 C 
BRANCH   2   3
ATOM      3  C   UNL     1      13.821 -23.127  21.835  1.00  0.00     0.006 C 
BRANCH   3   4
ATOM      4  C   UNL     1      13.303 -21.753  22.282  1.00  0.00     0.053 C 
BRANCH   4   5
ATOM      5  C   UNL     1      14.210 -21.115  23.288  1.00  0.00     0.041 C 
ATOM      6  O   UNL     1      15.426 -21.442  23.343  1.00  0.00    -0.550 OA
ATOM      7  O   UNL     1      13.708 -20.181  24.185  1.00  0.00    -0.550 OA
ENDBRANCH   4   5
ENDBRANCH   3   4
ENDBRANCH   2   3
ENDBRANCH   1   2
BRANCH   1   8
ATOM      8  C   UNL     1      15.120 -21.115  18.990  1.00  0.00     0.000 C 
BRANCH   8   9
ATOM      9  C   UNL     1      15.834 -20.182  19.990  1.00  0.00     0.000 C 
BRANCH   9  10
ATOM     10  C   UNL     1      15.368 -18.716  19.918  1.00  0.00     0.006 C 
BRANCH  10  11
ATOM     11  C   UNL     1      14.428 -18.297  21.063  1.00  0.00     0.053 C 
BRANCH  11  12
ATOM     12  C   UNL     1      12.976 -18.389  20.695  1.00  0.00     0.041 C 
ATOM     13  O   UNL     1      12.628 -18.470  19.487  1.00  0.00    -0.550 OA
ATOM     14  O   UNL     1      12.009 -18.453  21.690  1.00  0.00    -0.550 OA
ENDBRANCH  11  12
ENDBRANCH  10  11
ENDBRANCH   9  10
ENDBRANCH   8   9
ENDBRANCH   1   8
TORSDOF 9
ENDMDL
MODEL 9
REMARK VINA RESULT:    -3.835      1.879      2.795
REMARK INTER + INTRA:          -6.614
REMARK INTER:                  -5.802
REMARK INTRA:                  -0.812
REMARK UNBOUND:                -0.761
REMARK SMILES O=C([O-])CCCCCCCCC(=O)[O-]
REMARK SMILES IDX 7 1 6 2 5 3 4 4 2 5 1 6 3 7 8 8 9 9 10 10 11 11 12 12 13 13
REMARK SMILES IDX 14 14
REMARK H PARENT
REMARK Flexibility Score: inf
ROOT
ATOM      1  C   UNL     1      13.150 -22.504  21.830  1.00  0.00     0.000 C 
ENDROOT
BRANCH   1   2
ATOM      2  C   UNL     1      14.641 -22.812  21.628  1.00  0.00     0.000 C 
BRANCH   2   3
ATOM      3  C   UNL     1      15.507 -21.541  21.585  1.00  0.00     0.006 C 
BRANCH   3   4
ATOM      4  C   UNL     1      16.491 -21.472  22.760  1.00  0.00     0.053 C 
BRANCH   4   5
ATOM      5  C   UNL     1      15.826 -21.011  24.019  1.00  0.00     0.041 C 
ATOM      6  O   UNL     1      16.190 -21.471  25.134  1.00  0.00    -0.550 OA
ATOM      7  O   UNL     1      14.782 -20.096  23.961  1.00  0.00    -0.550 OA
ENDBRANCH   4   5
ENDBRANCH   3   4
ENDBRANCH   2   3
ENDBRANCH   1   2
BRANCH   1   8
ATOM      8  C   UNL     1      12.698 -21.234  21.088  1.00  0.00     0.000 C 
BRANCH   8   9
ATOM      9  C   UNL     1      11.915 -20.274  22.009  1.00  0.00     0.000 C 
BRANCH   9  10
ATOM     10  C   UNL     1      11.646 -18.892  21.385  1.00  0.00     0.006 C 
BRANCH  10  11
ATOM     11  C   UNL     1      12.617 -18.512  20.252  1.00  0.00     0.053 C 
BRANCH  11  12
ATOM     12  C   UNL     1      13.742 -17.632  20.714  1.00  0.00     0.041 C 
ATOM     13  O   UNL     1      14.764 -18.134  21.253  1.00  0.00    -0.550 OA
ATOM     14  O   UNL     1      13.692 -16.263  20.487  1.00  0.00    -0.550 OA
ENDBRANCH  11  12
ENDBRANCH  10  11
ENDBRANCH   9  10
ENDBRANCH   8   9
ENDBRANCH   1   8
TORSDOF 9
ENDMDL
