MODEL 1
REMARK VINA RESULT:    -3.622      0.000      0.000
REMARK INTER + INTRA:          -4.566
REMARK INTER:                  -4.469
REMARK INTRA:                  -0.098
REMARK UNBOUND:                -0.098
REMARK SMILES CCCCCC(=O)[O-]
REMARK SMILES IDX 4 1 5 2 6 3 7 4 8 5 3 6 2 7 1 8
REMARK H PARENT
REMARK Flexibility Score: inf
ROOT
ATOM      1  C   UNL     1       0.856  48.023  21.771  1.00  0.00     0.006 C 
ENDROOT
BRANCH   1   2
ATOM      2  C   UNL     1       0.072  48.056  23.090  1.00  0.00     0.053 C 
BRANCH   2   3
ATOM      3  C   UNL     1      -0.389  46.689  23.497  1.00  0.00     0.041 C 
ATOM      4  O   UNL     1      -0.945  45.932  22.659  1.00  0.00    -0.550 OA
ATOM      5  O   UNL     1      -0.230  46.263  24.810  1.00  0.00    -0.550 OA
ENDBRANCH   2   3
ENDBRANCH   1   2
BRANCH   1   6
ATOM      6  C   UNL     1       2.058  48.983  21.786  1.00  0.00     0.000 C 
BRANCH   6   7
ATOM      7  C   UNL     1       1.663  50.429  21.453  1.00  0.00    -0.003 C 
ATOM      8  C   UNL     1       2.126  51.429  22.512  1.00  0.00     0.004 C 
ENDBRANCH   6   7
ENDBRANCH   1   6
TORSDOF 4
ENDMDL
MODEL 2
REMARK VINA RESULT:    -3.514      0.987      1.628
REMARK INTER + INTRA:          -4.433
REMARK INTER:                  -4.373
REMARK INTRA:                  -0.060
REMARK UNBOUND:                -0.098
REMARK SMILES CCCCCC(=O)[O-]
REMARK SMILES IDX 4 1 5 2 6 3 7 4 8 5 3 6 2 7 1 8
REMARK H PARENT
REMARK Flexibility Score: inf
ROOT
ATOM      1  C   UNL     1       0.240  47.980  22.818  1.00  0.00     0.006 C 
ENDROOT
BRANCH   1   2
ATOM      2  C   UNL     1      -0.496  46.634  22.807  1.00  0.00     0.053 C 
BRANCH   2   3
ATOM      3  C   UNL     1      -0.832  46.171  24.192  1.00  0.00     0.041 C 
ATOM      4  O   UNL     1      -0.001  46.314  25.127  1.00  0.00    -0.550 OA
ATOM      5  O   UNL     1      -2.052  45.557  24.445  1.00  0.00    -0.550 OA
ENDBRANCH   2   3
ENDBRANCH   1   2
BRANCH   1   6
ATOM      6  C   UNL     1       1.130  48.165  21.577  1.00  0.00     0.000 C 
BRANCH   6   7
ATOM      7  C   UNL     1       2.137  49.313  21.740  1.00  0.00    -0.003 C 
ATOM      8  C   UNL     1       1.540  50.678  21.399  1.00  0.00     0.004 C 
ENDBRANCH   6   7
ENDBRANCH   1   6
TORSDOF 4
ENDMDL
MODEL 3
REMARK VINA RESULT:    -3.406      1.100      1.856
REMARK INTER + INTRA:          -4.300
REMARK INTER:                  -4.111
REMARK INTRA:                  -0.189
REMARK UNBOUND:                -0.098
REMARK SMILES CCCCCC(=O)[O-]
REMARK SMILES IDX 4 1 5 2 6 3 7 4 8 5 3 6 2 7 1 8
REMARK H PARENT
REMARK Flexibility Score: inf
ROOT
ATOM      1  C   UNL     1       2.082  49.203  21.947  1.00  0.00     0.006 C 
ENDROOT
BRANCH   1   2
ATOM      2  C   UNL     1       1.072  48.082  21.666  1.00  0.00     0.053 C 
BRANCH   2   3
ATOM      3  C   UNL     1       0.163  47.845  22.834  1.00  0.00     0.041 C 
ATOM      4  O   UNL     1       0.083  48.696  23.757  1.00  0.00    -0.550 OA
ATOM      5  O   UNL     1      -0.574  46.670  22.915  1.00  0.00    -0.550 OA
ENDBRANCH   2   3
ENDBRANCH   1   2
BRANCH   1   6
ATOM      6  C   UNL     1       1.724  50.506  21.213  1.00  0.00     0.000 C 
BRANCH   6   7
ATOM      7  C   UNL     1       1.456  51.671  22.177  1.00  0.00    -0.003 C 
ATOM      8  C   UNL     1       2.457  51.727  23.332  1.00  0.00     0.004 C 
ENDBRANCH   6   7
ENDBRANCH   1   6
TORSDOF 4
ENDMDL
MODEL 4
REMARK VINA RESULT:    -3.378      3.314      4.778
REMARK INTER + INTRA:          -4.266
REMARK INTER:                  -4.137
REMARK INTRA:                  -0.129
REMARK UNBOUND:                -0.098
REMARK SMILES CCCCCC(=O)[O-]
REMARK SMILES IDX 4 1 5 2 6 3 7 4 8 5 3 6 2 7 1 8
REMARK H PARENT
REMARK Flexibility Score: inf
ROOT
ATOM      1  C   UNL     1       1.960  49.203  22.161  1.00  0.00     0.006 C 
ENDROOT
BRANCH   1   2
ATOM      2  C   UNL     1       1.804  50.348  21.152  1.00  0.00     0.053 C 
BRANCH   2   3
ATOM      3  C   UNL     1       1.223  51.575  21.787  1.00  0.00     0.041 C 
ATOM      4  O   UNL     1       0.729  51.516  22.943  1.00  0.00    -0.550 OA
ATOM      5  O   UNL     1       1.202  52.776  21.090  1.00  0.00    -0.550 OA
ENDBRANCH   2   3
ENDBRANCH   1   2
BRANCH   1   6
ATOM      6  C   UNL     1       0.913  48.095  21.950  1.00  0.00     0.000 C 
BRANCH   6   7
ATOM      7  C   UNL     1      -0.038  47.948  23.147  1.00  0.00    -0.003 C 
ATOM      8  C   UNL     1      -0.692  46.567  23.217  1.00  0.00     0.004 C 
ENDBRANCH   6   7
ENDBRANCH   1   6
TORSDOF 4
ENDMDL
MODEL 5
REMARK VINA RESULT:    -3.288      2.939      4.485
REMARK INTER + INTRA:          -4.154
REMARK INTER:                  -4.067
REMARK INTRA:                  -0.087
REMARK UNBOUND:                -0.098
REMARK SMILES CCCCCC(=O)[O-]
REMARK SMILES IDX 4 1 5 2 6 3 7 4 8 5 3 6 2 7 1 8
REMARK H PARENT
REMARK Flexibility Score: inf
ROOT
ATOM      1  C   UNL     1       0.891  48.272  21.871  1.00  0.00     0.006 C 
ENDROOT
BRANCH   1   2
ATOM      2  C   UNL     1       2.087  49.232  21.850  1.00  0.00     0.053 C 
BRANCH   2   3
ATOM      3  C   UNL     1       1.689  50.627  22.227  1.00  0.00     0.041 C 
ATOM      4  O   UNL     1       0.742  51.199  21.626  1.00  0.00    -0.550 OA
ATOM      5  O   UNL     1       2.383  51.305  23.221  1.00  0.00    -0.550 OA
ENDBRANCH   2   3
ENDBRANCH   1   2
BRANCH   1   6
ATOM      6  C   UNL     1       0.218  48.212  23.253  1.00  0.00     0.000 C 
BRANCH   6   7
ATOM      7  C   UNL     1      -0.715  47.001  23.402  1.00  0.00    -0.003 C 
ATOM      8  C   UNL     1      -0.433  46.189  24.667  1.00  0.00     0.004 C 
ENDBRANCH   6   7
ENDBRANCH   1   6
TORSDOF 4
ENDMDL
MODEL 6
REMARK VINA RESULT:    -3.241      4.113      5.431
REMARK INTER + INTRA:          -4.096
REMARK INTER:                  -4.005
REMARK INTRA:                  -0.091
REMARK UNBOUND:                -0.098
REMARK SMILES CCCCCC(=O)[O-]
REMARK SMILES IDX 4 1 5 2 6 3 7 4 8 5 3 6 2 7 1 8
REMARK H PARENT
REMARK Flexibility Score: inf
ROOT
ATOM      1  C   UNL     1       1.406  50.661  21.634  1.00  0.00     0.006 C 
ENDROOT
BRANCH   1   2
ATOM      2  C   UNL     1       2.152  51.711  22.468  1.00  0.00     0.053 C 
BRANCH   2   3
ATOM      3  C   UNL     1       1.752  53.106  22.097  1.00  0.00     0.041 C 
ATOM      4  O   UNL     1       1.944  54.055  22.902  1.00  0.00    -0.550 OA
ATOM      5  O   UNL     1       1.141  53.354  20.875  1.00  0.00    -0.550 OA
ENDBRANCH   2   3
ENDBRANCH   1   2
BRANCH   1   6
ATOM      6  C   UNL     1       2.098  49.289  21.671  1.00  0.00     0.000 C 
BRANCH   6   7
ATOM      7  C   UNL     1       1.099  48.123  21.629  1.00  0.00    -0.003 C 
ATOM      8  C   UNL     1       0.196  48.073  22.862  1.00  0.00     0.004 C 
ENDBRANCH   6   7
ENDBRANCH   1   6
TORSDOF 4
ENDMDL
MODEL 7
REMARK VINA RESULT:    -3.154      1.601      2.550
REMARK INTER + INTRA:          -3.990
REMARK INTER:                  -3.869
REMARK INTRA:                  -0.121
REMARK UNBOUND:                -0.098
REMARK SMILES CCCCCC(=O)[O-]
REMARK SMILES IDX 4 1 5 2 6 3 7 4 8 5 3 6 2 7 1 8
REMARK H PARENT
REMARK Flexibility Score: inf
ROOT
ATOM      1  C   UNL     1       1.609  50.431  21.243  1.00  0.00     0.006 C 
ENDROOT
BRANCH   1   2
ATOM      2  C   UNL     1       1.911  49.257  22.183  1.00  0.00     0.053 C 
BRANCH   2   3
ATOM      3  C   UNL     1       0.947  48.126  21.990  1.00  0.00     0.041 C 
ATOM      4  O   UNL     1       1.075  47.345  21.011  1.00  0.00    -0.550 OA
ATOM      5  O   UNL     1      -0.109  47.952  22.875  1.00  0.00    -0.550 OA
ENDBRANCH   2   3
ENDBRANCH   1   2
BRANCH   1   6
ATOM      6  C   UNL     1       1.745  51.791  21.949  1.00  0.00     0.000 C 
BRANCH   6   7
ATOM      7  C   UNL     1       2.349  51.667  23.356  1.00  0.00    -0.003 C 
ATOM      8  C   UNL     1       3.467  52.678  23.612  1.00  0.00     0.004 C 
ENDBRANCH   6   7
ENDBRANCH   1   6
TORSDOF 4
ENDMDL
MODEL 8
REMARK VINA RESULT:    -3.146      4.263      5.635
REMARK INTER + INTRA:          -3.980
REMARK INTER:                  -3.888
REMARK INTRA:                  -0.091
REMARK UNBOUND:                -0.098
REMARK SMILES CCCCCC(=O)[O-]
REMARK SMILES IDX 4 1 5 2 6 3 7 4 8 5 3 6 2 7 1 8
REMARK H PARENT
REMARK Flexibility Score: inf
ROOT
ATOM      1  C   UNL     1       1.066  51.467  22.034  1.00  0.00     0.006 C 
ENDROOT
BRANCH   1   2
ATOM      2  C   UNL     1       1.499  52.904  21.711  1.00  0.00     0.053 C 
BRANCH   2   3
ATOM      3  C   UNL     1       2.609  53.366  22.605  1.00  0.00     0.041 C 
ATOM      4  O   UNL     1       3.146  54.489  22.419  1.00  0.00    -0.550 OA
ATOM      5  O   UNL     1       3.070  52.544  23.625  1.00  0.00    -0.550 OA
ENDBRANCH   2   3
ENDBRANCH   1   2
BRANCH   1   6
ATOM      6  C   UNL     1       1.807  50.430  21.174  1.00  0.00     0.000 C 
BRANCH   6   7
ATOM      7  C   UNL     1       2.074  49.120  21.929  1.00  0.00    -0.003 C 
ATOM      8  C   UNL     1       1.147  47.984  21.493  1.00  0.00     0.004 C 
ENDBRANCH   6   7
ENDBRANCH   1   6
TORSDOF 4
ENDMDL
MODEL 9
REMARK VINA RESULT:    -3.114      3.057      3.816
REMARK INTER + INTRA:          -3.940
REMARK INTER:                  -3.858
REMARK INTRA:                  -0.082
REMARK UNBOUND:                -0.098
REMARK SMILES CCCCCC(=O)[O-]
REMARK SMILES IDX 4 1 5 2 6 3 7 4 8 5 3 6 2 7 1 8
REMARK H PARENT
REMARK Flexibility Score: inf
ROOT
ATOM      1  C   UNL     1       1.827  49.626  24.072  1.00  0.00     0.006 C 
ENDROOT
BRANCH   1   2
ATOM      2  C   UNL     1       2.490  50.108  25.369  1.00  0.00     0.053 C 
BRANCH   2   3
ATOM      3  C   UNL     1       2.667  48.991  26.353  1.00  0.00     0.041 C 
ATOM      4  O   UNL     1       1.781  48.104  26.471  1.00  0.00    -0.550 OA
ATOM      5  O   UNL     1       3.797  48.946  27.160  1.00  0.00    -0.550 OA
ENDBRANCH   2   3
ENDBRANCH   1   2
BRANCH   1   6
ATOM      6  C   UNL     1       2.017  50.624  22.917  1.00  0.00     0.000 C 
BRANCH   6   7
ATOM      7  C   UNL     1       1.746  49.993  21.543  1.00  0.00    -0.003 C 
ATOM      8  C   UNL     1       1.484  48.489  21.623  1.00  0.00     0.004 C 
ENDBRANCH   6   7
ENDBRANCH   1   6
TORSDOF 4
ENDMDL
