MODEL 1
REMARK VINA RESULT:    -2.256      0.000      0.000
REMARK INTER + INTRA:          -7.672
REMARK INTER:                  -5.882
REMARK INTRA:                  -1.790
REMARK UNBOUND:                -1.790
REMARK SMILES CCCCCCCCCCCCCCCCCCCCCCCCCCCCCO
REMARK SMILES IDX 16 1 15 2 14 3 13 4 12 5 11 6 10 7 9 8 8 9 7 10 6 11 5 12
REMARK SMILES IDX 4 13 3 14 2 15 1 16 17 17 18 18 19 19 20 20 21 21 22 22
REMARK SMILES IDX 23 23 24 24 25 25 26 26 27 27 28 28 29 29 30 30
REMARK H PARENT 30 31
REMARK Flexibility Score: inf
ROOT
ATOM      1  C   UNL     1      25.961  27.100  23.998  1.00  0.00     0.000 C 
ENDROOT
BRANCH   1   2
ATOM      2  C   UNL     1      25.250  28.424  24.335  1.00  0.00     0.000 C 
BRANCH   2   3
ATOM      3  C   UNL     1      26.120  29.465  25.067  1.00  0.00     0.000 C 
BRANCH   3   4
ATOM      4  C   UNL     1      27.626  29.115  25.097  1.00  0.00     0.000 C 
BRANCH   4   5
ATOM      5  C   UNL     1      28.561  30.228  24.581  1.00  0.00     0.000 C 
BRANCH   5   6
ATOM      6  C   UNL     1      28.042  31.666  24.766  1.00  0.00     0.000 C 
BRANCH   6   7
ATOM      7  C   UNL     1      29.021  32.734  24.252  1.00  0.00     0.000 C 
BRANCH   7   8
ATOM      8  C   UNL     1      30.090  32.103  23.347  1.00  0.00    -0.000 C 
BRANCH   8   9
ATOM      9  C   UNL     1      31.077  31.204  24.115  1.00  0.00    -0.000 C 
BRANCH   9  10
ATOM     10  C   UNL     1      31.914  30.255  23.238  1.00  0.00    -0.000 C 
BRANCH  10  11
ATOM     11  C   UNL     1      31.142  29.570  22.094  1.00  0.00    -0.000 C 
BRANCH  11  12
ATOM     12  C   UNL     1      31.089  28.031  22.210  1.00  0.00    -0.000 C 
BRANCH  12  13
ATOM     13  C   UNL     1      29.667  27.476  22.015  1.00  0.00    -0.000 C 
BRANCH  13  14
ATOM     14  C   UNL     1      29.518  26.040  22.543  1.00  0.00    -0.000 C 
BRANCH  14  15
ATOM     15  C   UNL     1      29.488  24.998  21.414  1.00  0.00    -0.003 C 
ATOM     16  C   UNL     1      28.662  25.493  20.230  1.00  0.00     0.004 C 
ENDBRANCH  14  15
ENDBRANCH  13  14
ENDBRANCH  12  13
ENDBRANCH  11  12
ENDBRANCH  10  11
ENDBRANCH   9  10
ENDBRANCH   8   9
ENDBRANCH   7   8
ENDBRANCH   6   7
ENDBRANCH   5   6
ENDBRANCH   4   5
ENDBRANCH   3   4
ENDBRANCH   2   3
ENDBRANCH   1   2
BRANCH   1  17
ATOM     17  C   UNL     1      25.149  26.119  23.126  1.00  0.00     0.000 C 
BRANCH  17  18
ATOM     18  C   UNL     1      24.999  24.704  23.712  1.00  0.00     0.000 C 
BRANCH  18  19
ATOM     19  C   UNL     1      24.391  24.706  25.125  1.00  0.00     0.000 C 
BRANCH  19  20
ATOM     20  C   UNL     1      22.878  24.991  25.120  1.00  0.00     0.000 C 
BRANCH  20  21
ATOM     21  C   UNL     1      21.988  23.734  25.095  1.00  0.00     0.000 C 
BRANCH  21  22
ATOM     22  C   UNL     1      20.836  23.839  24.078  1.00  0.00     0.000 C 
BRANCH  22  23
ATOM     23  C   UNL     1      21.292  23.545  22.640  1.00  0.00     0.000 C 
BRANCH  23  24
ATOM     24  C   UNL     1      22.045  22.210  22.513  1.00  0.00     0.000 C 
BRANCH  24  25
ATOM     25  C   UNL     1      21.735  21.480  21.191  1.00  0.00     0.000 C 
BRANCH  25  26
ATOM     26  C   UNL     1      21.355  19.996  21.365  1.00  0.00     0.000 C 
BRANCH  26  27
ATOM     27  C   UNL     1      19.980  19.772  22.031  1.00  0.00     0.002 C 
BRANCH  27  28
ATOM     28  C   UNL     1      19.505  18.310  21.962  1.00  0.00     0.028 C 
BRANCH  28  29
ATOM     29  C   UNL     1      19.442  17.656  23.346  1.00  0.00     0.156 C 
BRANCH  29  30
ATOM     30  O   UNL     1      18.938  18.567  24.285  1.00  0.00    -0.396 OA
ATOM     31  H   UNL     1      18.995  18.121  25.171  1.00  0.00     0.210 HD
ENDBRANCH  29  30
ENDBRANCH  28  29
ENDBRANCH  27  28
ENDBRANCH  26  27
ENDBRANCH  25  26
ENDBRANCH  24  25
ENDBRANCH  23  24
ENDBRANCH  22  23
ENDBRANCH  21  22
ENDBRANCH  20  21
ENDBRANCH  19  20
ENDBRANCH  18  19
ENDBRANCH  17  18
ENDBRANCH   1  17
TORSDOF 28
ENDMDL
MODEL 2
REMARK VINA RESULT:    -1.875      2.621     11.294
REMARK INTER + INTRA:          -6.679
REMARK INTER:                  -5.348
REMARK INTRA:                  -1.330
REMARK UNBOUND:                -1.790
REMARK SMILES CCCCCCCCCCCCCCCCCCCCCCCCCCCCCO
REMARK SMILES IDX 16 1 15 2 14 3 13 4 12 5 11 6 10 7 9 8 8 9 7 10 6 11 5 12
REMARK SMILES IDX 4 13 3 14 2 15 1 16 17 17 18 18 19 19 20 20 21 21 22 22
REMARK SMILES IDX 23 23 24 24 25 25 26 26 27 27 28 28 29 29 30 30
REMARK H PARENT 30 31
REMARK Flexibility Score: inf
ROOT
ATOM      1  C   UNL     1      25.431  25.383  23.478  1.00  0.00     0.000 C 
ENDROOT
BRANCH   1   2
ATOM      2  C   UNL     1      24.604  25.100  24.745  1.00  0.00     0.000 C 
BRANCH   2   3
ATOM      3  C   UNL     1      23.409  24.146  24.546  1.00  0.00     0.000 C 
BRANCH   3   4
ATOM      4  C   UNL     1      22.077  24.681  25.119  1.00  0.00     0.000 C 
BRANCH   4   5
ATOM      5  C   UNL     1      20.824  24.324  24.293  1.00  0.00     0.000 C 
BRANCH   5   6
ATOM      6  C   UNL     1      20.828  22.920  23.660  1.00  0.00     0.000 C 
BRANCH   6   7
ATOM      7  C   UNL     1      21.823  22.781  22.498  1.00  0.00     0.000 C 
BRANCH   7   8
ATOM      8  C   UNL     1      22.132  21.303  22.218  1.00  0.00    -0.000 C 
BRANCH   8   9
ATOM      9  C   UNL     1      20.984  20.574  21.494  1.00  0.00    -0.000 C 
BRANCH   9  10
ATOM     10  C   UNL     1      20.356  19.406  22.277  1.00  0.00    -0.000 C 
BRANCH  10  11
ATOM     11  C   UNL     1      19.468  18.462  21.443  1.00  0.00    -0.000 C 
BRANCH  11  12
ATOM     12  C   UNL     1      19.007  17.201  22.205  1.00  0.00    -0.000 C 
BRANCH  12  13
ATOM     13  C   UNL     1      20.133  16.581  23.051  1.00  0.00    -0.000 C 
BRANCH  13  14
ATOM     14  C   UNL     1      19.778  16.513  24.545  1.00  0.00    -0.000 C 
BRANCH  14  15
ATOM     15  C   UNL     1      19.941  15.099  25.125  1.00  0.00    -0.003 C 
ATOM     16  C   UNL     1      18.951  14.127  24.489  1.00  0.00     0.004 C 
ENDBRANCH  14  15
ENDBRANCH  13  14
ENDBRANCH  12  13
ENDBRANCH  11  12
ENDBRANCH  10  11
ENDBRANCH   9  10
ENDBRANCH   8   9
ENDBRANCH   7   8
ENDBRANCH   6   7
ENDBRANCH   5   6
ENDBRANCH   4   5
ENDBRANCH   3   4
ENDBRANCH   2   3
ENDBRANCH   1   2
BRANCH   1  17
ATOM     17  C   UNL     1      26.740  26.170  23.707  1.00  0.00     0.000 C 
BRANCH  17  18
ATOM     18  C   UNL     1      26.573  27.699  23.765  1.00  0.00     0.000 C 
BRANCH  18  19
ATOM     19  C   UNL     1      27.111  28.307  25.072  1.00  0.00     0.000 C 
BRANCH  19  20
ATOM     20  C   UNL     1      28.597  28.701  24.977  1.00  0.00     0.000 C 
BRANCH  20  21
ATOM     21  C   UNL     1      28.854  30.095  24.374  1.00  0.00     0.000 C 
BRANCH  21  22
ATOM     22  C   UNL     1      30.243  30.216  23.720  1.00  0.00     0.000 C 
BRANCH  22  23
ATOM     23  C   UNL     1      30.944  28.856  23.571  1.00  0.00     0.000 C 
BRANCH  23  24
ATOM     24  C   UNL     1      30.706  28.209  22.196  1.00  0.00     0.000 C 
BRANCH  24  25
ATOM     25  C   UNL     1      29.789  26.972  22.275  1.00  0.00     0.000 C 
BRANCH  25  26
ATOM     26  C   UNL     1      30.539  25.645  22.505  1.00  0.00     0.000 C 
BRANCH  26  27
ATOM     27  C   UNL     1      30.288  24.583  21.412  1.00  0.00     0.002 C 
BRANCH  27  28
ATOM     28  C   UNL     1      28.904  24.710  20.752  1.00  0.00     0.028 C 
BRANCH  28  29
ATOM     29  C   UNL     1      29.003  24.932  19.239  1.00  0.00     0.156 C 
BRANCH  29  30
ATOM     30  O   UNL     1      27.778  25.396  18.740  1.00  0.00    -0.396 OA
ATOM     31  H   UNL     1      27.215  24.595  18.581  1.00  0.00     0.210 HD
ENDBRANCH  29  30
ENDBRANCH  28  29
ENDBRANCH  27  28
ENDBRANCH  26  27
ENDBRANCH  25  26
ENDBRANCH  24  25
ENDBRANCH  23  24
ENDBRANCH  22  23
ENDBRANCH  21  22
ENDBRANCH  20  21
ENDBRANCH  19  20
ENDBRANCH  18  19
ENDBRANCH  17  18
ENDBRANCH   1  17
TORSDOF 28
ENDMDL
MODEL 3
REMARK VINA RESULT:    -1.842      1.309      2.050
REMARK INTER + INTRA:          -6.594
REMARK INTER:                  -5.629
REMARK INTRA:                  -0.965
REMARK UNBOUND:                -1.790
REMARK SMILES CCCCCCCCCCCCCCCCCCCCCCCCCCCCCO
REMARK SMILES IDX 16 1 15 2 14 3 13 4 12 5 11 6 10 7 9 8 8 9 7 10 6 11 5 12
REMARK SMILES IDX 4 13 3 14 2 15 1 16 17 17 18 18 19 19 20 20 21 21 22 22
REMARK SMILES IDX 23 23 24 24 25 25 26 26 27 27 28 28 29 29 30 30
REMARK H PARENT 30 31
REMARK Flexibility Score: inf
ROOT
ATOM      1  C   UNL     1      26.064  26.048  22.917  1.00  0.00     0.000 C 
ENDROOT
BRANCH   1   2
ATOM      2  C   UNL     1      26.135  27.326  23.774  1.00  0.00     0.000 C 
BRANCH   2   3
ATOM      3  C   UNL     1      26.888  27.175  25.111  1.00  0.00     0.000 C 
BRANCH   3   4
ATOM      4  C   UNL     1      28.375  27.593  25.044  1.00  0.00     0.000 C 
BRANCH   4   5
ATOM      5  C   UNL     1      28.625  29.023  24.523  1.00  0.00     0.000 C 
BRANCH   5   6
ATOM      6  C   UNL     1      27.719  30.114  25.125  1.00  0.00     0.000 C 
BRANCH   6   7
ATOM      7  C   UNL     1      27.859  31.473  24.422  1.00  0.00     0.000 C 
BRANCH   7   8
ATOM      8  C   UNL     1      29.132  31.514  23.563  1.00  0.00    -0.000 C 
BRANCH   8   9
ATOM      9  C   UNL     1      30.379  31.002  24.308  1.00  0.00    -0.000 C 
BRANCH   9  10
ATOM     10  C   UNL     1      31.707  31.161  23.545  1.00  0.00    -0.000 C 
BRANCH  10  11
ATOM     11  C   UNL     1      32.049  30.010  22.579  1.00  0.00    -0.000 C 
BRANCH  11  12
ATOM     12  C   UNL     1      31.793  28.605  23.165  1.00  0.00    -0.000 C 
BRANCH  12  13
ATOM     13  C   UNL     1      30.682  27.848  22.416  1.00  0.00    -0.000 C 
BRANCH  13  14
ATOM     14  C   UNL     1      30.689  26.341  22.716  1.00  0.00    -0.000 C 
BRANCH  14  15
ATOM     15  C   UNL     1      29.617  25.578  21.924  1.00  0.00    -0.003 C 
ATOM     16  C   UNL     1      28.987  26.466  20.855  1.00  0.00     0.004 C 
ENDBRANCH  14  15
ENDBRANCH  13  14
ENDBRANCH  12  13
ENDBRANCH  11  12
ENDBRANCH  10  11
ENDBRANCH   9  10
ENDBRANCH   8   9
ENDBRANCH   7   8
ENDBRANCH   6   7
ENDBRANCH   5   6
ENDBRANCH   4   5
ENDBRANCH   3   4
ENDBRANCH   2   3
ENDBRANCH   1   2
BRANCH   1  17
ATOM     17  C   UNL     1      24.772  25.218  23.076  1.00  0.00     0.000 C 
BRANCH  17  18
ATOM     18  C   UNL     1      24.426  24.831  24.524  1.00  0.00     0.000 C 
BRANCH  18  19
ATOM     19  C   UNL     1      22.922  24.581  24.730  1.00  0.00     0.000 C 
BRANCH  19  20
ATOM     20  C   UNL     1      22.218  24.102  23.446  1.00  0.00     0.000 C 
BRANCH  20  21
ATOM     21  C   UNL     1      22.110  22.571  23.307  1.00  0.00     0.000 C 
BRANCH  21  22
ATOM     22  C   UNL     1      21.677  22.130  21.896  1.00  0.00     0.000 C 
BRANCH  22  23
ATOM     23  C   UNL     1      21.864  20.621  21.668  1.00  0.00     0.000 C 
BRANCH  23  24
ATOM     24  C   UNL     1      20.740  19.778  22.296  1.00  0.00     0.000 C 
BRANCH  24  25
ATOM     25  C   UNL     1      19.784  19.188  21.241  1.00  0.00     0.000 C 
BRANCH  25  26
ATOM     26  C   UNL     1      18.830  18.108  21.789  1.00  0.00     0.000 C 
BRANCH  26  27
ATOM     27  C   UNL     1      19.171  17.634  23.218  1.00  0.00     0.002 C 
BRANCH  27  28
ATOM     28  C   UNL     1      19.961  16.312  23.245  1.00  0.00     0.028 C 
BRANCH  28  29
ATOM     29  C   UNL     1      20.053  15.722  24.656  1.00  0.00     0.156 C 
BRANCH  29  30
ATOM     30  O   UNL     1      19.833  14.339  24.613  1.00  0.00    -0.396 OA
ATOM     31  H   UNL     1      20.707  13.907  24.804  1.00  0.00     0.210 HD
ENDBRANCH  29  30
ENDBRANCH  28  29
ENDBRANCH  27  28
ENDBRANCH  26  27
ENDBRANCH  25  26
ENDBRANCH  24  25
ENDBRANCH  23  24
ENDBRANCH  22  23
ENDBRANCH  21  22
ENDBRANCH  20  21
ENDBRANCH  19  20
ENDBRANCH  18  19
ENDBRANCH  17  18
ENDBRANCH   1  17
TORSDOF 28
ENDMDL
MODEL 4
REMARK VINA RESULT:    -1.805      2.354     10.972
REMARK INTER + INTRA:          -6.497
REMARK INTER:                  -5.175
REMARK INTRA:                  -1.322
REMARK UNBOUND:                -1.790
REMARK SMILES CCCCCCCCCCCCCCCCCCCCCCCCCCCCCO
REMARK SMILES IDX 16 1 15 2 14 3 13 4 12 5 11 6 10 7 9 8 8 9 7 10 6 11 5 12
REMARK SMILES IDX 4 13 3 14 2 15 1 16 17 17 18 18 19 19 20 20 21 21 22 22
REMARK SMILES IDX 23 23 24 24 25 25 26 26 27 27 28 28 29 29 30 30
REMARK H PARENT 30 31
REMARK Flexibility Score: inf
ROOT
ATOM      1  C   UNL     1      27.260  27.909  24.305  1.00  0.00     0.000 C 
ENDROOT
BRANCH   1   2
ATOM      2  C   UNL     1      25.965  27.713  25.114  1.00  0.00     0.000 C 
BRANCH   2   3
ATOM      3  C   UNL     1      24.824  27.002  24.359  1.00  0.00     0.000 C 
BRANCH   3   4
ATOM      4  C   UNL     1      24.240  25.782  25.108  1.00  0.00     0.000 C 
BRANCH   4   5
ATOM      5  C   UNL     1      23.800  24.614  24.203  1.00  0.00     0.000 C 
BRANCH   5   6
ATOM      6  C   UNL     1      22.571  23.824  24.693  1.00  0.00     0.000 C 
BRANCH   6   7
ATOM      7  C   UNL     1      21.503  23.629  23.606  1.00  0.00     0.000 C 
BRANCH   7   8
ATOM      8  C   UNL     1      21.019  22.172  23.572  1.00  0.00    -0.000 C 
BRANCH   8   9
ATOM      9  C   UNL     1      21.406  21.438  22.275  1.00  0.00    -0.000 C 
BRANCH   9  10
ATOM     10  C   UNL     1      21.048  19.940  22.239  1.00  0.00    -0.000 C 
BRANCH  10  11
ATOM     11  C   UNL     1      19.919  19.561  21.261  1.00  0.00    -0.000 C 
BRANCH  11  12
ATOM     12  C   UNL     1      19.595  18.051  21.236  1.00  0.00    -0.000 C 
BRANCH  12  13
ATOM     13  C   UNL     1      18.684  17.626  22.400  1.00  0.00    -0.000 C 
BRANCH  13  14
ATOM     14  C   UNL     1      19.168  18.166  23.756  1.00  0.00    -0.000 C 
BRANCH  14  15
ATOM     15  C   UNL     1      19.553  17.045  24.732  1.00  0.00    -0.003 C 
ATOM     16  C   UNL     1      19.759  15.723  23.998  1.00  0.00     0.004 C 
ENDBRANCH  14  15
ENDBRANCH  13  14
ENDBRANCH  12  13
ENDBRANCH  11  12
ENDBRANCH  10  11
ENDBRANCH   9  10
ENDBRANCH   8   9
ENDBRANCH   7   8
ENDBRANCH   6   7
ENDBRANCH   5   6
ENDBRANCH   4   5
ENDBRANCH   3   4
ENDBRANCH   2   3
ENDBRANCH   1   2
BRANCH   1  17
ATOM     17  C   UNL     1      28.261  28.924  24.899  1.00  0.00     0.000 C 
BRANCH  17  18
ATOM     18  C   UNL     1      27.772  30.383  24.910  1.00  0.00     0.000 C 
BRANCH  18  19
ATOM     19  C   UNL     1      28.650  31.312  24.053  1.00  0.00     0.000 C 
BRANCH  19  20
ATOM     20  C   UNL     1      30.131  31.287  24.476  1.00  0.00     0.000 C 
BRANCH  20  21
ATOM     21  C   UNL     1      31.072  30.586  23.478  1.00  0.00     0.000 C 
BRANCH  21  22
ATOM     22  C   UNL     1      31.997  29.556  24.153  1.00  0.00     0.000 C 
BRANCH  22  23
ATOM     23  C   UNL     1      32.122  28.257  23.342  1.00  0.00     0.000 C 
BRANCH  23  24
ATOM     24  C   UNL     1      31.003  28.093  22.299  1.00  0.00     0.000 C 
BRANCH  24  25
ATOM     25  C   UNL     1      30.118  26.859  22.570  1.00  0.00     0.000 C 
BRANCH  25  26
ATOM     26  C   UNL     1      30.722  25.530  22.076  1.00  0.00     0.000 C 
BRANCH  26  27
ATOM     27  C   UNL     1      29.702  24.588  21.400  1.00  0.00     0.002 C 
BRANCH  27  28
ATOM     28  C   UNL     1      28.536  25.339  20.731  1.00  0.00     0.028 C 
BRANCH  28  29
ATOM     29  C   UNL     1      27.242  25.242  21.545  1.00  0.00     0.156 C 
BRANCH  29  30
ATOM     30  O   UNL     1      26.589  26.482  21.558  1.00  0.00    -0.396 OA
ATOM     31  H   UNL     1      27.215  27.137  21.152  1.00  0.00     0.210 HD
ENDBRANCH  29  30
ENDBRANCH  28  29
ENDBRANCH  27  28
ENDBRANCH  26  27
ENDBRANCH  25  26
ENDBRANCH  24  25
ENDBRANCH  23  24
ENDBRANCH  22  23
ENDBRANCH  21  22
ENDBRANCH  20  21
ENDBRANCH  19  20
ENDBRANCH  18  19
ENDBRANCH  17  18
ENDBRANCH   1  17
TORSDOF 28
ENDMDL
MODEL 5
REMARK VINA RESULT:    -1.626      1.387      4.291
REMARK INTER + INTRA:          -6.031
REMARK INTER:                  -4.764
REMARK INTRA:                  -1.267
REMARK UNBOUND:                -1.790
REMARK SMILES CCCCCCCCCCCCCCCCCCCCCCCCCCCCCO
REMARK SMILES IDX 16 1 15 2 14 3 13 4 12 5 11 6 10 7 9 8 8 9 7 10 6 11 5 12
REMARK SMILES IDX 4 13 3 14 2 15 1 16 17 17 18 18 19 19 20 20 21 21 22 22
REMARK SMILES IDX 23 23 24 24 25 25 26 26 27 27 28 28 29 29 30 30
REMARK H PARENT 30 31
REMARK Flexibility Score: inf
ROOT
ATOM      1  C   UNL     1      27.717  25.364  20.918  1.00  0.00     0.000 C 
ENDROOT
BRANCH   1   2
ATOM      2  C   UNL     1      29.189  24.993  21.176  1.00  0.00     0.000 C 
BRANCH   2   3
ATOM      3  C   UNL     1      29.899  25.845  22.247  1.00  0.00     0.000 C 
BRANCH   3   4
ATOM      4  C   UNL     1      31.190  25.201  22.806  1.00  0.00     0.000 C 
BRANCH   4   5
ATOM      5  C   UNL     1      31.417  25.409  24.317  1.00  0.00     0.000 C 
BRANCH   5   6
ATOM      6  C   UNL     1      30.391  26.317  25.021  1.00  0.00     0.000 C 
BRANCH   6   7
ATOM      7  C   UNL     1      30.311  27.726  24.412  1.00  0.00     0.000 C 
BRANCH   7   8
ATOM      8  C   UNL     1      28.878  28.043  23.959  1.00  0.00    -0.000 C 
BRANCH   8   9
ATOM      9  C   UNL     1      27.871  28.078  25.125  1.00  0.00    -0.000 C 
BRANCH   9  10
ATOM     10  C   UNL     1      26.572  28.856  24.843  1.00  0.00    -0.000 C 
BRANCH  10  11
ATOM     11  C   UNL     1      26.758  30.189  24.093  1.00  0.00    -0.000 C 
BRANCH  11  12
ATOM     12  C   UNL     1      26.868  31.418  25.021  1.00  0.00    -0.000 C 
BRANCH  12  13
ATOM     13  C   UNL     1      28.308  31.950  25.125  1.00  0.00    -0.000 C 
BRANCH  13  14
ATOM     14  C   UNL     1      29.278  31.211  24.190  1.00  0.00    -0.000 C 
BRANCH  14  15
ATOM     15  C   UNL     1      30.638  31.918  24.075  1.00  0.00    -0.003 C 
ATOM     16  C   UNL     1      31.784  30.910  24.089  1.00  0.00     0.004 C 
ENDBRANCH  14  15
ENDBRANCH  13  14
ENDBRANCH  12  13
ENDBRANCH  11  12
ENDBRANCH  10  11
ENDBRANCH   9  10
ENDBRANCH   8   9
ENDBRANCH   7   8
ENDBRANCH   6   7
ENDBRANCH   5   6
ENDBRANCH   4   5
ENDBRANCH   3   4
ENDBRANCH   2   3
ENDBRANCH   1   2
BRANCH   1  17
ATOM     17  C   UNL     1      26.908  25.765  22.171  1.00  0.00     0.000 C 
BRANCH  17  18
ATOM     18  C   UNL     1      26.006  24.656  22.741  1.00  0.00     0.000 C 
BRANCH  18  19
ATOM     19  C   UNL     1      25.510  24.965  24.164  1.00  0.00     0.000 C 
BRANCH  19  20
ATOM     20  C   UNL     1      24.355  25.984  24.182  1.00  0.00     0.000 C 
BRANCH  20  21
ATOM     21  C   UNL     1      23.099  25.516  24.943  1.00  0.00     0.000 C 
BRANCH  21  22
ATOM     22  C   UNL     1      22.886  23.993  24.864  1.00  0.00     0.000 C 
BRANCH  22  23
ATOM     23  C   UNL     1      22.520  23.523  23.447  1.00  0.00     0.000 C 
BRANCH  23  24
ATOM     24  C   UNL     1      21.532  22.343  23.445  1.00  0.00     0.000 C 
BRANCH  24  25
ATOM     25  C   UNL     1      22.018  21.166  22.577  1.00  0.00     0.000 C 
BRANCH  25  26
ATOM     26  C   UNL     1      21.098  20.840  21.384  1.00  0.00     0.000 C 
BRANCH  26  27
ATOM     27  C   UNL     1      19.798  20.105  21.775  1.00  0.00     0.002 C 
BRANCH  27  28
ATOM     28  C   UNL     1      19.743  18.656  21.256  1.00  0.00     0.028 C 
BRANCH  28  29
ATOM     29  C   UNL     1      19.100  17.703  22.269  1.00  0.00     0.156 C 
BRANCH  29  30
ATOM     30  O   UNL     1      20.046  17.311  23.226  1.00  0.00    -0.396 OA
ATOM     31  H   UNL     1      19.903  16.341  23.384  1.00  0.00     0.210 HD
ENDBRANCH  29  30
ENDBRANCH  28  29
ENDBRANCH  27  28
ENDBRANCH  26  27
ENDBRANCH  25  26
ENDBRANCH  24  25
ENDBRANCH  23  24
ENDBRANCH  22  23
ENDBRANCH  21  22
ENDBRANCH  20  21
ENDBRANCH  19  20
ENDBRANCH  18  19
ENDBRANCH  17  18
ENDBRANCH   1  17
TORSDOF 28
ENDMDL
MODEL 6
REMARK VINA RESULT:    -1.536      1.551      4.257
REMARK INTER + INTRA:          -5.797
REMARK INTER:                  -5.242
REMARK INTRA:                  -0.555
REMARK UNBOUND:                -1.790
REMARK SMILES CCCCCCCCCCCCCCCCCCCCCCCCCCCCCO
REMARK SMILES IDX 16 1 15 2 14 3 13 4 12 5 11 6 10 7 9 8 8 9 7 10 6 11 5 12
REMARK SMILES IDX 4 13 3 14 2 15 1 16 17 17 18 18 19 19 20 20 21 21 22 22
REMARK SMILES IDX 23 23 24 24 25 25 26 26 27 27 28 28 29 29 30 30
REMARK H PARENT 30 31
REMARK Flexibility Score: inf
ROOT
ATOM      1  C   UNL     1      30.333  25.829  23.277  1.00  0.00     0.000 C 
ENDROOT
BRANCH   1   2
ATOM      2  C   UNL     1      31.738  26.420  23.063  1.00  0.00     0.000 C 
BRANCH   2   3
ATOM      3  C   UNL     1      31.780  27.946  22.851  1.00  0.00     0.000 C 
BRANCH   3   4
ATOM      4  C   UNL     1      31.590  28.765  24.149  1.00  0.00     0.000 C 
BRANCH   4   5
ATOM      5  C   UNL     1      30.311  29.626  24.192  1.00  0.00     0.000 C 
BRANCH   5   6
ATOM      6  C   UNL     1      30.209  30.713  23.106  1.00  0.00     0.000 C 
BRANCH   6   7
ATOM      7  C   UNL     1      31.169  31.891  23.336  1.00  0.00     0.000 C 
BRANCH   7   8
ATOM      8  C   UNL     1      30.662  32.794  24.470  1.00  0.00    -0.000 C 
BRANCH   8   9
ATOM      9  C   UNL     1      29.144  33.047  24.406  1.00  0.00    -0.000 C 
BRANCH   9  10
ATOM     10  C   UNL     1      28.276  31.997  25.125  1.00  0.00    -0.000 C 
BRANCH  10  11
ATOM     11  C   UNL     1      27.124  31.414  24.284  1.00  0.00    -0.000 C 
BRANCH  11  12
ATOM     12  C   UNL     1      26.099  30.603  25.105  1.00  0.00    -0.000 C 
BRANCH  12  13
ATOM     13  C   UNL     1      24.654  31.082  24.882  1.00  0.00    -0.000 C 
BRANCH  13  14
ATOM     14  C   UNL     1      23.909  30.243  23.831  1.00  0.00    -0.000 C 
BRANCH  14  15
ATOM     15  C   UNL     1      24.517  28.842  23.659  1.00  0.00    -0.003 C 
ATOM     16  C   UNL     1      23.853  27.836  24.595  1.00  0.00     0.004 C 
ENDBRANCH  14  15
ENDBRANCH  13  14
ENDBRANCH  12  13
ENDBRANCH  11  12
ENDBRANCH  10  11
ENDBRANCH   9  10
ENDBRANCH   8   9
ENDBRANCH   7   8
ENDBRANCH   6   7
ENDBRANCH   5   6
ENDBRANCH   4   5
ENDBRANCH   3   4
ENDBRANCH   2   3
ENDBRANCH   1   2
BRANCH   1  17
ATOM     17  C   UNL     1      29.201  26.865  23.452  1.00  0.00     0.000 C 
BRANCH  17  18
ATOM     18  C   UNL     1      27.986  26.657  22.531  1.00  0.00     0.000 C 
BRANCH  18  19
ATOM     19  C   UNL     1      26.856  25.862  23.207  1.00  0.00     0.000 C 
BRANCH  19  20
ATOM     20  C   UNL     1      25.534  25.921  22.418  1.00  0.00     0.000 C 
BRANCH  20  21
ATOM     21  C   UNL     1      24.694  24.631  22.478  1.00  0.00     0.000 C 
BRANCH  21  22
ATOM     22  C   UNL     1      24.303  24.239  23.915  1.00  0.00     0.000 C 
BRANCH  22  23
ATOM     23  C   UNL     1      22.827  23.829  24.033  1.00  0.00     0.000 C 
BRANCH  23  24
ATOM     24  C   UNL     1      22.393  22.837  22.940  1.00  0.00     0.000 C 
BRANCH  24  25
ATOM     25  C   UNL     1      21.000  22.234  23.208  1.00  0.00     0.000 C 
BRANCH  25  26
ATOM     26  C   UNL     1      20.489  21.305  22.089  1.00  0.00     0.000 C 
BRANCH  26  27
ATOM     27  C   UNL     1      21.017  19.857  22.183  1.00  0.00     0.002 C 
BRANCH  27  28
ATOM     28  C   UNL     1      19.895  18.810  22.294  1.00  0.00     0.028 C 
BRANCH  28  29
ATOM     29  C   UNL     1      19.469  18.271  20.925  1.00  0.00     0.156 C 
BRANCH  29  30
ATOM     30  O   UNL     1      18.512  17.259  21.083  1.00  0.00    -0.396 OA
ATOM     31  H   UNL     1      17.624  17.687  20.961  1.00  0.00     0.210 HD
ENDBRANCH  29  30
ENDBRANCH  28  29
ENDBRANCH  27  28
ENDBRANCH  26  27
ENDBRANCH  25  26
ENDBRANCH  24  25
ENDBRANCH  23  24
ENDBRANCH  22  23
ENDBRANCH  21  22
ENDBRANCH  20  21
ENDBRANCH  19  20
ENDBRANCH  18  19
ENDBRANCH  17  18
ENDBRANCH   1  17
TORSDOF 28
ENDMDL
MODEL 7
REMARK VINA RESULT:    -1.508      1.902      4.844
REMARK INTER + INTRA:          -5.721
REMARK INTER:                  -4.433
REMARK INTRA:                  -1.288
REMARK UNBOUND:                -1.790
REMARK SMILES CCCCCCCCCCCCCCCCCCCCCCCCCCCCCO
REMARK SMILES IDX 16 1 15 2 14 3 13 4 12 5 11 6 10 7 9 8 8 9 7 10 6 11 5 12
REMARK SMILES IDX 4 13 3 14 2 15 1 16 17 17 18 18 19 19 20 20 21 21 22 22
REMARK SMILES IDX 23 23 24 24 25 25 26 26 27 27 28 28 29 29 30 30
REMARK H PARENT 30 31
REMARK Flexibility Score: inf
ROOT
ATOM      1  C   UNL     1      30.046  25.931  22.647  1.00  0.00     0.000 C 
ENDROOT
BRANCH   1   2
ATOM      2  C   UNL     1      31.539  26.124  22.321  1.00  0.00     0.000 C 
BRANCH   2   3
ATOM      3  C   UNL     1      32.108  27.514  22.669  1.00  0.00     0.000 C 
BRANCH   3   4
ATOM      4  C   UNL     1      31.296  28.274  23.743  1.00  0.00     0.000 C 
BRANCH   4   5
ATOM      5  C   UNL     1      30.335  29.347  23.191  1.00  0.00     0.000 C 
BRANCH   5   6
ATOM      6  C   UNL     1      30.999  30.666  22.751  1.00  0.00     0.000 C 
BRANCH   6   7
ATOM      7  C   UNL     1      31.419  31.556  23.932  1.00  0.00     0.000 C 
BRANCH   7   8
ATOM      8  C   UNL     1      30.200  31.942  24.783  1.00  0.00    -0.000 C 
BRANCH   8   9
ATOM      9  C   UNL     1      28.861  31.721  24.055  1.00  0.00    -0.000 C 
BRANCH   9  10
ATOM     10  C   UNL     1      27.902  32.926  24.068  1.00  0.00    -0.000 C 
BRANCH  10  11
ATOM     11  C   UNL     1      26.780  32.858  25.122  1.00  0.00    -0.000 C 
BRANCH  11  12
ATOM     12  C   UNL     1      25.994  31.529  25.112  1.00  0.00    -0.000 C 
BRANCH  12  13
ATOM     13  C   UNL     1      24.477  31.744  24.970  1.00  0.00    -0.000 C 
BRANCH  13  14
ATOM     14  C   UNL     1      23.720  30.438  24.680  1.00  0.00    -0.000 C 
BRANCH  14  15
ATOM     15  C   UNL     1      24.103  29.825  23.325  1.00  0.00    -0.003 C 
ATOM     16  C   UNL     1      25.219  28.796  23.482  1.00  0.00     0.004 C 
ENDBRANCH  14  15
ENDBRANCH  13  14
ENDBRANCH  12  13
ENDBRANCH  11  12
ENDBRANCH  10  11
ENDBRANCH   9  10
ENDBRANCH   8   9
ENDBRANCH   7   8
ENDBRANCH   6   7
ENDBRANCH   5   6
ENDBRANCH   4   5
ENDBRANCH   3   4
ENDBRANCH   2   3
ENDBRANCH   1   2
BRANCH   1  17
ATOM     17  C   UNL     1      29.105  25.878  21.424  1.00  0.00     0.000 C 
BRANCH  17  18
ATOM     18  C   UNL     1      27.915  24.913  21.565  1.00  0.00     0.000 C 
BRANCH  18  19
ATOM     19  C   UNL     1      26.722  25.544  22.304  1.00  0.00     0.000 C 
BRANCH  19  20
ATOM     20  C   UNL     1      25.790  24.492  22.934  1.00  0.00     0.000 C 
BRANCH  20  21
ATOM     21  C   UNL     1      25.615  24.621  24.459  1.00  0.00     0.000 C 
BRANCH  21  22
ATOM     22  C   UNL     1      24.707  25.800  24.857  1.00  0.00     0.000 C 
BRANCH  22  23
ATOM     23  C   UNL     1      23.233  25.557  24.492  1.00  0.00     0.000 C 
BRANCH  23  24
ATOM     24  C   UNL     1      22.698  24.218  25.029  1.00  0.00     0.000 C 
BRANCH  24  25
ATOM     25  C   UNL     1      21.159  24.190  25.119  1.00  0.00     0.000 C 
BRANCH  25  26
ATOM     26  C   UNL     1      20.490  23.179  24.167  1.00  0.00     0.000 C 
BRANCH  26  27
ATOM     27  C   UNL     1      21.473  22.469  23.211  1.00  0.00     0.002 C 
BRANCH  27  28
ATOM     28  C   UNL     1      20.860  21.239  22.517  1.00  0.00     0.028 C 
BRANCH  28  29
ATOM     29  C   UNL     1      21.861  20.539  21.592  1.00  0.00     0.156 C 
BRANCH  29  30
ATOM     30  O   UNL     1      22.788  21.466  21.097  1.00  0.00    -0.396 OA
ATOM     31  H   UNL     1      23.444  21.627  21.825  1.00  0.00     0.210 HD
ENDBRANCH  29  30
ENDBRANCH  28  29
ENDBRANCH  27  28
ENDBRANCH  26  27
ENDBRANCH  25  26
ENDBRANCH  24  25
ENDBRANCH  23  24
ENDBRANCH  22  23
ENDBRANCH  21  22
ENDBRANCH  20  21
ENDBRANCH  19  20
ENDBRANCH  18  19
ENDBRANCH  17  18
ENDBRANCH   1  17
TORSDOF 28
ENDMDL
MODEL 8
REMARK VINA RESULT:    -0.888      1.397      3.331
REMARK INTER + INTRA:          -4.106
REMARK INTER:                  -2.308
REMARK INTRA:                  -1.798
REMARK UNBOUND:                -1.790
REMARK SMILES CCCCCCCCCCCCCCCCCCCCCCCCCCCCCO
REMARK SMILES IDX 16 1 15 2 14 3 13 4 12 5 11 6 10 7 9 8 8 9 7 10 6 11 5 12
REMARK SMILES IDX 4 13 3 14 2 15 1 16 17 17 18 18 19 19 20 20 21 21 22 22
REMARK SMILES IDX 23 23 24 24 25 25 26 26 27 27 28 28 29 29 30 30
REMARK H PARENT 30 31
REMARK Flexibility Score: inf
ROOT
ATOM      1  C   UNL     1      27.329  25.275  21.418  1.00  0.00     0.000 C 
ENDROOT
BRANCH   1   2
ATOM      2  C   UNL     1      28.659  25.050  22.161  1.00  0.00     0.000 C 
BRANCH   2   3
ATOM      3  C   UNL     1      29.502  26.320  22.390  1.00  0.00     0.000 C 
BRANCH   3   4
ATOM      4  C   UNL     1      30.500  26.208  23.565  1.00  0.00     0.000 C 
BRANCH   4   5
ATOM      5  C   UNL     1      29.925  26.589  24.944  1.00  0.00     0.000 C 
BRANCH   5   6
ATOM      6  C   UNL     1      28.677  27.491  24.913  1.00  0.00     0.000 C 
BRANCH   6   7
ATOM      7  C   UNL     1      28.999  28.979  25.120  1.00  0.00     0.000 C 
BRANCH   7   8
ATOM      8  C   UNL     1      28.418  29.827  23.978  1.00  0.00    -0.000 C 
BRANCH   8   9
ATOM      9  C   UNL     1      28.008  31.242  24.426  1.00  0.00    -0.000 C 
BRANCH   9  10
ATOM     10  C   UNL     1      29.117  32.055  25.121  1.00  0.00    -0.000 C 
BRANCH  10  11
ATOM     11  C   UNL     1      30.301  32.451  24.217  1.00  0.00    -0.000 C 
BRANCH  11  12
ATOM     12  C   UNL     1      30.071  32.154  22.719  1.00  0.00    -0.000 C 
BRANCH  12  13
ATOM     13  C   UNL     1      31.164  31.250  22.124  1.00  0.00    -0.000 C 
BRANCH  13  14
ATOM     14  C   UNL     1      31.549  30.094  23.061  1.00  0.00    -0.000 C 
BRANCH  14  15
ATOM     15  C   UNL     1      32.066  28.864  22.298  1.00  0.00    -0.003 C 
ATOM     16  C   UNL     1      31.307  28.672  20.988  1.00  0.00     0.004 C 
ENDBRANCH  14  15
ENDBRANCH  13  14
ENDBRANCH  12  13
ENDBRANCH  11  12
ENDBRANCH  10  11
ENDBRANCH   9  10
ENDBRANCH   8   9
ENDBRANCH   7   8
ENDBRANCH   6   7
ENDBRANCH   5   6
ENDBRANCH   4   5
ENDBRANCH   3   4
ENDBRANCH   2   3
ENDBRANCH   1   2
BRANCH   1  17
ATOM     17  C   UNL     1      26.218  25.956  22.246  1.00  0.00     0.000 C 
BRANCH  17  18
ATOM     18  C   UNL     1      25.710  25.136  23.446  1.00  0.00     0.000 C 
BRANCH  18  19
ATOM     19  C   UNL     1      25.376  26.012  24.666  1.00  0.00     0.000 C 
BRANCH  19  20
ATOM     20  C   UNL     1      24.013  26.716  24.537  1.00  0.00     0.000 C 
BRANCH  20  21
ATOM     21  C   UNL     1      22.826  25.930  25.124  1.00  0.00     0.000 C 
BRANCH  21  22
ATOM     22  C   UNL     1      22.716  24.503  24.555  1.00  0.00     0.000 C 
BRANCH  22  23
ATOM     23  C   UNL     1      21.392  23.819  24.931  1.00  0.00     0.000 C 
BRANCH  23  24
ATOM     24  C   UNL     1      20.698  23.158  23.727  1.00  0.00     0.000 C 
BRANCH  24  25
ATOM     25  C   UNL     1      21.586  22.102  23.040  1.00  0.00     0.000 C 
BRANCH  25  26
ATOM     26  C   UNL     1      20.942  21.444  21.804  1.00  0.00     0.000 C 
BRANCH  26  27
ATOM     27  C   UNL     1      20.812  19.909  21.903  1.00  0.00     0.002 C 
BRANCH  27  28
ATOM     28  C   UNL     1      19.443  19.386  21.432  1.00  0.00     0.028 C 
BRANCH  28  29
ATOM     29  C   UNL     1      19.318  17.867  21.592  1.00  0.00     0.156 C 
BRANCH  29  30
ATOM     30  O   UNL     1      18.430  17.355  20.637  1.00  0.00    -0.396 OA
ATOM     31  H   UNL     1      18.874  16.564  20.233  1.00  0.00     0.210 HD
ENDBRANCH  29  30
ENDBRANCH  28  29
ENDBRANCH  27  28
ENDBRANCH  26  27
ENDBRANCH  25  26
ENDBRANCH  24  25
ENDBRANCH  23  24
ENDBRANCH  22  23
ENDBRANCH  21  22
ENDBRANCH  20  21
ENDBRANCH  19  20
ENDBRANCH  18  19
ENDBRANCH  17  18
ENDBRANCH   1  17
TORSDOF 28
ENDMDL
