MODEL 1
REMARK VINA RESULT:    -3.625      0.000      0.000
REMARK INTER + INTRA:          -9.108
REMARK INTER:                  -6.592
REMARK INTRA:                  -2.515
REMARK UNBOUND:                -2.515
REMARK SMILES CCCCCC=CCC=CCCCCCCCC(=O)[O-]
REMARK SMILES IDX 11 1 12 2 13 3 14 4 15 5 16 6 17 7 18 8 19 9 20 10 10 11
REMARK SMILES IDX 9 12 8 13 7 14 6 15 5 16 4 17 3 18 2 19 1 20
REMARK H PARENT
REMARK Flexibility Score: inf
ROOT
ATOM      1  C   UNL     1      -7.222  28.069 -22.479  1.00  0.00     0.027 C 
ENDROOT
BRANCH   1   2
ATOM      2  C   UNL     1      -8.414  28.399 -21.575  1.00  0.00     0.004 C 
BRANCH   2   3
ATOM      3  C   UNL     1      -9.359  27.197 -21.438  1.00  0.00     0.000 C 
BRANCH   3   4
ATOM      4  C   UNL     1      -9.025  26.075 -22.446  1.00  0.00     0.000 C 
BRANCH   4   5
ATOM      5  C   UNL     1      -8.784  24.702 -21.790  1.00  0.00     0.000 C 
BRANCH   5   6
ATOM      6  C   UNL     1      -8.669  24.727 -20.257  1.00  0.00     0.006 C 
BRANCH   6   7
ATOM      7  C   UNL     1      -7.742  23.633 -19.714  1.00  0.00     0.053 C 
BRANCH   7   8
ATOM      8  C   UNL     1      -8.068  23.335 -18.285  1.00  0.00     0.041 C 
ATOM      9  O   UNL     1      -7.856  22.187 -17.811  1.00  0.00    -0.550 OA
ATOM     10  O   UNL     1      -8.619  24.324 -17.476  1.00  0.00    -0.550 OA
ENDBRANCH   7   8
ENDBRANCH   6   7
ENDBRANCH   5   6
ENDBRANCH   4   5
ENDBRANCH   3   4
ENDBRANCH   2   3
ENDBRANCH   1   2
BRANCH   1  11
ATOM     11  C   UNL     1      -6.738  29.308 -23.188  1.00  0.00    -0.031 C 
ATOM     12  C   UNL     1      -5.581  29.936 -22.914  1.00  0.00    -0.027 C 
BRANCH  12  13
ATOM     13  C   UNL     1      -4.558  29.426 -21.930  1.00  0.00     0.054 C 
BRANCH  13  14
ATOM     14  C   UNL     1      -3.603  28.467 -22.594  1.00  0.00    -0.027 C 
ATOM     15  C   UNL     1      -3.483  27.161 -22.282  1.00  0.00    -0.031 C 
BRANCH  15  16
ATOM     16  C   UNL     1      -4.270  26.453 -21.207  1.00  0.00     0.027 C 
BRANCH  16  17
ATOM     17  C   UNL     1      -4.799  25.107 -21.713  1.00  0.00     0.004 C 
BRANCH  17  18
ATOM     18  C   UNL     1      -5.116  25.166 -23.214  1.00  0.00     0.000 C 
BRANCH  18  19
ATOM     19  C   UNL     1      -5.857  23.903 -23.666  1.00  0.00    -0.003 C 
ATOM     20  C   UNL     1      -5.597  22.737 -22.714  1.00  0.00     0.004 C 
ENDBRANCH  18  19
ENDBRANCH  17  18
ENDBRANCH  16  17
ENDBRANCH  15  16
ENDBRANCH  13  14
ENDBRANCH  12  13
ENDBRANCH   1  11
TORSDOF 14
ENDMDL
MODEL 2
REMARK VINA RESULT:    -3.562      1.446      2.859
REMARK INTER + INTRA:          -8.992
REMARK INTER:                  -6.400
REMARK INTRA:                  -2.592
REMARK UNBOUND:                -2.515
REMARK SMILES CCCCCC=CCC=CCCCCCCCC(=O)[O-]
REMARK SMILES IDX 11 1 12 2 13 3 14 4 15 5 16 6 17 7 18 8 19 9 20 10 10 11
REMARK SMILES IDX 9 12 8 13 7 14 6 15 5 16 4 17 3 18 2 19 1 20
REMARK H PARENT
REMARK Flexibility Score: inf
ROOT
ATOM      1  C   UNL     1      -7.404  28.190 -22.857  1.00  0.00     0.027 C 
ENDROOT
BRANCH   1   2
ATOM      2  C   UNL     1      -8.321  28.375 -21.644  1.00  0.00     0.004 C 
BRANCH   2   3
ATOM      3  C   UNL     1      -9.315  27.212 -21.516  1.00  0.00     0.000 C 
BRANCH   3   4
ATOM      4  C   UNL     1      -9.027  26.083 -22.530  1.00  0.00     0.000 C 
BRANCH   4   5
ATOM      5  C   UNL     1      -8.755  24.715 -21.876  1.00  0.00     0.000 C 
BRANCH   5   6
ATOM      6  C   UNL     1      -8.635  24.741 -20.344  1.00  0.00     0.006 C 
BRANCH   6   7
ATOM      7  C   UNL     1      -7.825  23.562 -19.791  1.00  0.00     0.053 C 
BRANCH   7   8
ATOM      8  C   UNL     1      -8.539  22.932 -18.638  1.00  0.00     0.041 C 
ATOM      9  O   UNL     1      -7.917  22.185 -17.838  1.00  0.00    -0.550 OA
ATOM     10  O   UNL     1      -9.899  23.162 -18.453  1.00  0.00    -0.550 OA
ENDBRANCH   7   8
ENDBRANCH   6   7
ENDBRANCH   5   6
ENDBRANCH   4   5
ENDBRANCH   3   4
ENDBRANCH   2   3
ENDBRANCH   1   2
BRANCH   1  11
ATOM     11  C   UNL     1      -5.996  28.609 -22.523  1.00  0.00    -0.031 C 
ATOM     12  C   UNL     1      -4.958  27.761 -22.406  1.00  0.00    -0.027 C 
BRANCH  12  13
ATOM     13  C   UNL     1      -5.041  26.284 -22.696  1.00  0.00     0.054 C 
BRANCH  13  14
ATOM     14  C   UNL     1      -5.232  25.495 -21.425  1.00  0.00    -0.027 C 
ATOM     15  C   UNL     1      -4.302  24.691 -20.873  1.00  0.00    -0.031 C 
BRANCH  15  16
ATOM     16  C   UNL     1      -2.929  24.435 -21.444  1.00  0.00     0.027 C 
BRANCH  16  17
ATOM     17  C   UNL     1      -1.875  25.299 -20.745  1.00  0.00     0.004 C 
BRANCH  17  18
ATOM     18  C   UNL     1      -1.452  26.479 -21.631  1.00  0.00     0.000 C 
BRANCH  18  19
ATOM     19  C   UNL     1      -1.467  27.791 -20.837  1.00  0.00    -0.003 C 
ATOM     20  C   UNL     1      -2.444  27.718 -19.666  1.00  0.00     0.004 C 
ENDBRANCH  18  19
ENDBRANCH  17  18
ENDBRANCH  16  17
ENDBRANCH  15  16
ENDBRANCH  13  14
ENDBRANCH  12  13
ENDBRANCH   1  11
TORSDOF 14
ENDMDL
MODEL 3
REMARK VINA RESULT:    -3.434      2.261      4.477
REMARK INTER + INTRA:          -8.760
REMARK INTER:                  -5.988
REMARK INTRA:                  -2.773
REMARK UNBOUND:                -2.515
REMARK SMILES CCCCCC=CCC=CCCCCCCCC(=O)[O-]
REMARK SMILES IDX 11 1 12 2 13 3 14 4 15 5 16 6 17 7 18 8 19 9 20 10 10 11
REMARK SMILES IDX 9 12 8 13 7 14 6 15 5 16 4 17 3 18 2 19 1 20
REMARK H PARENT
REMARK Flexibility Score: inf
ROOT
ATOM      1  C   UNL     1      -7.103  28.543 -22.915  1.00  0.00     0.027 C 
ENDROOT
BRANCH   1   2
ATOM      2  C   UNL     1      -5.599  28.562 -22.622  1.00  0.00     0.004 C 
BRANCH   2   3
ATOM      3  C   UNL     1      -5.098  27.174 -22.198  1.00  0.00     0.000 C 
BRANCH   3   4
ATOM      4  C   UNL     1      -5.638  26.053 -23.113  1.00  0.00     0.000 C 
BRANCH   4   5
ATOM      5  C   UNL     1      -5.264  24.634 -22.646  1.00  0.00     0.000 C 
BRANCH   5   6
ATOM      6  C   UNL     1      -5.226  24.443 -21.121  1.00  0.00     0.006 C 
BRANCH   6   7
ATOM      7  C   UNL     1      -3.876  23.913 -20.623  1.00  0.00     0.053 C 
BRANCH   7   8
ATOM      8  C   UNL     1      -4.075  22.719 -19.746  1.00  0.00     0.041 C 
ATOM      9  O   UNL     1      -3.164  22.353 -18.956  1.00  0.00    -0.550 OA
ATOM     10  O   UNL     1      -5.265  22.001 -19.808  1.00  0.00    -0.550 OA
ENDBRANCH   7   8
ENDBRANCH   6   7
ENDBRANCH   5   6
ENDBRANCH   4   5
ENDBRANCH   3   4
ENDBRANCH   2   3
ENDBRANCH   1   2
BRANCH   1  11
ATOM     11  C   UNL     1      -7.890  28.713 -21.641  1.00  0.00    -0.031 C 
ATOM     12  C   UNL     1      -8.925  27.933 -21.279  1.00  0.00    -0.027 C 
BRANCH  12  13
ATOM     13  C   UNL     1      -9.374  26.717 -22.049  1.00  0.00     0.054 C 
BRANCH  13  14
ATOM     14  C   UNL     1      -8.814  25.457 -21.440  1.00  0.00    -0.027 C 
ATOM     15  C   UNL     1      -8.847  24.241 -22.021  1.00  0.00    -0.031 C 
BRANCH  15  16
ATOM     16  C   UNL     1      -9.465  23.941 -23.364  1.00  0.00     0.027 C 
BRANCH  16  17
ATOM     17  C   UNL     1      -8.395  23.517 -24.376  1.00  0.00     0.004 C 
BRANCH  17  18
ATOM     18  C   UNL     1      -8.537  24.299 -25.689  1.00  0.00     0.000 C 
BRANCH  18  19
ATOM     19  C   UNL     1      -9.010  25.733 -25.422  1.00  0.00    -0.003 C 
ATOM     20  C   UNL     1      -8.007  26.755 -25.952  1.00  0.00     0.004 C 
ENDBRANCH  18  19
ENDBRANCH  17  18
ENDBRANCH  16  17
ENDBRANCH  15  16
ENDBRANCH  13  14
ENDBRANCH  12  13
ENDBRANCH   1  11
TORSDOF 14
ENDMDL
MODEL 4
REMARK VINA RESULT:    -3.383      1.787      2.490
REMARK INTER + INTRA:          -8.667
REMARK INTER:                  -5.887
REMARK INTRA:                  -2.781
REMARK UNBOUND:                -2.515
REMARK SMILES CCCCCC=CCC=CCCCCCCCC(=O)[O-]
REMARK SMILES IDX 11 1 12 2 13 3 14 4 15 5 16 6 17 7 18 8 19 9 20 10 10 11
REMARK SMILES IDX 9 12 8 13 7 14 6 15 5 16 4 17 3 18 2 19 1 20
REMARK H PARENT
REMARK Flexibility Score: inf
ROOT
ATOM      1  C   UNL     1      -7.646  26.438 -25.551  1.00  0.00     0.027 C 
ENDROOT
BRANCH   1   2
ATOM      2  C   UNL     1      -9.009  25.946 -25.054  1.00  0.00     0.004 C 
BRANCH   2   3
ATOM      3  C   UNL     1      -8.917  25.408 -23.619  1.00  0.00     0.000 C 
BRANCH   3   4
ATOM      4  C   UNL     1      -9.362  26.455 -22.574  1.00  0.00     0.000 C 
BRANCH   4   5
ATOM      5  C   UNL     1      -8.849  26.169 -21.150  1.00  0.00     0.000 C 
BRANCH   5   6
ATOM      6  C   UNL     1      -8.441  24.710 -20.889  1.00  0.00     0.006 C 
BRANCH   6   7
ATOM      7  C   UNL     1      -8.881  24.209 -19.508  1.00  0.00     0.053 C 
BRANCH   7   8
ATOM      8  C   UNL     1      -7.789  23.411 -18.870  1.00  0.00     0.041 C 
ATOM      9  O   UNL     1      -8.028  22.710 -17.851  1.00  0.00    -0.550 OA
ATOM     10  O   UNL     1      -6.501  23.449 -19.395  1.00  0.00    -0.550 OA
ENDBRANCH   7   8
ENDBRANCH   6   7
ENDBRANCH   5   6
ENDBRANCH   4   5
ENDBRANCH   3   4
ENDBRANCH   2   3
ENDBRANCH   1   2
BRANCH   1  11
ATOM     11  C   UNL     1      -7.802  27.707 -26.349  1.00  0.00    -0.031 C 
ATOM     12  C   UNL     1      -7.177  28.864 -26.065  1.00  0.00    -0.027 C 
BRANCH  12  13
ATOM     13  C   UNL     1      -6.152  29.021 -24.970  1.00  0.00     0.054 C 
BRANCH  13  14
ATOM     14  C   UNL     1      -6.820  29.177 -23.627  1.00  0.00    -0.027 C 
ATOM     15  C   UNL     1      -6.336  28.690 -22.467  1.00  0.00    -0.031 C 
BRANCH  15  16
ATOM     16  C   UNL     1      -5.061  27.896 -22.326  1.00  0.00     0.027 C 
BRANCH  16  17
ATOM     17  C   UNL     1      -5.361  26.442 -21.943  1.00  0.00     0.004 C 
BRANCH  17  18
ATOM     18  C   UNL     1      -5.135  25.500 -23.133  1.00  0.00     0.000 C 
BRANCH  18  19
ATOM     19  C   UNL     1      -5.051  24.042 -22.667  1.00  0.00    -0.003 C 
ATOM     20  C   UNL     1      -6.076  23.170 -23.389  1.00  0.00     0.004 C 
ENDBRANCH  18  19
ENDBRANCH  17  18
ENDBRANCH  16  17
ENDBRANCH  15  16
ENDBRANCH  13  14
ENDBRANCH  12  13
ENDBRANCH   1  11
TORSDOF 14
ENDMDL
MODEL 5
REMARK VINA RESULT:    -3.372      2.422      4.155
REMARK INTER + INTRA:          -8.647
REMARK INTER:                  -5.714
REMARK INTRA:                  -2.934
REMARK UNBOUND:                -2.515
REMARK SMILES CCCCCC=CCC=CCCCCCCCC(=O)[O-]
REMARK SMILES IDX 11 1 12 2 13 3 14 4 15 5 16 6 17 7 18 8 19 9 20 10 10 11
REMARK SMILES IDX 9 12 8 13 7 14 6 15 5 16 4 17 3 18 2 19 1 20
REMARK H PARENT
REMARK Flexibility Score: inf
ROOT
ATOM      1  C   UNL     1      -9.369  26.350 -22.508  1.00  0.00     0.027 C 
ENDROOT
BRANCH   1   2
ATOM      2  C   UNL     1      -8.903  26.054 -21.079  1.00  0.00     0.004 C 
BRANCH   2   3
ATOM      3  C   UNL     1      -8.389  24.613 -20.948  1.00  0.00     0.000 C 
BRANCH   3   4
ATOM      4  C   UNL     1      -8.666  24.020 -19.548  1.00  0.00     0.000 C 
BRANCH   4   5
ATOM      5  C   UNL     1      -7.509  23.166 -18.995  1.00  0.00     0.000 C 
BRANCH   5   6
ATOM      6  C   UNL     1      -6.406  22.832 -20.013  1.00  0.00     0.006 C 
BRANCH   6   7
ATOM      7  C   UNL     1      -5.077  23.529 -19.698  1.00  0.00     0.053 C 
BRANCH   7   8
ATOM      8  C   UNL     1      -3.927  22.693 -20.161  1.00  0.00     0.041 C 
ATOM      9  O   UNL     1      -3.701  22.552 -21.392  1.00  0.00    -0.550 OA
ATOM     10  O   UNL     1      -3.109  22.059 -19.232  1.00  0.00    -0.550 OA
ENDBRANCH   7   8
ENDBRANCH   6   7
ENDBRANCH   5   6
ENDBRANCH   4   5
ENDBRANCH   3   4
ENDBRANCH   2   3
ENDBRANCH   1   2
BRANCH   1  11
ATOM     11  C   UNL     1      -8.995  25.218 -23.429  1.00  0.00    -0.031 C 
ATOM     12  C   UNL     1      -8.689  25.367 -24.731  1.00  0.00    -0.027 C 
BRANCH  12  13
ATOM     13  C   UNL     1      -8.579  26.703 -25.422  1.00  0.00     0.054 C 
BRANCH  13  14
ATOM     14  C   UNL     1      -7.138  27.046 -25.703  1.00  0.00    -0.027 C 
ATOM     15  C   UNL     1      -6.447  28.026 -25.087  1.00  0.00    -0.031 C 
BRANCH  15  16
ATOM     16  C   UNL     1      -7.006  28.948 -24.033  1.00  0.00     0.027 C 
BRANCH  16  17
ATOM     17  C   UNL     1      -6.527  28.539 -22.636  1.00  0.00     0.004 C 
BRANCH  17  18
ATOM     18  C   UNL     1      -5.199  27.773 -22.710  1.00  0.00     0.000 C 
BRANCH  18  19
ATOM     19  C   UNL     1      -5.299  26.434 -21.971  1.00  0.00    -0.003 C 
ATOM     20  C   UNL     1      -5.284  25.259 -22.947  1.00  0.00     0.004 C 
ENDBRANCH  18  19
ENDBRANCH  17  18
ENDBRANCH  16  17
ENDBRANCH  15  16
ENDBRANCH  13  14
ENDBRANCH  12  13
ENDBRANCH   1  11
TORSDOF 14
ENDMDL
MODEL 6
REMARK VINA RESULT:    -3.370      1.291      2.446
REMARK INTER + INTRA:          -8.644
REMARK INTER:                  -6.175
REMARK INTRA:                  -2.469
REMARK UNBOUND:                -2.515
REMARK SMILES CCCCCC=CCC=CCCCCCCCC(=O)[O-]
REMARK SMILES IDX 11 1 12 2 13 3 14 4 15 5 16 6 17 7 18 8 19 9 20 10 10 11
REMARK SMILES IDX 9 12 8 13 7 14 6 15 5 16 4 17 3 18 2 19 1 20
REMARK H PARENT
REMARK Flexibility Score: inf
ROOT
ATOM      1  C   UNL     1      -7.783  28.366 -21.989  1.00  0.00     0.027 C 
ENDROOT
BRANCH   1   2
ATOM      2  C   UNL     1      -8.841  27.318 -21.630  1.00  0.00     0.004 C 
BRANCH   2   3
ATOM      3  C   UNL     1      -9.068  26.335 -22.787  1.00  0.00     0.000 C 
BRANCH   3   4
ATOM      4  C   UNL     1      -8.993  24.863 -22.325  1.00  0.00     0.000 C 
BRANCH   4   5
ATOM      5  C   UNL     1      -7.562  24.378 -22.026  1.00  0.00     0.000 C 
BRANCH   5   6
ATOM      6  C   UNL     1      -7.264  24.112 -20.542  1.00  0.00     0.006 C 
BRANCH   6   7
ATOM      7  C   UNL     1      -8.525  24.138 -19.669  1.00  0.00     0.053 C 
BRANCH   7   8
ATOM      8  C   UNL     1      -8.797  22.780 -19.105  1.00  0.00     0.041 C 
ATOM      9  O   UNL     1      -9.507  21.958 -19.743  1.00  0.00    -0.550 OA
ATOM     10  O   UNL     1      -8.274  22.424 -17.866  1.00  0.00    -0.550 OA
ENDBRANCH   7   8
ENDBRANCH   6   7
ENDBRANCH   5   6
ENDBRANCH   4   5
ENDBRANCH   3   4
ENDBRANCH   2   3
ENDBRANCH   1   2
BRANCH   1  11
ATOM     11  C   UNL     1      -7.239  28.112 -23.371  1.00  0.00    -0.031 C 
ATOM     12  C   UNL     1      -6.618  29.038 -24.125  1.00  0.00    -0.027 C 
BRANCH  12  13
ATOM     13  C   UNL     1      -6.290  30.430 -23.647  1.00  0.00     0.054 C 
BRANCH  13  14
ATOM     14  C   UNL     1      -4.821  30.725 -23.820  1.00  0.00    -0.027 C 
ATOM     15  C   UNL     1      -3.880  30.524 -22.876  1.00  0.00    -0.031 C 
BRANCH  15  16
ATOM     16  C   UNL     1      -4.145  29.989 -21.491  1.00  0.00     0.027 C 
BRANCH  16  17
ATOM     17  C   UNL     1      -3.327  28.721 -21.227  1.00  0.00     0.004 C 
BRANCH  17  18
ATOM     18  C   UNL     1      -3.675  27.619 -22.239  1.00  0.00     0.000 C 
BRANCH  18  19
ATOM     19  C   UNL     1      -4.555  26.543 -21.592  1.00  0.00    -0.003 C 
ATOM     20  C   UNL     1      -3.710  25.507 -20.854  1.00  0.00     0.004 C 
ENDBRANCH  18  19
ENDBRANCH  17  18
ENDBRANCH  16  17
ENDBRANCH  15  16
ENDBRANCH  13  14
ENDBRANCH  12  13
ENDBRANCH   1  11
TORSDOF 14
ENDMDL
MODEL 7
REMARK VINA RESULT:    -3.370      1.735      4.065
REMARK INTER + INTRA:          -8.643
REMARK INTER:                  -6.052
REMARK INTRA:                  -2.591
REMARK UNBOUND:                -2.515
REMARK SMILES CCCCCC=CCC=CCCCCCCCC(=O)[O-]
REMARK SMILES IDX 11 1 12 2 13 3 14 4 15 5 16 6 17 7 18 8 19 9 20 10 10 11
REMARK SMILES IDX 9 12 8 13 7 14 6 15 5 16 4 17 3 18 2 19 1 20
REMARK H PARENT
REMARK Flexibility Score: inf
ROOT
ATOM      1  C   UNL     1      -7.561  24.340 -23.492  1.00  0.00     0.027 C 
ENDROOT
BRANCH   1   2
ATOM      2  C   UNL     1      -7.803  22.831 -23.601  1.00  0.00     0.004 C 
BRANCH   2   3
ATOM      3  C   UNL     1      -9.079  22.416 -22.853  1.00  0.00     0.000 C 
BRANCH   3   4
ATOM      4  C   UNL     1      -8.781  21.928 -21.418  1.00  0.00     0.000 C 
BRANCH   4   5
ATOM      5  C   UNL     1      -9.189  22.932 -20.323  1.00  0.00     0.000 C 
BRANCH   5   6
ATOM      6  C   UNL     1      -8.077  23.289 -19.324  1.00  0.00     0.006 C 
BRANCH   6   7
ATOM      7  C   UNL     1      -6.688  23.335 -19.972  1.00  0.00     0.053 C 
BRANCH   7   8
ATOM      8  C   UNL     1      -5.803  22.281 -19.387  1.00  0.00     0.041 C 
ATOM      9  O   UNL     1      -6.298  21.340 -18.711  1.00  0.00    -0.550 OA
ATOM     10  O   UNL     1      -4.427  22.342 -19.579  1.00  0.00    -0.550 OA
ENDBRANCH   7   8
ENDBRANCH   6   7
ENDBRANCH   5   6
ENDBRANCH   4   5
ENDBRANCH   3   4
ENDBRANCH   2   3
ENDBRANCH   1   2
BRANCH   1  11
ATOM     11  C   UNL     1      -8.846  25.097 -23.709  1.00  0.00    -0.031 C 
ATOM     12  C   UNL     1      -9.368  25.973 -22.832  1.00  0.00    -0.027 C 
BRANCH  12  13
ATOM     13  C   UNL     1      -8.685  26.395 -21.555  1.00  0.00     0.054 C 
BRANCH  13  14
ATOM     14  C   UNL     1      -8.698  27.896 -21.409  1.00  0.00    -0.027 C 
ATOM     15  C   UNL     1      -7.831  28.734 -22.011  1.00  0.00    -0.031 C 
BRANCH  15  16
ATOM     16  C   UNL     1      -6.699  28.308 -22.912  1.00  0.00     0.027 C 
BRANCH  16  17
ATOM     17  C   UNL     1      -5.392  29.001 -22.514  1.00  0.00     0.004 C 
BRANCH  17  18
ATOM     18  C   UNL     1      -4.369  27.986 -21.983  1.00  0.00     0.000 C 
BRANCH  18  19
ATOM     19  C   UNL     1      -4.908  26.556 -22.101  1.00  0.00    -0.003 C 
ATOM     20  C   UNL     1      -4.129  25.595 -21.205  1.00  0.00     0.004 C 
ENDBRANCH  18  19
ENDBRANCH  17  18
ENDBRANCH  16  17
ENDBRANCH  15  16
ENDBRANCH  13  14
ENDBRANCH  12  13
ENDBRANCH   1  11
TORSDOF 14
ENDMDL
MODEL 8
REMARK VINA RESULT:    -3.332      0.964      3.493
REMARK INTER + INTRA:          -8.575
REMARK INTER:                  -6.383
REMARK INTRA:                  -2.192
REMARK UNBOUND:                -2.515
REMARK SMILES CCCCCC=CCC=CCCCCCCCC(=O)[O-]
REMARK SMILES IDX 11 1 12 2 13 3 14 4 15 5 16 6 17 7 18 8 19 9 20 10 10 11
REMARK SMILES IDX 9 12 8 13 7 14 6 15 5 16 4 17 3 18 2 19 1 20
REMARK H PARENT
REMARK Flexibility Score: inf
ROOT
ATOM      1  C   UNL     1      -3.897  26.919 -22.334  1.00  0.00     0.027 C 
ENDROOT
BRANCH   1   2
ATOM      2  C   UNL     1      -3.683  26.376 -20.917  1.00  0.00     0.004 C 
BRANCH   2   3
ATOM      3  C   UNL     1      -4.335  24.997 -20.745  1.00  0.00     0.000 C 
BRANCH   3   4
ATOM      4  C   UNL     1      -5.151  24.578 -21.988  1.00  0.00     0.000 C 
BRANCH   4   5
ATOM      5  C   UNL     1      -6.503  23.920 -21.651  1.00  0.00     0.000 C 
BRANCH   5   6
ATOM      6  C   UNL     1      -6.704  23.575 -20.166  1.00  0.00     0.006 C 
BRANCH   6   7
ATOM      7  C   UNL     1      -8.141  23.816 -19.690  1.00  0.00     0.053 C 
BRANCH   7   8
ATOM      8  C   UNL     1      -8.271  23.493 -18.236  1.00  0.00     0.041 C 
ATOM      9  O   UNL     1      -8.603  24.388 -17.414  1.00  0.00    -0.550 OA
ATOM     10  O   UNL     1      -8.012  22.203 -17.784  1.00  0.00    -0.550 OA
ENDBRANCH   7   8
ENDBRANCH   6   7
ENDBRANCH   5   6
ENDBRANCH   4   5
ENDBRANCH   3   4
ENDBRANCH   2   3
ENDBRANCH   1   2
BRANCH   1  11
ATOM     11  C   UNL     1      -2.901  28.008 -22.638  1.00  0.00    -0.031 C 
ATOM     12  C   UNL     1      -3.165  29.324 -22.552  1.00  0.00    -0.027 C 
BRANCH  12  13
ATOM     13  C   UNL     1      -4.465  29.890 -22.039  1.00  0.00     0.054 C 
BRANCH  13  14
ATOM     14  C   UNL     1      -5.445  30.096 -23.167  1.00  0.00    -0.027 C 
ATOM     15  C   UNL     1      -6.713  29.639 -23.178  1.00  0.00    -0.031 C 
BRANCH  15  16
ATOM     16  C   UNL     1      -7.352  28.834 -22.074  1.00  0.00     0.027 C 
BRANCH  16  17
ATOM     17  C   UNL     1      -7.597  27.389 -22.521  1.00  0.00     0.004 C 
BRANCH  17  18
ATOM     18  C   UNL     1      -8.954  26.878 -22.018  1.00  0.00     0.000 C 
BRANCH  18  19
ATOM     19  C   UNL     1      -9.405  25.648 -22.814  1.00  0.00    -0.003 C 
ATOM     20  C   UNL     1      -8.972  25.746 -24.276  1.00  0.00     0.004 C 
ENDBRANCH  18  19
ENDBRANCH  17  18
ENDBRANCH  16  17
ENDBRANCH  15  16
ENDBRANCH  13  14
ENDBRANCH  12  13
ENDBRANCH   1  11
TORSDOF 14
ENDMDL
MODEL 9
REMARK VINA RESULT:    -3.319      2.658      4.757
REMARK INTER + INTRA:          -8.551
REMARK INTER:                  -6.132
REMARK INTRA:                  -2.419
REMARK UNBOUND:                -2.515
REMARK SMILES CCCCCC=CCC=CCCCCCCCC(=O)[O-]
REMARK SMILES IDX 11 1 12 2 13 3 14 4 15 5 16 6 17 7 18 8 19 9 20 10 10 11
REMARK SMILES IDX 9 12 8 13 7 14 6 15 5 16 4 17 3 18 2 19 1 20
REMARK H PARENT
REMARK Flexibility Score: inf
ROOT
ATOM      1  C   UNL     1      -8.781  22.964 -22.449  1.00  0.00     0.027 C 
ENDROOT
BRANCH   1   2
ATOM      2  C   UNL     1      -9.873  22.218 -21.674  1.00  0.00     0.004 C 
BRANCH   2   3
ATOM      3  C   UNL     1      -9.451  21.967 -20.219  1.00  0.00     0.000 C 
BRANCH   3   4
ATOM      4  C   UNL     1      -9.517  23.251 -19.363  1.00  0.00     0.000 C 
BRANCH   4   5
ATOM      5  C   UNL     1      -8.176  23.628 -18.705  1.00  0.00     0.000 C 
BRANCH   5   6
ATOM      6  C   UNL     1      -6.984  22.748 -19.112  1.00  0.00     0.006 C 
BRANCH   6   7
ATOM      7  C   UNL     1      -5.983  23.482 -20.012  1.00  0.00     0.053 C 
BRANCH   7   8
ATOM      8  C   UNL     1      -5.078  22.505 -20.693  1.00  0.00     0.041 C 
ATOM      9  O   UNL     1      -5.431  21.959 -21.772  1.00  0.00    -0.550 OA
ATOM     10  O   UNL     1      -3.847  22.188 -20.129  1.00  0.00    -0.550 OA
ENDBRANCH   7   8
ENDBRANCH   6   7
ENDBRANCH   5   6
ENDBRANCH   4   5
ENDBRANCH   3   4
ENDBRANCH   2   3
ENDBRANCH   1   2
BRANCH   1  11
ATOM     11  C   UNL     1      -9.382  24.078 -23.266  1.00  0.00    -0.031 C 
ATOM     12  C   UNL     1      -9.373  25.374 -22.905  1.00  0.00    -0.027 C 
BRANCH  12  13
ATOM     13  C   UNL     1      -8.668  25.903 -21.682  1.00  0.00     0.054 C 
BRANCH  13  14
ATOM     14  C   UNL     1      -9.058  27.334 -21.412  1.00  0.00    -0.027 C 
ATOM     15  C   UNL     1      -8.312  28.409 -21.737  1.00  0.00    -0.031 C 
BRANCH  15  16
ATOM     16  C   UNL     1      -6.960  28.355 -22.404  1.00  0.00     0.027 C 
BRANCH  16  17
ATOM     17  C   UNL     1      -7.063  28.739 -23.883  1.00  0.00     0.004 C 
BRANCH  17  18
ATOM     18  C   UNL     1      -6.124  27.881 -24.743  1.00  0.00     0.000 C 
BRANCH  18  19
ATOM     19  C   UNL     1      -6.747  26.509 -25.030  1.00  0.00    -0.003 C 
ATOM     20  C   UNL     1      -7.882  26.618 -26.046  1.00  0.00     0.004 C 
ENDBRANCH  18  19
ENDBRANCH  17  18
ENDBRANCH  16  17
ENDBRANCH  15  16
ENDBRANCH  13  14
ENDBRANCH  12  13
ENDBRANCH   1  11
TORSDOF 14
ENDMDL
