MODEL 1
REMARK VINA RESULT:    -4.408      0.000      0.000
REMARK INTER + INTRA:          -7.842
REMARK INTER:                  -6.985
REMARK INTRA:                  -0.858
REMARK UNBOUND:                -0.858
REMARK SMILES CCCCCCCCCCCC(=O)[O-]
REMARK SMILES IDX 7 1 8 2 9 3 10 4 11 5 12 6 13 7 14 8 6 9 5 10 4 11 3 12 2 13
REMARK SMILES IDX 1 14
REMARK H PARENT
REMARK Flexibility Score: inf
ROOT
ATOM      1  C   UNL     1      40.177  -9.283  25.292  1.00  0.00     0.000 C 
ENDROOT
BRANCH   1   2
ATOM      2  C   UNL     1      41.133 -10.395  25.751  1.00  0.00     0.000 C 
BRANCH   2   3
ATOM      3  C   UNL     1      40.553 -11.239  26.895  1.00  0.00     0.000 C 
BRANCH   3   4
ATOM      4  C   UNL     1      41.339 -12.549  27.063  1.00  0.00     0.006 C 
BRANCH   4   5
ATOM      5  C   UNL     1      42.828 -12.379  26.732  1.00  0.00     0.053 C 
BRANCH   5   6
ATOM      6  C   UNL     1      43.668 -13.429  27.392  1.00  0.00     0.041 C 
ATOM      7  O   UNL     1      43.399 -13.814  28.560  1.00  0.00    -0.550 OA
ATOM      8  O   UNL     1      44.769 -13.958  26.730  1.00  0.00    -0.550 OA
ENDBRANCH   5   6
ENDBRANCH   4   5
ENDBRANCH   3   4
ENDBRANCH   2   3
ENDBRANCH   1   2
BRANCH   1   9
ATOM      9  C   UNL     1      38.862  -9.266  26.085  1.00  0.00     0.000 C 
BRANCH   9  10
ATOM     10  C   UNL     1      37.656  -9.131  25.147  1.00  0.00    -0.000 C 
BRANCH  10  11
ATOM     11  C   UNL     1      36.385  -9.693  25.800  1.00  0.00    -0.000 C 
BRANCH  11  12
ATOM     12  C   UNL     1      36.614 -11.053  26.485  1.00  0.00    -0.000 C 
BRANCH  12  13
ATOM     13  C   UNL     1      36.347 -11.066  28.001  1.00  0.00    -0.003 C 
ATOM     14  C   UNL     1      37.400 -11.848  28.786  1.00  0.00     0.004 C 
ENDBRANCH  12  13
ENDBRANCH  11  12
ENDBRANCH  10  11
ENDBRANCH   9  10
ENDBRANCH   1   9
TORSDOF 10
ENDMDL
MODEL 2
REMARK VINA RESULT:    -4.311      3.015      4.680
REMARK INTER + INTRA:          -7.689
REMARK INTER:                  -6.834
REMARK INTRA:                  -0.855
REMARK UNBOUND:                -0.858
REMARK SMILES CCCCCCCCCCCC(=O)[O-]
REMARK SMILES IDX 7 1 8 2 9 3 10 4 11 5 12 6 13 7 14 8 6 9 5 10 4 11 3 12 2 13
REMARK SMILES IDX 1 14
REMARK H PARENT
REMARK Flexibility Score: inf
ROOT
ATOM      1  C   UNL     1      40.732 -12.033  29.668  1.00  0.00     0.000 C 
ENDROOT
BRANCH   1   2
ATOM      2  C   UNL     1      41.537 -12.827  28.628  1.00  0.00     0.000 C 
BRANCH   2   3
ATOM      3  C   UNL     1      40.936 -12.732  27.217  1.00  0.00     0.000 C 
BRANCH   3   4
ATOM      4  C   UNL     1      41.248 -11.370  26.579  1.00  0.00     0.006 C 
BRANCH   4   5
ATOM      5  C   UNL     1      40.075 -10.387  26.705  1.00  0.00     0.053 C 
BRANCH   5   6
ATOM      6  C   UNL     1      39.986  -9.473  25.522  1.00  0.00     0.041 C 
ATOM      7  O   UNL     1      38.901  -8.897  25.247  1.00  0.00    -0.550 OA
ATOM      8  O   UNL     1      41.092  -9.286  24.702  1.00  0.00    -0.550 OA
ENDBRANCH   5   6
ENDBRANCH   4   5
ENDBRANCH   3   4
ENDBRANCH   2   3
ENDBRANCH   1   2
BRANCH   1   9
ATOM      9  C   UNL     1      39.912 -12.938  30.601  1.00  0.00     0.000 C 
BRANCH   9  10
ATOM     10  C   UNL     1      38.579 -13.331  29.953  1.00  0.00    -0.000 C 
BRANCH  10  11
ATOM     11  C   UNL     1      37.438 -12.435  30.456  1.00  0.00    -0.000 C 
BRANCH  11  12
ATOM     12  C   UNL     1      36.874 -11.511  29.361  1.00  0.00    -0.000 C 
BRANCH  12  13
ATOM     13  C   UNL     1      37.351 -11.834  27.933  1.00  0.00    -0.003 C 
ATOM     14  C   UNL     1      36.509 -11.153  26.854  1.00  0.00     0.004 C 
ENDBRANCH  12  13
ENDBRANCH  11  12
ENDBRANCH  10  11
ENDBRANCH   9  10
ENDBRANCH   1   9
TORSDOF 10
ENDMDL
MODEL 3
REMARK VINA RESULT:    -4.295      1.583      3.542
REMARK INTER + INTRA:          -7.663
REMARK INTER:                  -6.638
REMARK INTRA:                  -1.025
REMARK UNBOUND:                -0.858
REMARK SMILES CCCCCCCCCCCC(=O)[O-]
REMARK SMILES IDX 7 1 8 2 9 3 10 4 11 5 12 6 13 7 14 8 6 9 5 10 4 11 3 12 2 13
REMARK SMILES IDX 1 14
REMARK H PARENT
REMARK Flexibility Score: inf
ROOT
ATOM      1  C   UNL     1      38.773 -13.061  29.367  1.00  0.00     0.000 C 
ENDROOT
BRANCH   1   2
ATOM      2  C   UNL     1      39.909 -12.644  30.313  1.00  0.00     0.000 C 
BRANCH   2   3
ATOM      3  C   UNL     1      41.174 -12.202  29.562  1.00  0.00     0.000 C 
BRANCH   3   4
ATOM      4  C   UNL     1      41.507 -13.181  28.426  1.00  0.00     0.006 C 
BRANCH   4   5
ATOM      5  C   UNL     1      42.079 -12.469  27.193  1.00  0.00     0.053 C 
BRANCH   5   6
ATOM      6  C   UNL     1      43.390 -13.056  26.770  1.00  0.00     0.041 C 
ATOM      7  O   UNL     1      44.209 -13.466  27.634  1.00  0.00    -0.550 OA
ATOM      8  O   UNL     1      43.723 -13.118  25.422  1.00  0.00    -0.550 OA
ENDBRANCH   5   6
ENDBRANCH   4   5
ENDBRANCH   3   4
ENDBRANCH   2   3
ENDBRANCH   1   2
BRANCH   1   9
ATOM      9  C   UNL     1      37.493 -12.237  29.577  1.00  0.00     0.000 C 
BRANCH   9  10
ATOM     10  C   UNL     1      37.126 -11.459  28.307  1.00  0.00    -0.000 C 
BRANCH  10  11
ATOM     11  C   UNL     1      38.250 -11.545  27.265  1.00  0.00    -0.000 C 
BRANCH  11  12
ATOM     12  C   UNL     1      39.162 -10.305  27.262  1.00  0.00    -0.000 C 
BRANCH  12  13
ATOM     13  C   UNL     1      39.224  -9.550  25.922  1.00  0.00    -0.003 C 
ATOM     14  C   UNL     1      40.637  -9.470  25.346  1.00  0.00     0.004 C 
ENDBRANCH  12  13
ENDBRANCH  11  12
ENDBRANCH  10  11
ENDBRANCH   9  10
ENDBRANCH   1   9
TORSDOF 10
ENDMDL
MODEL 4
REMARK VINA RESULT:    -4.277      3.661      5.636
REMARK INTER + INTRA:          -7.634
REMARK INTER:                  -6.539
REMARK INTRA:                  -1.095
REMARK UNBOUND:                -0.858
REMARK SMILES CCCCCCCCCCCC(=O)[O-]
REMARK SMILES IDX 7 1 8 2 9 3 10 4 11 5 12 6 13 7 14 8 6 9 5 10 4 11 3 12 2 13
REMARK SMILES IDX 1 14
REMARK H PARENT
REMARK Flexibility Score: inf
ROOT
ATOM      1  C   UNL     1      36.984 -11.774  29.402  1.00  0.00     0.000 C 
ENDROOT
BRANCH   1   2
ATOM      2  C   UNL     1      37.630 -11.571  28.023  1.00  0.00     0.000 C 
BRANCH   2   3
ATOM      3  C   UNL     1      38.910 -12.400  27.841  1.00  0.00     0.000 C 
BRANCH   3   4
ATOM      4  C   UNL     1      39.967 -11.611  27.053  1.00  0.00     0.006 C 
BRANCH   4   5
ATOM      5  C   UNL     1      39.737 -10.095  27.129  1.00  0.00     0.053 C 
BRANCH   5   6
ATOM      6  C   UNL     1      39.732  -9.464  25.771  1.00  0.00     0.041 C 
ATOM      7  O   UNL     1      38.651  -9.070  25.259  1.00  0.00    -0.550 OA
ATOM      8  O   UNL     1      40.916  -9.345  25.054  1.00  0.00    -0.550 OA
ENDBRANCH   5   6
ENDBRANCH   4   5
ENDBRANCH   3   4
ENDBRANCH   2   3
ENDBRANCH   1   2
BRANCH   1   9
ATOM      9  C   UNL     1      37.594 -12.954  30.175  1.00  0.00     0.000 C 
BRANCH   9  10
ATOM     10  C   UNL     1      37.662 -12.650  31.677  1.00  0.00    -0.000 C 
BRANCH  10  11
ATOM     11  C   UNL     1      38.960 -11.909  32.030  1.00  0.00    -0.000 C 
BRANCH  11  12
ATOM     12  C   UNL     1      40.202 -12.520  31.357  1.00  0.00    -0.000 C 
BRANCH  12  13
ATOM     13  C   UNL     1      41.279 -11.502  30.941  1.00  0.00    -0.003 C 
ATOM     14  C   UNL     1      41.829 -10.699  32.120  1.00  0.00     0.004 C 
ENDBRANCH  12  13
ENDBRANCH  11  12
ENDBRANCH  10  11
ENDBRANCH   9  10
ENDBRANCH   1   9
TORSDOF 10
ENDMDL
MODEL 5
REMARK VINA RESULT:    -4.256     11.538     13.576
REMARK INTER + INTRA:          -7.602
REMARK INTER:                  -6.380
REMARK INTRA:                  -1.222
REMARK UNBOUND:                -0.858
REMARK SMILES CCCCCCCCCCCC(=O)[O-]
REMARK SMILES IDX 7 1 8 2 9 3 10 4 11 5 12 6 13 7 14 8 6 9 5 10 4 11 3 12 2 13
REMARK SMILES IDX 1 14
REMARK H PARENT
REMARK Flexibility Score: inf
ROOT
ATOM      1  C   UNL     1      41.210  -0.897  20.103  1.00  0.00     0.000 C 
ENDROOT
BRANCH   1   2
ATOM      2  C   UNL     1      41.863  -0.430  21.412  1.00  0.00     0.000 C 
BRANCH   2   3
ATOM      3  C   UNL     1      43.385  -0.639  21.422  1.00  0.00     0.000 C 
BRANCH   3   4
ATOM      4  C   UNL     1      43.995  -0.165  22.750  1.00  0.00     0.006 C 
BRANCH   4   5
ATOM      5  C   UNL     1      43.187  -0.644  23.964  1.00  0.00     0.053 C 
BRANCH   5   6
ATOM      6  C   UNL     1      44.027  -1.443  24.912  1.00  0.00     0.041 C 
ATOM      7  O   UNL     1      45.200  -1.075  25.184  1.00  0.00    -0.550 OA
ATOM      8  O   UNL     1      43.527  -2.615  25.466  1.00  0.00    -0.550 OA
ENDBRANCH   5   6
ENDBRANCH   4   5
ENDBRANCH   3   4
ENDBRANCH   2   3
ENDBRANCH   1   2
BRANCH   1   9
ATOM      9  C   UNL     1      42.048  -0.549  18.863  1.00  0.00     0.000 C 
BRANCH   9  10
ATOM     10  C   UNL     1      41.381   0.561  18.042  1.00  0.00    -0.000 C 
BRANCH  10  11
ATOM     11  C   UNL     1      41.736   1.947  18.600  1.00  0.00    -0.000 C 
BRANCH  11  12
ATOM     12  C   UNL     1      43.232   2.283  18.465  1.00  0.00    -0.000 C 
BRANCH  12  13
ATOM     13  C   UNL     1      43.962   2.531  19.797  1.00  0.00    -0.003 C 
ATOM     14  C   UNL     1      43.073   3.188  20.852  1.00  0.00     0.004 C 
ENDBRANCH  12  13
ENDBRANCH  11  12
ENDBRANCH  10  11
ENDBRANCH   9  10
ENDBRANCH   1   9
TORSDOF 10
ENDMDL
MODEL 6
REMARK VINA RESULT:    -4.181      2.095      3.900
REMARK INTER + INTRA:          -7.482
REMARK INTER:                  -6.338
REMARK INTRA:                  -1.144
REMARK UNBOUND:                -0.858
REMARK SMILES CCCCCCCCCCCC(=O)[O-]
REMARK SMILES IDX 7 1 8 2 9 3 10 4 11 5 12 6 13 7 14 8 6 9 5 10 4 11 3 12 2 13
REMARK SMILES IDX 1 14
REMARK H PARENT
REMARK Flexibility Score: inf
ROOT
ATOM      1  C   UNL     1      37.739 -11.464  27.771  1.00  0.00     0.000 C 
ENDROOT
BRANCH   1   2
ATOM      2  C   UNL     1      38.891 -12.470  27.624  1.00  0.00     0.000 C 
BRANCH   2   3
ATOM      3  C   UNL     1      40.250 -11.788  27.406  1.00  0.00     0.000 C 
BRANCH   3   4
ATOM      4  C   UNL     1      41.287 -12.790  26.877  1.00  0.00     0.006 C 
BRANCH   4   5
ATOM      5  C   UNL     1      42.645 -12.645  27.578  1.00  0.00     0.053 C 
BRANCH   5   6
ATOM      6  C   UNL     1      43.744 -13.305  26.803  1.00  0.00     0.041 C 
ATOM      7  O   UNL     1      44.736 -13.796  27.403  1.00  0.00    -0.550 OA
ATOM      8  O   UNL     1      43.690 -13.345  25.415  1.00  0.00    -0.550 OA
ENDBRANCH   5   6
ENDBRANCH   4   5
ENDBRANCH   3   4
ENDBRANCH   2   3
ENDBRANCH   1   2
BRANCH   1   9
ATOM      9  C   UNL     1      37.007 -11.592  29.115  1.00  0.00     0.000 C 
BRANCH   9  10
ATOM     10  C   UNL     1      37.411 -12.881  29.841  1.00  0.00    -0.000 C 
BRANCH  10  11
ATOM     11  C   UNL     1      37.528 -12.647  31.354  1.00  0.00    -0.000 C 
BRANCH  11  12
ATOM     12  C   UNL     1      38.847 -11.960  31.754  1.00  0.00    -0.000 C 
BRANCH  12  13
ATOM     13  C   UNL     1      40.114 -12.588  31.147  1.00  0.00    -0.003 C 
ATOM     14  C   UNL     1      41.260 -11.589  30.991  1.00  0.00     0.004 C 
ENDBRANCH  12  13
ENDBRANCH  11  12
ENDBRANCH  10  11
ENDBRANCH   9  10
ENDBRANCH   1   9
TORSDOF 10
ENDMDL
MODEL 7
REMARK VINA RESULT:    -4.176     11.532     13.353
REMARK INTER + INTRA:          -7.475
REMARK INTER:                  -6.449
REMARK INTRA:                  -1.026
REMARK UNBOUND:                -0.858
REMARK SMILES CCCCCCCCCCCC(=O)[O-]
REMARK SMILES IDX 7 1 8 2 9 3 10 4 11 5 12 6 13 7 14 8 6 9 5 10 4 11 3 12 2 13
REMARK SMILES IDX 1 14
REMARK H PARENT
REMARK Flexibility Score: inf
ROOT
ATOM      1  C   UNL     1      42.765   2.266  21.742  1.00  0.00     0.000 C 
ENDROOT
BRANCH   1   2
ATOM      2  C   UNL     1      44.267   1.967  21.619  1.00  0.00     0.000 C 
BRANCH   2   3
ATOM      3  C   UNL     1      44.604   0.498  21.913  1.00  0.00     0.000 C 
BRANCH   3   4
ATOM      4  C   UNL     1      43.640  -0.087  22.956  1.00  0.00     0.006 C 
BRANCH   4   5
ATOM      5  C   UNL     1      44.363  -0.524  24.238  1.00  0.00     0.053 C 
BRANCH   5   6
ATOM      6  C   UNL     1      43.445  -1.240  25.179  1.00  0.00     0.041 C 
ATOM      7  O   UNL     1      43.518  -2.490  25.307  1.00  0.00    -0.550 OA
ATOM      8  O   UNL     1      42.484  -0.530  25.888  1.00  0.00    -0.550 OA
ENDBRANCH   5   6
ENDBRANCH   4   5
ENDBRANCH   3   4
ENDBRANCH   2   3
ENDBRANCH   1   2
BRANCH   1   9
ATOM      9  C   UNL     1      42.190   2.943  20.489  1.00  0.00     0.000 C 
BRANCH   9  10
ATOM     10  C   UNL     1      42.635   2.212  19.216  1.00  0.00    -0.000 C 
BRANCH  10  11
ATOM     11  C   UNL     1      41.467   1.434  18.592  1.00  0.00    -0.000 C 
BRANCH  11  12
ATOM     12  C   UNL     1      41.726  -0.082  18.521  1.00  0.00    -0.000 C 
BRANCH  12  13
ATOM     13  C   UNL     1      41.729  -0.801  19.881  1.00  0.00    -0.003 C 
ATOM     14  C   UNL     1      40.579  -1.796  20.035  1.00  0.00     0.004 C 
ENDBRANCH  12  13
ENDBRANCH  11  12
ENDBRANCH  10  11
ENDBRANCH   9  10
ENDBRANCH   1   9
TORSDOF 10
ENDMDL
MODEL 8
REMARK VINA RESULT:    -4.143     13.143     15.663
REMARK INTER + INTRA:          -7.423
REMARK INTER:                  -7.023
REMARK INTRA:                  -0.400
REMARK UNBOUND:                -0.858
REMARK SMILES CCCCCCCCCCCC(=O)[O-]
REMARK SMILES IDX 7 1 8 2 9 3 10 4 11 5 12 6 13 7 14 8 6 9 5 10 4 11 3 12 2 13
REMARK SMILES IDX 1 14
REMARK H PARENT
REMARK Flexibility Score: inf
ROOT
ATOM      1  C   UNL     1      46.387   0.741  22.554  1.00  0.00     0.000 C 
ENDROOT
BRANCH   1   2
ATOM      2  C   UNL     1      44.904   0.376  22.382  1.00  0.00     0.000 C 
BRANCH   2   3
ATOM      3  C   UNL     1      44.173   1.315  21.411  1.00  0.00     0.000 C 
BRANCH   3   4
ATOM      4  C   UNL     1      42.677   0.972  21.339  1.00  0.00     0.006 C 
BRANCH   4   5
ATOM      5  C   UNL     1      42.432  -0.538  21.214  1.00  0.00     0.053 C 
BRANCH   5   6
ATOM      6  C   UNL     1      41.512  -0.860  20.078  1.00  0.00     0.041 C 
ATOM      7  O   UNL     1      41.582  -0.210  19.001  1.00  0.00    -0.550 OA
ATOM      8  O   UNL     1      40.552  -1.854  20.219  1.00  0.00    -0.550 OA
ENDBRANCH   5   6
ENDBRANCH   4   5
ENDBRANCH   3   4
ENDBRANCH   2   3
ENDBRANCH   1   2
BRANCH   1   9
ATOM      9  C   UNL     1      47.069   1.096  21.224  1.00  0.00     0.000 C 
BRANCH   9  10
ATOM     10  C   UNL     1      48.121   0.045  20.848  1.00  0.00    -0.000 C 
BRANCH  10  11
ATOM     11  C   UNL     1      49.531   0.517  21.233  1.00  0.00    -0.000 C 
BRANCH  11  12
ATOM     12  C   UNL     1      50.519  -0.647  21.432  1.00  0.00    -0.000 C 
BRANCH  12  13
ATOM     13  C   UNL     1      51.276  -1.077  20.163  1.00  0.00    -0.003 C 
ATOM     14  C   UNL     1      52.743  -0.647  20.167  1.00  0.00     0.004 C 
ENDBRANCH  12  13
ENDBRANCH  11  12
ENDBRANCH  10  11
ENDBRANCH   9  10
ENDBRANCH   1   9
TORSDOF 10
ENDMDL
MODEL 9
REMARK VINA RESULT:    -4.116     13.516     15.911
REMARK INTER + INTRA:          -7.380
REMARK INTER:                  -6.896
REMARK INTRA:                  -0.484
REMARK UNBOUND:                -0.858
REMARK SMILES CCCCCCCCCCCC(=O)[O-]
REMARK SMILES IDX 7 1 8 2 9 3 10 4 11 5 12 6 13 7 14 8 6 9 5 10 4 11 3 12 2 13
REMARK SMILES IDX 1 14
REMARK H PARENT
REMARK Flexibility Score: inf
ROOT
ATOM      1  C   UNL     1      48.334   1.590  21.089  1.00  0.00     0.000 C 
ENDROOT
BRANCH   1   2
ATOM      2  C   UNL     1      47.126   1.900  21.985  1.00  0.00     0.000 C 
BRANCH   2   3
ATOM      3  C   UNL     1      46.292   0.651  22.308  1.00  0.00     0.000 C 
BRANCH   3   4
ATOM      4  C   UNL     1      45.306   0.931  23.453  1.00  0.00     0.006 C 
BRANCH   4   5
ATOM      5  C   UNL     1      45.293  -0.192  24.498  1.00  0.00     0.053 C 
BRANCH   5   6
ATOM      6  C   UNL     1      43.937  -0.814  24.631  1.00  0.00     0.041 C 
ATOM      7  O   UNL     1      43.808  -1.946  25.166  1.00  0.00    -0.550 OA
ATOM      8  O   UNL     1      42.819  -0.158  24.130  1.00  0.00    -0.550 OA
ENDBRANCH   5   6
ENDBRANCH   4   5
ENDBRANCH   3   4
ENDBRANCH   2   3
ENDBRANCH   1   2
BRANCH   1   9
ATOM      9  C   UNL     1      48.611   0.084  20.967  1.00  0.00     0.000 C 
BRANCH   9  10
ATOM     10  C   UNL     1      49.974  -0.275  21.571  1.00  0.00    -0.000 C 
BRANCH  10  11
ATOM     11  C   UNL     1      50.816  -1.095  20.582  1.00  0.00    -0.000 C 
BRANCH  11  12
ATOM     12  C   UNL     1      52.237  -0.533  20.393  1.00  0.00    -0.000 C 
BRANCH  12  13
ATOM     13  C   UNL     1      52.719  -0.471  18.933  1.00  0.00    -0.003 C 
ATOM     14  C   UNL     1      51.681  -0.990  17.938  1.00  0.00     0.004 C 
ENDBRANCH  12  13
ENDBRANCH  11  12
ENDBRANCH  10  11
ENDBRANCH   9  10
ENDBRANCH   1   9
TORSDOF 10
ENDMDL
