MODEL 1
REMARK VINA RESULT:    -5.944      0.000      0.000
REMARK INTER + INTRA:          -5.944
REMARK INTER:                  -5.944
REMARK INTRA:                   0.000
REMARK UNBOUND:                 0.000
REMARK SMILES O=c1ccc2ccc3occc3c2o1
REMARK SMILES IDX 6 1 7 2 8 3 12 4 11 5 10 6 9 7 13 8 5 9 4 10 3 11 2 12 1 13
REMARK SMILES IDX 14 14
REMARK H PARENT
REMARK Flexibility Score: inf
ROOT
ATOM      1  C   UNL     1      16.064 -12.595  12.461  1.00  0.00     0.016 A 
ATOM      2  C   UNL     1      14.841 -13.289  12.401  1.00  0.00     0.048 A 
ATOM      3  C   UNL     1      13.663 -12.546  12.436  1.00  0.00     0.137 A 
ATOM      4  C   UNL     1      13.671 -11.180  12.525  1.00  0.00     0.064 A 
ATOM      5  C   UNL     1      12.357 -10.770  12.535  1.00  0.00     0.054 A 
ATOM      6  C   UNL     1      11.623 -11.949  12.450  1.00  0.00     0.196 A 
ATOM      7  O   UNL     1      12.432 -12.993  12.393  1.00  0.00    -0.464 OA
ATOM      8  C   UNL     1      14.861 -10.456  12.585  1.00  0.00     0.149 A 
ATOM      9  C   UNL     1      16.079 -11.182  12.553  1.00  0.00     0.018 A 
ATOM     10  C   UNL     1      17.276 -10.461  12.614  1.00  0.00     0.019 A 
ATOM     11  C   UNL     1      17.233  -9.069  12.704  1.00  0.00     0.094 A 
ATOM     12  C   UNL     1      15.990  -8.425  12.731  1.00  0.00     0.336 A 
ATOM     13  O   UNL     1      15.937  -7.170  12.812  1.00  0.00    -0.246 OA
ATOM     14  O   UNL     1      14.862  -9.129  12.671  1.00  0.00    -0.422 OA
ENDROOT
TORSDOF 0
ENDMDL
MODEL 2
REMARK VINA RESULT:    -5.831      1.048      4.244
REMARK INTER + INTRA:          -5.831
REMARK INTER:                  -5.831
REMARK INTRA:                   0.000
REMARK UNBOUND:                 0.000
REMARK SMILES O=c1ccc2ccc3occc3c2o1
REMARK SMILES IDX 6 1 7 2 8 3 12 4 11 5 10 6 9 7 13 8 5 9 4 10 3 11 2 12 1 13
REMARK SMILES IDX 14 14
REMARK H PARENT
REMARK Flexibility Score: inf
ROOT
ATOM      1  C   UNL     1      17.273 -10.529  12.508  1.00  0.00     0.016 A 
ATOM      2  C   UNL     1      17.314  -9.124  12.580  1.00  0.00     0.048 A 
ATOM      3  C   UNL     1      16.105  -8.435  12.642  1.00  0.00     0.137 A 
ATOM      4  C   UNL     1      14.900  -9.084  12.635  1.00  0.00     0.064 A 
ATOM      5  C   UNL     1      13.923  -8.118  12.706  1.00  0.00     0.054 A 
ATOM      6  C   UNL     1      14.622  -6.917  12.753  1.00  0.00     0.196 A 
ATOM      7  O   UNL     1      15.925  -7.139  12.713  1.00  0.00    -0.464 OA
ATOM      8  C   UNL     1      14.817 -10.474  12.565  1.00  0.00     0.149 A 
ATOM      9  C   UNL     1      16.029 -11.207  12.501  1.00  0.00     0.018 A 
ATOM     10  C   UNL     1      15.952 -12.601  12.430  1.00  0.00     0.019 A 
ATOM     11  C   UNL     1      14.700 -13.218  12.425  1.00  0.00     0.094 A 
ATOM     12  C   UNL     1      13.548 -12.425  12.491  1.00  0.00     0.336 A 
ATOM     13  O   UNL     1      12.412 -12.968  12.487  1.00  0.00    -0.246 OA
ATOM     14  O   UNL     1      13.643 -11.099  12.558  1.00  0.00    -0.422 OA
ENDROOT
TORSDOF 0
ENDMDL
MODEL 3
REMARK VINA RESULT:    -5.662      1.027      1.290
REMARK INTER + INTRA:          -5.662
REMARK INTER:                  -5.662
REMARK INTRA:                   0.000
REMARK UNBOUND:                 0.000
REMARK SMILES O=c1ccc2ccc3occc3c2o1
REMARK SMILES IDX 6 1 7 2 8 3 12 4 11 5 10 6 9 7 13 8 5 9 4 10 3 11 2 12 1 13
REMARK SMILES IDX 14 14
REMARK H PARENT
REMARK Flexibility Score: inf
ROOT
ATOM      1  C   UNL     1      16.591 -11.315  12.219  1.00  0.00     0.016 A 
ATOM      2  C   UNL     1      15.834 -12.502  12.212  1.00  0.00     0.048 A 
ATOM      3  C   UNL     1      14.459 -12.404  12.415  1.00  0.00     0.137 A 
ATOM      4  C   UNL     1      13.842 -11.199  12.619  1.00  0.00     0.064 A 
ATOM      5  C   UNL     1      12.500 -11.459  12.783  1.00  0.00     0.054 A 
ATOM      6  C   UNL     1      12.395 -12.841  12.665  1.00  0.00     0.196 A 
ATOM      7  O   UNL     1      13.583 -13.377  12.446  1.00  0.00    -0.464 OA
ATOM      8  C   UNL     1      14.555 -10.002  12.633  1.00  0.00     0.149 A 
ATOM      9  C   UNL     1      15.957 -10.066  12.428  1.00  0.00     0.018 A 
ATOM     10  C   UNL     1      16.679  -8.868  12.442  1.00  0.00     0.019 A 
ATOM     11  C   UNL     1      16.005  -7.665  12.653  1.00  0.00     0.094 A 
ATOM     12  C   UNL     1      14.618  -7.684  12.847  1.00  0.00     0.336 A 
ATOM     13  O   UNL     1      13.997  -6.606  13.039  1.00  0.00    -0.246 OA
ATOM     14  O   UNL     1      13.950  -8.835  12.830  1.00  0.00    -0.422 OA
ENDROOT
TORSDOF 0
ENDMDL
MODEL 4
REMARK VINA RESULT:    -5.661      1.303      4.961
REMARK INTER + INTRA:          -5.661
REMARK INTER:                  -5.661
REMARK INTRA:                   0.000
REMARK UNBOUND:                 0.000
REMARK SMILES O=c1ccc2ccc3occc3c2o1
REMARK SMILES IDX 6 1 7 2 8 3 12 4 11 5 10 6 9 7 13 8 5 9 4 10 3 11 2 12 1 13
REMARK SMILES IDX 14 14
REMARK H PARENT
REMARK Flexibility Score: inf
ROOT
ATOM      1  C   UNL     1      13.238  -8.848  12.668  1.00  0.00     0.016 A 
ATOM      2  C   UNL     1      14.372  -8.015  12.618  1.00  0.00     0.048 A 
ATOM      3  C   UNL     1      15.628  -8.619  12.582  1.00  0.00     0.137 A 
ATOM      4  C   UNL     1      15.778  -9.979  12.594  1.00  0.00     0.064 A 
ATOM      5  C   UNL     1      17.129 -10.234  12.549  1.00  0.00     0.054 A 
ATOM      6  C   UNL     1      17.721  -8.976  12.514  1.00  0.00     0.196 A 
ATOM      7  O   UNL     1      16.798  -8.031  12.535  1.00  0.00    -0.464 OA
ATOM      8  C   UNL     1      14.681 -10.837  12.642  1.00  0.00     0.149 A 
ATOM      9  C   UNL     1      13.388 -10.257  12.680  1.00  0.00     0.018 A 
ATOM     10  C   UNL     1      12.283 -11.112  12.729  1.00  0.00     0.019 A 
ATOM     11  C   UNL     1      12.486 -12.493  12.739  1.00  0.00     0.094 A 
ATOM     12  C   UNL     1      13.795 -12.991  12.699  1.00  0.00     0.336 A 
ATOM     13  O   UNL     1      13.994 -14.234  12.708  1.00  0.00    -0.246 OA
ATOM     14  O   UNL     1      14.833 -12.159  12.653  1.00  0.00    -0.422 OA
ENDROOT
TORSDOF 0
ENDMDL
MODEL 5
REMARK VINA RESULT:    -5.517      1.209      2.575
REMARK INTER + INTRA:          -5.517
REMARK INTER:                  -5.517
REMARK INTRA:                   0.000
REMARK UNBOUND:                 0.000
REMARK SMILES O=c1ccc2ccc3occc3c2o1
REMARK SMILES IDX 6 1 7 2 8 3 12 4 11 5 10 6 9 7 13 8 5 9 4 10 3 11 2 12 1 13
REMARK SMILES IDX 14 14
REMARK H PARENT
REMARK Flexibility Score: inf
ROOT
ATOM      1  C   UNL     1      12.713  -9.491  12.662  1.00  0.00     0.016 A 
ATOM      2  C   UNL     1      12.227 -10.812  12.668  1.00  0.00     0.048 A 
ATOM      3  C   UNL     1      13.152 -11.852  12.616  1.00  0.00     0.137 A 
ATOM      4  C   UNL     1      14.500 -11.619  12.560  1.00  0.00     0.064 A 
ATOM      5  C   UNL     1      15.118 -12.849  12.520  1.00  0.00     0.054 A 
ATOM      6  C   UNL     1      14.073 -13.766  12.554  1.00  0.00     0.196 A 
ATOM      7  O   UNL     1      12.911 -13.140  12.611  1.00  0.00    -0.464 OA
ATOM      8  C   UNL     1      15.021 -10.327  12.553  1.00  0.00     0.149 A 
ATOM      9  C   UNL     1      14.107  -9.245  12.605  1.00  0.00     0.018 A 
ATOM     10  C   UNL     1      14.624  -7.945  12.597  1.00  0.00     0.019 A 
ATOM     11  C   UNL     1      16.005  -7.759  12.540  1.00  0.00     0.094 A 
ATOM     12  C   UNL     1      16.844  -8.879  12.491  1.00  0.00     0.336 A 
ATOM     13  O   UNL     1      18.093  -8.726  12.438  1.00  0.00    -0.246 OA
ATOM     14  O   UNL     1      16.332 -10.107  12.499  1.00  0.00    -0.422 OA
ENDROOT
TORSDOF 0
ENDMDL
MODEL 6
REMARK VINA RESULT:    -5.505      1.226      1.819
REMARK INTER + INTRA:          -5.505
REMARK INTER:                  -5.505
REMARK INTRA:                   0.000
REMARK UNBOUND:                 0.000
REMARK SMILES O=c1ccc2ccc3occc3c2o1
REMARK SMILES IDX 6 1 7 2 8 3 12 4 11 5 10 6 9 7 13 8 5 9 4 10 3 11 2 12 1 13
REMARK SMILES IDX 14 14
REMARK H PARENT
REMARK Flexibility Score: inf
ROOT
ATOM      1  C   UNL     1      16.957 -10.991  12.435  1.00  0.00     0.016 A 
ATOM      2  C   UNL     1      15.746 -11.677  12.224  1.00  0.00     0.048 A 
ATOM      3  C   UNL     1      14.557 -10.958  12.335  1.00  0.00     0.137 A 
ATOM      4  C   UNL     1      14.544  -9.623  12.640  1.00  0.00     0.064 A 
ATOM      5  C   UNL     1      13.225  -9.232  12.669  1.00  0.00     0.054 A 
ATOM      6  C   UNL     1      12.510 -10.388  12.374  1.00  0.00     0.196 A 
ATOM      7  O   UNL     1      13.335 -11.403  12.179  1.00  0.00    -0.464 OA
ATOM      8  C   UNL     1      15.721  -8.909  12.855  1.00  0.00     0.149 A 
ATOM      9  C   UNL     1      16.949  -9.610  12.750  1.00  0.00     0.018 A 
ATOM     10  C   UNL     1      18.133  -8.898  12.966  1.00  0.00     0.019 A 
ATOM     11  C   UNL     1      18.069  -7.539  13.274  1.00  0.00     0.094 A 
ATOM     12  C   UNL     1      16.817  -6.917  13.359  1.00  0.00     0.336 A 
ATOM     13  O   UNL     1      16.743  -5.691  13.637  1.00  0.00    -0.246 OA
ATOM     14  O   UNL     1      15.701  -7.612  13.151  1.00  0.00    -0.422 OA
ENDROOT
TORSDOF 0
ENDMDL
MODEL 7
REMARK VINA RESULT:    -5.282      1.772      5.265
REMARK INTER + INTRA:          -5.282
REMARK INTER:                  -5.282
REMARK INTRA:                   0.000
REMARK UNBOUND:                 0.000
REMARK SMILES O=c1ccc2ccc3occc3c2o1
REMARK SMILES IDX 6 1 7 2 8 3 12 4 11 5 10 6 9 7 13 8 5 9 4 10 3 11 2 12 1 13
REMARK SMILES IDX 14 14
REMARK H PARENT
REMARK Flexibility Score: inf
ROOT
ATOM      1  C   UNL     1      13.977  -7.938  12.742  1.00  0.00     0.016 A 
ATOM      2  C   UNL     1      14.842  -6.832  12.836  1.00  0.00     0.048 A 
ATOM      3  C   UNL     1      16.215  -7.072  12.838  1.00  0.00     0.137 A 
ATOM      4  C   UNL     1      16.729  -8.337  12.751  1.00  0.00     0.064 A 
ATOM      5  C   UNL     1      18.100  -8.216  12.779  1.00  0.00     0.054 A 
ATOM      6  C   UNL     1      18.328  -6.848  12.885  1.00  0.00     0.196 A 
ATOM      7  O   UNL     1      17.181  -6.191  12.918  1.00  0.00    -0.464 OA
ATOM      8  C   UNL     1      15.906  -9.458  12.655  1.00  0.00     0.149 A 
ATOM      9  C   UNL     1      14.504  -9.250  12.651  1.00  0.00     0.018 A 
ATOM     10  C   UNL     1      13.672 -10.371  12.556  1.00  0.00     0.019 A 
ATOM     11  C   UNL     1      14.244 -11.641  12.469  1.00  0.00     0.094 A 
ATOM     12  C   UNL     1      15.639 -11.765  12.480  1.00  0.00     0.336 A 
ATOM     13  O   UNL     1      16.168 -12.905  12.403  1.00  0.00    -0.246 OA
ATOM     14  O   UNL     1      16.412 -10.685  12.571  1.00  0.00    -0.422 OA
ENDROOT
TORSDOF 0
ENDMDL
MODEL 8
REMARK VINA RESULT:    -5.260      1.678      4.831
REMARK INTER + INTRA:          -5.260
REMARK INTER:                  -5.260
REMARK INTRA:                   0.000
REMARK UNBOUND:                 0.000
REMARK SMILES O=c1ccc2ccc3occc3c2o1
REMARK SMILES IDX 6 1 7 2 8 3 12 4 11 5 10 6 9 7 13 8 5 9 4 10 3 11 2 12 1 13
REMARK SMILES IDX 14 14
REMARK H PARENT
REMARK Flexibility Score: inf
ROOT
ATOM      1  C   UNL     1      18.126  -8.349  12.990  1.00  0.00     0.016 A 
ATOM      2  C   UNL     1      17.844  -6.991  13.226  1.00  0.00     0.048 A 
ATOM      3  C   UNL     1      16.509  -6.593  13.249  1.00  0.00     0.137 A 
ATOM      4  C   UNL     1      15.485  -7.480  13.051  1.00  0.00     0.064 A 
ATOM      5  C   UNL     1      14.312  -6.765  13.138  1.00  0.00     0.054 A 
ATOM      6  C   UNL     1      14.717  -5.458  13.388  1.00  0.00     0.196 A 
ATOM      7  O   UNL     1      16.036  -5.387  13.449  1.00  0.00    -0.464 OA
ATOM      8  C   UNL     1      15.722  -8.832  12.815  1.00  0.00     0.149 A 
ATOM      9  C   UNL     1      17.070  -9.272  12.785  1.00  0.00     0.018 A 
ATOM     10  C   UNL     1      17.315 -10.628  12.548  1.00  0.00     0.019 A 
ATOM     11  C   UNL     1      16.239 -11.494  12.352  1.00  0.00     0.094 A 
ATOM     12  C   UNL     1      14.935 -10.984  12.397  1.00  0.00     0.336 A 
ATOM     13  O   UNL     1      13.954 -11.753  12.221  1.00  0.00    -0.246 OA
ATOM     14  O   UNL     1      14.724  -9.690  12.624  1.00  0.00    -0.422 OA
ENDROOT
TORSDOF 0
ENDMDL
