MODEL 1
REMARK VINA RESULT:    -3.143      0.000      0.000
REMARK INTER + INTRA:          -3.235
REMARK INTER:                  -3.235
REMARK INTRA:                   0.000
REMARK UNBOUND:                 0.000
REMARK SMILES Oc1ccc2[nH]ccc2c1
REMARK SMILES IDX 3 1 4 2 5 3 9 4 8 5 7 6 6 7 10 8 2 9 1 11
REMARK H PARENT 6 10 1 12
REMARK Flexibility Score: inf
ROOT
ATOM      1  C   UNL     1     163.125 146.231 154.569  1.00  0.00     0.048 A 
ATOM      2  C   UNL     1     163.109 146.619 153.217  1.00  0.00     0.030 A 
ATOM      3  C   UNL     1     163.036 145.615 152.253  1.00  0.00     0.046 A 
ATOM      4  C   UNL     1     162.980 144.291 152.596  1.00  0.00     0.003 A 
ATOM      5  C   UNL     1     162.916 143.565 151.427  1.00  0.00     0.028 A 
ATOM      6  C   UNL     1     162.935 144.513 150.409  1.00  0.00     0.083 A 
ATOM      7  N   UNL     1     163.009 145.764 150.919  1.00  0.00    -0.361 N 
ATOM      8  C   UNL     1     162.994 143.873 153.925  1.00  0.00     0.056 A 
ATOM      9  C   UNL     1     163.068 144.864 154.927  1.00  0.00     0.116 A 
ATOM     10  H   UNL     1     163.038 146.659 150.382  1.00  0.00     0.166 HD
ENDROOT
BRANCH   9  11
ATOM     11  O   UNL     1     163.085 144.506 156.273  1.00  0.00    -0.508 OA
ATOM     12  H   UNL     1     163.656 143.740 156.609  1.00  0.00     0.293 HD
ENDBRANCH   9  11
TORSDOF 1
ENDMDL
MODEL 2
REMARK VINA RESULT:    -2.989     18.198     18.279
REMARK INTER + INTRA:          -3.076
REMARK INTER:                  -3.076
REMARK INTRA:                   0.000
REMARK UNBOUND:                 0.000
REMARK SMILES Oc1ccc2[nH]ccc2c1
REMARK SMILES IDX 3 1 4 2 5 3 9 4 8 5 7 6 6 7 10 8 2 9 1 11
REMARK H PARENT 6 10 1 12
REMARK Flexibility Score: inf
ROOT
ATOM      1  C   UNL     1     158.246 162.727 154.175  1.00  0.00     0.048 A 
ATOM      2  C   UNL     1     158.228 162.789 152.769  1.00  0.00     0.030 A 
ATOM      3  C   UNL     1     159.447 162.924 152.108  1.00  0.00     0.046 A 
ATOM      4  C   UNL     1     160.632 162.994 152.790  1.00  0.00     0.003 A 
ATOM      5  C   UNL     1     161.637 163.124 151.857  1.00  0.00     0.028 A 
ATOM      6  C   UNL     1     160.991 163.125 150.624  1.00  0.00     0.083 A 
ATOM      7  N   UNL     1     159.653 163.003 150.784  1.00  0.00    -0.361 N 
ATOM      8  C   UNL     1     160.686 162.936 154.181  1.00  0.00     0.056 A 
ATOM      9  C   UNL     1     159.469 162.799 154.882  1.00  0.00     0.116 A 
ATOM     10  H   UNL     1     158.932 162.975 150.028  1.00  0.00     0.166 HD
ENDROOT
BRANCH   9  11
ATOM     11  O   UNL     1     159.460 162.735 156.274  1.00  0.00    -0.508 OA
ATOM     12  H   UNL     1     159.140 161.907 156.762  1.00  0.00     0.293 HD
ENDBRANCH   9  11
TORSDOF 1
ENDMDL
MODEL 3
REMARK VINA RESULT:    -2.977     16.356     17.361
REMARK INTER + INTRA:          -3.064
REMARK INTER:                  -3.064
REMARK INTRA:                   0.000
REMARK UNBOUND:                 0.000
REMARK SMILES Oc1ccc2[nH]ccc2c1
REMARK SMILES IDX 3 1 4 2 5 3 9 4 8 5 7 6 6 7 10 8 2 9 1 11
REMARK H PARENT 6 10 1 12
REMARK Flexibility Score: inf
ROOT
ATOM      1  C   UNL     1     153.194 160.591 148.281  1.00  0.00     0.048 A 
ATOM      2  C   UNL     1     153.845 159.795 147.322  1.00  0.00     0.030 A 
ATOM      3  C   UNL     1     154.908 159.001 147.749  1.00  0.00     0.046 A 
ATOM      4  C   UNL     1     155.316 158.986 149.056  1.00  0.00     0.003 A 
ATOM      5  C   UNL     1     156.375 158.111 149.147  1.00  0.00     0.028 A 
ATOM      6  C   UNL     1     156.559 157.626 147.855  1.00  0.00     0.083 A 
ATOM      7  N   UNL     1     155.660 158.174 147.005  1.00  0.00    -0.361 N 
ATOM      8  C   UNL     1     154.693 159.763 150.030  1.00  0.00     0.056 A 
ATOM      9  C   UNL     1     153.613 160.579 149.632  1.00  0.00     0.116 A 
ATOM     10  H   UNL     1     155.572 157.987 145.982  1.00  0.00     0.166 HD
ENDROOT
BRANCH   9  11
ATOM     11  O   UNL     1     152.951 161.377 150.562  1.00  0.00    -0.508 OA
ATOM     12  H   UNL     1     153.388 161.644 151.436  1.00  0.00     0.293 HD
ENDBRANCH   9  11
TORSDOF 1
ENDMDL
MODEL 4
REMARK VINA RESULT:    -2.956     20.175     20.408
REMARK INTER + INTRA:          -3.043
REMARK INTER:                  -3.043
REMARK INTRA:                   0.000
REMARK UNBOUND:                 0.000
REMARK SMILES Oc1ccc2[nH]ccc2c1
REMARK SMILES IDX 3 1 4 2 5 3 9 4 8 5 7 6 6 7 10 8 2 9 1 11
REMARK H PARENT 6 10 1 12
REMARK Flexibility Score: inf
ROOT
ATOM      1  C   UNL     1     144.732 153.229 148.313  1.00  0.00     0.048 A 
ATOM      2  C   UNL     1     145.499 153.905 147.348  1.00  0.00     0.030 A 
ATOM      3  C   UNL     1     146.253 155.001 147.766  1.00  0.00     0.046 A 
ATOM      4  C   UNL     1     146.256 155.416 149.071  1.00  0.00     0.003 A 
ATOM      5  C   UNL     1     147.090 156.509 149.153  1.00  0.00     0.028 A 
ATOM      6  C   UNL     1     147.562 156.704 147.859  1.00  0.00     0.083 A 
ATOM      7  N   UNL     1     147.047 155.780 147.015  1.00  0.00    -0.361 N 
ATOM      8  C   UNL     1     145.507 154.769 150.051  1.00  0.00     0.056 A 
ATOM      9  C   UNL     1     144.733 153.656 149.662  1.00  0.00     0.116 A 
ATOM     10  H   UNL     1     147.233 155.694 145.992  1.00  0.00     0.166 HD
ENDROOT
BRANCH   9  11
ATOM     11  O   UNL     1     143.964 152.968 150.599  1.00  0.00    -0.508 OA
ATOM     12  H   UNL     1     143.318 153.453 151.211  1.00  0.00     0.293 HD
ENDBRANCH   9  11
TORSDOF 1
ENDMDL
MODEL 5
REMARK VINA RESULT:    -2.952     12.973     13.551
REMARK INTER + INTRA:          -3.038
REMARK INTER:                  -3.038
REMARK INTRA:                   0.000
REMARK UNBOUND:                 0.000
REMARK SMILES Oc1ccc2[nH]ccc2c1
REMARK SMILES IDX 3 1 4 2 5 3 9 4 8 5 7 6 6 7 10 8 2 9 1 11
REMARK H PARENT 6 10 1 12
REMARK Flexibility Score: inf
ROOT
ATOM      1  C   UNL     1     152.012 144.707 148.292  1.00  0.00     0.048 A 
ATOM      2  C   UNL     1     151.306 145.467 147.342  1.00  0.00     0.030 A 
ATOM      3  C   UNL     1     150.218 146.217 147.787  1.00  0.00     0.046 A 
ATOM      4  C   UNL     1     149.839 146.223 149.103  1.00  0.00     0.003 A 
ATOM      5  C   UNL     1     148.744 147.052 149.211  1.00  0.00     0.028 A 
ATOM      6  C   UNL     1     148.511 147.518 147.920  1.00  0.00     0.083 A 
ATOM      7  N   UNL     1     149.415 147.004 147.054  1.00  0.00    -0.361 N 
ATOM      8  C   UNL     1     150.516 145.482 150.068  1.00  0.00     0.056 A 
ATOM      9  C   UNL     1     151.622 144.712 149.651  1.00  0.00     0.116 A 
ATOM     10  H   UNL     1     149.472 147.187 146.028  1.00  0.00     0.166 HD
ENDROOT
BRANCH   9  11
ATOM     11  O   UNL     1     152.339 143.950 150.572  1.00  0.00    -0.508 OA
ATOM     12  H   UNL     1     153.067 144.361 151.145  1.00  0.00     0.293 HD
ENDBRANCH   9  11
TORSDOF 1
ENDMDL
MODEL 6
REMARK VINA RESULT:    -2.952      7.447      8.129
REMARK INTER + INTRA:          -3.038
REMARK INTER:                  -3.038
REMARK INTRA:                   0.000
REMARK UNBOUND:                 0.000
REMARK SMILES Oc1ccc2[nH]ccc2c1
REMARK SMILES IDX 3 1 4 2 5 3 9 4 8 5 7 6 6 7 10 8 2 9 1 11
REMARK H PARENT 6 10 1 12
REMARK Flexibility Score: inf
ROOT
ATOM      1  C   UNL     1     160.570 152.042 148.334  1.00  0.00     0.048 A 
ATOM      2  C   UNL     1     159.775 151.350 147.402  1.00  0.00     0.030 A 
ATOM      3  C   UNL     1     159.029 150.266 147.861  1.00  0.00     0.046 A 
ATOM      4  C   UNL     1     159.059 149.875 149.173  1.00  0.00     0.003 A 
ATOM      5  C   UNL     1     158.224 148.787 149.297  1.00  0.00     0.028 A 
ATOM      6  C   UNL     1     157.717 148.569 148.019  1.00  0.00     0.083 A 
ATOM      7  N   UNL     1     158.213 149.476 147.146  1.00  0.00    -0.361 N 
ATOM      8  C   UNL     1     159.836 150.538 150.120  1.00  0.00     0.056 A 
ATOM      9  C   UNL     1     160.604 151.640 149.690  1.00  0.00     0.116 A 
ATOM     10  H   UNL     1     158.000 149.544 146.126  1.00  0.00     0.166 HD
ENDROOT
BRANCH   9  11
ATOM     11  O   UNL     1     161.399 152.342 150.593  1.00  0.00    -0.508 OA
ATOM     12  H   UNL     1     161.287 153.339 150.732  1.00  0.00     0.293 HD
ENDBRANCH   9  11
TORSDOF 1
ENDMDL
MODEL 7
REMARK VINA RESULT:    -2.840      8.456      9.285
REMARK INTER + INTRA:          -2.923
REMARK INTER:                  -2.923
REMARK INTRA:                   0.000
REMARK UNBOUND:                 0.000
REMARK SMILES Oc1ccc2[nH]ccc2c1
REMARK SMILES IDX 3 1 4 2 5 3 9 4 8 5 7 6 6 7 10 8 2 9 1 11
REMARK H PARENT 6 10 1 12
REMARK Flexibility Score: inf
ROOT
ATOM      1  C   UNL     1     158.921 149.616 149.754  1.00  0.00     0.048 A 
ATOM      2  C   UNL     1     159.700 150.736 149.409  1.00  0.00     0.030 A 
ATOM      3  C   UNL     1     159.047 151.836 148.854  1.00  0.00     0.046 A 
ATOM      4  C   UNL     1     157.694 151.840 148.646  1.00  0.00     0.003 A 
ATOM      5  C   UNL     1     157.367 153.057 148.090  1.00  0.00     0.028 A 
ATOM      6  C   UNL     1     158.572 153.747 147.990  1.00  0.00     0.083 A 
ATOM      7  N   UNL     1     159.595 152.995 148.458  1.00  0.00    -0.361 N 
ATOM      8  C   UNL     1     156.895 150.748 148.975  1.00  0.00     0.056 A 
ATOM      9  C   UNL     1     157.523 149.617 149.539  1.00  0.00     0.116 A 
ATOM     10  H   UNL     1     160.603 153.267 148.501  1.00  0.00     0.166 HD
ENDROOT
BRANCH   9  11
ATOM     11  O   UNL     1     156.775 148.495 149.889  1.00  0.00    -0.508 OA
ATOM     12  H   UNL     1     156.435 148.360 150.834  1.00  0.00     0.293 HD
ENDBRANCH   9  11
TORSDOF 1
ENDMDL
MODEL 8
REMARK VINA RESULT:    -2.822     20.160     20.304
REMARK INTER + INTRA:          -2.905
REMARK INTER:                  -2.905
REMARK INTRA:                   0.000
REMARK UNBOUND:                 0.000
REMARK SMILES Oc1ccc2[nH]ccc2c1
REMARK SMILES IDX 3 1 4 2 5 3 9 4 8 5 7 6 6 7 10 8 2 9 1 11
REMARK H PARENT 6 10 1 12
REMARK Flexibility Score: inf
ROOT
ATOM      1  C   UNL     1     145.472 154.730 150.219  1.00  0.00     0.048 A 
ATOM      2  C   UNL     1     146.329 155.473 149.386  1.00  0.00     0.030 A 
ATOM      3  C   UNL     1     146.404 155.111 148.042  1.00  0.00     0.046 A 
ATOM      4  C   UNL     1     145.673 154.071 147.534  1.00  0.00     0.003 A 
ATOM      5  C   UNL     1     145.971 153.975 146.193  1.00  0.00     0.028 A 
ATOM      6  C   UNL     1     146.891 154.991 145.951  1.00  0.00     0.083 A 
ATOM      7  N   UNL     1     147.152 155.682 147.084  1.00  0.00    -0.361 N 
ATOM      8  C   UNL     1     144.816 153.316 148.331  1.00  0.00     0.056 A 
ATOM      9  C   UNL     1     144.716 153.654 149.697  1.00  0.00     0.116 A 
ATOM     10  H   UNL     1     147.802 156.492 147.187  1.00  0.00     0.166 HD
ENDROOT
BRANCH   9  11
ATOM     11  O   UNL     1     143.874 152.934 150.543  1.00  0.00    -0.508 OA
ATOM     12  H   UNL     1     143.055 153.360 150.960  1.00  0.00     0.293 HD
ENDBRANCH   9  11
TORSDOF 1
ENDMDL
MODEL 9
REMARK VINA RESULT:    -2.817     16.697     17.650
REMARK INTER + INTRA:          -2.899
REMARK INTER:                  -2.899
REMARK INTRA:                   0.000
REMARK UNBOUND:                 0.000
REMARK SMILES Oc1ccc2[nH]ccc2c1
REMARK SMILES IDX 3 1 4 2 5 3 9 4 8 5 7 6 6 7 10 8 2 9 1 11
REMARK H PARENT 6 10 1 12
REMARK Flexibility Score: inf
ROOT
ATOM      1  C   UNL     1     154.758 159.800 150.279  1.00  0.00     0.048 A 
ATOM      2  C   UNL     1     155.504 158.943 149.449  1.00  0.00     0.030 A 
ATOM      3  C   UNL     1     155.142 158.861 148.106  1.00  0.00     0.046 A 
ATOM      4  C   UNL     1     154.097 159.586 147.597  1.00  0.00     0.003 A 
ATOM      5  C   UNL     1     154.001 159.282 146.256  1.00  0.00     0.028 A 
ATOM      6  C   UNL     1     155.021 158.365 146.017  1.00  0.00     0.083 A 
ATOM      7  N   UNL     1     155.714 158.112 147.150  1.00  0.00    -0.361 N 
ATOM      8  C   UNL     1     153.339 160.442 148.391  1.00  0.00     0.056 A 
ATOM      9  C   UNL     1     153.678 160.549 149.756  1.00  0.00     0.116 A 
ATOM     10  H   UNL     1     156.528 157.466 147.256  1.00  0.00     0.166 HD
ENDROOT
BRANCH   9  11
ATOM     11  O   UNL     1     152.956 161.391 150.599  1.00  0.00    -0.508 OA
ATOM     12  H   UNL     1     151.950 161.484 150.518  1.00  0.00     0.293 HD
ENDBRANCH   9  11
TORSDOF 1
ENDMDL
