MODEL 1
REMARK VINA RESULT:    -8.504      0.000      0.000
REMARK INTER + INTRA:         -12.537
REMARK INTER:                 -11.486
REMARK INTRA:                  -1.050
REMARK UNBOUND:                -1.050
REMARK SMILES CC[C@@H](CC[C@@H](C)[C@@H]1CC[C@H]2[C@@H]3CC(=O)C4=CC(=O)CC[C@]4(C)[C@H]3CC[C@]21C)C(C)C
REMARK SMILES IDX 4 1 3 2 2 3 1 4 29 5 30 6 31 7 5 8 6 9 7 10 8 11 9 12 27 13
REMARK SMILES IDX 10 14 11 15 26 16 28 17 12 18 25 19 24 20 13 21 22 22 14 23
REMARK SMILES IDX 16 24 21 25 23 26 15 27 17 28 20 29 18 30 19 31
REMARK H PARENT
REMARK Flexibility Score: inf
ROOT
ATOM      1  C   UNL     1      21.070 -20.684  21.257  1.00  0.00     0.004 C 
ENDROOT
BRANCH   1   2
ATOM      2  C   UNL     1      19.527 -20.944  21.164  1.00  0.00    -0.009 C 
BRANCH   2   3
ATOM      3  C   UNL     1      19.144 -21.421  19.723  1.00  0.00     0.000 C 
ATOM      4  C   UNL     1      17.790 -22.135  19.675  1.00  0.00     0.004 C 
ENDBRANCH   2   3
BRANCH   2   5
ATOM      5  C   UNL     1      18.697 -19.680  21.589  1.00  0.00    -0.014 C 
ATOM      6  C   UNL     1      19.559 -18.616  22.295  1.00  0.00     0.007 C 
ATOM      7  C   UNL     1      17.517 -20.037  22.516  1.00  0.00     0.007 C 
ENDBRANCH   2   5
ENDBRANCH   1   2
BRANCH   1   8
ATOM      8  C   UNL     1      21.947 -21.835  20.706  1.00  0.00     0.004 C 
BRANCH   8   9
ATOM      9  C   UNL     1      22.669 -21.595  19.345  1.00  0.00    -0.011 C 
ATOM     10  C   UNL     1      24.193 -21.443  19.548  1.00  0.00     0.008 C 
BRANCH   9  11
ATOM     11  C   UNL     1      22.356 -22.756  18.322  1.00  0.00    -0.002 C 
ATOM     12  C   UNL     1      23.533 -23.717  18.149  1.00  0.00     0.005 C 
ATOM     13  C   UNL     1      21.967 -22.377  16.849  1.00  0.00    -0.026 C 
ATOM     14  C   UNL     1      23.225 -24.526  16.909  1.00  0.00     0.005 C 
ATOM     15  C   UNL     1      22.342 -23.649  16.005  1.00  0.00    -0.001 C 
ATOM     16  C   UNL     1      20.447 -22.051  16.723  1.00  0.00     0.007 C 
ATOM     17  C   UNL     1      22.806 -21.175  16.334  1.00  0.00     0.012 C 
ATOM     18  C   UNL     1      21.109 -24.434  15.458  1.00  0.00     0.004 C 
ATOM     19  C   UNL     1      19.953 -22.122  15.275  1.00  0.00     0.005 C 
ATOM     20  C   UNL     1      20.197 -23.507  14.599  1.00  0.00     0.003 C 
ATOM     21  C   UNL     1      21.553 -25.647  14.614  1.00  0.00     0.085 C 
ATOM     22  C   UNL     1      18.875 -24.227  14.116  1.00  0.00    -0.000 C 
ATOM     23  C   UNL     1      20.389 -26.352  13.989  1.00  0.00     0.159 C 
ATOM     24  C   UNL     1      19.217 -25.589  13.497  1.00  0.00     0.005 C 
ATOM     25  C   UNL     1      18.176 -23.343  13.033  1.00  0.00     0.020 C 
ATOM     26  C   UNL     1      17.904 -24.482  15.303  1.00  0.00     0.017 C 
ATOM     27  O   UNL     1      20.469 -27.595  13.794  1.00  0.00    -0.295 OA
ATOM     28  C   UNL     1      18.418 -26.150  12.567  1.00  0.00     0.055 C 
ATOM     29  C   UNL     1      16.961 -24.022  12.386  1.00  0.00     0.081 C 
ATOM     30  C   UNL     1      17.277 -25.430  11.980  1.00  0.00     0.156 C 
ATOM     31  O   UNL     1      16.545 -26.012  11.137  1.00  0.00    -0.295 OA
ENDBRANCH   9  11
ENDBRANCH   8   9
ENDBRANCH   1   8
TORSDOF 6
ENDMDL
MODEL 2
REMARK VINA RESULT:    -7.492      1.940      4.142
REMARK INTER + INTRA:         -11.171
REMARK INTER:                 -11.649
REMARK INTRA:                   0.478
REMARK UNBOUND:                -1.050
REMARK SMILES CC[C@@H](CC[C@@H](C)[C@@H]1CC[C@H]2[C@@H]3CC(=O)C4=CC(=O)CC[C@]4(C)[C@H]3CC[C@]21C)C(C)C
REMARK SMILES IDX 4 1 3 2 2 3 1 4 29 5 30 6 31 7 5 8 6 9 7 10 8 11 9 12 27 13
REMARK SMILES IDX 10 14 11 15 26 16 28 17 12 18 25 19 24 20 13 21 22 22 14 23
REMARK SMILES IDX 16 24 21 25 23 26 15 27 17 28 20 29 18 30 19 31
REMARK H PARENT
REMARK Flexibility Score: inf
ROOT
ATOM      1  C   UNL     1      24.949 -19.485  19.715  1.00  0.00     0.004 C 
ENDROOT
BRANCH   1   2
ATOM      2  C   UNL     1      26.454 -19.587  19.286  1.00  0.00    -0.009 C 
BRANCH   2   3
ATOM      3  C   UNL     1      26.832 -21.076  18.988  1.00  0.00     0.000 C 
ATOM      4  C   UNL     1      28.305 -21.248  18.604  1.00  0.00     0.004 C 
ENDBRANCH   2   3
BRANCH   2   5
ATOM      5  C   UNL     1      27.409 -18.957  20.363  1.00  0.00    -0.014 C 
ATOM      6  C   UNL     1      26.693 -17.932  21.261  1.00  0.00     0.007 C 
ATOM      7  C   UNL     1      28.635 -18.270  19.729  1.00  0.00     0.007 C 
ENDBRANCH   2   5
ENDBRANCH   1   2
BRANCH   1   8
ATOM      8  C   UNL     1      23.989 -20.380  18.893  1.00  0.00     0.004 C 
BRANCH   8   9
ATOM      9  C   UNL     1      23.360 -21.608  19.620  1.00  0.00    -0.011 C 
ATOM     10  C   UNL     1      22.150 -21.180  20.480  1.00  0.00     0.008 C 
BRANCH   9  11
ATOM     11  C   UNL     1      22.943 -22.728  18.588  1.00  0.00    -0.002 C 
ATOM     12  C   UNL     1      24.064 -23.735  18.331  1.00  0.00     0.005 C 
ATOM     13  C   UNL     1      22.495 -22.295  17.147  1.00  0.00    -0.026 C 
ATOM     14  C   UNL     1      23.656 -24.498  17.090  1.00  0.00     0.005 C 
ATOM     15  C   UNL     1      22.768 -23.560  16.256  1.00  0.00    -0.001 C 
ATOM     16  C   UNL     1      20.987 -21.899  17.109  1.00  0.00     0.007 C 
ATOM     17  C   UNL     1      23.360 -21.118  16.616  1.00  0.00     0.012 C 
ATOM     18  C   UNL     1      21.474 -24.276  15.756  1.00  0.00     0.004 C 
ATOM     19  C   UNL     1      20.415 -21.911  15.688  1.00  0.00     0.005 C 
ATOM     20  C   UNL     1      20.561 -23.288  14.968  1.00  0.00     0.003 C 
ATOM     21  C   UNL     1      21.818 -25.485  14.861  1.00  0.00     0.085 C 
ATOM     22  C   UNL     1      19.185 -23.936  14.539  1.00  0.00    -0.000 C 
ATOM     23  C   UNL     1      20.593 -26.122  14.283  1.00  0.00     0.159 C 
ATOM     24  C   UNL     1      19.432 -25.296  13.872  1.00  0.00     0.005 C 
ATOM     25  C   UNL     1      18.471 -22.996  13.516  1.00  0.00     0.020 C 
ATOM     26  C   UNL     1      18.266 -24.179  15.770  1.00  0.00     0.017 C 
ATOM     27  O   UNL     1      20.606 -27.362  14.055  1.00  0.00    -0.295 OA
ATOM     28  C   UNL     1      18.562 -25.797  12.972  1.00  0.00     0.055 C 
ATOM     29  C   UNL     1      17.195 -23.604  12.919  1.00  0.00     0.081 C 
ATOM     30  C   UNL     1      17.426 -25.014  12.464  1.00  0.00     0.156 C 
ATOM     31  O   UNL     1      16.625 -25.541  11.648  1.00  0.00    -0.295 OA
ENDBRANCH   9  11
ENDBRANCH   8   9
ENDBRANCH   1   8
TORSDOF 6
ENDMDL
MODEL 3
REMARK VINA RESULT:    -6.221      1.843      2.986
REMARK INTER + INTRA:          -9.453
REMARK INTER:                  -8.926
REMARK INTRA:                  -0.527
REMARK UNBOUND:                -1.050
REMARK SMILES CC[C@@H](CC[C@@H](C)[C@@H]1CC[C@H]2[C@@H]3CC(=O)C4=CC(=O)CC[C@]4(C)[C@H]3CC[C@]21C)C(C)C
REMARK SMILES IDX 4 1 3 2 2 3 1 4 29 5 30 6 31 7 5 8 6 9 7 10 8 11 9 12 27 13
REMARK SMILES IDX 10 14 11 15 26 16 28 17 12 18 25 19 24 20 13 21 22 22 14 23
REMARK SMILES IDX 16 24 21 25 23 26 15 27 17 28 20 29 18 30 19 31
REMARK H PARENT
REMARK Flexibility Score: inf
ROOT
ATOM      1  C   UNL     1      21.760 -23.085  20.657  1.00  0.00     0.004 C 
ENDROOT
BRANCH   1   2
ATOM      2  C   UNL     1      23.034 -23.716  21.318  1.00  0.00    -0.009 C 
BRANCH   2   3
ATOM      3  C   UNL     1      23.769 -24.647  20.295  1.00  0.00     0.000 C 
ATOM      4  C   UNL     1      25.199 -24.185  19.996  1.00  0.00     0.004 C 
ENDBRANCH   2   3
BRANCH   2   5
ATOM      5  C   UNL     1      22.682 -24.485  22.642  1.00  0.00    -0.014 C 
ATOM      6  C   UNL     1      23.932 -25.033  23.357  1.00  0.00     0.007 C 
ATOM      7  C   UNL     1      21.712 -25.659  22.398  1.00  0.00     0.007 C 
ENDBRANCH   2   5
ENDBRANCH   1   2
BRANCH   1   8
ATOM      8  C   UNL     1      21.944 -21.622  20.183  1.00  0.00     0.004 C 
BRANCH   8   9
ATOM      9  C   UNL     1      22.551 -21.402  18.764  1.00  0.00    -0.011 C 
ATOM     10  C   UNL     1      24.080 -21.190  18.844  1.00  0.00     0.008 C 
BRANCH   9  11
ATOM     11  C   UNL     1      22.206 -22.606  17.804  1.00  0.00    -0.002 C 
ATOM     12  C   UNL     1      23.409 -23.516  17.549  1.00  0.00     0.005 C 
ATOM     13  C   UNL     1      21.667 -22.291  16.363  1.00  0.00    -0.026 C 
ATOM     14  C   UNL     1      23.031 -24.375  16.363  1.00  0.00     0.005 C 
ATOM     15  C   UNL     1      22.028 -23.568  15.522  1.00  0.00    -0.001 C 
ATOM     16  C   UNL     1      20.129 -22.040  16.368  1.00  0.00     0.007 C 
ATOM     17  C   UNL     1      22.396 -21.066  15.743  1.00  0.00     0.012 C 
ATOM     18  C   UNL     1      20.791 -24.427  15.110  1.00  0.00     0.004 C 
ATOM     19  C   UNL     1      19.510 -22.178  14.974  1.00  0.00     0.005 C 
ATOM     20  C   UNL     1      19.760 -23.569  14.314  1.00  0.00     0.003 C 
ATOM     21  C   UNL     1      21.217 -25.642  14.259  1.00  0.00     0.085 C 
ATOM     22  C   UNL     1      18.438 -24.365  13.972  1.00  0.00    -0.000 C 
ATOM     23  C   UNL     1      20.038 -26.419  13.762  1.00  0.00     0.159 C 
ATOM     24  C   UNL     1      18.790 -25.727  13.360  1.00  0.00     0.005 C 
ATOM     25  C   UNL     1      17.601 -23.548  12.935  1.00  0.00     0.020 C 
ATOM     26  C   UNL     1      17.592 -24.630  15.249  1.00  0.00     0.017 C 
ATOM     27  O   UNL     1      20.162 -27.663  13.592  1.00  0.00    -0.295 OA
ATOM     28  C   UNL     1      17.940 -26.353  12.521  1.00  0.00     0.055 C 
ATOM     29  C   UNL     1      16.368 -24.303  12.420  1.00  0.00     0.081 C 
ATOM     30  C   UNL     1      16.716 -25.706  12.023  1.00  0.00     0.156 C 
ATOM     31  O   UNL     1      15.941 -26.346  11.265  1.00  0.00    -0.295 OA
ENDBRANCH   9  11
ENDBRANCH   8   9
ENDBRANCH   1   8
TORSDOF 6
ENDMDL
MODEL 4
REMARK VINA RESULT:    -6.037      4.253      8.476
REMARK INTER + INTRA:          -9.205
REMARK INTER:                  -7.907
REMARK INTRA:                  -1.298
REMARK UNBOUND:                -1.050
REMARK SMILES CC[C@@H](CC[C@@H](C)[C@@H]1CC[C@H]2[C@@H]3CC(=O)C4=CC(=O)CC[C@]4(C)[C@H]3CC[C@]21C)C(C)C
REMARK SMILES IDX 4 1 3 2 2 3 1 4 29 5 30 6 31 7 5 8 6 9 7 10 8 11 9 12 27 13
REMARK SMILES IDX 10 14 11 15 26 16 28 17 12 18 25 19 24 20 13 21 22 22 14 23
REMARK SMILES IDX 16 24 21 25 23 26 15 27 17 28 20 29 18 30 19 31
REMARK H PARENT
REMARK Flexibility Score: inf
ROOT
ATOM      1  C   UNL     1      20.579 -22.075  16.024  1.00  0.00     0.004 C 
ENDROOT
BRANCH   1   2
ATOM      2  C   UNL     1      19.158 -22.573  16.461  1.00  0.00    -0.009 C 
BRANCH   2   3
ATOM      3  C   UNL     1      18.248 -22.784  15.204  1.00  0.00     0.000 C 
ATOM      4  C   UNL     1      18.246 -24.234  14.711  1.00  0.00     0.004 C 
ENDBRANCH   2   3
BRANCH   2   5
ATOM      5  C   UNL     1      18.491 -21.596  17.495  1.00  0.00    -0.014 C 
ATOM      6  C   UNL     1      18.989 -21.827  18.933  1.00  0.00     0.007 C 
ATOM      7  C   UNL     1      16.952 -21.703  17.494  1.00  0.00     0.007 C 
ENDBRANCH   2   5
ENDBRANCH   1   2
BRANCH   1   8
ATOM      8  C   UNL     1      21.443 -23.148  15.317  1.00  0.00     0.004 C 
BRANCH   8   9
ATOM      9  C   UNL     1      21.906 -24.368  16.170  1.00  0.00    -0.011 C 
ATOM     10  C   UNL     1      21.892 -25.665  15.330  1.00  0.00     0.008 C 
BRANCH   9  11
ATOM     11  C   UNL     1      23.337 -24.121  16.789  1.00  0.00    -0.002 C 
ATOM     12  C   UNL     1      24.039 -25.422  17.180  1.00  0.00     0.005 C 
ATOM     13  C   UNL     1      23.456 -23.233  18.078  1.00  0.00    -0.026 C 
ATOM     14  C   UNL     1      25.196 -25.015  18.065  1.00  0.00     0.005 C 
ATOM     15  C   UNL     1      24.799 -23.697  18.750  1.00  0.00    -0.001 C 
ATOM     16  C   UNL     1      23.503 -21.714  17.726  1.00  0.00     0.007 C 
ATOM     17  C   UNL     1      22.286 -23.507  19.064  1.00  0.00     0.012 C 
ATOM     18  C   UNL     1      25.943 -22.638  18.681  1.00  0.00     0.004 C 
ATOM     19  C   UNL     1      24.061 -20.866  18.873  1.00  0.00     0.005 C 
ATOM     20  C   UNL     1      25.492 -21.291  19.325  1.00  0.00     0.003 C 
ATOM     21  C   UNL     1      27.215 -23.148  19.390  1.00  0.00     0.085 C 
ATOM     22  C   UNL     1      26.577 -20.151  19.178  1.00  0.00    -0.000 C 
ATOM     23  C   UNL     1      28.290 -22.106  19.431  1.00  0.00     0.159 C 
ATOM     24  C   UNL     1      27.951 -20.675  19.616  1.00  0.00     0.005 C 
ATOM     25  C   UNL     1      26.183 -18.947  20.094  1.00  0.00     0.020 C 
ATOM     26  C   UNL     1      26.705 -19.678  17.702  1.00  0.00     0.017 C 
ATOM     27  O   UNL     1      29.495 -22.479  19.410  1.00  0.00    -0.295 OA
ATOM     28  C   UNL     1      28.895 -19.838  20.091  1.00  0.00     0.055 C 
ATOM     29  C   UNL     1      27.250 -17.845  20.142  1.00  0.00     0.081 C 
ATOM     30  C   UNL     1      28.616 -18.421  20.366  1.00  0.00     0.156 C 
ATOM     31  O   UNL     1      29.542 -17.675  20.781  1.00  0.00    -0.295 OA
ENDBRANCH   9  11
ENDBRANCH   8   9
ENDBRANCH   1   8
TORSDOF 6
ENDMDL
MODEL 5
REMARK VINA RESULT:    -5.766      2.407      4.997
REMARK INTER + INTRA:          -8.839
REMARK INTER:                 -10.136
REMARK INTRA:                   1.297
REMARK UNBOUND:                -1.050
REMARK SMILES CC[C@@H](CC[C@@H](C)[C@@H]1CC[C@H]2[C@@H]3CC(=O)C4=CC(=O)CC[C@]4(C)[C@H]3CC[C@]21C)C(C)C
REMARK SMILES IDX 4 1 3 2 2 3 1 4 29 5 30 6 31 7 5 8 6 9 7 10 8 11 9 12 27 13
REMARK SMILES IDX 10 14 11 15 26 16 28 17 12 18 25 19 24 20 13 21 22 22 14 23
REMARK SMILES IDX 16 24 21 25 23 26 15 27 17 28 20 29 18 30 19 31
REMARK H PARENT
REMARK Flexibility Score: inf
ROOT
ATOM      1  C   UNL     1      25.734 -24.085  19.470  1.00  0.00     0.004 C 
ENDROOT
BRANCH   1   2
ATOM      2  C   UNL     1      27.299 -24.094  19.388  1.00  0.00    -0.009 C 
BRANCH   2   3
ATOM      3  C   UNL     1      27.828 -22.679  18.976  1.00  0.00     0.000 C 
ATOM      4  C   UNL     1      29.217 -22.377  19.545  1.00  0.00     0.004 C 
ENDBRANCH   2   3
BRANCH   2   5
ATOM      5  C   UNL     1      27.825 -25.209  18.414  1.00  0.00    -0.014 C 
ATOM      6  C   UNL     1      26.701 -26.136  17.916  1.00  0.00     0.007 C 
ATOM      7  C   UNL     1      28.921 -26.081  19.059  1.00  0.00     0.007 C 
ENDBRANCH   2   5
ENDBRANCH   1   2
BRANCH   1   8
ATOM      8  C   UNL     1      25.086 -22.707  19.187  1.00  0.00     0.004 C 
BRANCH   8   9
ATOM      9  C   UNL     1      23.528 -22.646  19.143  1.00  0.00    -0.011 C 
ATOM     10  C   UNL     1      23.041 -21.205  18.871  1.00  0.00     0.008 C 
BRANCH   9  11
ATOM     11  C   UNL     1      22.949 -23.643  18.065  1.00  0.00    -0.002 C 
ATOM     12  C   UNL     1      23.964 -24.707  17.647  1.00  0.00     0.005 C 
ATOM     13  C   UNL     1      22.437 -23.061  16.700  1.00  0.00    -0.026 C 
ATOM     14  C   UNL     1      23.409 -25.333  16.387  1.00  0.00     0.005 C 
ATOM     15  C   UNL     1      22.542 -24.266  15.697  1.00  0.00    -0.001 C 
ATOM     16  C   UNL     1      20.968 -22.551  16.809  1.00  0.00     0.007 C 
ATOM     17  C   UNL     1      23.354 -21.913  16.194  1.00  0.00     0.012 C 
ATOM     18  C   UNL     1      21.162 -24.839  15.246  1.00  0.00     0.004 C 
ATOM     19  C   UNL     1      20.297 -22.404  15.440  1.00  0.00     0.005 C 
ATOM     20  C   UNL     1      20.279 -23.724  14.608  1.00  0.00     0.003 C 
ATOM     21  C   UNL     1      21.343 -25.994  14.238  1.00  0.00     0.085 C 
ATOM     22  C   UNL     1      18.828 -24.230  14.239  1.00  0.00    -0.000 C 
ATOM     23  C   UNL     1      20.032 -26.487  13.710  1.00  0.00     0.159 C 
ATOM     24  C   UNL     1      18.916 -25.545  13.453  1.00  0.00     0.005 C 
ATOM     25  C   UNL     1      18.122 -23.158  13.348  1.00  0.00     0.020 C 
ATOM     26  C   UNL     1      17.982 -24.503  15.515  1.00  0.00     0.017 C 
ATOM     27  O   UNL     1      19.928 -27.702  13.388  1.00  0.00    -0.295 OA
ATOM     28  C   UNL     1      17.946 -25.905  12.588  1.00  0.00     0.055 C 
ATOM     29  C   UNL     1      16.761 -23.618  12.807  1.00  0.00     0.081 C 
ATOM     30  C   UNL     1      16.844 -24.999  12.230  1.00  0.00     0.156 C 
ATOM     31  O   UNL     1      15.947 -25.395  11.440  1.00  0.00    -0.295 OA
ENDBRANCH   9  11
ENDBRANCH   8   9
ENDBRANCH   1   8
TORSDOF 6
ENDMDL
