MODEL 1
REMARK VINA RESULT:    -1.884      0.000      0.000
REMARK INTER + INTRA:          -1.884
REMARK INTER:                  -1.884
REMARK INTRA:                   0.000
REMARK UNBOUND:                 0.000
REMARK SMILES CC(=O)[O-]
REMARK SMILES IDX 1 1 2 2 3 3 4 4
REMARK H PARENT
REMARK Flexibility Score: inf
ROOT
ATOM      1  C   UNL     1     117.773 141.685 112.396  1.00  0.00     0.063 C 
ATOM      2  C   UNL     1     117.378 140.974 113.646  1.00  0.00     0.038 C 
ATOM      3  O   UNL     1     116.858 139.829 113.584  1.00  0.00    -0.550 OA
ATOM      4  O   UNL     1     117.632 141.550 114.884  1.00  0.00    -0.550 OA
ENDROOT
TORSDOF 0
ENDMDL
MODEL 2
REMARK VINA RESULT:    -1.882     18.281     18.825
REMARK INTER + INTRA:          -1.882
REMARK INTER:                  -1.882
REMARK INTRA:                   0.000
REMARK UNBOUND:                 0.000
REMARK SMILES CC(=O)[O-]
REMARK SMILES IDX 1 1 2 2 3 3 4 4
REMARK H PARENT
REMARK Flexibility Score: inf
ROOT
ATOM      1  C   UNL     1     117.402 148.754 130.684  1.00  0.00     0.063 C 
ATOM      2  C   UNL     1     117.098 150.050 130.013  1.00  0.00     0.038 C 
ATOM      3  O   UNL     1     117.529 151.130 130.498  1.00  0.00    -0.550 OA
ATOM      4  O   UNL     1     116.384 150.067 128.822  1.00  0.00    -0.550 OA
ENDROOT
TORSDOF 0
ENDMDL
MODEL 3
REMARK VINA RESULT:    -1.875      2.343      2.731
REMARK INTER + INTRA:          -1.875
REMARK INTER:                  -1.875
REMARK INTRA:                   0.000
REMARK UNBOUND:                 0.000
REMARK SMILES CC(=O)[O-]
REMARK SMILES IDX 1 1 2 2 3 3 4 4
REMARK H PARENT
REMARK Flexibility Score: inf
ROOT
ATOM      1  C   UNL     1     117.083 142.739 110.875  1.00  0.00     0.063 C 
ATOM      2  C   UNL     1     118.084 142.064 111.750  1.00  0.00     0.038 C 
ATOM      3  O   UNL     1     119.312 142.297 111.601  1.00  0.00    -0.550 OA
ATOM      4  O   UNL     1     117.661 141.218 112.766  1.00  0.00    -0.550 OA
ENDROOT
TORSDOF 0
ENDMDL
MODEL 4
REMARK VINA RESULT:    -1.869      1.560      2.040
REMARK INTER + INTRA:          -1.869
REMARK INTER:                  -1.869
REMARK INTRA:                   0.000
REMARK UNBOUND:                 0.000
REMARK SMILES CC(=O)[O-]
REMARK SMILES IDX 1 1 2 2 3 3 4 4
REMARK H PARENT
REMARK Flexibility Score: inf
ROOT
ATOM      1  C   UNL     1     116.258 139.801 114.701  1.00  0.00     0.063 C 
ATOM      2  C   UNL     1     117.151 140.095 113.544  1.00  0.00     0.038 C 
ATOM      3  O   UNL     1     117.660 139.151 112.883  1.00  0.00    -0.550 OA
ATOM      4  O   UNL     1     117.380 141.408 113.157  1.00  0.00    -0.550 OA
ENDROOT
TORSDOF 0
ENDMDL
MODEL 5
REMARK VINA RESULT:    -1.865     17.696     18.285
REMARK INTER + INTRA:          -1.865
REMARK INTER:                  -1.865
REMARK INTRA:                   0.000
REMARK UNBOUND:                 0.000
REMARK SMILES CC(=O)[O-]
REMARK SMILES IDX 1 1 2 2 3 3 4 4
REMARK H PARENT
REMARK Flexibility Score: inf
ROOT
ATOM      1  C   UNL     1     116.619 149.877 128.180  1.00  0.00     0.063 C 
ATOM      2  C   UNL     1     117.147 149.887 129.574  1.00  0.00     0.038 C 
ATOM      3  O   UNL     1     117.371 150.981 130.157  1.00  0.00    -0.550 OA
ATOM      4  O   UNL     1     117.343 148.692 130.253  1.00  0.00    -0.550 OA
ENDROOT
TORSDOF 0
ENDMDL
MODEL 6
REMARK VINA RESULT:    -1.859      1.485      2.420
REMARK INTER + INTRA:          -1.859
REMARK INTER:                  -1.859
REMARK INTRA:                   0.000
REMARK UNBOUND:                 0.000
REMARK SMILES CC(=O)[O-]
REMARK SMILES IDX 1 1 2 2 3 3 4 4
REMARK H PARENT
REMARK Flexibility Score: inf
ROOT
ATOM      1  C   UNL     1     116.615 140.312 115.316  1.00  0.00     0.063 C 
ATOM      2  C   UNL     1     117.206 140.299 113.947  1.00  0.00     0.038 C 
ATOM      3  O   UNL     1     117.405 141.381 113.335  1.00  0.00    -0.550 OA
ATOM      4  O   UNL     1     117.587 139.097 113.365  1.00  0.00    -0.550 OA
ENDROOT
TORSDOF 0
ENDMDL
MODEL 7
REMARK VINA RESULT:    -1.774     10.523     10.730
REMARK INTER + INTRA:          -1.774
REMARK INTER:                  -1.774
REMARK INTRA:                   0.000
REMARK UNBOUND:                 0.000
REMARK SMILES CC(=O)[O-]
REMARK SMILES IDX 1 1 2 2 3 3 4 4
REMARK H PARENT
REMARK Flexibility Score: inf
ROOT
ATOM      1  C   UNL     1     107.775 137.422 112.329  1.00  0.00     0.063 C 
ATOM      2  C   UNL     1     107.994 136.024 112.796  1.00  0.00     0.038 C 
ATOM      3  O   UNL     1     108.677 135.225 112.102  1.00  0.00    -0.550 OA
ATOM      4  O   UNL     1     107.491 135.613 114.023  1.00  0.00    -0.550 OA
ENDROOT
TORSDOF 0
ENDMDL
MODEL 8
REMARK VINA RESULT:    -1.773      1.788      2.510
REMARK INTER + INTRA:          -1.773
REMARK INTER:                  -1.773
REMARK INTRA:                   0.000
REMARK UNBOUND:                 0.000
REMARK SMILES CC(=O)[O-]
REMARK SMILES IDX 1 1 2 2 3 3 4 4
REMARK H PARENT
REMARK Flexibility Score: inf
ROOT
ATOM      1  C   UNL     1     117.065 140.203 113.507  1.00  0.00     0.063 C 
ATOM      2  C   UNL     1     116.522 139.702 114.801  1.00  0.00     0.038 C 
ATOM      3  O   UNL     1     116.261 140.509 115.733  1.00  0.00    -0.550 OA
ATOM      4  O   UNL     1     116.251 138.350 114.966  1.00  0.00    -0.550 OA
ENDROOT
TORSDOF 0
ENDMDL
MODEL 9
REMARK VINA RESULT:    -1.756     17.361     18.035
REMARK INTER + INTRA:          -1.756
REMARK INTER:                  -1.756
REMARK INTRA:                   0.000
REMARK UNBOUND:                 0.000
REMARK SMILES CC(=O)[O-]
REMARK SMILES IDX 1 1 2 2 3 3 4 4
REMARK H PARENT
REMARK Flexibility Score: inf
ROOT
ATOM      1  C   UNL     1     117.375 149.097 130.761  1.00  0.00     0.063 C 
ATOM      2  C   UNL     1     117.004 149.501 129.375  1.00  0.00     0.038 C 
ATOM      3  O   UNL     1     117.377 148.807 128.393  1.00  0.00    -0.550 OA
ATOM      4  O   UNL     1     116.203 150.616 129.166  1.00  0.00    -0.550 OA
ENDROOT
TORSDOF 0
ENDMDL
