MODEL 1
REMARK VINA RESULT:    -4.180      0.000      0.000
REMARK INTER + INTRA:          -6.034
REMARK INTER:                  -5.647
REMARK INTRA:                  -0.388
REMARK UNBOUND:                -0.388
REMARK SMILES CCCCCCC=CC(=O)[O-]
REMARK SMILES IDX 5 1 6 2 7 3 8 4 9 5 10 6 11 7 4 8 3 9 2 10 1 11
REMARK H PARENT
REMARK Flexibility Score: inf
ROOT
ATOM      1  C   UNL     1     191.285 249.401 140.873  1.00  0.00     0.004 C 
ENDROOT
BRANCH   1   2
ATOM      2  C   UNL     1     190.945 249.572 139.387  1.00  0.00     0.027 C 
BRANCH   2   3
ATOM      3  C   UNL     1     190.622 251.003 139.064  1.00  0.00    -0.025 C 
ATOM      4  C   UNL     1     190.145 251.839 139.993  1.00  0.00     0.020 C 
BRANCH   4   5
ATOM      5  C   UNL     1     189.835 253.248 139.702  1.00  0.00     0.064 C 
ATOM      6  O   UNL     1     189.557 254.058 140.626  1.00  0.00    -0.545 OA
ATOM      7  O   UNL     1     189.851 253.692 138.386  1.00  0.00    -0.545 OA
ENDBRANCH   4   5
ENDBRANCH   2   3
ENDBRANCH   1   2
BRANCH   1   8
ATOM      8  C   UNL     1     191.653 247.943 141.188  1.00  0.00     0.000 C 
BRANCH   8   9
ATOM      9  C   UNL     1     190.530 246.959 140.828  1.00  0.00    -0.000 C 
BRANCH   9  10
ATOM     10  C   UNL     1     191.051 245.701 140.116  1.00  0.00    -0.003 C 
ATOM     11  C   UNL     1     192.020 246.065 138.996  1.00  0.00     0.004 C 
ENDBRANCH   9  10
ENDBRANCH   8   9
ENDBRANCH   1   8
TORSDOF 6
ENDMDL
MODEL 2
REMARK VINA RESULT:    -4.145      1.508      1.962
REMARK INTER + INTRA:          -5.987
REMARK INTER:                  -5.613
REMARK INTRA:                  -0.374
REMARK UNBOUND:                -0.388
REMARK SMILES CCCCCCC=CC(=O)[O-]
REMARK SMILES IDX 5 1 6 2 7 3 8 4 9 5 10 6 11 7 4 8 3 9 2 10 1 11
REMARK H PARENT
REMARK Flexibility Score: inf
ROOT
ATOM      1  C   UNL     1     191.292 250.071 139.215  1.00  0.00     0.004 C 
ENDROOT
BRANCH   1   2
ATOM      2  C   UNL     1     191.330 250.899 140.505  1.00  0.00     0.027 C 
BRANCH   2   3
ATOM      3  C   UNL     1     190.093 251.738 140.650  1.00  0.00    -0.025 C 
ATOM      4  C   UNL     1     189.157 251.773 139.695  1.00  0.00     0.020 C 
BRANCH   4   5
ATOM      5  C   UNL     1     187.930 252.578 139.822  1.00  0.00     0.064 C 
ATOM      6  O   UNL     1     186.957 252.177 140.515  1.00  0.00    -0.545 OA
ATOM      7  O   UNL     1     187.845 253.799 139.168  1.00  0.00    -0.545 OA
ENDBRANCH   4   5
ENDBRANCH   2   3
ENDBRANCH   1   2
BRANCH   1   8
ATOM      8  C   UNL     1     191.011 248.591 139.520  1.00  0.00     0.000 C 
BRANCH   8   9
ATOM      9  C   UNL     1     191.430 248.190 140.942  1.00  0.00    -0.000 C 
BRANCH   9  10
ATOM     10  C   UNL     1     190.735 246.909 141.425  1.00  0.00    -0.003 C 
ATOM     11  C   UNL     1     190.972 245.755 140.455  1.00  0.00     0.004 C 
ENDBRANCH   9  10
ENDBRANCH   8   9
ENDBRANCH   1   8
TORSDOF 6
ENDMDL
MODEL 3
REMARK VINA RESULT:    -4.078      3.744      5.941
REMARK INTER + INTRA:          -5.897
REMARK INTER:                  -5.514
REMARK INTRA:                  -0.382
REMARK UNBOUND:                -0.388
REMARK SMILES CCCCCCC=CC(=O)[O-]
REMARK SMILES IDX 5 1 6 2 7 3 8 4 9 5 10 6 11 7 4 8 3 9 2 10 1 11
REMARK H PARENT
REMARK Flexibility Score: inf
ROOT
ATOM      1  C   UNL     1     191.209 251.386 140.117  1.00  0.00     0.004 C 
ENDROOT
BRANCH   1   2
ATOM      2  C   UNL     1     191.243 250.171 139.182  1.00  0.00     0.027 C 
BRANCH   2   3
ATOM      3  C   UNL     1     190.953 248.901 139.929  1.00  0.00    -0.025 C 
ATOM      4  C   UNL     1     191.500 247.736 139.565  1.00  0.00     0.020 C 
BRANCH   4   5
ATOM      5  C   UNL     1     191.240 246.482 140.291  1.00  0.00     0.064 C 
ATOM      6  O   UNL     1     190.521 246.465 141.326  1.00  0.00    -0.545 OA
ATOM      7  O   UNL     1     191.796 245.297 139.827  1.00  0.00    -0.545 OA
ENDBRANCH   4   5
ENDBRANCH   2   3
ENDBRANCH   1   2
BRANCH   1   8
ATOM      8  C   UNL     1     189.764 251.831 140.387  1.00  0.00     0.000 C 
BRANCH   8   9
ATOM      9  C   UNL     1     188.987 252.137 139.098  1.00  0.00    -0.000 C 
BRANCH   9  10
ATOM     10  C   UNL     1     189.553 253.347 138.339  1.00  0.00    -0.003 C 
ATOM     11  C   UNL     1     189.555 253.098 136.833  1.00  0.00     0.004 C 
ENDBRANCH   9  10
ENDBRANCH   8   9
ENDBRANCH   1   8
TORSDOF 6
ENDMDL
MODEL 4
REMARK VINA RESULT:    -4.020      4.187      6.367
REMARK INTER + INTRA:          -5.818
REMARK INTER:                  -5.498
REMARK INTRA:                  -0.320
REMARK UNBOUND:                -0.388
REMARK SMILES CCCCCCC=CC(=O)[O-]
REMARK SMILES IDX 5 1 6 2 7 3 8 4 9 5 10 6 11 7 4 8 3 9 2 10 1 11
REMARK H PARENT
REMARK Flexibility Score: inf
ROOT
ATOM      1  C   UNL     1     191.090 249.404 139.493  1.00  0.00     0.004 C 
ENDROOT
BRANCH   1   2
ATOM      2  C   UNL     1     191.390 248.854 140.893  1.00  0.00     0.027 C 
BRANCH   2   3
ATOM      3  C   UNL     1     191.431 247.353 140.891  1.00  0.00    -0.025 C 
ATOM      4  C   UNL     1     191.748 246.664 139.789  1.00  0.00     0.020 C 
BRANCH   4   5
ATOM      5  C   UNL     1     191.807 245.194 139.768  1.00  0.00     0.064 C 
ATOM      6  O   UNL     1     192.407 244.579 138.847  1.00  0.00    -0.545 OA
ATOM      7  O   UNL     1     191.192 244.471 140.782  1.00  0.00    -0.545 OA
ENDBRANCH   4   5
ENDBRANCH   2   3
ENDBRANCH   1   2
BRANCH   1   8
ATOM      8  C   UNL     1     191.079 250.940 139.497  1.00  0.00     0.000 C 
BRANCH   8   9
ATOM      9  C   UNL     1     189.855 251.525 138.775  1.00  0.00    -0.000 C 
BRANCH   9  10
ATOM     10  C   UNL     1     188.788 252.048 139.748  1.00  0.00    -0.003 C 
ATOM     11  C   UNL     1     189.330 252.119 141.173  1.00  0.00     0.004 C 
ENDBRANCH   9  10
ENDBRANCH   8   9
ENDBRANCH   1   8
TORSDOF 6
ENDMDL
MODEL 5
REMARK VINA RESULT:    -4.001      4.456      6.605
REMARK INTER + INTRA:          -5.792
REMARK INTER:                  -5.436
REMARK INTRA:                  -0.356
REMARK UNBOUND:                -0.388
REMARK SMILES CCCCCCC=CC(=O)[O-]
REMARK SMILES IDX 5 1 6 2 7 3 8 4 9 5 10 6 11 7 4 8 3 9 2 10 1 11
REMARK H PARENT
REMARK Flexibility Score: inf
ROOT
ATOM      1  C   UNL     1     192.135 245.883 138.980  1.00  0.00     0.004 C 
ENDROOT
BRANCH   1   2
ATOM      2  C   UNL     1     191.930 244.423 138.559  1.00  0.00     0.027 C 
BRANCH   2   3
ATOM      3  C   UNL     1     191.566 244.322 137.105  1.00  0.00    -0.025 C 
ATOM      4  C   UNL     1     191.382 245.413 136.354  1.00  0.00     0.020 C 
BRANCH   4   5
ATOM      5  C   UNL     1     191.038 245.338 134.924  1.00  0.00     0.064 C 
ATOM      6  O   UNL     1     191.619 246.066 134.075  1.00  0.00    -0.545 OA
ATOM      7  O   UNL     1     190.059 244.447 134.504  1.00  0.00    -0.545 OA
ENDBRANCH   4   5
ENDBRANCH   2   3
ENDBRANCH   1   2
BRANCH   1   8
ATOM      8  C   UNL     1     191.424 246.176 140.310  1.00  0.00     0.000 C 
BRANCH   8   9
ATOM      9  C   UNL     1     191.364 247.676 140.632  1.00  0.00    -0.000 C 
BRANCH   9  10
ATOM     10  C   UNL     1     191.189 248.545 139.378  1.00  0.00    -0.003 C 
ATOM     11  C   UNL     1     190.736 249.955 139.745  1.00  0.00     0.004 C 
ENDBRANCH   9  10
ENDBRANCH   8   9
ENDBRANCH   1   8
TORSDOF 6
ENDMDL
MODEL 6
REMARK VINA RESULT:    -3.969      1.438      2.694
REMARK INTER + INTRA:          -5.749
REMARK INTER:                  -5.438
REMARK INTRA:                  -0.311
REMARK UNBOUND:                -0.388
REMARK SMILES CCCCCCC=CC(=O)[O-]
REMARK SMILES IDX 5 1 6 2 7 3 8 4 9 5 10 6 11 7 4 8 3 9 2 10 1 11
REMARK H PARENT
REMARK Flexibility Score: inf
ROOT
ATOM      1  C   UNL     1     190.605 246.874 140.508  1.00  0.00     0.004 C 
ENDROOT
BRANCH   1   2
ATOM      2  C   UNL     1     191.662 247.888 140.961  1.00  0.00     0.027 C 
BRANCH   2   3
ATOM      3  C   UNL     1     191.196 249.297 140.736  1.00  0.00    -0.025 C 
ATOM      4  C   UNL     1     190.855 249.735 139.519  1.00  0.00     0.020 C 
BRANCH   4   5
ATOM      5  C   UNL     1     190.383 251.108 139.278  1.00  0.00     0.064 C 
ATOM      6  O   UNL     1     189.953 251.461 138.147  1.00  0.00    -0.545 OA
ATOM      7  O   UNL     1     190.409 252.031 140.316  1.00  0.00    -0.545 OA
ENDBRANCH   4   5
ENDBRANCH   2   3
ENDBRANCH   1   2
BRANCH   1   8
ATOM      8  C   UNL     1     191.261 245.564 140.047  1.00  0.00     0.000 C 
BRANCH   8   9
ATOM      9  C   UNL     1     192.027 245.719 138.725  1.00  0.00    -0.000 C 
BRANCH   9  10
ATOM     10  C   UNL     1     191.738 244.580 137.736  1.00  0.00    -0.003 C 
ATOM     11  C   UNL     1     191.350 245.128 136.365  1.00  0.00     0.004 C 
ENDBRANCH   9  10
ENDBRANCH   8   9
ENDBRANCH   1   8
TORSDOF 6
ENDMDL
MODEL 7
REMARK VINA RESULT:    -3.955      4.974      7.005
REMARK INTER + INTRA:          -5.730
REMARK INTER:                  -5.483
REMARK INTRA:                  -0.248
REMARK UNBOUND:                -0.388
REMARK SMILES CCCCCCC=CC(=O)[O-]
REMARK SMILES IDX 5 1 6 2 7 3 8 4 9 5 10 6 11 7 4 8 3 9 2 10 1 11
REMARK H PARENT
REMARK Flexibility Score: inf
ROOT
ATOM      1  C   UNL     1     191.183 247.432 140.862  1.00  0.00     0.004 C 
ENDROOT
BRANCH   1   2
ATOM      2  C   UNL     1     191.805 246.790 139.616  1.00  0.00     0.027 C 
BRANCH   2   3
ATOM      3  C   UNL     1     191.589 245.304 139.604  1.00  0.00    -0.025 C 
ATOM      4  C   UNL     1     190.955 244.682 140.604  1.00  0.00     0.020 C 
BRANCH   4   5
ATOM      5  C   UNL     1     190.719 243.229 140.607  1.00  0.00     0.064 C 
ATOM      6  O   UNL     1     191.679 242.413 140.554  1.00  0.00    -0.545 OA
ATOM      7  O   UNL     1     189.418 242.749 140.669  1.00  0.00    -0.545 OA
ENDBRANCH   4   5
ENDBRANCH   2   3
ENDBRANCH   1   2
BRANCH   1   8
ATOM      8  C   UNL     1     191.383 248.955 140.852  1.00  0.00     0.000 C 
BRANCH   8   9
ATOM      9  C   UNL     1     191.091 249.582 139.481  1.00  0.00    -0.000 C 
BRANCH   9  10
ATOM     10  C   UNL     1     190.775 251.083 139.570  1.00  0.00    -0.003 C 
ATOM     11  C   UNL     1     190.056 251.569 138.315  1.00  0.00     0.004 C 
ENDBRANCH   9  10
ENDBRANCH   8   9
ENDBRANCH   1   8
TORSDOF 6
ENDMDL
MODEL 8
REMARK VINA RESULT:    -3.948      3.372      6.020
REMARK INTER + INTRA:          -5.720
REMARK INTER:                  -5.382
REMARK INTRA:                  -0.338
REMARK UNBOUND:                -0.388
REMARK SMILES CCCCCCC=CC(=O)[O-]
REMARK SMILES IDX 5 1 6 2 7 3 8 4 9 5 10 6 11 7 4 8 3 9 2 10 1 11
REMARK H PARENT
REMARK Flexibility Score: inf
ROOT
ATOM      1  C   UNL     1     189.325 252.657 139.965  1.00  0.00     0.004 C 
ENDROOT
BRANCH   1   2
ATOM      2  C   UNL     1     190.718 252.015 139.983  1.00  0.00     0.027 C 
BRANCH   2   3
ATOM      3  C   UNL     1     190.629 250.527 140.159  1.00  0.00    -0.025 C 
ATOM      4  C   UNL     1     191.286 249.687 139.350  1.00  0.00     0.020 C 
BRANCH   4   5
ATOM      5  C   UNL     1     191.224 248.225 139.513  1.00  0.00     0.064 C 
ATOM      6  O   UNL     1     190.577 247.702 140.459  1.00  0.00    -0.545 OA
ATOM      7  O   UNL     1     191.890 247.409 138.608  1.00  0.00    -0.545 OA
ENDBRANCH   4   5
ENDBRANCH   2   3
ENDBRANCH   1   2
BRANCH   1   8
ATOM      8  C   UNL     1     189.076 253.392 138.639  1.00  0.00     0.000 C 
BRANCH   8   9
ATOM      9  C   UNL     1     189.651 252.642 137.429  1.00  0.00    -0.000 C 
BRANCH   9  10
ATOM     10  C   UNL     1     189.656 253.494 136.151  1.00  0.00    -0.003 C 
ATOM     11  C   UNL     1     188.451 254.429 136.110  1.00  0.00     0.004 C 
ENDBRANCH   9  10
ENDBRANCH   8   9
ENDBRANCH   1   8
TORSDOF 6
ENDMDL
MODEL 9
REMARK VINA RESULT:    -3.888      1.859      2.797
REMARK INTER + INTRA:          -5.640
REMARK INTER:                  -5.237
REMARK INTRA:                  -0.403
REMARK UNBOUND:                -0.388
REMARK SMILES CCCCCCC=CC(=O)[O-]
REMARK SMILES IDX 5 1 6 2 7 3 8 4 9 5 10 6 11 7 4 8 3 9 2 10 1 11
REMARK H PARENT
REMARK Flexibility Score: inf
ROOT
ATOM      1  C   UNL     1     190.936 251.739 140.329  1.00  0.00     0.004 C 
ENDROOT
BRANCH   1   2
ATOM      2  C   UNL     1     189.437 252.060 140.360  1.00  0.00     0.027 C 
BRANCH   2   3
ATOM      3  C   UNL     1     188.992 252.707 139.080  1.00  0.00    -0.025 C 
ATOM      4  C   UNL     1     189.813 252.815 138.029  1.00  0.00     0.020 C 
BRANCH   4   5
ATOM      5  C   UNL     1     189.393 253.432 136.760  1.00  0.00     0.064 C 
ATOM      6  O   UNL     1     188.351 254.137 136.692  1.00  0.00    -0.545 OA
ATOM      7  O   UNL     1     190.160 253.235 135.619  1.00  0.00    -0.545 OA
ENDBRANCH   4   5
ENDBRANCH   2   3
ENDBRANCH   1   2
BRANCH   1   8
ATOM      8  C   UNL     1     191.184 250.247 140.598  1.00  0.00     0.000 C 
BRANCH   8   9
ATOM      9  C   UNL     1     190.961 249.375 139.354  1.00  0.00    -0.000 C 
BRANCH   9  10
ATOM     10  C   UNL     1     191.168 247.879 139.634  1.00  0.00    -0.003 C 
ATOM     11  C   UNL     1     191.337 247.618 141.128  1.00  0.00     0.004 C 
ENDBRANCH   9  10
ENDBRANCH   8   9
ENDBRANCH   1   8
TORSDOF 6
ENDMDL
