MODEL 1
REMARK VINA RESULT:    -5.844      0.000      0.000
REMARK INTER + INTRA:          -6.257
REMARK INTER:                  -6.186
REMARK INTRA:                  -0.070
REMARK UNBOUND:                -0.070
REMARK SMILES C=C(C)[C@H]1CC[C@H](C)[C@]12CC=C(C)CC2
REMARK SMILES IDX 8 1 7 2 6 3 5 4 4 5 9 6 15 7 14 8 12 9 11 10 10 11 13 12
REMARK SMILES IDX 2 13 1 14 3 15
REMARK H PARENT
REMARK Flexibility Score: inf
ROOT
ATOM      1  C   UNL     1       0.754   5.557  14.855  1.00  0.00     0.008 C 
ATOM      2  C   UNL     1      -0.759   5.262  14.720  1.00  0.00    -0.007 C 
ATOM      3  C   UNL     1      -1.453   6.446  14.020  1.00  0.00     0.004 C 
ATOM      4  C   UNL     1      -1.759   6.006  12.589  1.00  0.00     0.009 C 
ATOM      5  C   UNL     1      -1.122   4.620  12.419  1.00  0.00     0.021 C 
ATOM      6  C   UNL     1      -1.120   4.010  13.854  1.00  0.00    -0.017 C 
ATOM      7  C   UNL     1      -2.567   3.509  14.265  1.00  0.00     0.012 C 
ATOM      8  C   UNL     1      -2.561   2.181  15.034  1.00  0.00     0.031 C 
ATOM      9  C   UNL     1      -1.806   1.155  14.228  1.00  0.00    -0.077 C 
ATOM     10  C   UNL     1      -0.618   1.504  13.713  1.00  0.00    -0.027 C 
ATOM     11  C   UNL     1      -0.054   2.867  14.012  1.00  0.00     0.035 C 
ATOM     12  C   UNL     1      -2.395  -0.195  13.926  1.00  0.00     0.039 C 
ENDROOT
BRANCH   5  13
ATOM     13  C   UNL     1      -1.722   3.757  11.300  1.00  0.00    -0.077 C 
ATOM     14  C   UNL     1      -1.005   2.733  10.805  1.00  0.00     0.008 C 
ATOM     15  C   UNL     1      -3.009   4.136  10.599  1.00  0.00     0.039 C 
ENDBRANCH   5  13
TORSDOF 1
ENDMDL
MODEL 2
REMARK VINA RESULT:    -5.657      1.196      4.095
REMARK INTER + INTRA:          -6.058
REMARK INTER:                  -5.698
REMARK INTRA:                  -0.360
REMARK UNBOUND:                -0.070
REMARK SMILES C=C(C)[C@H]1CC[C@H](C)[C@]12CC=C(C)CC2
REMARK SMILES IDX 8 1 7 2 6 3 5 4 4 5 9 6 15 7 14 8 12 9 11 10 10 11 13 12
REMARK SMILES IDX 2 13 1 14 3 15
REMARK H PARENT
REMARK Flexibility Score: inf
ROOT
ATOM      1  C   UNL     1      -2.468   0.293  14.189  1.00  0.00     0.008 C 
ATOM      2  C   UNL     1      -1.191   0.851  13.516  1.00  0.00    -0.007 C 
ATOM      3  C   UNL     1      -1.077   0.290  12.085  1.00  0.00     0.004 C 
ATOM      4  C   UNL     1      -1.462   1.418  11.128  1.00  0.00     0.009 C 
ATOM      5  C   UNL     1      -1.928   2.588  12.006  1.00  0.00     0.021 C 
ATOM      6  C   UNL     1      -1.154   2.407  13.346  1.00  0.00    -0.017 C 
ATOM      7  C   UNL     1       0.358   2.864  13.201  1.00  0.00     0.012 C 
ATOM      8  C   UNL     1       0.890   3.623  14.424  1.00  0.00     0.031 C 
ATOM      9  C   UNL     1      -0.034   4.779  14.718  1.00  0.00    -0.077 C 
ATOM     10  C   UNL     1      -1.354   4.544  14.741  1.00  0.00    -0.027 C 
ATOM     11  C   UNL     1      -1.858   3.140  14.544  1.00  0.00     0.035 C 
ATOM     12  C   UNL     1       0.490   6.177  14.895  1.00  0.00     0.039 C 
ENDROOT
BRANCH   5  13
ATOM     13  C   UNL     1      -1.853   3.972  11.344  1.00  0.00    -0.077 C 
ATOM     14  C   UNL     1      -2.947   4.754  11.336  1.00  0.00     0.008 C 
ATOM     15  C   UNL     1      -0.654   4.407  10.529  1.00  0.00     0.039 C 
ENDBRANCH   5  13
TORSDOF 1
ENDMDL
MODEL 3
REMARK VINA RESULT:    -5.620      1.277      4.376
REMARK INTER + INTRA:          -6.019
REMARK INTER:                  -5.626
REMARK INTRA:                  -0.393
REMARK UNBOUND:                -0.070
REMARK SMILES C=C(C)[C@H]1CC[C@H](C)[C@]12CC=C(C)CC2
REMARK SMILES IDX 8 1 7 2 6 3 5 4 4 5 9 6 15 7 14 8 12 9 11 10 10 11 13 12
REMARK SMILES IDX 2 13 1 14 3 15
REMARK H PARENT
REMARK Flexibility Score: inf
ROOT
ATOM      1  C   UNL     1      -0.903   0.452  12.840  1.00  0.00     0.008 C 
ATOM      2  C   UNL     1      -1.776   1.607  13.385  1.00  0.00    -0.007 C 
ATOM      3  C   UNL     1      -1.745   1.592  14.925  1.00  0.00     0.004 C 
ATOM      4  C   UNL     1      -0.843   2.745  15.367  1.00  0.00     0.009 C 
ATOM      5  C   UNL     1      -0.246   3.341  14.085  1.00  0.00     0.021 C 
ATOM      6  C   UNL     1      -1.307   3.045  12.983  1.00  0.00    -0.017 C 
ATOM      7  C   UNL     1      -2.543   4.032  13.098  1.00  0.00     0.012 C 
ATOM      8  C   UNL     1      -3.070   4.516  11.740  1.00  0.00     0.031 C 
ATOM      9  C   UNL     1      -1.927   5.116  10.960  1.00  0.00    -0.077 C 
ATOM     10  C   UNL     1      -0.776   4.430  10.896  1.00  0.00    -0.027 C 
ATOM     11  C   UNL     1      -0.687   3.072  11.539  1.00  0.00     0.035 C 
ATOM     12  C   UNL     1      -2.030   6.481  10.341  1.00  0.00     0.039 C 
ENDROOT
BRANCH   5  13
ATOM     13  C   UNL     1       0.243   4.791  14.205  1.00  0.00    -0.077 C 
ATOM     14  C   UNL     1       1.447   5.120  13.706  1.00  0.00     0.008 C 
ATOM     15  C   UNL     1      -0.493   5.819  15.038  1.00  0.00     0.039 C 
ENDBRANCH   5  13
TORSDOF 1
ENDMDL
MODEL 4
REMARK VINA RESULT:    -5.501      1.048      1.180
REMARK INTER + INTRA:          -5.893
REMARK INTER:                  -5.513
REMARK INTRA:                  -0.380
REMARK UNBOUND:                -0.070
REMARK SMILES C=C(C)[C@H]1CC[C@H](C)[C@]12CC=C(C)CC2
REMARK SMILES IDX 8 1 7 2 6 3 5 4 4 5 9 6 15 7 14 8 12 9 11 10 10 11 13 12
REMARK SMILES IDX 2 13 1 14 3 15
REMARK H PARENT
REMARK Flexibility Score: inf
ROOT
ATOM      1  C   UNL     1       1.714   5.391  13.796  1.00  0.00     0.008 C 
ATOM      2  C   UNL     1       0.352   5.154  14.491  1.00  0.00    -0.007 C 
ATOM      3  C   UNL     1      -0.439   6.475  14.537  1.00  0.00     0.004 C 
ATOM      4  C   UNL     1      -1.537   6.379  13.478  1.00  0.00     0.009 C 
ATOM      5  C   UNL     1      -1.299   5.061  12.728  1.00  0.00     0.021 C 
ATOM      6  C   UNL     1      -0.596   4.139  13.769  1.00  0.00    -0.017 C 
ATOM      7  C   UNL     1      -1.633   3.575  14.828  1.00  0.00     0.012 C 
ATOM      8  C   UNL     1      -1.393   2.105  15.200  1.00  0.00     0.031 C 
ATOM      9  C   UNL     1      -1.356   1.282  13.937  1.00  0.00    -0.077 C 
ATOM     10  C   UNL     1      -0.610   1.725  12.914  1.00  0.00    -0.027 C 
ATOM     11  C   UNL     1       0.209   2.976  13.085  1.00  0.00     0.035 C 
ATOM     12  C   UNL     1      -2.196   0.046  13.782  1.00  0.00     0.039 C 
ENDROOT
BRANCH   5  13
ATOM     13  C   UNL     1      -2.528   4.486  12.011  1.00  0.00    -0.077 C 
ATOM     14  C   UNL     1      -2.381   3.946  10.789  1.00  0.00     0.008 C 
ATOM     15  C   UNL     1      -3.932   4.681  12.544  1.00  0.00     0.039 C 
ENDBRANCH   5  13
TORSDOF 1
ENDMDL
MODEL 5
REMARK VINA RESULT:    -5.195      1.345      3.547
REMARK INTER + INTRA:          -5.569
REMARK INTER:                  -5.308
REMARK INTRA:                  -0.260
REMARK UNBOUND:                -0.070
REMARK SMILES C=C(C)[C@H]1CC[C@H](C)[C@]12CC=C(C)CC2
REMARK SMILES IDX 8 1 7 2 6 3 5 4 4 5 9 6 15 7 14 8 12 9 11 10 10 11 13 12
REMARK SMILES IDX 2 13 1 14 3 15
REMARK H PARENT
REMARK Flexibility Score: inf
ROOT
ATOM      1  C   UNL     1      -3.136   5.703  10.610  1.00  0.00     0.008 C 
ATOM      2  C   UNL     1      -1.810   4.911  10.705  1.00  0.00    -0.007 C 
ATOM      3  C   UNL     1      -0.639   5.817  10.279  1.00  0.00     0.004 C 
ATOM      4  C   UNL     1       0.103   6.221  11.554  1.00  0.00     0.009 C 
ATOM      5  C   UNL     1      -0.717   5.661  12.725  1.00  0.00     0.021 C 
ATOM      6  C   UNL     1      -1.435   4.409  12.138  1.00  0.00    -0.017 C 
ATOM      7  C   UNL     1      -0.434   3.186  12.001  1.00  0.00     0.012 C 
ATOM      8  C   UNL     1      -1.056   1.837  12.384  1.00  0.00     0.031 C 
ATOM      9  C   UNL     1      -1.641   1.947  13.770  1.00  0.00    -0.077 C 
ATOM     10  C   UNL     1      -2.407   3.012  14.051  1.00  0.00    -0.027 C 
ATOM     11  C   UNL     1      -2.709   4.012  12.968  1.00  0.00     0.035 C 
ATOM     12  C   UNL     1      -1.312   0.946  14.842  1.00  0.00     0.039 C 
ENDROOT
BRANCH   5  13
ATOM     13  C   UNL     1       0.063   5.464  14.032  1.00  0.00    -0.077 C 
ATOM     14  C   UNL     1      -0.587   5.565  15.205  1.00  0.00     0.008 C 
ATOM     15  C   UNL     1       1.573   5.356  14.058  1.00  0.00     0.039 C 
ENDBRANCH   5  13
TORSDOF 1
ENDMDL
MODEL 6
REMARK VINA RESULT:    -5.148      1.856      4.220
REMARK INTER + INTRA:          -5.520
REMARK INTER:                  -5.131
REMARK INTRA:                  -0.389
REMARK UNBOUND:                -0.070
REMARK SMILES C=C(C)[C@H]1CC[C@H](C)[C@]12CC=C(C)CC2
REMARK SMILES IDX 8 1 7 2 6 3 5 4 4 5 9 6 15 7 14 8 12 9 11 10 10 11 13 12
REMARK SMILES IDX 2 13 1 14 3 15
REMARK H PARENT
REMARK Flexibility Score: inf
ROOT
ATOM      1  C   UNL     1      -0.934   1.376  11.769  1.00  0.00     0.008 C 
ATOM      2  C   UNL     1      -1.327   2.545  12.703  1.00  0.00    -0.007 C 
ATOM      3  C   UNL     1      -0.111   2.955  13.554  1.00  0.00     0.004 C 
ATOM      4  C   UNL     1       0.422   4.266  12.976  1.00  0.00     0.009 C 
ATOM      5  C   UNL     1      -0.401   4.545  11.711  1.00  0.00     0.021 C 
ATOM      6  C   UNL     1      -1.774   3.857  11.976  1.00  0.00    -0.017 C 
ATOM      7  C   UNL     1      -2.660   4.713  12.975  1.00  0.00     0.012 C 
ATOM      8  C   UNL     1      -4.147   4.754  12.596  1.00  0.00     0.031 C 
ATOM      9  C   UNL     1      -4.272   5.226  11.168  1.00  0.00    -0.077 C 
ATOM     10  C   UNL     1      -3.479   4.665  10.244  1.00  0.00    -0.027 C 
ATOM     11  C   UNL     1      -2.552   3.549  10.645  1.00  0.00     0.035 C 
ATOM     12  C   UNL     1      -5.192   6.354  10.793  1.00  0.00     0.039 C 
ENDROOT
BRANCH   5  13
ATOM     13  C   UNL     1      -0.436   6.013  11.264  1.00  0.00    -0.077 C 
ATOM     14  C   UNL     1      -0.314   6.303   9.957  1.00  0.00     0.008 C 
ATOM     15  C   UNL     1      -0.404   7.155  12.258  1.00  0.00     0.039 C 
ENDBRANCH   5  13
TORSDOF 1
ENDMDL
MODEL 7
REMARK VINA RESULT:    -5.059     12.624     14.357
REMARK INTER + INTRA:          -5.425
REMARK INTER:                  -5.056
REMARK INTRA:                  -0.369
REMARK UNBOUND:                -0.070
REMARK SMILES C=C(C)[C@H]1CC[C@H](C)[C@]12CC=C(C)CC2
REMARK SMILES IDX 8 1 7 2 6 3 5 4 4 5 9 6 15 7 14 8 12 9 11 10 10 11 13 12
REMARK SMILES IDX 2 13 1 14 3 15
REMARK H PARENT
REMARK Flexibility Score: inf
ROOT
ATOM      1  C   UNL     1       3.439  -8.399  11.403  1.00  0.00     0.008 C 
ATOM      2  C   UNL     1       2.823  -9.816  11.494  1.00  0.00    -0.007 C 
ATOM      3  C   UNL     1       3.102 -10.409  12.888  1.00  0.00     0.004 C 
ATOM      4  C   UNL     1       1.793 -10.343  13.675  1.00  0.00     0.009 C 
ATOM      5  C   UNL     1       0.793  -9.590  12.786  1.00  0.00     0.021 C 
ATOM      6  C   UNL     1       1.268  -9.878  11.330  1.00  0.00    -0.017 C 
ATOM      7  C   UNL     1       0.865 -11.344  10.875  1.00  0.00     0.012 C 
ATOM      8  C   UNL     1       0.383 -11.425   9.421  1.00  0.00     0.031 C 
ATOM      9  C   UNL     1      -0.738 -10.434   9.224  1.00  0.00    -0.077 C 
ATOM     10  C   UNL     1      -0.567  -9.186   9.684  1.00  0.00    -0.027 C 
ATOM     11  C   UNL     1       0.746  -8.802  10.311  1.00  0.00     0.035 C 
ATOM     12  C   UNL     1      -2.048 -10.843   8.611  1.00  0.00     0.039 C 
ENDROOT
BRANCH   5  13
ATOM     13  C   UNL     1      -0.686  -9.855  13.098  1.00  0.00    -0.077 C 
ATOM     14  C   UNL     1      -1.511  -8.811  13.293  1.00  0.00     0.008 C 
ATOM     15  C   UNL     1      -1.209 -11.246  13.388  1.00  0.00     0.039 C 
ENDBRANCH   5  13
TORSDOF 1
ENDMDL
MODEL 8
REMARK VINA RESULT:    -4.849      1.167      3.836
REMARK INTER + INTRA:          -5.203
REMARK INTER:                  -4.812
REMARK INTRA:                  -0.391
REMARK UNBOUND:                -0.070
REMARK SMILES C=C(C)[C@H]1CC[C@H](C)[C@]12CC=C(C)CC2
REMARK SMILES IDX 8 1 7 2 6 3 5 4 4 5 9 6 15 7 14 8 12 9 11 10 10 11 13 12
REMARK SMILES IDX 2 13 1 14 3 15
REMARK H PARENT
REMARK Flexibility Score: inf
ROOT
ATOM      1  C   UNL     1       0.432   6.629  14.754  1.00  0.00     0.008 C 
ATOM      2  C   UNL     1       0.610   5.510  13.700  1.00  0.00    -0.007 C 
ATOM      3  C   UNL     1       1.536   4.416  14.263  1.00  0.00     0.004 C 
ATOM      4  C   UNL     1       0.652   3.225  14.633  1.00  0.00     0.009 C 
ATOM      5  C   UNL     1      -0.797   3.680  14.412  1.00  0.00     0.021 C 
ATOM      6  C   UNL     1      -0.703   4.762  13.295  1.00  0.00    -0.017 C 
ATOM      7  C   UNL     1      -0.489   4.098  11.870  1.00  0.00     0.012 C 
ATOM      8  C   UNL     1      -1.288   4.778  10.750  1.00  0.00     0.031 C 
ATOM      9  C   UNL     1      -2.742   4.826  11.148  1.00  0.00    -0.077 C 
ATOM     10  C   UNL     1      -3.046   5.251  12.383  1.00  0.00    -0.027 C 
ATOM     11  C   UNL     1      -1.945   5.725  13.294  1.00  0.00     0.035 C 
ATOM     12  C   UNL     1      -3.823   4.331  10.229  1.00  0.00     0.039 C 
ENDROOT
BRANCH   5  13
ATOM     13  C   UNL     1      -1.811   2.547  14.196  1.00  0.00    -0.077 C 
ATOM     14  C   UNL     1      -2.973   2.570  14.873  1.00  0.00     0.008 C 
ATOM     15  C   UNL     1      -1.470   1.305  13.400  1.00  0.00     0.039 C 
ENDBRANCH   5  13
TORSDOF 1
ENDMDL
MODEL 9
REMARK VINA RESULT:    -4.766      1.745      4.078
REMARK INTER + INTRA:          -5.115
REMARK INTER:                  -4.726
REMARK INTRA:                  -0.389
REMARK UNBOUND:                -0.070
REMARK SMILES C=C(C)[C@H]1CC[C@H](C)[C@]12CC=C(C)CC2
REMARK SMILES IDX 8 1 7 2 6 3 5 4 4 5 9 6 15 7 14 8 12 9 11 10 10 11 13 12
REMARK SMILES IDX 2 13 1 14 3 15
REMARK H PARENT
REMARK Flexibility Score: inf
ROOT
ATOM      1  C   UNL     1      -5.451   5.280  11.317  1.00  0.00     0.008 C 
ATOM      2  C   UNL     1      -4.128   5.047  10.548  1.00  0.00    -0.007 C 
ATOM      3  C   UNL     1      -3.855   6.246   9.621  1.00  0.00     0.004 C 
ATOM      4  C   UNL     1      -2.741   7.070  10.268  1.00  0.00     0.009 C 
ATOM      5  C   UNL     1      -2.464   6.423  11.632  1.00  0.00     0.021 C 
ATOM      6  C   UNL     1      -2.851   4.925  11.443  1.00  0.00    -0.017 C 
ATOM      7  C   UNL     1      -1.735   4.145  10.629  1.00  0.00     0.012 C 
ATOM      8  C   UNL     1      -1.464   2.731  11.161  1.00  0.00     0.031 C 
ATOM      9  C   UNL     1      -1.146   2.817  12.633  1.00  0.00    -0.077 C 
ATOM     10  C   UNL     1      -1.949   3.558  13.411  1.00  0.00    -0.027 C 
ATOM     11  C   UNL     1      -3.162   4.214  12.809  1.00  0.00     0.035 C 
ATOM     12  C   UNL     1       0.080   2.168  13.210  1.00  0.00     0.039 C 
ENDROOT
BRANCH   5  13
ATOM     13  C   UNL     1      -1.077   6.712  12.223  1.00  0.00    -0.077 C 
ATOM     14  C   UNL     1      -0.971   7.016  13.529  1.00  0.00     0.008 C 
ATOM     15  C   UNL     1       0.151   6.862  11.351  1.00  0.00     0.039 C 
ENDBRANCH   5  13
TORSDOF 1
ENDMDL
