MODEL 1
REMARK VINA RESULT:    -4.111      0.000      0.000
REMARK INTER + INTRA:          -4.838
REMARK INTER:                  -4.832
REMARK INTRA:                  -0.006
REMARK UNBOUND:                -0.006
REMARK SMILES [NH3+][C@@H](CO)C(=O)[O-]
REMARK SMILES IDX 3 1 2 2 1 3 5 7 6 8 7 9 4 10
REMARK H PARENT 1 4 1 5 1 6 4 11
REMARK Flexibility Score: inf
ROOT
ATOM      1  C   UNL     1     102.836  71.923  75.237  1.00  0.00     0.227 C 
ENDROOT
BRANCH   1   2
ATOM      2  C   UNL     1     101.596  71.052  74.982  1.00  0.00     0.253 C 
BRANCH   2   3
ATOM      3  N   UNL     1     100.700  71.050  76.146  1.00  0.00    -0.348 N 
ATOM      4  H   UNL     1     101.025  70.338  76.840  1.00  0.00     0.345 HD
ATOM      5  H   UNL     1     100.677  71.990  76.605  1.00  0.00     0.345 HD
ATOM      6  H   UNL     1      99.731  70.795  75.845  1.00  0.00     0.345 HD
ENDBRANCH   2   3
BRANCH   2   7
ATOM      7  C   UNL     1     101.999  69.647  74.616  1.00  0.00     0.102 C 
ATOM      8  O   UNL     1     102.567  68.913  75.467  1.00  0.00    -0.544 OA
ATOM      9  O   UNL     1     101.711  69.136  73.356  1.00  0.00    -0.544 OA
ENDBRANCH   2   7
ENDBRANCH   1   2
BRANCH   1  10
ATOM     10  O   UNL     1     102.750  73.132  74.533  1.00  0.00    -0.390 OA
ATOM     11  H   UNL     1     102.070  73.679  75.005  1.00  0.00     0.210 HD
ENDBRANCH   1  10
TORSDOF 4
ENDMDL
MODEL 2
REMARK VINA RESULT:    -3.976      5.874      6.709
REMARK INTER + INTRA:          -4.679
REMARK INTER:                  -4.365
REMARK INTRA:                  -0.314
REMARK UNBOUND:                -0.006
REMARK SMILES [NH3+][C@@H](CO)C(=O)[O-]
REMARK SMILES IDX 3 1 2 2 1 3 5 7 6 8 7 9 4 10
REMARK H PARENT 1 4 1 5 1 6 4 11
REMARK Flexibility Score: inf
ROOT
ATOM      1  C   UNL     1      97.865  70.989  69.471  1.00  0.00     0.227 C 
ENDROOT
BRANCH   1   2
ATOM      2  C   UNL     1      99.380  71.188  69.307  1.00  0.00     0.253 C 
BRANCH   2   3
ATOM      3  N   UNL     1      99.717  71.602  67.939  1.00  0.00    -0.348 N 
ATOM      4  H   UNL     1      99.883  70.756  67.346  1.00  0.00     0.345 HD
ATOM      5  H   UNL     1      98.946  72.169  67.516  1.00  0.00     0.345 HD
ATOM      6  H   UNL     1     100.594  72.172  67.948  1.00  0.00     0.345 HD
ENDBRANCH   2   3
BRANCH   2   7
ATOM      7  C   UNL     1     100.125  69.934  69.685  1.00  0.00     0.102 C 
ATOM      8  O   UNL     1     100.612  69.197  68.788  1.00  0.00    -0.544 OA
ATOM      9  O   UNL     1     100.318  69.604  71.021  1.00  0.00    -0.544 OA
ENDBRANCH   2   7
ENDBRANCH   1   2
BRANCH   1  10
ATOM     10  O   UNL     1      97.523  69.635  69.346  1.00  0.00    -0.390 OA
ATOM     11  H   UNL     1      96.943  69.424  70.122  1.00  0.00     0.210 HD
ENDBRANCH   1  10
TORSDOF 4
ENDMDL
MODEL 3
REMARK VINA RESULT:    -3.470      5.939      6.322
REMARK INTER + INTRA:          -4.085
REMARK INTER:                  -3.896
REMARK INTRA:                  -0.189
REMARK UNBOUND:                -0.006
REMARK SMILES [NH3+][C@@H](CO)C(=O)[O-]
REMARK SMILES IDX 3 1 2 2 1 3 5 7 6 8 7 9 4 10
REMARK H PARENT 1 4 1 5 1 6 4 11
REMARK Flexibility Score: inf
ROOT
ATOM      1  C   UNL     1      98.549  72.280  69.351  1.00  0.00     0.227 C 
ENDROOT
BRANCH   1   2
ATOM      2  C   UNL     1      98.655  70.802  68.945  1.00  0.00     0.253 C 
BRANCH   2   3
ATOM      3  N   UNL     1      97.456  70.054  69.346  1.00  0.00    -0.348 N 
ATOM      4  H   UNL     1      97.667  69.481  70.196  1.00  0.00     0.345 HD
ATOM      5  H   UNL     1      96.662  70.701  69.558  1.00  0.00     0.345 HD
ATOM      6  H   UNL     1      97.171  69.404  68.577  1.00  0.00     0.345 HD
ENDBRANCH   2   3
BRANCH   2   7
ATOM      7  C   UNL     1      99.895  70.177  69.530  1.00  0.00     0.102 C 
ATOM      8  O   UNL     1     100.210  70.406  70.727  1.00  0.00    -0.544 OA
ATOM      9  O   UNL     1     100.676  69.314  68.770  1.00  0.00    -0.544 OA
ENDBRANCH   2   7
ENDBRANCH   1   2
BRANCH   1  10
ATOM     10  O   UNL     1      99.683  72.993  68.937  1.00  0.00    -0.390 OA
ATOM     11  H   UNL     1      99.487  73.950  69.113  1.00  0.00     0.210 HD
ENDBRANCH   1  10
TORSDOF 4
ENDMDL
MODEL 4
REMARK VINA RESULT:    -3.316      6.574      7.000
REMARK INTER + INTRA:          -3.904
REMARK INTER:                  -3.668
REMARK INTRA:                  -0.237
REMARK UNBOUND:                -0.006
REMARK SMILES [NH3+][C@@H](CO)C(=O)[O-]
REMARK SMILES IDX 3 1 2 2 1 3 5 7 6 8 7 9 4 10
REMARK H PARENT 1 4 1 5 1 6 4 11
REMARK Flexibility Score: inf
ROOT
ATOM      1  C   UNL     1     100.567  69.744  69.277  1.00  0.00     0.227 C 
ENDROOT
BRANCH   1   2
ATOM      2  C   UNL     1      99.133  69.957  69.787  1.00  0.00     0.253 C 
BRANCH   2   3
ATOM      3  N   UNL     1      98.245  68.875  69.342  1.00  0.00    -0.348 N 
ATOM      4  H   UNL     1      98.813  68.103  68.924  1.00  0.00     0.345 HD
ATOM      5  H   UNL     1      97.686  68.495  70.140  1.00  0.00     0.345 HD
ATOM      6  H   UNL     1      97.591  69.234  68.608  1.00  0.00     0.345 HD
ENDBRANCH   2   3
BRANCH   2   7
ATOM      7  C   UNL     1      98.605  71.297  69.345  1.00  0.00     0.102 C 
ATOM      8  O   UNL     1      97.363  71.495  69.282  1.00  0.00    -0.544 OA
ATOM      9  O   UNL     1      99.478  72.336  69.047  1.00  0.00    -0.544 OA
ENDBRANCH   2   7
ENDBRANCH   1   2
BRANCH   1  10
ATOM     10  O   UNL     1     100.644  69.971  67.896  1.00  0.00    -0.390 OA
ATOM     11  H   UNL     1     100.767  69.080  67.476  1.00  0.00     0.210 HD
ENDBRANCH   1  10
TORSDOF 4
ENDMDL
MODEL 5
REMARK VINA RESULT:    -3.304      1.103      2.982
REMARK INTER + INTRA:          -3.890
REMARK INTER:                  -3.682
REMARK INTRA:                  -0.208
REMARK UNBOUND:                -0.006
REMARK SMILES [NH3+][C@@H](CO)C(=O)[O-]
REMARK SMILES IDX 3 1 2 2 1 3 5 7 6 8 7 9 4 10
REMARK H PARENT 1 4 1 5 1 6 4 11
REMARK Flexibility Score: inf
ROOT
ATOM      1  C   UNL     1     101.749  69.649  74.265  1.00  0.00     0.227 C 
ENDROOT
BRANCH   1   2
ATOM      2  C   UNL     1     101.982  70.580  75.466  1.00  0.00     0.253 C 
BRANCH   2   3
ATOM      3  N   UNL     1     100.714  71.122  75.972  1.00  0.00    -0.348 N 
ATOM      4  H   UNL     1     100.607  72.115  75.662  1.00  0.00     0.345 HD
ATOM      5  H   UNL     1      99.900  70.565  75.622  1.00  0.00     0.345 HD
ATOM      6  H   UNL     1     100.715  71.104  77.018  1.00  0.00     0.345 HD
ENDBRANCH   2   3
BRANCH   2   7
ATOM      7  C   UNL     1     102.931  71.692  75.101  1.00  0.00     0.102 C 
ATOM      8  O   UNL     1     102.494  72.859  74.924  1.00  0.00    -0.544 OA
ATOM      9  O   UNL     1     104.296  71.450  75.000  1.00  0.00    -0.544 OA
ENDBRANCH   2   7
ENDBRANCH   1   2
BRANCH   1  10
ATOM     10  O   UNL     1     102.889  68.875  74.006  1.00  0.00    -0.390 OA
ATOM     11  H   UNL     1     102.695  67.970  74.363  1.00  0.00     0.210 HD
ENDBRANCH   1  10
TORSDOF 4
ENDMDL
MODEL 6
REMARK VINA RESULT:    -3.222      7.641      8.033
REMARK INTER + INTRA:          -3.793
REMARK INTER:                  -3.429
REMARK INTRA:                  -0.364
REMARK UNBOUND:                -0.006
REMARK SMILES [NH3+][C@@H](CO)C(=O)[O-]
REMARK SMILES IDX 3 1 2 2 1 3 5 7 6 8 7 9 4 10
REMARK H PARENT 1 4 1 5 1 6 4 11
REMARK Flexibility Score: inf
ROOT
ATOM      1  C   UNL     1      98.668  71.918  82.296  1.00  0.00     0.227 C 
ENDROOT
BRANCH   1   2
ATOM      2  C   UNL     1      99.839  71.336  83.104  1.00  0.00     0.253 C 
BRANCH   2   3
ATOM      3  N   UNL     1     100.026  72.062  84.367  1.00  0.00    -0.348 N 
ATOM      4  H   UNL     1      99.233  71.849  85.016  1.00  0.00     0.345 HD
ATOM      5  H   UNL     1     100.926  71.794  84.826  1.00  0.00     0.345 HD
ATOM      6  H   UNL     1     100.030  73.093  84.184  1.00  0.00     0.345 HD
ENDBRANCH   2   3
BRANCH   2   7
ATOM      7  C   UNL     1     101.105  71.348  82.288  1.00  0.00     0.102 C 
ATOM      8  O   UNL     1     101.874  72.344  82.333  1.00  0.00    -0.544 OA
ATOM      9  O   UNL     1     101.457  70.247  81.516  1.00  0.00    -0.544 OA
ENDBRANCH   2   7
ENDBRANCH   1   2
BRANCH   1  10
ATOM     10  O   UNL     1      99.114  72.432  81.071  1.00  0.00    -0.390 OA
ATOM     11  H   UNL     1      99.437  71.654  80.546  1.00  0.00     0.210 HD
ENDBRANCH   1  10
TORSDOF 4
ENDMDL
MODEL 7
REMARK VINA RESULT:    -3.166      1.955      2.294
REMARK INTER + INTRA:          -3.728
REMARK INTER:                  -3.355
REMARK INTRA:                  -0.373
REMARK UNBOUND:                -0.006
REMARK SMILES [NH3+][C@@H](CO)C(=O)[O-]
REMARK SMILES IDX 3 1 2 2 1 3 5 7 6 8 7 9 4 10
REMARK H PARENT 1 4 1 5 1 6 4 11
REMARK Flexibility Score: inf
ROOT
ATOM      1  C   UNL     1     103.504  72.076  75.037  1.00  0.00     0.227 C 
ENDROOT
BRANCH   1   2
ATOM      2  C   UNL     1     103.035  70.620  75.185  1.00  0.00     0.253 C 
BRANCH   2   3
ATOM      3  N   UNL     1     103.625  69.764  74.148  1.00  0.00    -0.348 N 
ATOM      4  H   UNL     1     104.581  69.459  74.445  1.00  0.00     0.345 HD
ATOM      5  H   UNL     1     103.033  68.918  73.976  1.00  0.00     0.345 HD
ATOM      6  H   UNL     1     103.716  70.303  73.255  1.00  0.00     0.345 HD
ENDBRANCH   2   3
BRANCH   2   7
ATOM      7  C   UNL     1     101.531  70.540  75.153  1.00  0.00     0.102 C 
ATOM      8  O   UNL     1     100.944  70.134  74.116  1.00  0.00    -0.544 OA
ATOM      9  O   UNL     1     100.782  70.870  76.277  1.00  0.00    -0.544 OA
ENDBRANCH   2   7
ENDBRANCH   1   2
BRANCH   1  10
ATOM     10  O   UNL     1     102.428  72.916  74.713  1.00  0.00    -0.390 OA
ATOM     11  H   UNL     1     101.949  72.474  73.966  1.00  0.00     0.210 HD
ENDBRANCH   1  10
TORSDOF 4
ENDMDL
MODEL 8
REMARK VINA RESULT:    -3.151      1.980      2.116
REMARK INTER + INTRA:          -3.709
REMARK INTER:                  -3.565
REMARK INTRA:                  -0.144
REMARK UNBOUND:                -0.006
REMARK SMILES [NH3+][C@@H](CO)C(=O)[O-]
REMARK SMILES IDX 3 1 2 2 1 3 5 7 6 8 7 9 4 10
REMARK H PARENT 1 4 1 5 1 6 4 11
REMARK Flexibility Score: inf
ROOT
ATOM      1  C   UNL     1     101.372  70.267  76.246  1.00  0.00     0.227 C 
ENDROOT
BRANCH   1   2
ATOM      2  C   UNL     1     102.325  70.542  75.072  1.00  0.00     0.253 C 
BRANCH   2   3
ATOM      3  N   UNL     1     102.332  71.967  74.716  1.00  0.00    -0.348 N 
ATOM      4  H   UNL     1     101.654  72.484  75.322  1.00  0.00     0.345 HD
ATOM      5  H   UNL     1     103.285  72.381  74.837  1.00  0.00     0.345 HD
ATOM      6  H   UNL     1     102.034  72.083  73.719  1.00  0.00     0.345 HD
ENDBRANCH   2   3
BRANCH   2   7
ATOM      7  C   UNL     1     101.960  69.695  73.881  1.00  0.00     0.102 C 
ATOM      8  O   UNL     1     102.794  68.878  73.409  1.00  0.00    -0.544 OA
ATOM      9  O   UNL     1     100.690  69.774  73.321  1.00  0.00    -0.544 OA
ENDBRANCH   2   7
ENDBRANCH   1   2
BRANCH   1  10
ATOM     10  O   UNL     1     100.293  71.160  76.232  1.00  0.00    -0.390 OA
ATOM     11  H   UNL     1     100.046  71.281  75.279  1.00  0.00     0.210 HD
ENDBRANCH   1  10
TORSDOF 4
ENDMDL
MODEL 9
REMARK VINA RESULT:    -3.140      5.644      6.511
REMARK INTER + INTRA:          -3.697
REMARK INTER:                  -3.682
REMARK INTRA:                  -0.015
REMARK UNBOUND:                -0.006
REMARK SMILES [NH3+][C@@H](CO)C(=O)[O-]
REMARK SMILES IDX 3 1 2 2 1 3 5 7 6 8 7 9 4 10
REMARK H PARENT 1 4 1 5 1 6 4 11
REMARK Flexibility Score: inf
ROOT
ATOM      1  C   UNL     1     100.665  69.846  70.724  1.00  0.00     0.227 C 
ENDROOT
BRANCH   1   2
ATOM      2  C   UNL     1      99.794  69.772  69.459  1.00  0.00     0.253 C 
BRANCH   2   3
ATOM      3  N   UNL     1     100.622  69.673  68.249  1.00  0.00    -0.348 N 
ATOM      4  H   UNL     1     100.762  70.626  67.840  1.00  0.00     0.345 HD
ATOM      5  H   UNL     1     101.555  69.252  68.465  1.00  0.00     0.345 HD
ATOM      6  H   UNL     1     100.137  69.079  67.537  1.00  0.00     0.345 HD
ENDBRANCH   2   3
BRANCH   2   7
ATOM      7  C   UNL     1      98.870  70.959  69.379  1.00  0.00     0.102 C 
ATOM      8  O   UNL     1      97.623  70.787  69.381  1.00  0.00    -0.544 OA
ATOM      9  O   UNL     1      99.382  72.251  69.346  1.00  0.00    -0.544 OA
ENDBRANCH   2   7
ENDBRANCH   1   2
BRANCH   1  10
ATOM     10  O   UNL     1     100.274  68.875  71.656  1.00  0.00    -0.390 OA
ATOM     11  H   UNL     1     100.979  68.177  71.639  1.00  0.00     0.210 HD
ENDBRANCH   1  10
TORSDOF 4
ENDMDL
