MODEL 1
REMARK VINA RESULT:    -3.931      0.000      0.000
REMARK INTER + INTRA:          -6.192
REMARK INTER:                  -5.999
REMARK INTRA:                  -0.193
REMARK UNBOUND:                -0.193
REMARK SMILES O=C([O-])CCCCCCCCC(=O)[O-]
REMARK SMILES IDX 7 1 6 2 5 3 4 4 2 5 1 6 3 7 8 8 9 9 10 10 11 11 12 12 13 13
REMARK SMILES IDX 14 14
REMARK H PARENT
REMARK Flexibility Score: inf
ROOT
ATOM      1  C   UNL     1     -30.024 -15.653  13.891  1.00  0.00     0.000 C 
ENDROOT
BRANCH   1   2
ATOM      2  C   UNL     1     -30.813 -14.348  14.073  1.00  0.00     0.000 C 
BRANCH   2   3
ATOM      3  C   UNL     1     -30.828 -13.477  12.801  1.00  0.00     0.006 C 
BRANCH   3   4
ATOM      4  C   UNL     1     -31.125 -11.991  13.054  1.00  0.00     0.053 C 
BRANCH   4   5
ATOM      5  C   UNL     1     -30.167 -11.095  12.330  1.00  0.00     0.041 C 
ATOM      6  O   UNL     1     -29.253 -11.589  11.618  1.00  0.00    -0.550 OA
ATOM      7  O   UNL     1     -30.306  -9.716  12.413  1.00  0.00    -0.550 OA
ENDBRANCH   4   5
ENDBRANCH   3   4
ENDBRANCH   2   3
ENDBRANCH   1   2
BRANCH   1   8
ATOM      8  C   UNL     1     -30.897 -16.734  13.235  1.00  0.00     0.000 C 
BRANCH   8   9
ATOM      9  C   UNL     1     -31.090 -17.964  14.134  1.00  0.00     0.000 C 
BRANCH   9  10
ATOM     10  C   UNL     1     -30.744 -19.282  13.418  1.00  0.00     0.006 C 
BRANCH  10  11
ATOM     11  C   UNL     1     -31.097 -20.511  14.266  1.00  0.00     0.053 C 
BRANCH  11  12
ATOM     12  C   UNL     1     -30.820 -21.788  13.534  1.00  0.00     0.041 C 
ATOM     13  O   UNL     1     -31.004 -22.897  14.101  1.00  0.00    -0.550 OA
ATOM     14  O   UNL     1     -30.392 -21.753  12.212  1.00  0.00    -0.550 OA
ENDBRANCH  11  12
ENDBRANCH  10  11
ENDBRANCH   9  10
ENDBRANCH   8   9
ENDBRANCH   1   8
TORSDOF 9
ENDMDL
MODEL 2
REMARK VINA RESULT:    -3.758     14.537     16.669
REMARK INTER + INTRA:          -5.929
REMARK INTER:                  -5.702
REMARK INTRA:                  -0.227
REMARK UNBOUND:                -0.193
REMARK SMILES O=C([O-])CCCCCCCCC(=O)[O-]
REMARK SMILES IDX 7 1 6 2 5 3 4 4 2 5 1 6 3 7 8 8 9 9 10 10 11 11 12 12 13 13
REMARK SMILES IDX 14 14
REMARK H PARENT
REMARK Flexibility Score: inf
ROOT
ATOM      1  C   UNL     1     -20.954 -27.886  14.563  1.00  0.00     0.000 C 
ENDROOT
BRANCH   1   2
ATOM      2  C   UNL     1     -21.574 -26.745  15.384  1.00  0.00     0.000 C 
BRANCH   2   3
ATOM      3  C   UNL     1     -22.851 -27.172  16.132  1.00  0.00     0.006 C 
BRANCH   3   4
ATOM      4  C   UNL     1     -22.605 -28.118  17.318  1.00  0.00     0.053 C 
BRANCH   4   5
ATOM      5  C   UNL     1     -22.768 -27.423  18.636  1.00  0.00     0.041 C 
ATOM      6  O   UNL     1     -23.895 -27.385  19.196  1.00  0.00    -0.550 OA
ATOM      7  O   UNL     1     -21.669 -26.848  19.260  1.00  0.00    -0.550 OA
ENDBRANCH   4   5
ENDBRANCH   3   4
ENDBRANCH   2   3
ENDBRANCH   1   2
BRANCH   1   8
ATOM      8  C   UNL     1     -19.784 -27.373  13.709  1.00  0.00     0.000 C 
BRANCH   8   9
ATOM      9  C   UNL     1     -19.864 -27.850  12.251  1.00  0.00     0.000 C 
BRANCH   9  10
ATOM     10  C   UNL     1     -18.479 -28.125  11.640  1.00  0.00     0.006 C 
BRANCH  10  11
ATOM     11  C   UNL     1     -17.575 -26.886  11.675  1.00  0.00     0.053 C 
BRANCH  11  12
ATOM     12  C   UNL     1     -16.238 -27.157  11.053  1.00  0.00     0.041 C 
ATOM     13  O   UNL     1     -15.211 -26.564  11.475  1.00  0.00    -0.550 OA
ATOM     14  O   UNL     1     -16.124 -28.091  10.031  1.00  0.00    -0.550 OA
ENDBRANCH  11  12
ENDBRANCH  10  11
ENDBRANCH   9  10
ENDBRANCH   8   9
ENDBRANCH   1   8
TORSDOF 9
ENDMDL
MODEL 3
REMARK VINA RESULT:    -3.564     14.636     17.547
REMARK INTER + INTRA:          -5.632
REMARK INTER:                  -5.402
REMARK INTRA:                  -0.230
REMARK UNBOUND:                -0.193
REMARK SMILES O=C([O-])CCCCCCCCC(=O)[O-]
REMARK SMILES IDX 7 1 6 2 5 3 4 4 2 5 1 6 3 7 8 8 9 9 10 10 11 11 12 12 13 13
REMARK SMILES IDX 14 14
REMARK H PARENT
REMARK Flexibility Score: inf
ROOT
ATOM      1  C   UNL     1     -18.417 -27.420  11.708  1.00  0.00     0.000 C 
ENDROOT
BRANCH   1   2
ATOM      2  C   UNL     1     -16.931 -27.793  11.594  1.00  0.00     0.000 C 
BRANCH   2   3
ATOM      3  C   UNL     1     -16.007 -26.790  12.311  1.00  0.00     0.006 C 
BRANCH   3   4
ATOM      4  C   UNL     1     -14.581 -26.725  11.743  1.00  0.00     0.053 C 
BRANCH   4   5
ATOM      5  C   UNL     1     -13.554 -27.137  12.753  1.00  0.00     0.041 C 
ATOM      6  O   UNL     1     -12.333 -26.909  12.544  1.00  0.00    -0.550 OA
ATOM      7  O   UNL     1     -13.948 -27.741  13.940  1.00  0.00    -0.550 OA
ENDBRANCH   4   5
ENDBRANCH   3   4
ENDBRANCH   2   3
ENDBRANCH   1   2
BRANCH   1   8
ATOM      8  C   UNL     1     -19.049 -28.063  12.953  1.00  0.00     0.000 C 
BRANCH   8   9
ATOM      9  C   UNL     1     -20.200 -27.225  13.531  1.00  0.00     0.000 C 
BRANCH   9  10
ATOM     10  C   UNL     1     -20.802 -27.843  14.806  1.00  0.00     0.006 C 
BRANCH  10  11
ATOM     11  C   UNL     1     -21.828 -26.916  15.468  1.00  0.00     0.053 C 
BRANCH  11  12
ATOM     12  C   UNL     1     -22.436 -27.543  16.686  1.00  0.00     0.041 C 
ATOM     13  O   UNL     1     -21.774 -27.628  17.754  1.00  0.00    -0.550 OA
ATOM     14  O   UNL     1     -23.747 -28.001  16.651  1.00  0.00    -0.550 OA
ENDBRANCH  11  12
ENDBRANCH  10  11
ENDBRANCH   9  10
ENDBRANCH   8   9
ENDBRANCH   1   8
TORSDOF 9
ENDMDL
MODEL 4
REMARK VINA RESULT:    -3.432     18.475     20.422
REMARK INTER + INTRA:          -5.431
REMARK INTER:                  -5.113
REMARK INTRA:                  -0.318
REMARK UNBOUND:                -0.193
REMARK SMILES O=C([O-])CCCCCCCCC(=O)[O-]
REMARK SMILES IDX 7 1 6 2 5 3 4 4 2 5 1 6 3 7 8 8 9 9 10 10 11 11 12 12 13 13
REMARK SMILES IDX 14 14
REMARK H PARENT
REMARK Flexibility Score: inf
ROOT
ATOM      1  C   UNL     1     -12.356 -18.395  18.671  1.00  0.00     0.000 C 
ENDROOT
BRANCH   1   2
ATOM      2  C   UNL     1     -11.579 -19.695  18.933  1.00  0.00     0.000 C 
BRANCH   2   3
ATOM      3  C   UNL     1     -12.237 -20.926  18.280  1.00  0.00     0.006 C 
BRANCH   3   4
ATOM      4  C   UNL     1     -13.522 -21.401  18.976  1.00  0.00     0.053 C 
BRANCH   4   5
ATOM      5  C   UNL     1     -13.232 -22.249  20.176  1.00  0.00     0.041 C 
ATOM      6  O   UNL     1     -13.385 -21.780  21.335  1.00  0.00    -0.550 OA
ATOM      7  O   UNL     1     -12.827 -23.567  20.015  1.00  0.00    -0.550 OA
ENDBRANCH   4   5
ENDBRANCH   3   4
ENDBRANCH   2   3
ENDBRANCH   1   2
BRANCH   1   8
ATOM      8  C   UNL     1     -11.471 -17.364  17.954  1.00  0.00     0.000 C 
BRANCH   8   9
ATOM      9  C   UNL     1     -11.519 -17.505  16.425  1.00  0.00     0.000 C 
BRANCH   9  10
ATOM     10  C   UNL     1     -11.509 -16.145  15.703  1.00  0.00     0.006 C 
BRANCH  10  11
ATOM     11  C   UNL     1     -11.903 -16.271  14.226  1.00  0.00     0.053 C 
BRANCH  11  12
ATOM     12  C   UNL     1     -12.405 -14.973  13.673  1.00  0.00     0.041 C 
ATOM     13  O   UNL     1     -12.380 -14.759  12.433  1.00  0.00    -0.550 OA
ATOM     14  O   UNL     1     -12.934 -14.012  14.526  1.00  0.00    -0.550 OA
ENDBRANCH  11  12
ENDBRANCH  10  11
ENDBRANCH   9  10
ENDBRANCH   8   9
ENDBRANCH   1   8
TORSDOF 9
ENDMDL
MODEL 5
REMARK VINA RESULT:    -3.351     18.437     19.023
REMARK INTER + INTRA:          -5.307
REMARK INTER:                  -4.938
REMARK INTRA:                  -0.369
REMARK UNBOUND:                -0.193
REMARK SMILES O=C([O-])CCCCCCCCC(=O)[O-]
REMARK SMILES IDX 7 1 6 2 5 3 4 4 2 5 1 6 3 7 8 8 9 9 10 10 11 11 12 12 13 13
REMARK SMILES IDX 14 14
REMARK H PARENT
REMARK Flexibility Score: inf
ROOT
ATOM      1  C   UNL     1     -11.992 -17.594  17.435  1.00  0.00     0.000 C 
ENDROOT
BRANCH   1   2
ATOM      2  C   UNL     1     -11.075 -17.545  16.204  1.00  0.00     0.000 C 
BRANCH   2   3
ATOM      3  C   UNL     1     -11.626 -16.643  15.083  1.00  0.00     0.006 C 
BRANCH   3   4
ATOM      4  C   UNL     1     -11.659 -15.146  15.432  1.00  0.00     0.053 C 
BRANCH   4   5
ATOM      5  C   UNL     1     -12.417 -14.348  14.416  1.00  0.00     0.041 C 
ATOM      6  O   UNL     1     -12.848 -13.201  14.706  1.00  0.00    -0.550 OA
ATOM      7  O   UNL     1     -12.617 -14.856  13.140  1.00  0.00    -0.550 OA
ENDBRANCH   4   5
ENDBRANCH   3   4
ENDBRANCH   2   3
ENDBRANCH   1   2
BRANCH   1   8
ATOM      8  C   UNL     1     -11.170 -17.548  18.733  1.00  0.00     0.000 C 
BRANCH   8   9
ATOM      9  C   UNL     1     -11.749 -18.452  19.831  1.00  0.00     0.000 C 
BRANCH   9  10
ATOM     10  C   UNL     1     -13.144 -18.997  19.477  1.00  0.00     0.006 C 
BRANCH  10  11
ATOM     11  C   UNL     1     -13.144 -20.521  19.306  1.00  0.00     0.053 C 
BRANCH  11  12
ATOM     12  C   UNL     1     -13.462 -21.223  20.591  1.00  0.00     0.041 C 
ATOM     13  O   UNL     1     -13.975 -20.588  21.551  1.00  0.00    -0.550 OA
ATOM     14  O   UNL     1     -13.226 -22.586  20.716  1.00  0.00    -0.550 OA
ENDBRANCH  11  12
ENDBRANCH  10  11
ENDBRANCH   9  10
ENDBRANCH   8   9
ENDBRANCH   1   8
TORSDOF 9
ENDMDL
MODEL 6
REMARK VINA RESULT:    -3.351     18.735     19.408
REMARK INTER + INTRA:          -5.306
REMARK INTER:                  -4.985
REMARK INTRA:                  -0.322
REMARK UNBOUND:                -0.193
REMARK SMILES O=C([O-])CCCCCCCCC(=O)[O-]
REMARK SMILES IDX 7 1 6 2 5 3 4 4 2 5 1 6 3 7 8 8 9 9 10 10 11 11 12 12 13 13
REMARK SMILES IDX 14 14
REMARK H PARENT
REMARK Flexibility Score: inf
ROOT
ATOM      1  C   UNL     1     -13.547 -23.282  22.111  1.00  0.00     0.000 C 
ENDROOT
BRANCH   1   2
ATOM      2  C   UNL     1     -12.874 -22.249  21.195  1.00  0.00     0.000 C 
BRANCH   2   3
ATOM      3  C   UNL     1     -13.756 -21.012  20.941  1.00  0.00     0.006 C 
BRANCH   3   4
ATOM      4  C   UNL     1     -13.546 -20.355  19.567  1.00  0.00     0.053 C 
BRANCH   4   5
ATOM      5  C   UNL     1     -13.050 -18.946  19.686  1.00  0.00     0.041 C 
ATOM      6  O   UNL     1     -12.689 -18.313  18.659  1.00  0.00    -0.550 OA
ATOM      7  O   UNL     1     -13.020 -18.322  20.926  1.00  0.00    -0.550 OA
ENDBRANCH   4   5
ENDBRANCH   3   4
ENDBRANCH   2   3
ENDBRANCH   1   2
BRANCH   1   8
ATOM      8  C   UNL     1     -14.567 -22.606  23.041  1.00  0.00     0.000 C 
BRANCH   8   9
ATOM      9  C   UNL     1     -15.542 -23.610  23.676  1.00  0.00     0.000 C 
BRANCH   9  10
ATOM     10  C   UNL     1     -16.876 -22.961  24.088  1.00  0.00     0.006 C 
BRANCH  10  11
ATOM     11  C   UNL     1     -16.823 -22.379  25.507  1.00  0.00     0.053 C 
BRANCH  11  12
ATOM     12  C   UNL     1     -18.147 -22.485  26.200  1.00  0.00     0.041 C 
ATOM     13  O   UNL     1     -18.479 -21.633  27.065  1.00  0.00    -0.550 OA
ATOM     14  O   UNL     1     -19.028 -23.505  25.863  1.00  0.00    -0.550 OA
ENDBRANCH  11  12
ENDBRANCH  10  11
ENDBRANCH   9  10
ENDBRANCH   8   9
ENDBRANCH   1   8
TORSDOF 9
ENDMDL
MODEL 7
REMARK VINA RESULT:    -3.326     18.903     20.478
REMARK INTER + INTRA:          -5.268
REMARK INTER:                  -4.745
REMARK INTRA:                  -0.524
REMARK UNBOUND:                -0.193
REMARK SMILES O=C([O-])CCCCCCCCC(=O)[O-]
REMARK SMILES IDX 7 1 6 2 5 3 4 4 2 5 1 6 3 7 8 8 9 9 10 10 11 11 12 12 13 13
REMARK SMILES IDX 14 14
REMARK H PARENT
REMARK Flexibility Score: inf
ROOT
ATOM      1  C   UNL     1     -16.972 -23.016  24.159  1.00  0.00     0.000 C 
ENDROOT
BRANCH   1   2
ATOM      2  C   UNL     1     -17.166 -22.275  25.490  1.00  0.00     0.000 C 
BRANCH   2   3
ATOM      3  C   UNL     1     -18.401 -22.764  26.271  1.00  0.00     0.006 C 
BRANCH   3   4
ATOM      4  C   UNL     1     -19.075 -24.010  25.676  1.00  0.00     0.053 C 
BRANCH   4   5
ATOM      5  C   UNL     1     -18.891 -25.218  26.544  1.00  0.00     0.041 C 
ATOM      6  O   UNL     1     -17.860 -25.333  27.258  1.00  0.00    -0.550 OA
ATOM      7  O   UNL     1     -19.874 -26.198  26.590  1.00  0.00    -0.550 OA
ENDBRANCH   4   5
ENDBRANCH   3   4
ENDBRANCH   2   3
ENDBRANCH   1   2
BRANCH   1   8
ATOM      8  C   UNL     1     -15.480 -23.130  23.808  1.00  0.00     0.000 C 
BRANCH   8   9
ATOM      9  C   UNL     1     -14.622 -22.079  24.529  1.00  0.00     0.000 C 
BRANCH   9  10
ATOM     10  C   UNL     1     -13.603 -21.402  23.594  1.00  0.00     0.006 C 
BRANCH  10  11
ATOM     11  C   UNL     1     -13.869 -21.725  22.119  1.00  0.00     0.053 C 
BRANCH  11  12
ATOM     12  C   UNL     1     -13.704 -20.517  21.248  1.00  0.00     0.041 C 
ATOM     13  O   UNL     1     -13.483 -19.389  21.764  1.00  0.00    -0.550 OA
ATOM     14  O   UNL     1     -13.759 -20.643  19.866  1.00  0.00    -0.550 OA
ENDBRANCH  11  12
ENDBRANCH  10  11
ENDBRANCH   9  10
ENDBRANCH   8   9
ENDBRANCH   1   8
TORSDOF 9
ENDMDL
MODEL 8
REMARK VINA RESULT:    -3.287     18.828     20.413
REMARK INTER + INTRA:          -5.209
REMARK INTER:                  -4.614
REMARK INTRA:                  -0.595
REMARK UNBOUND:                -0.193
REMARK SMILES O=C([O-])CCCCCCCCC(=O)[O-]
REMARK SMILES IDX 7 1 6 2 5 3 4 4 2 5 1 6 3 7 8 8 9 9 10 10 11 11 12 12 13 13
REMARK SMILES IDX 14 14
REMARK H PARENT
REMARK Flexibility Score: inf
ROOT
ATOM      1  C   UNL     1     -13.121 -23.987  21.649  1.00  0.00     0.000 C 
ENDROOT
BRANCH   1   2
ATOM      2  C   UNL     1     -13.817 -23.912  23.016  1.00  0.00     0.000 C 
BRANCH   2   3
ATOM      3  C   UNL     1     -14.801 -22.730  23.120  1.00  0.00     0.006 C 
BRANCH   3   4
ATOM      4  C   UNL     1     -15.356 -22.491  24.533  1.00  0.00     0.053 C 
BRANCH   4   5
ATOM      5  C   UNL     1     -16.824 -22.778  24.616  1.00  0.00     0.041 C 
ATOM      6  O   UNL     1     -17.525 -22.241  25.514  1.00  0.00    -0.550 OA
ATOM      7  O   UNL     1     -17.424 -23.612  23.681  1.00  0.00    -0.550 OA
ENDBRANCH   4   5
ENDBRANCH   3   4
ENDBRANCH   2   3
ENDBRANCH   1   2
BRANCH   1   8
ATOM      8  C   UNL     1     -12.804 -22.581  21.116  1.00  0.00     0.000 C 
BRANCH   8   9
ATOM      9  C   UNL     1     -13.070 -22.446  19.609  1.00  0.00     0.000 C 
BRANCH   9  10
ATOM     10  C   UNL     1     -13.578 -21.047  19.219  1.00  0.00     0.006 C 
BRANCH  10  11
ATOM     11  C   UNL     1     -13.675 -20.109  20.429  1.00  0.00     0.053 C 
BRANCH  11  12
ATOM     12  C   UNL     1     -13.039 -18.781  20.153  1.00  0.00     0.041 C 
ATOM     13  O   UNL     1     -12.799 -18.426  18.969  1.00  0.00    -0.550 OA
ATOM     14  O   UNL     1     -12.743 -17.920  21.203  1.00  0.00    -0.550 OA
ENDBRANCH  11  12
ENDBRANCH  10  11
ENDBRANCH   9  10
ENDBRANCH   8   9
ENDBRANCH   1   8
TORSDOF 9
ENDMDL
MODEL 9
REMARK VINA RESULT:    -3.268     18.584     20.305
REMARK INTER + INTRA:          -5.181
REMARK INTER:                  -4.858
REMARK INTRA:                  -0.323
REMARK UNBOUND:                -0.193
REMARK SMILES O=C([O-])CCCCCCCCC(=O)[O-]
REMARK SMILES IDX 7 1 6 2 5 3 4 4 2 5 1 6 3 7 8 8 9 9 10 10 11 11 12 12 13 13
REMARK SMILES IDX 14 14
REMARK H PARENT
REMARK Flexibility Score: inf
ROOT
ATOM      1  C   UNL     1     -14.834 -22.605  23.327  1.00  0.00     0.000 C 
ENDROOT
BRANCH   1   2
ATOM      2  C   UNL     1     -15.762 -23.642  23.977  1.00  0.00     0.000 C 
BRANCH   2   3
ATOM      3  C   UNL     1     -17.251 -23.257  23.877  1.00  0.00     0.006 C 
BRANCH   3   4
ATOM      4  C   UNL     1     -18.223 -24.376  24.281  1.00  0.00     0.053 C 
BRANCH   4   5
ATOM      5  C   UNL     1     -18.827 -24.136  25.631  1.00  0.00     0.041 C 
ATOM      6  O   UNL     1     -19.302 -25.097  26.292  1.00  0.00    -0.550 OA
ATOM      7  O   UNL     1     -18.833 -22.858  26.174  1.00  0.00    -0.550 OA
ENDBRANCH   4   5
ENDBRANCH   3   4
ENDBRANCH   2   3
ENDBRANCH   1   2
BRANCH   1   8
ATOM      8  C   UNL     1     -13.814 -23.287  22.401  1.00  0.00     0.000 C 
BRANCH   8   9
ATOM      9  C   UNL     1     -13.120 -22.296  21.455  1.00  0.00     0.000 C 
BRANCH   9  10
ATOM     10  C   UNL     1     -13.420 -20.828  21.809  1.00  0.00     0.006 C 
BRANCH  10  11
ATOM     11  C   UNL     1     -13.931 -20.035  20.600  1.00  0.00     0.053 C 
BRANCH  11  12
ATOM     12  C   UNL     1     -13.126 -18.791  20.373  1.00  0.00     0.041 C 
ATOM     13  O   UNL     1     -12.814 -18.443  19.204  1.00  0.00    -0.550 OA
ATOM     14  O   UNL     1     -12.752 -17.999  21.451  1.00  0.00    -0.550 OA
ENDBRANCH  11  12
ENDBRANCH  10  11
ENDBRANCH   9  10
ENDBRANCH   8   9
ENDBRANCH   1   8
TORSDOF 9
ENDMDL
