MODEL 1
REMARK VINA RESULT:    -4.131      0.000      0.000
REMARK INTER + INTRA:          -5.153
REMARK INTER:                  -4.977
REMARK INTRA:                  -0.177
REMARK UNBOUND:                -0.177
REMARK SMILES C=CCc1ccc(O)c(OC)c1
REMARK SMILES IDX 9 1 7 2 6 3 5 4 4 5 12 6 10 7 11 8 8 9 3 11 2 12 1 13
REMARK H PARENT 8 10
REMARK Flexibility Score: inf
ROOT
ATOM      1  C   UNL     1       8.258 -32.299  15.788  1.00  0.00     0.160 A 
ATOM      2  C   UNL     1       7.253 -32.452  14.822  1.00  0.00     0.157 A 
ATOM      3  C   UNL     1       7.591 -32.545  13.466  1.00  0.00     0.050 A 
ATOM      4  C   UNL     1       8.927 -32.485  13.066  1.00  0.00     0.008 A 
ATOM      5  C   UNL     1       9.943 -32.322  14.018  1.00  0.00    -0.040 A 
ATOM      6  C   UNL     1       9.605 -32.239  15.379  1.00  0.00     0.054 A 
ENDROOT
BRANCH   1   7
ATOM      7  O   UNL     1       7.881 -32.215  17.137  1.00  0.00    -0.493 OA
ATOM      8  C   UNL     1       8.773 -31.914  18.206  1.00  0.00     0.278 C 
ENDBRANCH   1   7
BRANCH   2   9
ATOM      9  O   UNL     1       5.919 -32.512  15.219  1.00  0.00    -0.504 OA
ATOM     10  H   UNL     1       5.538 -33.330  15.680  1.00  0.00     0.293 HD
ENDBRANCH   2   9
BRANCH   5  11
ATOM     11  C   UNL     1      11.387 -32.285  13.594  1.00  0.00     0.062 C 
BRANCH  11  12
ATOM     12  C   UNL     1      12.125 -31.191  14.310  1.00  0.00    -0.030 C 
ATOM     13  C   UNL     1      13.450 -31.052  14.205  1.00  0.00     0.004 C 
ENDBRANCH  11  12
ENDBRANCH   5  11
TORSDOF 4
ENDMDL
MODEL 2
REMARK VINA RESULT:    -3.995      2.053      4.283
REMARK INTER + INTRA:          -4.989
REMARK INTER:                  -4.719
REMARK INTRA:                  -0.270
REMARK UNBOUND:                -0.177
REMARK SMILES C=CCc1ccc(O)c(OC)c1
REMARK SMILES IDX 9 1 7 2 6 3 5 4 4 5 12 6 10 7 11 8 8 9 3 11 2 12 1 13
REMARK H PARENT 8 10
REMARK Flexibility Score: inf
ROOT
ATOM      1  C   UNL     1       9.068 -31.873  16.253  1.00  0.00     0.160 A 
ATOM      2  C   UNL     1       9.890 -31.832  15.117  1.00  0.00     0.157 A 
ATOM      3  C   UNL     1       9.411 -32.298  13.886  1.00  0.00     0.050 A 
ATOM      4  C   UNL     1       8.115 -32.807  13.780  1.00  0.00     0.008 A 
ATOM      5  C   UNL     1       7.285 -32.865  14.909  1.00  0.00    -0.040 A 
ATOM      6  C   UNL     1       7.762 -32.388  16.141  1.00  0.00     0.054 A 
ENDROOT
BRANCH   1   7
ATOM      7  O   UNL     1       9.582 -31.392  17.467  1.00  0.00    -0.493 OA
ATOM      8  C   UNL     1       8.945 -31.550  18.731  1.00  0.00     0.278 C 
ENDBRANCH   1   7
BRANCH   2   9
ATOM      9  O   UNL     1      11.184 -31.324  15.220  1.00  0.00    -0.504 OA
ATOM     10  H   UNL     1      11.503 -30.850  16.057  1.00  0.00     0.293 HD
ENDBRANCH   2   9
BRANCH   5  11
ATOM     11  C   UNL     1       5.877 -33.387  14.793  1.00  0.00     0.062 C 
BRANCH  11  12
ATOM     12  C   UNL     1       5.875 -34.812  14.317  1.00  0.00    -0.030 C 
ATOM     13  C   UNL     1       6.197 -35.824  15.127  1.00  0.00     0.004 C 
ENDBRANCH  11  12
ENDBRANCH   5  11
TORSDOF 4
ENDMDL
MODEL 3
REMARK VINA RESULT:    -3.602      2.360      4.918
REMARK INTER + INTRA:          -4.515
REMARK INTER:                  -4.240
REMARK INTRA:                  -0.275
REMARK UNBOUND:                -0.177
REMARK SMILES C=CCc1ccc(O)c(OC)c1
REMARK SMILES IDX 9 1 7 2 6 3 5 4 4 5 12 6 10 7 11 8 8 9 3 11 2 12 1 13
REMARK H PARENT 8 10
REMARK Flexibility Score: inf
ROOT
ATOM      1  C   UNL     1       9.662 -32.312  14.247  1.00  0.00     0.160 A 
ATOM      2  C   UNL     1       9.976 -31.749  15.493  1.00  0.00     0.157 A 
ATOM      3  C   UNL     1       9.025 -31.743  16.521  1.00  0.00     0.050 A 
ATOM      4  C   UNL     1       7.759 -32.296  16.314  1.00  0.00     0.008 A 
ATOM      5  C   UNL     1       7.427 -32.854  15.072  1.00  0.00    -0.040 A 
ATOM      6  C   UNL     1       8.384 -32.868  14.044  1.00  0.00     0.054 A 
ENDROOT
BRANCH   1   7
ATOM      7  O   UNL     1      10.643 -32.303  13.243  1.00  0.00    -0.493 OA
ATOM      8  C   UNL     1      11.447 -33.424  12.892  1.00  0.00     0.278 C 
ENDBRANCH   1   7
BRANCH   2   9
ATOM      9  O   UNL     1      11.238 -31.196  15.701  1.00  0.00    -0.504 OA
ATOM     10  H   UNL     1      12.083 -31.743  15.585  1.00  0.00     0.293 HD
ENDBRANCH   2   9
BRANCH   5  11
ATOM     11  C   UNL     1       6.073 -33.476  14.854  1.00  0.00     0.062 C 
BRANCH  11  12
ATOM     12  C   UNL     1       6.201 -34.949  14.588  1.00  0.00    -0.030 C 
ATOM     13  C   UNL     1       6.622 -35.800  15.528  1.00  0.00     0.004 C 
ENDBRANCH  11  12
ENDBRANCH   5  11
TORSDOF 4
ENDMDL
MODEL 4
REMARK VINA RESULT:    -3.547      1.267      2.843
REMARK INTER + INTRA:          -4.450
REMARK INTER:                  -4.228
REMARK INTRA:                  -0.221
REMARK UNBOUND:                -0.177
REMARK SMILES C=CCc1ccc(O)c(OC)c1
REMARK SMILES IDX 9 1 7 2 6 3 5 4 4 5 12 6 10 7 11 8 8 9 3 11 2 12 1 13
REMARK H PARENT 8 10
REMARK Flexibility Score: inf
ROOT
ATOM      1  C   UNL     1       8.827 -32.186  16.140  1.00  0.00     0.160 A 
ATOM      2  C   UNL     1       9.109 -31.478  17.317  1.00  0.00     0.157 A 
ATOM      3  C   UNL     1      10.291 -30.735  17.424  1.00  0.00     0.050 A 
ATOM      4  C   UNL     1      11.198 -30.695  16.363  1.00  0.00     0.008 A 
ATOM      5  C   UNL     1      10.936 -31.406  15.183  1.00  0.00    -0.040 A 
ATOM      6  C   UNL     1       9.745 -32.143  15.072  1.00  0.00     0.054 A 
ENDROOT
BRANCH   1   7
ATOM      7  O   UNL     1       7.630 -32.915  16.068  1.00  0.00    -0.493 OA
ATOM      8  C   UNL     1       6.674 -32.794  15.020  1.00  0.00     0.278 C 
ENDBRANCH   1   7
BRANCH   2   9
ATOM      9  O   UNL     1       8.205 -31.517  18.378  1.00  0.00    -0.504 OA
ATOM     10  H   UNL     1       7.739 -30.681  18.709  1.00  0.00     0.293 HD
ENDBRANCH   2   9
BRANCH   5  11
ATOM     11  C   UNL     1      11.897 -31.342  14.026  1.00  0.00     0.062 C 
BRANCH  11  12
ATOM     12  C   UNL     1      13.290 -31.046  14.506  1.00  0.00    -0.030 C 
ATOM     13  C   UNL     1      14.187 -30.437  13.726  1.00  0.00     0.004 C 
ENDBRANCH  11  12
ENDBRANCH   5  11
TORSDOF 4
ENDMDL
MODEL 5
REMARK VINA RESULT:    -3.461     16.390     17.806
REMARK INTER + INTRA:          -4.346
REMARK INTER:                  -4.111
REMARK INTRA:                  -0.235
REMARK UNBOUND:                -0.177
REMARK SMILES C=CCc1ccc(O)c(OC)c1
REMARK SMILES IDX 9 1 7 2 6 3 5 4 4 5 12 6 10 7 11 8 8 9 3 11 2 12 1 13
REMARK H PARENT 8 10
REMARK Flexibility Score: inf
ROOT
ATOM      1  C   UNL     1      13.893 -35.320  32.407  1.00  0.00     0.160 A 
ATOM      2  C   UNL     1      13.964 -33.921  32.334  1.00  0.00     0.157 A 
ATOM      3  C   UNL     1      15.001 -33.305  31.622  1.00  0.00     0.050 A 
ATOM      4  C   UNL     1      15.972 -34.078  30.981  1.00  0.00     0.008 A 
ATOM      5  C   UNL     1      15.921 -35.478  31.052  1.00  0.00    -0.040 A 
ATOM      6  C   UNL     1      14.875 -36.095  31.758  1.00  0.00     0.054 A 
ENDROOT
BRANCH   1   7
ATOM      7  O   UNL     1      12.837 -35.900  33.125  1.00  0.00    -0.493 OA
ATOM      8  C   UNL     1      11.985 -36.924  32.621  1.00  0.00     0.278 C 
ENDBRANCH   1   7
BRANCH   2   9
ATOM      9  O   UNL     1      12.996 -33.148  32.974  1.00  0.00    -0.504 OA
ATOM     10  H   UNL     1      12.527 -33.472  33.811  1.00  0.00     0.293 HD
ENDBRANCH   2   9
BRANCH   5  11
ATOM     11  C   UNL     1      16.950 -36.314  30.339  1.00  0.00     0.062 C 
BRANCH  11  12
ATOM     12  C   UNL     1      17.489 -35.588  29.140  1.00  0.00    -0.030 C 
ATOM     13  C   UNL     1      17.492 -36.143  27.924  1.00  0.00     0.004 C 
ENDBRANCH  11  12
ENDBRANCH   5  11
TORSDOF 4
ENDMDL
MODEL 6
REMARK VINA RESULT:    -3.459      2.180      4.807
REMARK INTER + INTRA:          -4.344
REMARK INTER:                  -4.067
REMARK INTRA:                  -0.276
REMARK UNBOUND:                -0.177
REMARK SMILES C=CCc1ccc(O)c(OC)c1
REMARK SMILES IDX 9 1 7 2 6 3 5 4 4 5 12 6 10 7 11 8 8 9 3 11 2 12 1 13
REMARK H PARENT 8 10
REMARK Flexibility Score: inf
ROOT
ATOM      1  C   UNL     1       9.421 -32.234  14.115  1.00  0.00     0.160 A 
ATOM      2  C   UNL     1       9.326 -31.943  15.483  1.00  0.00     0.157 A 
ATOM      3  C   UNL     1       8.115 -32.137  16.160  1.00  0.00     0.050 A 
ATOM      4  C   UNL     1       6.995 -32.618  15.478  1.00  0.00     0.008 A 
ATOM      5  C   UNL     1       7.072 -32.904  14.107  1.00  0.00    -0.040 A 
ATOM      6  C   UNL     1       8.289 -32.720  13.431  1.00  0.00     0.054 A 
ENDROOT
BRANCH   1   7
ATOM      7  O   UNL     1      10.653 -32.032  13.473  1.00  0.00    -0.493 OA
ATOM      8  C   UNL     1      11.615 -33.055  13.233  1.00  0.00     0.278 C 
ENDBRANCH   1   7
BRANCH   2   9
ATOM      9  O   UNL     1      10.442 -31.462  16.165  1.00  0.00    -0.504 OA
ATOM     10  H   UNL     1      11.129 -30.873  15.709  1.00  0.00     0.293 HD
ENDBRANCH   2   9
BRANCH   5  11
ATOM     11  C   UNL     1       5.875 -33.451  13.375  1.00  0.00     0.062 C 
BRANCH  11  12
ATOM     12  C   UNL     1       6.136 -34.852  12.899  1.00  0.00    -0.030 C 
ATOM     13  C   UNL     1       6.223 -35.878  13.749  1.00  0.00     0.004 C 
ENDBRANCH  11  12
ENDBRANCH   5  11
TORSDOF 4
ENDMDL
MODEL 7
REMARK VINA RESULT:    -3.287      1.857      2.724
REMARK INTER + INTRA:          -4.137
REMARK INTER:                  -3.921
REMARK INTRA:                  -0.216
REMARK UNBOUND:                -0.177
REMARK SMILES C=CCc1ccc(O)c(OC)c1
REMARK SMILES IDX 9 1 7 2 6 3 5 4 4 5 12 6 10 7 11 8 8 9 3 11 2 12 1 13
REMARK H PARENT 8 10
REMARK Flexibility Score: inf
ROOT
ATOM      1  C   UNL     1       9.117 -33.339  14.148  1.00  0.00     0.160 A 
ATOM      2  C   UNL     1       9.647 -34.359  13.344  1.00  0.00     0.157 A 
ATOM      3  C   UNL     1      10.969 -34.279  12.889  1.00  0.00     0.050 A 
ATOM      4  C   UNL     1      11.768 -33.186  13.230  1.00  0.00     0.008 A 
ATOM      5  C   UNL     1      11.249 -32.153  14.024  1.00  0.00    -0.040 A 
ATOM      6  C   UNL     1       9.927 -32.238  14.489  1.00  0.00     0.054 A 
ENDROOT
BRANCH   1   7
ATOM      7  O   UNL     1       7.790 -33.457  14.589  1.00  0.00    -0.493 OA
ATOM      8  C   UNL     1       7.179 -32.597  15.546  1.00  0.00     0.278 C 
ENDBRANCH   1   7
BRANCH   2   9
ATOM      9  O   UNL     1       8.851 -35.451  13.002  1.00  0.00    -0.504 OA
ATOM     10  H   UNL     1       8.976 -35.945  12.127  1.00  0.00     0.293 HD
ENDBRANCH   2   9
BRANCH   5  11
ATOM     11  C   UNL     1      12.116 -30.987  14.417  1.00  0.00     0.062 C 
BRANCH  11  12
ATOM     12  C   UNL     1      13.555 -31.252  14.073  1.00  0.00    -0.030 C 
ATOM     13  C   UNL     1      14.377 -30.271  13.689  1.00  0.00     0.004 C 
ENDBRANCH  11  12
ENDBRANCH   5  11
TORSDOF 4
ENDMDL
MODEL 8
REMARK VINA RESULT:    -3.141      2.775      4.682
REMARK INTER + INTRA:          -3.961
REMARK INTER:                  -3.758
REMARK INTRA:                  -0.203
REMARK UNBOUND:                -0.177
REMARK SMILES C=CCc1ccc(O)c(OC)c1
REMARK SMILES IDX 9 1 7 2 6 3 5 4 4 5 12 6 10 7 11 8 8 9 3 11 2 12 1 13
REMARK H PARENT 8 10
REMARK Flexibility Score: inf
ROOT
ATOM      1  C   UNL     1      10.712 -32.712  13.411  1.00  0.00     0.160 A 
ATOM      2  C   UNL     1      10.964 -34.083  13.257  1.00  0.00     0.157 A 
ATOM      3  C   UNL     1       9.910 -34.966  12.990  1.00  0.00     0.050 A 
ATOM      4  C   UNL     1       8.603 -34.489  12.875  1.00  0.00     0.008 A 
ATOM      5  C   UNL     1       8.333 -33.122  13.036  1.00  0.00    -0.040 A 
ATOM      6  C   UNL     1       9.391 -32.236  13.294  1.00  0.00     0.054 A 
ENDROOT
BRANCH   1   7
ATOM      7  O   UNL     1      11.795 -31.858  13.673  1.00  0.00    -0.493 OA
ATOM      8  C   UNL     1      11.953 -31.100  14.868  1.00  0.00     0.278 C 
ENDBRANCH   1   7
BRANCH   2   9
ATOM      9  O   UNL     1      12.268 -34.561  13.372  1.00  0.00    -0.504 OA
ATOM     10  H   UNL     1      12.747 -34.991  12.590  1.00  0.00     0.293 HD
ENDBRANCH   2   9
BRANCH   5  11
ATOM     11  C   UNL     1       6.929 -32.601  12.885  1.00  0.00     0.062 C 
BRANCH  11  12
ATOM     12  C   UNL     1       6.114 -32.901  14.111  1.00  0.00    -0.030 C 
ATOM     13  C   UNL     1       6.554 -32.605  15.337  1.00  0.00     0.004 C 
ENDBRANCH  11  12
ENDBRANCH   5  11
TORSDOF 4
ENDMDL
