MODEL 1
REMARK VINA RESULT:    -4.725      0.000      0.000
REMARK INTER + INTRA:          -5.024
REMARK INTER:                  -5.001
REMARK INTRA:                  -0.022
REMARK UNBOUND:                -0.022
REMARK SMILES O=C([O-])c1cccnc1
REMARK SMILES IDX 4 1 5 2 9 3 6 4 8 5 7 6 2 7 1 8 3 9
REMARK H PARENT
REMARK Flexibility Score: inf
ROOT
ATOM      1  C   UNL     1       4.995 -36.142  21.456  1.00  0.00     0.016 A 
ATOM      2  C   UNL     1       4.333 -34.963  21.077  1.00  0.00     0.013 A 
ATOM      3  C   UNL     1       5.723 -36.143  22.659  1.00  0.00     0.120 A 
ATOM      4  C   UNL     1       4.405 -33.828  21.886  1.00  0.00     0.021 A 
ATOM      5  N   UNL     1       5.777 -35.023  23.428  1.00  0.00    -0.264 NA
ATOM      6  C   UNL     1       5.140 -33.878  23.071  1.00  0.00     0.111 A 
ENDROOT
BRANCH   1   7
ATOM      7  C   UNL     1       4.926 -37.351  20.607  1.00  0.00     0.073 C 
ATOM      8  O   UNL     1       4.723 -37.253  19.368  1.00  0.00    -0.545 OA
ATOM      9  O   UNL     1       5.083 -38.615  21.167  1.00  0.00    -0.545 OA
ENDBRANCH   1   7
TORSDOF 1
ENDMDL
MODEL 2
REMARK VINA RESULT:    -4.721      0.910      1.604
REMARK INTER + INTRA:          -5.019
REMARK INTER:                  -4.997
REMARK INTRA:                  -0.022
REMARK UNBOUND:                -0.022
REMARK SMILES O=C([O-])c1cccnc1
REMARK SMILES IDX 4 1 5 2 9 3 6 4 8 5 7 6 2 7 1 8 3 9
REMARK H PARENT
REMARK Flexibility Score: inf
ROOT
ATOM      1  C   UNL     1       4.997 -36.076  21.403  1.00  0.00     0.016 A 
ATOM      2  C   UNL     1       5.710 -36.161  22.610  1.00  0.00     0.013 A 
ATOM      3  C   UNL     1       4.378 -34.856  21.076  1.00  0.00     0.120 A 
ATOM      4  C   UNL     1       5.792 -35.052  23.455  1.00  0.00     0.021 A 
ATOM      5  N   UNL     1       4.474 -33.792  21.917  1.00  0.00    -0.264 NA
ATOM      6  C   UNL     1       5.161 -33.863  23.087  1.00  0.00     0.111 A 
ENDROOT
BRANCH   1   7
ATOM      7  C   UNL     1       4.903 -37.243  20.501  1.00  0.00     0.073 C 
ATOM      8  O   UNL     1       4.709 -37.085  19.266  1.00  0.00    -0.545 OA
ATOM      9  O   UNL     1       5.027 -38.534  21.003  1.00  0.00    -0.545 OA
ENDBRANCH   1   7
TORSDOF 1
ENDMDL
MODEL 3
REMARK VINA RESULT:    -4.662      0.902      1.939
REMARK INTER + INTRA:          -4.957
REMARK INTER:                  -4.934
REMARK INTRA:                  -0.023
REMARK UNBOUND:                -0.022
REMARK SMILES O=C([O-])c1cccnc1
REMARK SMILES IDX 4 1 5 2 9 3 6 4 8 5 7 6 2 7 1 8 3 9
REMARK H PARENT
REMARK Flexibility Score: inf
ROOT
ATOM      1  C   UNL     1       5.040 -36.030  21.465  1.00  0.00     0.016 A 
ATOM      2  C   UNL     1       5.756 -36.162  22.666  1.00  0.00     0.013 A 
ATOM      3  C   UNL     1       4.461 -34.784  21.165  1.00  0.00     0.120 A 
ATOM      4  C   UNL     1       5.880 -35.073  23.531  1.00  0.00     0.021 A 
ATOM      5  N   UNL     1       4.597 -33.740  22.025  1.00  0.00    -0.264 NA
ATOM      6  C   UNL     1       5.287 -33.857  23.189  1.00  0.00     0.111 A 
ENDROOT
BRANCH   1   7
ATOM      7  C   UNL     1       4.902 -37.176  20.541  1.00  0.00     0.073 C 
ATOM      8  O   UNL     1       4.987 -38.358  20.968  1.00  0.00    -0.545 OA
ATOM      9  O   UNL     1       4.677 -36.965  19.185  1.00  0.00    -0.545 OA
ENDBRANCH   1   7
TORSDOF 1
ENDMDL
MODEL 4
REMARK VINA RESULT:    -4.602      0.946      1.530
REMARK INTER + INTRA:          -4.894
REMARK INTER:                  -4.870
REMARK INTRA:                  -0.023
REMARK UNBOUND:                -0.022
REMARK SMILES O=C([O-])c1cccnc1
REMARK SMILES IDX 4 1 5 2 9 3 6 4 8 5 7 6 2 7 1 8 3 9
REMARK H PARENT
REMARK Flexibility Score: inf
ROOT
ATOM      1  C   UNL     1       5.188 -35.727  21.449  1.00  0.00     0.016 A 
ATOM      2  C   UNL     1       4.952 -34.356  21.641  1.00  0.00     0.013 A 
ATOM      3  C   UNL     1       5.734 -36.467  22.513  1.00  0.00     0.120 A 
ATOM      4  C   UNL     1       5.258 -33.757  22.865  1.00  0.00     0.021 A 
ATOM      5  N   UNL     1       6.023 -35.859  23.694  1.00  0.00    -0.264 NA
ATOM      6  C   UNL     1       5.799 -34.533  23.890  1.00  0.00     0.111 A 
ENDROOT
BRANCH   1   7
ATOM      7  C   UNL     1       4.868 -36.373  20.158  1.00  0.00     0.073 C 
ATOM      8  O   UNL     1       4.938 -37.625  20.033  1.00  0.00    -0.545 OA
ATOM      9  O   UNL     1       4.486 -35.606  19.063  1.00  0.00    -0.545 OA
ENDBRANCH   1   7
TORSDOF 1
ENDMDL
MODEL 5
REMARK VINA RESULT:    -4.473      2.820      3.545
REMARK INTER + INTRA:          -4.757
REMARK INTER:                  -4.734
REMARK INTRA:                  -0.023
REMARK UNBOUND:                -0.022
REMARK SMILES O=C([O-])c1cccnc1
REMARK SMILES IDX 4 1 5 2 9 3 6 4 8 5 7 6 2 7 1 8 3 9
REMARK H PARENT
REMARK Flexibility Score: inf
ROOT
ATOM      1  C   UNL     1       5.139 -35.394  21.840  1.00  0.00     0.016 A 
ATOM      2  C   UNL     1       4.936 -34.368  20.902  1.00  0.00     0.013 A 
ATOM      3  C   UNL     1       5.118 -36.725  21.389  1.00  0.00     0.120 A 
ATOM      4  C   UNL     1       4.719 -34.679  19.558  1.00  0.00     0.021 A 
ATOM      5  N   UNL     1       4.905 -37.001  20.075  1.00  0.00    -0.264 NA
ATOM      6  C   UNL     1       4.707 -36.016  19.159  1.00  0.00     0.111 A 
ENDROOT
BRANCH   1   7
ATOM      7  C   UNL     1       5.369 -35.076  23.265  1.00  0.00     0.073 C 
ATOM      8  O   UNL     1       5.231 -35.962  24.150  1.00  0.00    -0.545 OA
ATOM      9  O   UNL     1       5.741 -33.792  23.650  1.00  0.00    -0.545 OA
ENDBRANCH   1   7
TORSDOF 1
ENDMDL
MODEL 6
REMARK VINA RESULT:    -4.471      2.768      3.660
REMARK INTER + INTRA:          -4.755
REMARK INTER:                  -4.732
REMARK INTRA:                  -0.023
REMARK UNBOUND:                -0.022
REMARK SMILES O=C([O-])c1cccnc1
REMARK SMILES IDX 4 1 5 2 9 3 6 4 8 5 7 6 2 7 1 8 3 9
REMARK H PARENT
REMARK Flexibility Score: inf
ROOT
ATOM      1  C   UNL     1       5.153 -35.380  21.973  1.00  0.00     0.016 A 
ATOM      2  C   UNL     1       5.164 -36.717  21.544  1.00  0.00     0.013 A 
ATOM      3  C   UNL     1       4.887 -34.376  21.026  1.00  0.00     0.120 A 
ATOM      4  C   UNL     1       4.915 -37.025  20.205  1.00  0.00     0.021 A 
ATOM      5  N   UNL     1       4.649 -34.703  19.728  1.00  0.00    -0.264 NA
ATOM      6  C   UNL     1       4.656 -35.994  19.302  1.00  0.00     0.111 A 
ENDROOT
BRANCH   1   7
ATOM      7  C   UNL     1       5.415 -35.041  23.388  1.00  0.00     0.073 C 
ATOM      8  O   UNL     1       5.773 -33.878  23.714  1.00  0.00    -0.545 OA
ATOM      9  O   UNL     1       5.270 -36.004  24.382  1.00  0.00    -0.545 OA
ENDBRANCH   1   7
TORSDOF 1
ENDMDL
MODEL 7
REMARK VINA RESULT:    -4.289      1.452      1.987
REMARK INTER + INTRA:          -4.562
REMARK INTER:                  -4.538
REMARK INTRA:                  -0.024
REMARK UNBOUND:                -0.022
REMARK SMILES O=C([O-])c1cccnc1
REMARK SMILES IDX 4 1 5 2 9 3 6 4 8 5 7 6 2 7 1 8 3 9
REMARK H PARENT
REMARK Flexibility Score: inf
ROOT
ATOM      1  C   UNL     1       5.257 -35.263  21.577  1.00  0.00     0.016 A 
ATOM      2  C   UNL     1       5.460 -34.028  22.216  1.00  0.00     0.013 A 
ATOM      3  C   UNL     1       5.409 -36.439  22.333  1.00  0.00     0.120 A 
ATOM      4  C   UNL     1       5.804 -33.987  23.569  1.00  0.00     0.021 A 
ATOM      5  N   UNL     1       5.745 -36.370  23.649  1.00  0.00    -0.264 NA
ATOM      6  C   UNL     1       5.943 -35.181  24.276  1.00  0.00     0.111 A 
ENDROOT
BRANCH   1   7
ATOM      7  C   UNL     1       4.893 -35.319  20.146  1.00  0.00     0.073 C 
ATOM      8  O   UNL     1       4.707 -34.260  19.489  1.00  0.00    -0.545 OA
ATOM      9  O   UNL     1       4.749 -36.544  19.503  1.00  0.00    -0.545 OA
ENDBRANCH   1   7
TORSDOF 1
ENDMDL
MODEL 8
REMARK VINA RESULT:    -4.144      2.933      3.957
REMARK INTER + INTRA:          -4.408
REMARK INTER:                  -4.388
REMARK INTRA:                  -0.020
REMARK UNBOUND:                -0.022
REMARK SMILES O=C([O-])c1cccnc1
REMARK SMILES IDX 4 1 5 2 9 3 6 4 8 5 7 6 2 7 1 8 3 9
REMARK H PARENT
REMARK Flexibility Score: inf
ROOT
ATOM      1  C   UNL     1       4.588 -35.230  21.143  1.00  0.00     0.016 A 
ATOM      2  C   UNL     1       4.860 -36.394  21.881  1.00  0.00     0.013 A 
ATOM      3  C   UNL     1       4.544 -35.323  19.741  1.00  0.00     0.120 A 
ATOM      4  C   UNL     1       5.080 -37.606  21.223  1.00  0.00     0.021 A 
ATOM      5  N   UNL     1       4.763 -36.515  19.125  1.00  0.00    -0.264 NA
ATOM      6  C   UNL     1       5.027 -37.647  19.829  1.00  0.00     0.111 A 
ENDROOT
BRANCH   1   7
ATOM      7  C   UNL     1       4.352 -33.942  21.829  1.00  0.00     0.073 C 
ATOM      8  O   UNL     1       3.436 -33.168  21.443  1.00  0.00    -0.545 OA
ATOM      9  O   UNL     1       5.140 -33.566  22.912  1.00  0.00    -0.545 OA
ENDBRANCH   1   7
TORSDOF 1
ENDMDL
MODEL 9
REMARK VINA RESULT:    -3.444      2.886      3.752
REMARK INTER + INTRA:          -3.668
REMARK INTER:                  -3.647
REMARK INTRA:                  -0.021
REMARK UNBOUND:                -0.022
REMARK SMILES O=C([O-])c1cccnc1
REMARK SMILES IDX 4 1 5 2 9 3 6 4 8 5 7 6 2 7 1 8 3 9
REMARK H PARENT
REMARK Flexibility Score: inf
ROOT
ATOM      1  C   UNL     1       4.938 -35.902  20.400  1.00  0.00     0.016 A 
ATOM      2  C   UNL     1       5.161 -36.163  21.763  1.00  0.00     0.013 A 
ATOM      3  C   UNL     1       4.859 -36.993  19.516  1.00  0.00     0.120 A 
ATOM      4  C   UNL     1       5.300 -37.478  22.211  1.00  0.00     0.021 A 
ATOM      5  N   UNL     1       4.999 -38.263  19.979  1.00  0.00    -0.264 NA
ATOM      6  C   UNL     1       5.215 -38.526  21.295  1.00  0.00     0.111 A 
ENDROOT
BRANCH   1   7
ATOM      7  C   UNL     1       4.789 -34.514  19.914  1.00  0.00     0.073 C 
ATOM      8  O   UNL     1       4.178 -33.655  20.603  1.00  0.00    -0.545 OA
ATOM      9  O   UNL     1       5.322 -34.138  18.685  1.00  0.00    -0.545 OA
ENDBRANCH   1   7
TORSDOF 1
ENDMDL
