MODEL 1
REMARK VINA RESULT:    -4.053      0.000      0.000
REMARK INTER + INTRA:          -5.499
REMARK INTER:                  -5.237
REMARK INTRA:                  -0.261
REMARK UNBOUND:                -0.261
REMARK SMILES C=CC(=O)CCCCC
REMARK SMILES IDX 6 1 7 2 8 3 9 4 5 5 3 6 4 7 2 8 1 9
REMARK H PARENT
REMARK Flexibility Score: inf
ROOT
ATOM      1  C   UNL     1      17.281  20.237  31.966  1.00  0.00     0.008 C 
ENDROOT
BRANCH   1   2
ATOM      2  C   UNL     1      17.865  21.609  32.325  1.00  0.00     0.000 C 
BRANCH   2   3
ATOM      3  C   UNL     1      16.781  22.535  32.890  1.00  0.00    -0.003 C 
ATOM      4  C   UNL     1      17.001  23.977  32.439  1.00  0.00     0.004 C 
ENDBRANCH   2   3
ENDBRANCH   1   2
BRANCH   1   5
ATOM      5  C   UNL     1      15.994  19.964  32.754  1.00  0.00     0.080 C 
BRANCH   5   6
ATOM      6  C   UNL     1      15.005  19.222  31.906  1.00  0.00     0.155 C 
ATOM      7  O   UNL     1      13.806  19.138  32.285  1.00  0.00    -0.295 OA
BRANCH   6   8
ATOM      8  C   UNL     1      15.428  18.637  30.618  1.00  0.00     0.039 C 
ATOM      9  C   UNL     1      14.559  18.157  29.731  1.00  0.00     0.012 C 
ENDBRANCH   6   8
ENDBRANCH   5   6
ENDBRANCH   1   5
TORSDOF 5
ENDMDL
MODEL 2
REMARK VINA RESULT:    -3.949      2.188      4.880
REMARK INTER + INTRA:          -5.364
REMARK INTER:                  -5.171
REMARK INTRA:                  -0.193
REMARK UNBOUND:                -0.261
REMARK SMILES C=CC(=O)CCCCC
REMARK SMILES IDX 6 1 7 2 8 3 9 4 5 5 3 6 4 7 2 8 1 9
REMARK H PARENT
REMARK Flexibility Score: inf
ROOT
ATOM      1  C   UNL     1      17.102  20.079  31.247  1.00  0.00     0.008 C 
ENDROOT
BRANCH   1   2
ATOM      2  C   UNL     1      15.806  19.259  31.222  1.00  0.00     0.000 C 
BRANCH   2   3
ATOM      3  C   UNL     1      15.564  18.657  29.832  1.00  0.00    -0.003 C 
ATOM      4  C   UNL     1      14.180  18.022  29.741  1.00  0.00     0.004 C 
ENDBRANCH   2   3
ENDBRANCH   1   2
BRANCH   1   5
ATOM      5  C   UNL     1      17.612  20.256  32.681  1.00  0.00     0.080 C 
BRANCH   5   6
ATOM      6  C   UNL     1      17.918  21.698  32.956  1.00  0.00     0.155 C 
ATOM      7  O   UNL     1      19.119  22.064  33.073  1.00  0.00    -0.295 OA
BRANCH   6   8
ATOM      8  C   UNL     1      16.822  22.683  33.044  1.00  0.00     0.039 C 
ATOM      9  C   UNL     1      16.908  23.899  32.510  1.00  0.00     0.012 C 
ENDBRANCH   6   8
ENDBRANCH   5   6
ENDBRANCH   1   5
TORSDOF 5
ENDMDL
MODEL 3
REMARK VINA RESULT:    -3.607     14.418     15.635
REMARK INTER + INTRA:          -4.923
REMARK INTER:                  -4.510
REMARK INTRA:                  -0.413
REMARK UNBOUND:                -0.261
REMARK SMILES C=CC(=O)CCCCC
REMARK SMILES IDX 6 1 7 2 8 3 9 4 5 5 3 6 4 7 2 8 1 9
REMARK H PARENT
REMARK Flexibility Score: inf
ROOT
ATOM      1  C   UNL     1      12.172  19.445  18.030  1.00  0.00     0.008 C 
ENDROOT
BRANCH   1   2
ATOM      2  C   UNL     1      11.204  19.978  16.966  1.00  0.00     0.000 C 
BRANCH   2   3
ATOM      3  C   UNL     1      10.723  18.848  16.048  1.00  0.00    -0.003 C 
ATOM      4  C   UNL     1       9.259  18.509  16.314  1.00  0.00     0.004 C 
ENDBRANCH   2   3
ENDBRANCH   1   2
BRANCH   1   5
ATOM      5  C   UNL     1      13.621  19.809  17.687  1.00  0.00     0.080 C 
BRANCH   5   6
ATOM      6  C   UNL     1      14.501  18.598  17.767  1.00  0.00     0.155 C 
ATOM      7  O   UNL     1      15.522  18.624  18.507  1.00  0.00    -0.295 OA
BRANCH   6   8
ATOM      8  C   UNL     1      14.145  17.375  17.021  1.00  0.00     0.039 C 
ATOM      9  C   UNL     1      14.164  17.318  15.691  1.00  0.00     0.012 C 
ENDBRANCH   6   8
ENDBRANCH   5   6
ENDBRANCH   1   5
TORSDOF 5
ENDMDL
MODEL 4
REMARK VINA RESULT:    -3.575     14.416     15.954
REMARK INTER + INTRA:          -4.881
REMARK INTER:                  -4.700
REMARK INTRA:                  -0.182
REMARK UNBOUND:                -0.261
REMARK SMILES C=CC(=O)CCCCC
REMARK SMILES IDX 6 1 7 2 8 3 9 4 5 5 3 6 4 7 2 8 1 9
REMARK H PARENT
REMARK Flexibility Score: inf
ROOT
ATOM      1  C   UNL     1      15.461  17.166  15.988  1.00  0.00     0.008 C 
ENDROOT
BRANCH   1   2
ATOM      2  C   UNL     1      15.409  15.801  15.291  1.00  0.00     0.000 C 
BRANCH   2   3
ATOM      3  C   UNL     1      14.429  14.860  16.002  1.00  0.00    -0.003 C 
ATOM      4  C   UNL     1      15.066  13.499  16.266  1.00  0.00     0.004 C 
ENDBRANCH   2   3
ENDBRANCH   1   2
BRANCH   1   5
ATOM      5  C   UNL     1      14.301  17.324  16.976  1.00  0.00     0.080 C 
BRANCH   5   6
ATOM      6  C   UNL     1      14.468  18.573  17.790  1.00  0.00     0.155 C 
ATOM      7  O   UNL     1      15.494  18.709  18.509  1.00  0.00    -0.295 OA
BRANCH   6   8
ATOM      8  C   UNL     1      13.459  19.647  17.709  1.00  0.00     0.039 C 
ATOM      9  C   UNL     1      12.176  19.447  18.005  1.00  0.00     0.012 C 
ENDBRANCH   6   8
ENDBRANCH   5   6
ENDBRANCH   1   5
TORSDOF 5
ENDMDL
MODEL 5
REMARK VINA RESULT:    -3.489     14.746     15.874
REMARK INTER + INTRA:          -4.770
REMARK INTER:                  -4.508
REMARK INTRA:                  -0.262
REMARK UNBOUND:                -0.261
REMARK SMILES C=CC(=O)CCCCC
REMARK SMILES IDX 6 1 7 2 8 3 9 4 5 5 3 6 4 7 2 8 1 9
REMARK H PARENT
REMARK Flexibility Score: inf
ROOT
ATOM      1  C   UNL     1      12.652  19.158  17.991  1.00  0.00     0.008 C 
ENDROOT
BRANCH   1   2
ATOM      2  C   UNL     1      14.090  19.653  17.789  1.00  0.00     0.000 C 
BRANCH   2   3
ATOM      3  C   UNL     1      15.053  18.475  17.601  1.00  0.00    -0.003 C 
ATOM      4  C   UNL     1      14.357  17.297  16.925  1.00  0.00     0.004 C 
ENDBRANCH   2   3
ENDBRANCH   1   2
BRANCH   1   5
ATOM      5  C   UNL     1      11.648  20.095  17.310  1.00  0.00     0.080 C 
BRANCH   5   6
ATOM      6  C   UNL     1      10.915  19.376  16.217  1.00  0.00     0.155 C 
ATOM      7  O   UNL     1      11.571  18.824  15.292  1.00  0.00    -0.295 OA
BRANCH   6   8
ATOM      8  C   UNL     1       9.443  19.280  16.253  1.00  0.00     0.039 C 
ATOM      9  C   UNL     1       8.798  18.123  16.122  1.00  0.00     0.012 C 
ENDBRANCH   6   8
ENDBRANCH   5   6
ENDBRANCH   1   5
TORSDOF 5
ENDMDL
MODEL 6
REMARK VINA RESULT:    -3.476     14.430     15.579
REMARK INTER + INTRA:          -4.753
REMARK INTER:                  -4.329
REMARK INTRA:                  -0.424
REMARK UNBOUND:                -0.261
REMARK SMILES C=CC(=O)CCCCC
REMARK SMILES IDX 6 1 7 2 8 3 9 4 5 5 3 6 4 7 2 8 1 9
REMARK H PARENT
REMARK Flexibility Score: inf
ROOT
ATOM      1  C   UNL     1      13.860  19.807  17.680  1.00  0.00     0.008 C 
ENDROOT
BRANCH   1   2
ATOM      2  C   UNL     1      12.440  19.427  18.118  1.00  0.00     0.000 C 
BRANCH   2   3
ATOM      3  C   UNL     1      11.393  20.075  17.205  1.00  0.00    -0.003 C 
ATOM      4  C   UNL     1      10.416  19.034  16.663  1.00  0.00     0.004 C 
ENDBRANCH   2   3
ENDBRANCH   1   2
BRANCH   1   5
ATOM      5  C   UNL     1      14.860  18.702  18.040  1.00  0.00     0.080 C 
BRANCH   5   6
ATOM      6  C   UNL     1      15.236  17.915  16.820  1.00  0.00     0.155 C 
ATOM      7  O   UNL     1      16.343  18.136  16.259  1.00  0.00    -0.295 OA
BRANCH   6   8
ATOM      8  C   UNL     1      14.334  16.862  16.314  1.00  0.00     0.039 C 
ATOM      9  C   UNL     1      13.589  17.023  15.222  1.00  0.00     0.012 C 
ENDBRANCH   6   8
ENDBRANCH   5   6
ENDBRANCH   1   5
TORSDOF 5
ENDMDL
MODEL 7
REMARK VINA RESULT:    -3.476     14.436     15.820
REMARK INTER + INTRA:          -4.753
REMARK INTER:                  -4.513
REMARK INTRA:                  -0.240
REMARK UNBOUND:                -0.261
REMARK SMILES C=CC(=O)CCCCC
REMARK SMILES IDX 6 1 7 2 8 3 9 4 5 5 3 6 4 7 2 8 1 9
REMARK H PARENT
REMARK Flexibility Score: inf
ROOT
ATOM      1  C   UNL     1      15.509  17.977  16.798  1.00  0.00     0.008 C 
ENDROOT
BRANCH   1   2
ATOM      2  C   UNL     1      14.585  16.799  16.465  1.00  0.00     0.000 C 
BRANCH   2   3
ATOM      3  C   UNL     1      15.341  15.709  15.697  1.00  0.00    -0.003 C 
ATOM      4  C   UNL     1      14.847  14.318  16.087  1.00  0.00     0.004 C 
ENDBRANCH   2   3
ENDBRANCH   1   2
BRANCH   1   5
ATOM      5  C   UNL     1      14.937  18.817  17.945  1.00  0.00     0.080 C 
BRANCH   5   6
ATOM      6  C   UNL     1      13.817  19.686  17.454  1.00  0.00     0.155 C 
ATOM      7  O   UNL     1      14.043  20.531  16.546  1.00  0.00    -0.295 OA
BRANCH   6   8
ATOM      8  C   UNL     1      12.457  19.515  18.000  1.00  0.00     0.039 C 
ATOM      9  C   UNL     1      11.369  19.540  17.231  1.00  0.00     0.012 C 
ENDBRANCH   6   8
ENDBRANCH   5   6
ENDBRANCH   1   5
TORSDOF 5
ENDMDL
MODEL 8
REMARK VINA RESULT:    -3.469     14.334     15.263
REMARK INTER + INTRA:          -4.744
REMARK INTER:                  -4.359
REMARK INTRA:                  -0.386
REMARK UNBOUND:                -0.261
REMARK SMILES C=CC(=O)CCCCC
REMARK SMILES IDX 6 1 7 2 8 3 9 4 5 5 3 6 4 7 2 8 1 9
REMARK H PARENT
REMARK Flexibility Score: inf
ROOT
ATOM      1  C   UNL     1      12.319  19.589  17.898  1.00  0.00     0.008 C 
ENDROOT
BRANCH   1   2
ATOM      2  C   UNL     1      11.536  20.372  16.838  1.00  0.00     0.000 C 
BRANCH   2   3
ATOM      3  C   UNL     1      12.446  21.363  16.104  1.00  0.00    -0.003 C 
ATOM      4  C   UNL     1      11.962  22.798  16.291  1.00  0.00     0.004 C 
ENDBRANCH   2   3
ENDBRANCH   1   2
BRANCH   1   5
ATOM      5  C   UNL     1      13.821  19.875  17.794  1.00  0.00     0.080 C 
BRANCH   5   6
ATOM      6  C   UNL     1      14.604  18.596  17.827  1.00  0.00     0.155 C 
ATOM      7  O   UNL     1      15.645  18.526  18.535  1.00  0.00    -0.295 OA
BRANCH   6   8
ATOM      8  C   UNL     1      14.131  17.420  17.070  1.00  0.00     0.039 C 
ATOM      9  C   UNL     1      14.341  17.279  15.763  1.00  0.00     0.012 C 
ENDBRANCH   6   8
ENDBRANCH   5   6
ENDBRANCH   1   5
TORSDOF 5
ENDMDL
MODEL 9
REMARK VINA RESULT:    -3.425     14.602     15.675
REMARK INTER + INTRA:          -4.687
REMARK INTER:                  -4.432
REMARK INTRA:                  -0.255
REMARK UNBOUND:                -0.261
REMARK SMILES C=CC(=O)CCCCC
REMARK SMILES IDX 6 1 7 2 8 3 9 4 5 5 3 6 4 7 2 8 1 9
REMARK H PARENT
REMARK Flexibility Score: inf
ROOT
ATOM      1  C   UNL     1      13.957  19.784  17.794  1.00  0.00     0.008 C 
ENDROOT
BRANCH   1   2
ATOM      2  C   UNL     1      14.760  18.478  17.749  1.00  0.00     0.000 C 
BRANCH   2   3
ATOM      3  C   UNL     1      14.000  17.394  16.977  1.00  0.00    -0.003 C 
ATOM      4  C   UNL     1      14.959  16.499  16.197  1.00  0.00     0.004 C 
ENDBRANCH   2   3
ENDBRANCH   1   2
BRANCH   1   5
ATOM      5  C   UNL     1      12.462  19.503  17.981  1.00  0.00     0.080 C 
BRANCH   5   6
ATOM      6  C   UNL     1      11.663  20.151  16.889  1.00  0.00     0.155 C 
ATOM      7  O   UNL     1      10.476  19.779  16.688  1.00  0.00    -0.295 OA
BRANCH   6   8
ATOM      8  C   UNL     1      12.253  21.244  16.093  1.00  0.00     0.039 C 
ATOM      9  C   UNL     1      12.000  22.528  16.341  1.00  0.00     0.012 C 
ENDBRANCH   6   8
ENDBRANCH   5   6
ENDBRANCH   1   5
TORSDOF 5
ENDMDL
