MODEL 1
REMARK VINA RESULT:    -3.874      0.000      0.000
REMARK INTER + INTRA:          -5.078
REMARK INTER:                  -4.779
REMARK INTRA:                  -0.299
REMARK UNBOUND:                -0.299
REMARK SMILES C=CC[C@H](C)C(=O)CC
REMARK SMILES IDX 4 1 5 2 6 3 7 4 8 5 9 6 3 7 2 8 1 9
REMARK H PARENT
REMARK Flexibility Score: inf
ROOT
ATOM      1  C   UNL     1      20.019  27.767 -14.950  1.00  0.00     0.057 C 
ATOM      2  C   UNL     1      20.643  28.459 -13.732  1.00  0.00     0.016 C 
ENDROOT
BRANCH   1   3
ATOM      3  C   UNL     1      21.035  27.681 -16.071  1.00  0.00     0.135 C 
ATOM      4  O   UNL     1      22.026  26.975 -15.938  1.00  0.00    -0.299 OA
BRANCH   3   5
ATOM      5  C   UNL     1      20.842  28.438 -17.360  1.00  0.00     0.072 C 
ATOM      6  C   UNL     1      22.074  29.271 -17.695  1.00  0.00     0.012 C 
ENDBRANCH   3   5
ENDBRANCH   1   3
BRANCH   1   7
ATOM      7  C   UNL     1      18.747  28.513 -15.403  1.00  0.00     0.038 C 
BRANCH   7   8
ATOM      8  C   UNL     1      17.491  27.864 -14.884  1.00  0.00    -0.034 C 
ATOM      9  C   UNL     1      17.437  26.557 -14.607  1.00  0.00     0.004 C 
ENDBRANCH   7   8
ENDBRANCH   1   7
TORSDOF 4
ENDMDL
MODEL 2
REMARK VINA RESULT:    -3.848      1.706      2.994
REMARK INTER + INTRA:          -5.047
REMARK INTER:                  -4.752
REMARK INTRA:                  -0.295
REMARK UNBOUND:                -0.299
REMARK SMILES C=CC[C@H](C)C(=O)CC
REMARK SMILES IDX 4 1 5 2 6 3 7 4 8 5 9 6 3 7 2 8 1 9
REMARK H PARENT
REMARK Flexibility Score: inf
ROOT
ATOM      1  C   UNL     1      19.453  28.147 -15.260  1.00  0.00     0.057 C 
ATOM      2  C   UNL     1      19.857  26.925 -16.093  1.00  0.00     0.016 C 
ENDROOT
BRANCH   1   3
ATOM      3  C   UNL     1      20.380  28.290 -14.070  1.00  0.00     0.135 C 
ATOM      4  O   UNL     1      21.591  28.233 -14.235  1.00  0.00    -0.299 OA
BRANCH   3   5
ATOM      5  C   UNL     1      19.840  28.520 -12.682  1.00  0.00     0.072 C 
ATOM      6  C   UNL     1      20.545  29.691 -12.007  1.00  0.00     0.012 C 
ENDBRANCH   3   5
ENDBRANCH   1   3
BRANCH   1   7
ATOM      7  C   UNL     1      17.981  28.032 -14.812  1.00  0.00     0.038 C 
BRANCH   7   8
ATOM      8  C   UNL     1      17.539  26.600 -14.671  1.00  0.00    -0.034 C 
ATOM      9  C   UNL     1      16.999  26.137 -13.539  1.00  0.00     0.004 C 
ENDBRANCH   7   8
ENDBRANCH   1   7
TORSDOF 4
ENDMDL
MODEL 3
REMARK VINA RESULT:    -3.839     14.516     15.577
REMARK INTER + INTRA:          -5.036
REMARK INTER:                  -4.791
REMARK INTRA:                  -0.244
REMARK UNBOUND:                -0.299
REMARK SMILES C=CC[C@H](C)C(=O)CC
REMARK SMILES IDX 4 1 5 2 6 3 7 4 8 5 9 6 3 7 2 8 1 9
REMARK H PARENT
REMARK Flexibility Score: inf
ROOT
ATOM      1  C   UNL     1      33.965  30.233 -11.475  1.00  0.00     0.057 C 
ATOM      2  C   UNL     1      33.646  28.953 -12.255  1.00  0.00     0.016 C 
ENDROOT
BRANCH   1   3
ATOM      3  C   UNL     1      34.844  31.142 -12.311  1.00  0.00     0.135 C 
ATOM      4  O   UNL     1      35.601  31.929 -11.758  1.00  0.00    -0.299 OA
BRANCH   3   5
ATOM      5  C   UNL     1      34.819  31.085 -13.816  1.00  0.00     0.072 C 
ATOM      6  C   UNL     1      36.211  31.309 -14.396  1.00  0.00     0.012 C 
ENDBRANCH   3   5
ENDBRANCH   1   3
BRANCH   1   7
ATOM      7  C   UNL     1      34.634  29.892 -10.127  1.00  0.00     0.038 C 
BRANCH   7   8
ATOM      8  C   UNL     1      33.866  30.445  -8.956  1.00  0.00    -0.034 C 
ATOM      9  C   UNL     1      33.929  31.736  -8.617  1.00  0.00     0.004 C 
ENDBRANCH   7   8
ENDBRANCH   1   7
TORSDOF 4
ENDMDL
MODEL 4
REMARK VINA RESULT:    -3.804      3.701      5.297
REMARK INTER + INTRA:          -4.992
REMARK INTER:                  -4.792
REMARK INTRA:                  -0.200
REMARK UNBOUND:                -0.299
REMARK SMILES C=CC[C@H](C)C(=O)CC
REMARK SMILES IDX 4 1 5 2 6 3 7 4 8 5 9 6 3 7 2 8 1 9
REMARK H PARENT
REMARK Flexibility Score: inf
ROOT
ATOM      1  C   UNL     1      20.225  28.360 -11.205  1.00  0.00     0.057 C 
ATOM      2  C   UNL     1      20.687  29.715 -11.753  1.00  0.00     0.016 C 
ENDROOT
BRANCH   1   3
ATOM      3  C   UNL     1      19.233  27.728 -12.161  1.00  0.00     0.135 C 
ATOM      4  O   UNL     1      18.430  26.905 -11.743  1.00  0.00    -0.299 OA
BRANCH   3   5
ATOM      5  C   UNL     1      19.205  28.105 -13.619  1.00  0.00     0.072 C 
ATOM      6  C   UNL     1      17.892  27.683 -14.269  1.00  0.00     0.012 C 
ENDBRANCH   3   5
ENDBRANCH   1   3
BRANCH   1   7
ATOM      7  C   UNL     1      19.617  28.526  -9.797  1.00  0.00     0.038 C 
BRANCH   7   8
ATOM      8  C   UNL     1      20.242  27.591  -8.795  1.00  0.00    -0.034 C 
ATOM      9  C   UNL     1      21.438  27.838  -8.250  1.00  0.00     0.004 C 
ENDBRANCH   7   8
ENDBRANCH   1   7
TORSDOF 4
ENDMDL
MODEL 5
REMARK VINA RESULT:    -3.801     13.017     15.080
REMARK INTER + INTRA:          -4.989
REMARK INTER:                  -4.687
REMARK INTRA:                  -0.302
REMARK UNBOUND:                -0.299
REMARK SMILES C=CC[C@H](C)C(=O)CC
REMARK SMILES IDX 4 1 5 2 6 3 7 4 8 5 9 6 3 7 2 8 1 9
REMARK H PARENT
REMARK Flexibility Score: inf
ROOT
ATOM      1  C   UNL     1      34.185  31.492 -14.144  1.00  0.00     0.057 C 
ATOM      2  C   UNL     1      33.436  30.517 -13.228  1.00  0.00     0.016 C 
ENDROOT
BRANCH   1   3
ATOM      3  C   UNL     1      33.276  31.950 -15.265  1.00  0.00     0.135 C 
ATOM      4  O   UNL     1      32.309  32.657 -15.011  1.00  0.00    -0.299 OA
BRANCH   3   5
ATOM      5  C   UNL     1      33.546  31.566 -16.697  1.00  0.00     0.072 C 
ATOM      6  C   UNL     1      32.259  31.165 -17.409  1.00  0.00     0.012 C 
ENDBRANCH   3   5
ENDBRANCH   1   3
BRANCH   1   7
ATOM      7  C   UNL     1      35.469  30.837 -14.696  1.00  0.00     0.038 C 
BRANCH   7   8
ATOM      8  C   UNL     1      36.712  31.571 -14.266  1.00  0.00    -0.034 C 
ATOM      9  C   UNL     1      36.686  32.497 -13.302  1.00  0.00     0.004 C 
ENDBRANCH   7   8
ENDBRANCH   1   7
TORSDOF 4
ENDMDL
MODEL 6
REMARK VINA RESULT:    -3.708      1.375      2.889
REMARK INTER + INTRA:          -4.874
REMARK INTER:                  -4.483
REMARK INTRA:                  -0.391
REMARK UNBOUND:                -0.299
REMARK SMILES C=CC[C@H](C)C(=O)CC
REMARK SMILES IDX 4 1 5 2 6 3 7 4 8 5 9 6 3 7 2 8 1 9
REMARK H PARENT
REMARK Flexibility Score: inf
ROOT
ATOM      1  C   UNL     1      19.167  28.398 -14.765  1.00  0.00     0.057 C 
ATOM      2  C   UNL     1      17.734  27.990 -15.124  1.00  0.00     0.016 C 
ENDROOT
BRANCH   1   3
ATOM      3  C   UNL     1      20.147  27.716 -15.698  1.00  0.00     0.135 C 
ATOM      4  O   UNL     1      19.861  26.633 -16.191  1.00  0.00    -0.299 OA
BRANCH   3   5
ATOM      5  C   UNL     1      21.468  28.354 -16.045  1.00  0.00     0.072 C 
ATOM      6  C   UNL     1      22.626  27.406 -15.756  1.00  0.00     0.012 C 
ENDBRANCH   3   5
ENDBRANCH   1   3
BRANCH   1   7
ATOM      7  C   UNL     1      19.471  28.063 -13.290  1.00  0.00     0.038 C 
BRANCH   7   8
ATOM      8  C   UNL     1      20.245  29.159 -12.606  1.00  0.00    -0.034 C 
ATOM      9  C   UNL     1      21.543  29.029 -12.313  1.00  0.00     0.004 C 
ENDBRANCH   7   8
ENDBRANCH   1   7
TORSDOF 4
ENDMDL
MODEL 7
REMARK VINA RESULT:    -3.704     13.800     15.450
REMARK INTER + INTRA:          -4.868
REMARK INTER:                  -4.441
REMARK INTRA:                  -0.427
REMARK UNBOUND:                -0.299
REMARK SMILES C=CC[C@H](C)C(=O)CC
REMARK SMILES IDX 4 1 5 2 6 3 7 4 8 5 9 6 3 7 2 8 1 9
REMARK H PARENT
REMARK Flexibility Score: inf
ROOT
ATOM      1  C   UNL     1      34.189  31.042 -13.448  1.00  0.00     0.057 C 
ATOM      2  C   UNL     1      32.887  31.397 -14.174  1.00  0.00     0.016 C 
ENDROOT
BRANCH   1   3
ATOM      3  C   UNL     1      35.365  31.200 -14.390  1.00  0.00     0.135 C 
ATOM      4  O   UNL     1      35.220  30.974 -15.584  1.00  0.00    -0.299 OA
BRANCH   3   5
ATOM      5  C   UNL     1      36.714  31.647 -13.887  1.00  0.00     0.072 C 
ATOM      6  C   UNL     1      36.576  32.479 -12.617  1.00  0.00     0.012 C 
ENDBRANCH   3   5
ENDBRANCH   1   3
BRANCH   1   7
ATOM      7  C   UNL     1      34.116  29.610 -12.877  1.00  0.00     0.038 C 
BRANCH   7   8
ATOM      8  C   UNL     1      33.739  29.598 -11.419  1.00  0.00    -0.034 C 
ATOM      9  C   UNL     1      34.515  30.156 -10.485  1.00  0.00     0.004 C 
ENDBRANCH   7   8
ENDBRANCH   1   7
TORSDOF 4
ENDMDL
MODEL 8
REMARK VINA RESULT:    -3.690     13.348     15.220
REMARK INTER + INTRA:          -4.852
REMARK INTER:                  -4.564
REMARK INTRA:                  -0.288
REMARK UNBOUND:                -0.299
REMARK SMILES C=CC[C@H](C)C(=O)CC
REMARK SMILES IDX 4 1 5 2 6 3 7 4 8 5 9 6 3 7 2 8 1 9
REMARK H PARENT
REMARK Flexibility Score: inf
ROOT
ATOM      1  C   UNL     1      35.273  31.851 -14.018  1.00  0.00     0.057 C 
ATOM      2  C   UNL     1      36.718  31.473 -14.359  1.00  0.00     0.016 C 
ENDROOT
BRANCH   1   3
ATOM      3  C   UNL     1      34.843  31.152 -12.744  1.00  0.00     0.135 C 
ATOM      4  O   UNL     1      35.204  31.592 -11.660  1.00  0.00    -0.299 OA
BRANCH   3   5
ATOM      5  C   UNL     1      33.964  29.929 -12.783  1.00  0.00     0.072 C 
ATOM      6  C   UNL     1      33.560  29.501 -11.376  1.00  0.00     0.012 C 
ENDBRANCH   3   5
ENDBRANCH   1   3
BRANCH   1   7
ATOM      7  C   UNL     1      34.332  31.505 -15.191  1.00  0.00     0.038 C 
BRANCH   7   8
ATOM      8  C   UNL     1      33.312  32.585 -15.439  1.00  0.00    -0.034 C 
ATOM      9  C   UNL     1      32.025  32.427 -15.115  1.00  0.00     0.004 C 
ENDBRANCH   7   8
ENDBRANCH   1   7
TORSDOF 4
ENDMDL
MODEL 9
REMARK VINA RESULT:    -3.672     14.063     15.713
REMARK INTER + INTRA:          -4.830
REMARK INTER:                  -4.352
REMARK INTRA:                  -0.478
REMARK UNBOUND:                -0.299
REMARK SMILES C=CC[C@H](C)C(=O)CC
REMARK SMILES IDX 4 1 5 2 6 3 7 4 8 5 9 6 3 7 2 8 1 9
REMARK H PARENT
REMARK Flexibility Score: inf
ROOT
ATOM      1  C   UNL     1      34.428  31.168 -14.727  1.00  0.00     0.057 C 
ATOM      2  C   UNL     1      34.041  32.567 -15.222  1.00  0.00     0.016 C 
ENDROOT
BRANCH   1   3
ATOM      3  C   UNL     1      33.560  30.779 -13.547  1.00  0.00     0.135 C 
ATOM      4  O   UNL     1      32.414  31.202 -13.473  1.00  0.00    -0.299 OA
BRANCH   3   5
ATOM      5  C   UNL     1      34.076  29.865 -12.466  1.00  0.00     0.072 C 
ATOM      6  C   UNL     1      34.107  30.576 -11.118  1.00  0.00     0.012 C 
ENDBRANCH   3   5
ENDBRANCH   1   3
BRANCH   1   7
ATOM      7  C   UNL     1      35.926  31.120 -14.360  1.00  0.00     0.038 C 
BRANCH   7   8
ATOM      8  C   UNL     1      36.431  32.446 -13.855  1.00  0.00    -0.034 C 
ATOM      9  C   UNL     1      37.064  32.559 -12.683  1.00  0.00     0.004 C 
ENDBRANCH   7   8
ENDBRANCH   1   7
TORSDOF 4
ENDMDL
