MODEL 1
REMARK VINA RESULT:    -4.443      0.000      0.000
REMARK INTER + INTRA:         -10.485
REMARK INTER:                  -8.079
REMARK INTRA:                  -2.407
REMARK UNBOUND:                -2.407
REMARK SMILES CCCCCCCCCCCCCCCC(=O)[O-]
REMARK SMILES IDX 9 1 10 2 11 3 12 4 13 5 14 6 15 7 16 8 17 9 18 10 8 11 7 12
REMARK SMILES IDX 6 13 5 14 4 15 3 16 2 17 1 18
REMARK H PARENT
REMARK Flexibility Score: inf
ROOT
ATOM      1  C   UNL     1      17.740 -34.016  19.238  1.00  0.00     0.000 C 
ENDROOT
BRANCH   1   2
ATOM      2  C   UNL     1      16.453 -34.842  19.392  1.00  0.00     0.000 C 
BRANCH   2   3
ATOM      3  C   UNL     1      16.100 -35.116  20.866  1.00  0.00     0.000 C 
BRANCH   3   4
ATOM      4  C   UNL     1      14.974 -34.204  21.381  1.00  0.00     0.000 C 
BRANCH   4   5
ATOM      5  C   UNL     1      14.255 -33.454  20.246  1.00  0.00     0.000 C 
BRANCH   5   6
ATOM      6  C   UNL     1      13.594 -32.151  20.725  1.00  0.00     0.006 C 
BRANCH   6   7
ATOM      7  C   UNL     1      13.666 -31.974  22.247  1.00  0.00     0.053 C 
BRANCH   7   8
ATOM      8  C   UNL     1      12.782 -30.848  22.684  1.00  0.00     0.041 C 
ATOM      9  O   UNL     1      13.029 -30.226  23.750  1.00  0.00    -0.550 OA
ATOM     10  O   UNL     1      11.658 -30.518  21.938  1.00  0.00    -0.550 OA
ENDBRANCH   7   8
ENDBRANCH   6   7
ENDBRANCH   5   6
ENDBRANCH   4   5
ENDBRANCH   3   4
ENDBRANCH   2   3
ENDBRANCH   1   2
BRANCH   1  11
ATOM     11  C   UNL     1      18.482 -33.818  20.569  1.00  0.00     0.000 C 
BRANCH  11  12
ATOM     12  C   UNL     1      18.779 -32.334  20.816  1.00  0.00    -0.000 C 
BRANCH  12  13
ATOM     13  C   UNL     1      17.484 -31.510  20.835  1.00  0.00    -0.000 C 
BRANCH  13  14
ATOM     14  C   UNL     1      17.500 -30.395  21.896  1.00  0.00    -0.000 C 
BRANCH  14  15
ATOM     15  C   UNL     1      16.820 -30.754  23.233  1.00  0.00    -0.000 C 
BRANCH  15  16
ATOM     16  C   UNL     1      17.540 -31.832  24.063  1.00  0.00    -0.000 C 
BRANCH  16  17
ATOM     17  C   UNL     1      16.683 -33.088  24.277  1.00  0.00    -0.003 C 
ATOM     18  C   UNL     1      17.541 -34.350  24.240  1.00  0.00     0.004 C 
ENDBRANCH  16  17
ENDBRANCH  15  16
ENDBRANCH  14  15
ENDBRANCH  13  14
ENDBRANCH  12  13
ENDBRANCH  11  12
ENDBRANCH   1  11
TORSDOF 14
ENDMDL
MODEL 2
REMARK VINA RESULT:    -4.421      1.697      3.211
REMARK INTER + INTRA:         -10.445
REMARK INTER:                  -8.763
REMARK INTRA:                  -1.682
REMARK UNBOUND:                -2.407
REMARK SMILES CCCCCCCCCCCCCCCC(=O)[O-]
REMARK SMILES IDX 9 1 10 2 11 3 12 4 13 5 14 6 15 7 16 8 17 9 18 10 8 11 7 12
REMARK SMILES IDX 6 13 5 14 4 15 3 16 2 17 1 18
REMARK H PARENT
REMARK Flexibility Score: inf
ROOT
ATOM      1  C   UNL     1      15.335 -34.691  20.222  1.00  0.00     0.000 C 
ENDROOT
BRANCH   1   2
ATOM      2  C   UNL     1      15.294 -34.464  21.741  1.00  0.00     0.000 C 
BRANCH   2   3
ATOM      3  C   UNL     1      14.501 -33.202  22.129  1.00  0.00     0.000 C 
BRANCH   3   4
ATOM      4  C   UNL     1      13.943 -32.457  20.905  1.00  0.00     0.000 C 
BRANCH   4   5
ATOM      5  C   UNL     1      13.027 -31.284  21.294  1.00  0.00     0.000 C 
BRANCH   5   6
ATOM      6  C   UNL     1      13.748 -30.229  22.149  1.00  0.00     0.006 C 
BRANCH   6   7
ATOM      7  C   UNL     1      13.187 -30.136  23.574  1.00  0.00     0.053 C 
BRANCH   7   8
ATOM      8  C   UNL     1      12.373 -28.890  23.733  1.00  0.00     0.041 C 
ATOM      9  O   UNL     1      11.269 -28.774  23.138  1.00  0.00    -0.550 OA
ATOM     10  O   UNL     1      12.855 -27.838  24.501  1.00  0.00    -0.550 OA
ENDBRANCH   7   8
ENDBRANCH   6   7
ENDBRANCH   5   6
ENDBRANCH   4   5
ENDBRANCH   3   4
ENDBRANCH   2   3
ENDBRANCH   1   2
BRANCH   1  11
ATOM     11  C   UNL     1      16.374 -35.743  19.805  1.00  0.00     0.000 C 
BRANCH  11  12
ATOM     12  C   UNL     1      17.566 -35.088  19.099  1.00  0.00    -0.000 C 
BRANCH  12  13
ATOM     13  C   UNL     1      17.683 -33.605  19.479  1.00  0.00    -0.000 C 
BRANCH  13  14
ATOM     14  C   UNL     1      18.701 -33.355  20.606  1.00  0.00    -0.000 C 
BRANCH  14  15
ATOM     15  C   UNL     1      18.405 -32.128  21.494  1.00  0.00    -0.000 C 
BRANCH  15  16
ATOM     16  C   UNL     1      17.302 -31.192  20.968  1.00  0.00    -0.000 C 
BRANCH  16  17
ATOM     17  C   UNL     1      17.408 -29.770  21.537  1.00  0.00    -0.003 C 
ATOM     18  C   UNL     1      18.659 -29.064  21.022  1.00  0.00     0.004 C 
ENDBRANCH  16  17
ENDBRANCH  15  16
ENDBRANCH  14  15
ENDBRANCH  13  14
ENDBRANCH  12  13
ENDBRANCH  11  12
ENDBRANCH   1  11
TORSDOF 14
ENDMDL
MODEL 3
REMARK VINA RESULT:    -4.316      1.176      3.727
REMARK INTER + INTRA:         -10.255
REMARK INTER:                  -7.829
REMARK INTRA:                  -2.426
REMARK UNBOUND:                -2.407
REMARK SMILES CCCCCCCCCCCCCCCC(=O)[O-]
REMARK SMILES IDX 9 1 10 2 11 3 12 4 13 5 14 6 15 7 16 8 17 9 18 10 8 11 7 12
REMARK SMILES IDX 6 13 5 14 4 15 3 16 2 17 1 18
REMARK H PARENT
REMARK Flexibility Score: inf
ROOT
ATOM      1  C   UNL     1      15.342 -34.103  22.402  1.00  0.00     0.000 C 
ENDROOT
BRANCH   1   2
ATOM      2  C   UNL     1      15.353 -33.013  23.485  1.00  0.00     0.000 C 
BRANCH   2   3
ATOM      3  C   UNL     1      16.768 -32.475  23.767  1.00  0.00     0.000 C 
BRANCH   3   4
ATOM      4  C   UNL     1      16.876 -30.957  23.544  1.00  0.00     0.000 C 
BRANCH   4   5
ATOM      5  C   UNL     1      16.567 -30.550  22.092  1.00  0.00     0.000 C 
BRANCH   5   6
ATOM      6  C   UNL     1      15.424 -29.526  21.997  1.00  0.00     0.006 C 
BRANCH   6   7
ATOM      7  C   UNL     1      14.157 -30.109  21.358  1.00  0.00     0.053 C 
BRANCH   7   8
ATOM      8  C   UNL     1      13.077 -30.260  22.383  1.00  0.00     0.041 C 
ATOM      9  O   UNL     1      13.335 -30.095  23.604  1.00  0.00    -0.550 OA
ATOM     10  O   UNL     1      11.796 -30.631  21.993  1.00  0.00    -0.550 OA
ENDBRANCH   7   8
ENDBRANCH   6   7
ENDBRANCH   5   6
ENDBRANCH   4   5
ENDBRANCH   3   4
ENDBRANCH   2   3
ENDBRANCH   1   2
BRANCH   1  11
ATOM     11  C   UNL     1      14.733 -33.619  21.077  1.00  0.00     0.000 C 
BRANCH  11  12
ATOM     12  C   UNL     1      14.999 -34.624  19.951  1.00  0.00    -0.000 C 
BRANCH  12  13
ATOM     13  C   UNL     1      16.432 -35.170  20.028  1.00  0.00    -0.000 C 
BRANCH  13  14
ATOM     14  C   UNL     1      17.446 -34.300  19.264  1.00  0.00    -0.000 C 
BRANCH  14  15
ATOM     15  C   UNL     1      18.199 -33.265  20.125  1.00  0.00    -0.000 C 
BRANCH  15  16
ATOM     16  C   UNL     1      19.003 -33.853  21.299  1.00  0.00    -0.000 C 
BRANCH  16  17
ATOM     17  C   UNL     1      19.980 -32.843  21.916  1.00  0.00    -0.003 C 
ATOM     18  C   UNL     1      20.016 -31.549  21.107  1.00  0.00     0.004 C 
ENDBRANCH  16  17
ENDBRANCH  15  16
ENDBRANCH  14  15
ENDBRANCH  13  14
ENDBRANCH  12  13
ENDBRANCH  11  12
ENDBRANCH   1  11
TORSDOF 14
ENDMDL
MODEL 4
REMARK VINA RESULT:    -4.304      3.414      5.585
REMARK INTER + INTRA:         -10.233
REMARK INTER:                  -8.277
REMARK INTRA:                  -1.956
REMARK UNBOUND:                -2.407
REMARK SMILES CCCCCCCCCCCCCCCC(=O)[O-]
REMARK SMILES IDX 9 1 10 2 11 3 12 4 13 5 14 6 15 7 16 8 17 9 18 10 8 11 7 12
REMARK SMILES IDX 6 13 5 14 4 15 3 16 2 17 1 18
REMARK H PARENT
REMARK Flexibility Score: inf
ROOT
ATOM      1  C   UNL     1      16.180 -29.776  22.135  1.00  0.00     0.000 C 
ENDROOT
BRANCH   1   2
ATOM      2  C   UNL     1      16.780 -30.856  21.221  1.00  0.00     0.000 C 
BRANCH   2   3
ATOM      3  C   UNL     1      18.296 -31.029  21.429  1.00  0.00     0.000 C 
BRANCH   3   4
ATOM      4  C   UNL     1      18.818 -32.366  20.875  1.00  0.00     0.000 C 
BRANCH   4   5
ATOM      5  C   UNL     1      17.777 -33.090  20.003  1.00  0.00     0.000 C 
BRANCH   5   6
ATOM      6  C   UNL     1      18.191 -34.532  19.667  1.00  0.00     0.006 C 
BRANCH   6   7
ATOM      7  C   UNL     1      16.989 -35.476  19.521  1.00  0.00     0.053 C 
BRANCH   7   8
ATOM      8  C   UNL     1      17.417 -36.898  19.705  1.00  0.00     0.041 C 
ATOM      9  O   UNL     1      17.554 -37.652  18.707  1.00  0.00    -0.550 OA
ATOM     10  O   UNL     1      17.618 -37.403  20.984  1.00  0.00    -0.550 OA
ENDBRANCH   7   8
ENDBRANCH   6   7
ENDBRANCH   5   6
ENDBRANCH   4   5
ENDBRANCH   3   4
ENDBRANCH   2   3
ENDBRANCH   1   2
BRANCH   1  11
ATOM     11  C   UNL     1      14.700 -29.495  21.831  1.00  0.00     0.000 C 
BRANCH  11  12
ATOM     12  C   UNL     1      13.966 -29.003  23.083  1.00  0.00    -0.000 C 
BRANCH  12  13
ATOM     13  C   UNL     1      13.263 -30.164  23.800  1.00  0.00    -0.000 C 
BRANCH  13  14
ATOM     14  C   UNL     1      13.320 -31.481  23.006  1.00  0.00    -0.000 C 
BRANCH  14  15
ATOM     15  C   UNL     1      14.103 -32.623  23.687  1.00  0.00    -0.000 C 
BRANCH  15  16
ATOM     16  C   UNL     1      14.850 -33.566  22.727  1.00  0.00    -0.000 C 
BRANCH  16  17
ATOM     17  C   UNL     1      16.202 -34.034  23.286  1.00  0.00    -0.003 C 
ATOM     18  C   UNL     1      16.805 -32.983  24.214  1.00  0.00     0.004 C 
ENDBRANCH  16  17
ENDBRANCH  15  16
ENDBRANCH  14  15
ENDBRANCH  13  14
ENDBRANCH  12  13
ENDBRANCH  11  12
ENDBRANCH   1  11
TORSDOF 14
ENDMDL
MODEL 5
REMARK VINA RESULT:    -4.289      1.355      2.275
REMARK INTER + INTRA:         -10.205
REMARK INTER:                  -8.027
REMARK INTRA:                  -2.178
REMARK UNBOUND:                -2.407
REMARK SMILES CCCCCCCCCCCCCCCC(=O)[O-]
REMARK SMILES IDX 9 1 10 2 11 3 12 4 13 5 14 6 15 7 16 8 17 9 18 10 8 11 7 12
REMARK SMILES IDX 6 13 5 14 4 15 3 16 2 17 1 18
REMARK H PARENT
REMARK Flexibility Score: inf
ROOT
ATOM      1  C   UNL     1      16.296 -34.645  21.146  1.00  0.00     0.000 C 
ENDROOT
BRANCH   1   2
ATOM      2  C   UNL     1      14.985 -33.997  21.622  1.00  0.00     0.000 C 
BRANCH   2   3
ATOM      3  C   UNL     1      14.249 -33.254  20.492  1.00  0.00     0.000 C 
BRANCH   3   4
ATOM      4  C   UNL     1      13.504 -32.006  20.996  1.00  0.00     0.000 C 
BRANCH   4   5
ATOM      5  C   UNL     1      13.828 -31.676  22.464  1.00  0.00     0.000 C 
BRANCH   5   6
ATOM      6  C   UNL     1      12.947 -30.548  23.023  1.00  0.00     0.006 C 
BRANCH   6   7
ATOM      7  C   UNL     1      13.696 -29.215  23.145  1.00  0.00     0.053 C 
BRANCH   7   8
ATOM      8  C   UNL     1      12.855 -28.207  23.864  1.00  0.00     0.041 C 
ATOM      9  O   UNL     1      11.606 -28.358  23.933  1.00  0.00    -0.550 OA
ATOM     10  O   UNL     1      13.444 -27.077  24.417  1.00  0.00    -0.550 OA
ENDBRANCH   7   8
ENDBRANCH   6   7
ENDBRANCH   5   6
ENDBRANCH   4   5
ENDBRANCH   3   4
ENDBRANCH   2   3
ENDBRANCH   1   2
BRANCH   1  11
ATOM     11  C   UNL     1      17.007 -33.819  20.063  1.00  0.00     0.000 C 
BRANCH  11  12
ATOM     12  C   UNL     1      18.058 -32.891  20.683  1.00  0.00    -0.000 C 
BRANCH  12  13
ATOM     13  C   UNL     1      17.514 -31.463  20.829  1.00  0.00    -0.000 C 
BRANCH  13  14
ATOM     14  C   UNL     1      17.919 -30.800  22.157  1.00  0.00    -0.000 C 
BRANCH  14  15
ATOM     15  C   UNL     1      17.063 -31.202  23.376  1.00  0.00    -0.000 C 
BRANCH  15  16
ATOM     16  C   UNL     1      17.794 -32.044  24.438  1.00  0.00    -0.000 C 
BRANCH  16  17
ATOM     17  C   UNL     1      17.126 -33.405  24.680  1.00  0.00    -0.003 C 
ATOM     18  C   UNL     1      18.072 -34.551  24.331  1.00  0.00     0.004 C 
ENDBRANCH  16  17
ENDBRANCH  15  16
ENDBRANCH  14  15
ENDBRANCH  13  14
ENDBRANCH  12  13
ENDBRANCH  11  12
ENDBRANCH   1  11
TORSDOF 14
ENDMDL
MODEL 6
REMARK VINA RESULT:    -4.288      3.004      5.487
REMARK INTER + INTRA:         -10.204
REMARK INTER:                  -7.814
REMARK INTRA:                  -2.390
REMARK UNBOUND:                -2.407
REMARK SMILES CCCCCCCCCCCCCCCC(=O)[O-]
REMARK SMILES IDX 9 1 10 2 11 3 12 4 13 5 14 6 15 7 16 8 17 9 18 10 8 11 7 12
REMARK SMILES IDX 6 13 5 14 4 15 3 16 2 17 1 18
REMARK H PARENT
REMARK Flexibility Score: inf
ROOT
ATOM      1  C   UNL     1      17.133 -32.067  24.325  1.00  0.00     0.000 C 
ENDROOT
BRANCH   1   2
ATOM      2  C   UNL     1      18.164 -31.791  23.219  1.00  0.00     0.000 C 
BRANCH   2   3
ATOM      3  C   UNL     1      17.694 -30.707  22.231  1.00  0.00     0.000 C 
BRANCH   3   4
ATOM      4  C   UNL     1      17.510 -31.250  20.804  1.00  0.00     0.000 C 
BRANCH   4   5
ATOM      5  C   UNL     1      18.299 -32.549  20.560  1.00  0.00     0.000 C 
BRANCH   5   6
ATOM      6  C   UNL     1      17.502 -33.579  19.744  1.00  0.00     0.006 C 
BRANCH   6   7
ATOM      7  C   UNL     1      18.158 -34.966  19.737  1.00  0.00     0.053 C 
BRANCH   7   8
ATOM      8  C   UNL     1      17.140 -36.023  19.444  1.00  0.00     0.041 C 
ATOM      9  O   UNL     1      15.912 -35.747  19.475  1.00  0.00    -0.550 OA
ATOM     10  O   UNL     1      17.547 -37.326  19.182  1.00  0.00    -0.550 OA
ENDBRANCH   7   8
ENDBRANCH   6   7
ENDBRANCH   5   6
ENDBRANCH   4   5
ENDBRANCH   3   4
ENDBRANCH   2   3
ENDBRANCH   1   2
BRANCH   1  11
ATOM     11  C   UNL     1      16.598 -33.507  24.293  1.00  0.00     0.000 C 
BRANCH  11  12
ATOM     12  C   UNL     1      15.142 -33.541  23.814  1.00  0.00    -0.000 C 
BRANCH  12  13
ATOM     13  C   UNL     1      15.059 -33.925  22.330  1.00  0.00    -0.000 C 
BRANCH  13  14
ATOM     14  C   UNL     1      14.341 -32.865  21.476  1.00  0.00    -0.000 C 
BRANCH  14  15
ATOM     15  C   UNL     1      13.640 -31.747  22.274  1.00  0.00    -0.000 C 
BRANCH  15  16
ATOM     16  C   UNL     1      14.017 -30.313  21.859  1.00  0.00    -0.000 C 
BRANCH  16  17
ATOM     17  C   UNL     1      14.202 -29.376  23.061  1.00  0.00    -0.003 C 
ATOM     18  C   UNL     1      12.891 -29.191  23.821  1.00  0.00     0.004 C 
ENDBRANCH  16  17
ENDBRANCH  15  16
ENDBRANCH  14  15
ENDBRANCH  13  14
ENDBRANCH  12  13
ENDBRANCH  11  12
ENDBRANCH   1  11
TORSDOF 14
ENDMDL
MODEL 7
REMARK VINA RESULT:    -4.265      1.473      3.683
REMARK INTER + INTRA:         -10.162
REMARK INTER:                  -7.843
REMARK INTRA:                  -2.319
REMARK UNBOUND:                -2.407
REMARK SMILES CCCCCCCCCCCCCCCC(=O)[O-]
REMARK SMILES IDX 9 1 10 2 11 3 12 4 13 5 14 6 15 7 16 8 17 9 18 10 8 11 7 12
REMARK SMILES IDX 6 13 5 14 4 15 3 16 2 17 1 18
REMARK H PARENT
REMARK Flexibility Score: inf
ROOT
ATOM      1  C   UNL     1      16.511 -34.541  24.149  1.00  0.00     0.000 C 
ENDROOT
BRANCH   1   2
ATOM      2  C   UNL     1      15.560 -33.582  23.415  1.00  0.00     0.000 C 
BRANCH   2   3
ATOM      3  C   UNL     1      15.994 -32.110  23.539  1.00  0.00     0.000 C 
BRANCH   3   4
ATOM      4  C   UNL     1      15.582 -31.269  22.319  1.00  0.00     0.000 C 
BRANCH   4   5
ATOM      5  C   UNL     1      14.445 -31.919  21.511  1.00  0.00     0.000 C 
BRANCH   5   6
ATOM      6  C   UNL     1      13.208 -31.012  21.399  1.00  0.00     0.006 C 
BRANCH   6   7
ATOM      7  C   UNL     1      12.540 -30.749  22.755  1.00  0.00     0.053 C 
BRANCH   7   8
ATOM      8  C   UNL     1      12.417 -29.278  22.999  1.00  0.00     0.041 C 
ATOM      9  O   UNL     1      11.282 -28.753  23.145  1.00  0.00    -0.550 OA
ATOM     10  O   UNL     1      13.553 -28.479  23.019  1.00  0.00    -0.550 OA
ENDBRANCH   7   8
ENDBRANCH   6   7
ENDBRANCH   5   6
ENDBRANCH   4   5
ENDBRANCH   3   4
ENDBRANCH   2   3
ENDBRANCH   1   2
BRANCH   1  11
ATOM     11  C   UNL     1      17.450 -35.293  23.192  1.00  0.00     0.000 C 
BRANCH  11  12
ATOM     12  C   UNL     1      18.820 -34.608  23.118  1.00  0.00    -0.000 C 
BRANCH  12  13
ATOM     13  C   UNL     1      19.229 -34.353  21.661  1.00  0.00    -0.000 C 
BRANCH  13  14
ATOM     14  C   UNL     1      18.493 -33.156  21.033  1.00  0.00    -0.000 C 
BRANCH  14  15
ATOM     15  C   UNL     1      17.512 -33.515  19.897  1.00  0.00    -0.000 C 
BRANCH  15  16
ATOM     16  C   UNL     1      17.751 -34.884  19.235  1.00  0.00    -0.000 C 
BRANCH  16  17
ATOM     17  C   UNL     1      16.559 -35.838  19.395  1.00  0.00    -0.003 C 
ATOM     18  C   UNL     1      15.391 -35.144  20.091  1.00  0.00     0.004 C 
ENDBRANCH  16  17
ENDBRANCH  15  16
ENDBRANCH  14  15
ENDBRANCH  13  14
ENDBRANCH  12  13
ENDBRANCH  11  12
ENDBRANCH   1  11
TORSDOF 14
ENDMDL
MODEL 8
REMARK VINA RESULT:    -4.254      2.873      4.790
REMARK INTER + INTRA:         -10.142
REMARK INTER:                  -8.178
REMARK INTRA:                  -1.964
REMARK UNBOUND:                -2.407
REMARK SMILES CCCCCCCCCCCCCCCC(=O)[O-]
REMARK SMILES IDX 9 1 10 2 11 3 12 4 13 5 14 6 15 7 16 8 17 9 18 10 8 11 7 12
REMARK SMILES IDX 6 13 5 14 4 15 3 16 2 17 1 18
REMARK H PARENT
REMARK Flexibility Score: inf
ROOT
ATOM      1  C   UNL     1      17.952 -31.689  23.480  1.00  0.00     0.000 C 
ENDROOT
BRANCH   1   2
ATOM      2  C   UNL     1      17.721 -33.182  23.762  1.00  0.00     0.000 C 
BRANCH   2   3
ATOM      3  C   UNL     1      16.425 -33.441  24.552  1.00  0.00     0.000 C 
BRANCH   3   4
ATOM      4  C   UNL     1      15.184 -33.494  23.645  1.00  0.00     0.000 C 
BRANCH   4   5
ATOM      5  C   UNL     1      15.475 -34.146  22.282  1.00  0.00     0.000 C 
BRANCH   5   6
ATOM      6  C   UNL     1      14.770 -33.426  21.120  1.00  0.00     0.006 C 
BRANCH   6   7
ATOM      7  C   UNL     1      14.724 -34.270  19.840  1.00  0.00     0.053 C 
BRANCH   7   8
ATOM      8  C   UNL     1      16.086 -34.796  19.512  1.00  0.00     0.041 C 
ATOM      9  O   UNL     1      17.005 -34.005  19.172  1.00  0.00    -0.550 OA
ATOM     10  O   UNL     1      16.327 -36.164  19.534  1.00  0.00    -0.550 OA
ENDBRANCH   7   8
ENDBRANCH   6   7
ENDBRANCH   5   6
ENDBRANCH   4   5
ENDBRANCH   3   4
ENDBRANCH   2   3
ENDBRANCH   1   2
BRANCH   1  11
ATOM     11  C   UNL     1      18.328 -31.412  22.016  1.00  0.00     0.000 C 
BRANCH  11  12
ATOM     12  C   UNL     1      17.165 -30.753  21.266  1.00  0.00    -0.000 C 
BRANCH  12  13
ATOM     13  C   UNL     1      16.340 -29.861  22.204  1.00  0.00    -0.000 C 
BRANCH  13  14
ATOM     14  C   UNL     1      14.831 -29.916  21.908  1.00  0.00    -0.000 C 
BRANCH  14  15
ATOM     15  C   UNL     1      13.925 -30.049  23.150  1.00  0.00    -0.000 C 
BRANCH  15  16
ATOM     16  C   UNL     1      12.434 -29.754  22.905  1.00  0.00    -0.000 C 
BRANCH  16  17
ATOM     17  C   UNL     1      11.920 -28.564  23.728  1.00  0.00    -0.003 C 
ATOM     18  C   UNL     1      13.069 -27.653  24.152  1.00  0.00     0.004 C 
ENDBRANCH  16  17
ENDBRANCH  15  16
ENDBRANCH  14  15
ENDBRANCH  13  14
ENDBRANCH  12  13
ENDBRANCH  11  12
ENDBRANCH   1  11
TORSDOF 14
ENDMDL
MODEL 9
REMARK VINA RESULT:    -4.196      1.675      3.639
REMARK INTER + INTRA:         -10.036
REMARK INTER:                  -7.543
REMARK INTRA:                  -2.493
REMARK UNBOUND:                -2.407
REMARK SMILES CCCCCCCCCCCCCCCC(=O)[O-]
REMARK SMILES IDX 9 1 10 2 11 3 12 4 13 5 14 6 15 7 16 8 17 9 18 10 8 11 7 12
REMARK SMILES IDX 6 13 5 14 4 15 3 16 2 17 1 18
REMARK H PARENT
REMARK Flexibility Score: inf
ROOT
ATOM      1  C   UNL     1      16.614 -33.902  19.823  1.00  0.00     0.000 C 
ENDROOT
BRANCH   1   2
ATOM      2  C   UNL     1      18.114 -33.591  19.947  1.00  0.00     0.000 C 
BRANCH   2   3
ATOM      3  C   UNL     1      18.395 -32.401  20.884  1.00  0.00     0.000 C 
BRANCH   3   4
ATOM      4  C   UNL     1      17.283 -31.340  20.839  1.00  0.00     0.000 C 
BRANCH   4   5
ATOM      5  C   UNL     1      17.186 -30.530  22.143  1.00  0.00     0.000 C 
BRANCH   5   6
ATOM      6  C   UNL     1      15.745 -30.421  22.665  1.00  0.00     0.006 C 
BRANCH   6   7
ATOM      7  C   UNL     1      14.722 -30.199  21.543  1.00  0.00     0.053 C 
BRANCH   7   8
ATOM      8  C   UNL     1      13.593 -31.174  21.666  1.00  0.00     0.041 C 
ATOM      9  O   UNL     1      13.133 -31.743  20.642  1.00  0.00    -0.550 OA
ATOM     10  O   UNL     1      13.017 -31.418  22.907  1.00  0.00    -0.550 OA
ENDBRANCH   7   8
ENDBRANCH   6   7
ENDBRANCH   5   6
ENDBRANCH   4   5
ENDBRANCH   3   4
ENDBRANCH   2   3
ENDBRANCH   1   2
BRANCH   1  11
ATOM     11  C   UNL     1      16.313 -35.408  19.874  1.00  0.00     0.000 C 
BRANCH  11  12
ATOM     12  C   UNL     1      17.609 -36.227  19.863  1.00  0.00    -0.000 C 
BRANCH  12  13
ATOM     13  C   UNL     1      17.615 -37.262  20.996  1.00  0.00    -0.000 C 
BRANCH  13  14
ATOM     14  C   UNL     1      18.721 -37.005  22.036  1.00  0.00    -0.000 C 
BRANCH  14  15
ATOM     15  C   UNL     1      18.620 -35.657  22.778  1.00  0.00    -0.000 C 
BRANCH  15  16
ATOM     16  C   UNL     1      17.373 -35.493  23.667  1.00  0.00    -0.000 C 
BRANCH  16  17
ATOM     17  C   UNL     1      16.866 -34.045  23.717  1.00  0.00    -0.003 C 
ATOM     18  C   UNL     1      15.395 -33.964  23.317  1.00  0.00     0.004 C 
ENDBRANCH  16  17
ENDBRANCH  15  16
ENDBRANCH  14  15
ENDBRANCH  13  14
ENDBRANCH  12  13
ENDBRANCH  11  12
ENDBRANCH   1  11
TORSDOF 14
ENDMDL
