MODEL 1
REMARK VINA RESULT:    -3.685      0.000      0.000
REMARK INTER + INTRA:          -4.940
REMARK INTER:                  -4.762
REMARK INTRA:                  -0.178
REMARK UNBOUND:                -0.178
REMARK SMILES CCCCCCC(=O)[O-]
REMARK SMILES IDX 5 1 6 2 7 3 8 4 9 5 4 6 3 7 2 8 1 9
REMARK H PARENT
REMARK Flexibility Score: inf
ROOT
ATOM      1  C   UNL     1    -115.872 -98.628  33.676  1.00  0.00     0.006 C 
ENDROOT
BRANCH   1   2
ATOM      2  C   UNL     1    -116.731 -98.700  34.947  1.00  0.00     0.053 C 
BRANCH   2   3
ATOM      3  C   UNL     1    -115.907 -99.003  36.161  1.00  0.00     0.041 C 
ATOM      4  O   UNL     1    -114.669 -99.206  36.053  1.00  0.00    -0.550 OA
ATOM      5  O   UNL     1    -116.502 -99.030  37.416  1.00  0.00    -0.550 OA
ENDBRANCH   2   3
ENDBRANCH   1   2
BRANCH   1   6
ATOM      6  C   UNL     1    -115.754 -97.216  33.065  1.00  0.00     0.000 C 
BRANCH   6   7
ATOM      7  C   UNL     1    -117.087 -96.587  32.609  1.00  0.00    -0.000 C 
BRANCH   7   8
ATOM      8  C   UNL     1    -117.881 -97.419  31.588  1.00  0.00    -0.003 C 
ATOM      9  C   UNL     1    -118.598 -96.560  30.548  1.00  0.00     0.004 C 
ENDBRANCH   7   8
ENDBRANCH   6   7
ENDBRANCH   1   6
TORSDOF 5
ENDMDL
MODEL 2
REMARK VINA RESULT:    -3.609      6.836      9.787
REMARK INTER + INTRA:          -4.842
REMARK INTER:                  -4.677
REMARK INTRA:                  -0.165
REMARK UNBOUND:                -0.178
REMARK SMILES CCCCCCC(=O)[O-]
REMARK SMILES IDX 5 1 6 2 7 3 8 4 9 5 4 6 3 7 2 8 1 9
REMARK H PARENT
REMARK Flexibility Score: inf
ROOT
ATOM      1  C   UNL     1    -116.373 -98.673  42.307  1.00  0.00     0.006 C 
ENDROOT
BRANCH   1   2
ATOM      2  C   UNL     1    -116.668 -99.590  41.110  1.00  0.00     0.053 C 
BRANCH   2   3
ATOM      3  C   UNL     1    -117.230 -98.828  39.949  1.00  0.00     0.041 C 
ATOM      4  O   UNL     1    -118.019 -97.866  40.143  1.00  0.00    -0.550 OA
ATOM      5  O   UNL     1    -116.856 -99.161  38.653  1.00  0.00    -0.550 OA
ENDBRANCH   2   3
ENDBRANCH   1   2
BRANCH   1   6
ATOM      6  C   UNL     1    -117.170 -99.013  43.582  1.00  0.00     0.000 C 
BRANCH   6   7
ATOM      7  C   UNL     1    -118.127 -97.907  44.071  1.00  0.00    -0.000 C 
BRANCH   7   8
ATOM      8  C   UNL     1    -118.377 -97.889  45.589  1.00  0.00    -0.003 C 
ATOM      9  C   UNL     1    -118.010 -99.208  46.269  1.00  0.00     0.004 C 
ENDBRANCH   7   8
ENDBRANCH   6   7
ENDBRANCH   1   6
TORSDOF 5
ENDMDL
MODEL 3
REMARK VINA RESULT:    -3.560      3.667      5.195
REMARK INTER + INTRA:          -4.778
REMARK INTER:                  -4.552
REMARK INTRA:                  -0.226
REMARK UNBOUND:                -0.178
REMARK SMILES CCCCCCC(=O)[O-]
REMARK SMILES IDX 5 1 6 2 7 3 8 4 9 5 4 6 3 7 2 8 1 9
REMARK H PARENT
REMARK Flexibility Score: inf
ROOT
ATOM      1  C   UNL     1    -116.980 -96.708  32.544  1.00  0.00     0.006 C 
ENDROOT
BRANCH   1   2
ATOM      2  C   UNL     1    -118.167 -97.602  32.154  1.00  0.00     0.053 C 
BRANCH   2   3
ATOM      3  C   UNL     1    -118.476 -97.511  30.691  1.00  0.00     0.041 C 
ATOM      4  O   UNL     1    -118.372 -96.411  30.088  1.00  0.00    -0.550 OA
ATOM      5  O   UNL     1    -118.849 -98.650  29.987  1.00  0.00    -0.550 OA
ENDBRANCH   2   3
ENDBRANCH   1   2
BRANCH   1   6
ATOM      6  C   UNL     1    -115.821 -97.453  33.237  1.00  0.00     0.000 C 
BRANCH   6   7
ATOM      7  C   UNL     1    -115.883 -98.992  33.145  1.00  0.00    -0.000 C 
BRANCH   7   8
ATOM      8  C   UNL     1    -115.541 -99.734  34.448  1.00  0.00    -0.003 C 
ATOM      9  C   UNL     1    -115.129 -98.793  35.579  1.00  0.00     0.004 C 
ENDBRANCH   7   8
ENDBRANCH   6   7
ENDBRANCH   1   6
TORSDOF 5
ENDMDL
MODEL 4
REMARK VINA RESULT:    -3.546      9.735     11.757
REMARK INTER + INTRA:          -4.761
REMARK INTER:                  -4.612
REMARK INTRA:                  -0.149
REMARK UNBOUND:                -0.178
REMARK SMILES CCCCCCC(=O)[O-]
REMARK SMILES IDX 5 1 6 2 7 3 8 4 9 5 4 6 3 7 2 8 1 9
REMARK H PARENT
REMARK Flexibility Score: inf
ROOT
ATOM      1  C   UNL     1    -118.319 -98.498  46.223  1.00  0.00     0.006 C 
ENDROOT
BRANCH   1   2
ATOM      2  C   UNL     1    -118.477 -97.012  45.864  1.00  0.00     0.053 C 
BRANCH   2   3
ATOM      3  C   UNL     1    -118.143 -96.120  47.020  1.00  0.00     0.041 C 
ATOM      4  O   UNL     1    -118.313 -94.876  46.930  1.00  0.00    -0.550 OA
ATOM      5  O   UNL     1    -117.674 -96.667  48.207  1.00  0.00    -0.550 OA
ENDBRANCH   2   3
ENDBRANCH   1   2
BRANCH   1   6
ATOM      6  C   UNL     1    -117.994 -99.413  45.025  1.00  0.00     0.000 C 
BRANCH   6   7
ATOM      7  C   UNL     1    -117.852 -98.691  43.669  1.00  0.00    -0.000 C 
BRANCH   7   8
ATOM      8  C   UNL     1    -116.995 -99.430  42.627  1.00  0.00    -0.003 C 
ATOM      9  C   UNL     1    -115.880 -98.560  42.049  1.00  0.00     0.004 C 
ENDBRANCH   7   8
ENDBRANCH   6   7
ENDBRANCH   1   6
TORSDOF 5
ENDMDL
MODEL 5
REMARK VINA RESULT:    -3.540      1.158      1.352
REMARK INTER + INTRA:          -4.752
REMARK INTER:                  -4.487
REMARK INTRA:                  -0.265
REMARK UNBOUND:                -0.178
REMARK SMILES CCCCCCC(=O)[O-]
REMARK SMILES IDX 5 1 6 2 7 3 8 4 9 5 4 6 3 7 2 8 1 9
REMARK H PARENT
REMARK Flexibility Score: inf
ROOT
ATOM      1  C   UNL     1    -115.715 -98.347  33.765  1.00  0.00     0.006 C 
ENDROOT
BRANCH   1   2
ATOM      2  C   UNL     1    -115.342 -98.533  35.244  1.00  0.00     0.053 C 
BRANCH   2   3
ATOM      3  C   UNL     1    -116.513 -98.982  36.063  1.00  0.00     0.041 C 
ATOM      4  O   UNL     1    -117.572 -99.363  35.498  1.00  0.00    -0.550 OA
ATOM      5  O   UNL     1    -116.424 -99.009  37.448  1.00  0.00    -0.550 OA
ENDBRANCH   2   3
ENDBRANCH   1   2
BRANCH   1   6
ATOM      6  C   UNL     1    -115.962 -96.882  33.349  1.00  0.00     0.000 C 
BRANCH   6   7
ATOM      7  C   UNL     1    -117.117 -96.672  32.350  1.00  0.00    -0.000 C 
BRANCH   7   8
ATOM      8  C   UNL     1    -118.266 -97.689  32.463  1.00  0.00    -0.003 C 
ATOM      9  C   UNL     1    -118.541 -98.424  31.152  1.00  0.00     0.004 C 
ENDBRANCH   7   8
ENDBRANCH   6   7
ENDBRANCH   1   6
TORSDOF 5
ENDMDL
MODEL 6
REMARK VINA RESULT:    -3.478      1.123      2.076
REMARK INTER + INTRA:          -4.673
REMARK INTER:                  -4.327
REMARK INTRA:                  -0.346
REMARK UNBOUND:                -0.178
REMARK SMILES CCCCCCC(=O)[O-]
REMARK SMILES IDX 5 1 6 2 7 3 8 4 9 5 4 6 3 7 2 8 1 9
REMARK H PARENT
REMARK Flexibility Score: inf
ROOT
ATOM      1  C   UNL     1    -116.129-100.070  33.933  1.00  0.00     0.006 C 
ENDROOT
BRANCH   1   2
ATOM      2  C   UNL     1    -116.936 -99.609  35.156  1.00  0.00     0.053 C 
BRANCH   2   3
ATOM      3  C   UNL     1    -116.053 -99.054  36.231  1.00  0.00     0.041 C 
ATOM      4  O   UNL     1    -116.459 -99.001  37.422  1.00  0.00    -0.550 OA
ATOM      5  O   UNL     1    -114.768 -98.626  35.923  1.00  0.00    -0.550 OA
ENDBRANCH   2   3
ENDBRANCH   1   2
BRANCH   1   6
ATOM      6  C   UNL     1    -116.619 -99.489  32.590  1.00  0.00     0.000 C 
BRANCH   6   7
ATOM      7  C   UNL     1    -117.658 -98.355  32.707  1.00  0.00    -0.000 C 
BRANCH   7   8
ATOM      8  C   UNL     1    -117.131 -96.954  32.352  1.00  0.00    -0.003 C 
ATOM      9  C   UNL     1    -116.043 -96.466  33.308  1.00  0.00     0.004 C 
ENDBRANCH   7   8
ENDBRANCH   6   7
ENDBRANCH   1   6
TORSDOF 5
ENDMDL
MODEL 7
REMARK VINA RESULT:    -3.306      8.235     10.919
REMARK INTER + INTRA:          -4.450
REMARK INTER:                  -4.365
REMARK INTRA:                  -0.085
REMARK UNBOUND:                -0.178
REMARK SMILES CCCCCCC(=O)[O-]
REMARK SMILES IDX 5 1 6 2 7 3 8 4 9 5 4 6 3 7 2 8 1 9
REMARK H PARENT
REMARK Flexibility Score: inf
ROOT
ATOM      1  C   UNL     1    -117.437 -98.854  43.798  1.00  0.00     0.006 C 
ENDROOT
BRANCH   1   2
ATOM      2  C   UNL     1    -117.701 -99.216  42.329  1.00  0.00     0.053 C 
BRANCH   2   3
ATOM      3  C   UNL     1    -116.480 -99.032  41.481  1.00  0.00     0.041 C 
ATOM      4  O   UNL     1    -115.372 -98.763  42.015  1.00  0.00    -0.550 OA
ATOM      5  O   UNL     1    -116.560 -99.191  40.103  1.00  0.00    -0.550 OA
ENDBRANCH   2   3
ENDBRANCH   1   2
BRANCH   1   6
ATOM      6  C   UNL     1    -118.388 -97.785  44.374  1.00  0.00     0.000 C 
BRANCH   6   7
ATOM      7  C   UNL     1    -118.396 -97.675  45.912  1.00  0.00    -0.000 C 
BRANCH   7   8
ATOM      8  C   UNL     1    -118.522 -96.243  46.459  1.00  0.00    -0.003 C 
ATOM      9  C   UNL     1    -118.093 -96.124  47.921  1.00  0.00     0.004 C 
ENDBRANCH   7   8
ENDBRANCH   6   7
ENDBRANCH   1   6
TORSDOF 5
ENDMDL
MODEL 8
REMARK VINA RESULT:    -3.241      3.372      5.040
REMARK INTER + INTRA:          -4.367
REMARK INTER:                  -4.100
REMARK INTRA:                  -0.267
REMARK UNBOUND:                -0.178
REMARK SMILES CCCCCCC(=O)[O-]
REMARK SMILES IDX 5 1 6 2 7 3 8 4 9 5 4 6 3 7 2 8 1 9
REMARK H PARENT
REMARK Flexibility Score: inf
ROOT
ATOM      1  C   UNL     1    -118.144 -99.003  32.629  1.00  0.00     0.006 C 
ENDROOT
BRANCH   1   2
ATOM      2  C   UNL     1    -118.451 -98.502  31.210  1.00  0.00     0.053 C 
BRANCH   2   3
ATOM      3  C   UNL     1    -118.112 -97.053  31.043  1.00  0.00     0.041 C 
ATOM      4  O   UNL     1    -118.459 -96.436  30.002  1.00  0.00    -0.550 OA
ATOM      5  O   UNL     1    -117.442 -96.375  32.054  1.00  0.00    -0.550 OA
ENDBRANCH   2   3
ENDBRANCH   1   2
BRANCH   1   6
ATOM      6  C   UNL     1    -116.961 -99.989  32.716  1.00  0.00     0.000 C 
BRANCH   6   7
ATOM      7  C   UNL     1    -115.621 -99.367  33.157  1.00  0.00    -0.000 C 
BRANCH   7   8
ATOM      8  C   UNL     1    -115.726 -98.339  34.297  1.00  0.00    -0.003 C 
ATOM      9  C   UNL     1    -115.168 -98.859  35.621  1.00  0.00     0.004 C 
ENDBRANCH   7   8
ENDBRANCH   6   7
ENDBRANCH   1   6
TORSDOF 5
ENDMDL
