MODEL 1
REMARK VINA RESULT:    -4.677      0.000      0.000
REMARK INTER + INTRA:          -8.577
REMARK INTER:                  -7.138
REMARK INTRA:                  -1.438
REMARK UNBOUND:                -1.438
REMARK SMILES CC(=O)CCC=C(C)CCC=C(C)CCC=C(C)C
REMARK SMILES IDX 10 1 11 2 12 3 13 4 14 5 15 6 16 7 18 8 17 9 19 10 9 11 7 12
REMARK SMILES IDX 6 13 8 14 5 15 4 16 2 17 3 18 1 19
REMARK H PARENT
REMARK Flexibility Score: inf
ROOT
ATOM      1  C   UNL     1     155.856 160.488 200.487  1.00  0.00     0.032 C 
ENDROOT
BRANCH   1   2
ATOM      2  C   UNL     1     154.532 160.602 201.200  1.00  0.00    -0.028 C 
ATOM      3  C   UNL     1     153.776 159.547 201.582  1.00  0.00    -0.077 C 
ATOM      4  C   UNL     1     154.234 158.122 201.390  1.00  0.00     0.039 C 
BRANCH   3   5
ATOM      5  C   UNL     1     152.465 159.798 202.299  1.00  0.00     0.034 C 
BRANCH   5   6
ATOM      6  C   UNL     1     151.674 160.947 201.656  1.00  0.00     0.032 C 
BRANCH   6   7
ATOM      7  C   UNL     1     150.604 160.445 200.716  1.00  0.00    -0.028 C 
ATOM      8  C   UNL     1     149.508 159.992 198.565  1.00  0.00     0.039 C 
ATOM      9  C   UNL     1     150.684 160.485 199.368  1.00  0.00    -0.080 C 
ATOM     10  C   UNL     1     151.915 160.990 198.653  1.00  0.00     0.039 C 
ENDBRANCH   6   7
ENDBRANCH   5   6
ENDBRANCH   3   5
ENDBRANCH   1   2
BRANCH   1  11
ATOM     11  C   UNL     1     155.718 160.873 199.010  1.00  0.00     0.034 C 
BRANCH  11  12
ATOM     12  C   UNL     1     156.913 161.679 198.550  1.00  0.00    -0.077 C 
ATOM     13  C   UNL     1     157.877 161.994 199.447  1.00  0.00    -0.028 C 
ATOM     14  C   UNL     1     156.995 162.116 197.106  1.00  0.00     0.039 C 
BRANCH  13  15
ATOM     15  C   UNL     1     159.134 162.759 199.117  1.00  0.00     0.035 C 
BRANCH  15  16
ATOM     16  C   UNL     1     159.458 163.772 200.227  1.00  0.00     0.079 C 
BRANCH  16  17
ATOM     17  C   UNL     1     159.207 165.214 199.846  1.00  0.00     0.130 C 
ATOM     18  O   UNL     1     159.885 166.080 200.379  1.00  0.00    -0.300 OA
ATOM     19  C   UNL     1     158.177 165.627 198.832  1.00  0.00     0.087 C 
ENDBRANCH  16  17
ENDBRANCH  15  16
ENDBRANCH  13  15
ENDBRANCH  11  12
ENDBRANCH   1  11
TORSDOF 9
ENDMDL
MODEL 2
REMARK VINA RESULT:    -4.534      4.635      6.867
REMARK INTER + INTRA:          -8.358
REMARK INTER:                  -5.715
REMARK INTRA:                  -2.644
REMARK UNBOUND:                -1.438
REMARK SMILES CC(=O)CCC=C(C)CCC=C(C)CCC=C(C)C
REMARK SMILES IDX 10 1 11 2 12 3 13 4 14 5 15 6 16 7 18 8 17 9 19 10 9 11 7 12
REMARK SMILES IDX 6 13 8 14 5 15 4 16 2 17 3 18 1 19
REMARK H PARENT
REMARK Flexibility Score: inf
ROOT
ATOM      1  C   UNL     1     153.350 161.116 201.612  1.00  0.00     0.032 C 
ENDROOT
BRANCH   1   2
ATOM      2  C   UNL     1     151.949 161.128 201.053  1.00  0.00    -0.028 C 
ATOM      3  C   UNL     1     150.931 160.374 201.528  1.00  0.00    -0.077 C 
ATOM      4  C   UNL     1     151.089 159.485 202.737  1.00  0.00     0.039 C 
BRANCH   3   5
ATOM      5  C   UNL     1     149.565 160.484 200.881  1.00  0.00     0.034 C 
BRANCH   5   6
ATOM      6  C   UNL     1     149.669 160.698 199.365  1.00  0.00     0.032 C 
BRANCH   6   7
ATOM      7  C   UNL     1     150.024 159.426 198.633  1.00  0.00    -0.028 C 
ATOM      8  C   UNL     1     151.212 157.988 197.035  1.00  0.00     0.039 C 
ATOM      9  C   UNL     1     151.013 159.316 197.718  1.00  0.00    -0.080 C 
ATOM     10  C   UNL     1     151.925 160.472 197.381  1.00  0.00     0.039 C 
ENDBRANCH   6   7
ENDBRANCH   5   6
ENDBRANCH   3   5
ENDBRANCH   1   2
BRANCH   1  11
ATOM     11  C   UNL     1     154.294 160.314 200.708  1.00  0.00     0.034 C 
BRANCH  11  12
ATOM     12  C   UNL     1     154.115 158.828 200.927  1.00  0.00    -0.077 C 
ATOM     13  C   UNL     1     153.454 158.102 199.995  1.00  0.00    -0.028 C 
ATOM     14  C   UNL     1     154.672 158.196 202.181  1.00  0.00     0.039 C 
BRANCH  13  15
ATOM     15  C   UNL     1     153.236 156.612 200.069  1.00  0.00     0.035 C 
BRANCH  15  16
ATOM     16  C   UNL     1     151.751 156.293 200.303  1.00  0.00     0.079 C 
BRANCH  16  17
ATOM     17  C   UNL     1     151.469 155.543 201.586  1.00  0.00     0.130 C 
ATOM     18  O   UNL     1     151.854 156.030 202.638  1.00  0.00    -0.300 OA
ATOM     19  C   UNL     1     150.724 154.237 201.625  1.00  0.00     0.087 C 
ENDBRANCH  16  17
ENDBRANCH  15  16
ENDBRANCH  13  15
ENDBRANCH  11  12
ENDBRANCH   1  11
TORSDOF 9
ENDMDL
MODEL 3
REMARK VINA RESULT:    -4.444      4.315      6.893
REMARK INTER + INTRA:          -8.220
REMARK INTER:                  -5.733
REMARK INTRA:                  -2.487
REMARK UNBOUND:                -1.438
REMARK SMILES CC(=O)CCC=C(C)CCC=C(C)CCC=C(C)C
REMARK SMILES IDX 10 1 11 2 12 3 13 4 14 5 15 6 16 7 18 8 17 9 19 10 9 11 7 12
REMARK SMILES IDX 6 13 8 14 5 15 4 16 2 17 3 18 1 19
REMARK H PARENT
REMARK Flexibility Score: inf
ROOT
ATOM      1  C   UNL     1     152.264 161.520 201.118  1.00  0.00     0.032 C 
ENDROOT
BRANCH   1   2
ATOM      2  C   UNL     1     153.480 160.774 201.606  1.00  0.00    -0.028 C 
ATOM      3  C   UNL     1     154.495 160.363 200.811  1.00  0.00    -0.077 C 
ATOM      4  C   UNL     1     154.538 160.686 199.337  1.00  0.00     0.039 C 
BRANCH   3   5
ATOM      5  C   UNL     1     155.666 159.627 201.428  1.00  0.00     0.034 C 
BRANCH   5   6
ATOM      6  C   UNL     1     155.241 158.278 202.026  1.00  0.00     0.032 C 
BRANCH   6   7
ATOM      7  C   UNL     1     154.551 157.397 201.011  1.00  0.00    -0.028 C 
ATOM      8  C   UNL     1     152.754 156.026 200.051  1.00  0.00     0.039 C 
ATOM      9  C   UNL     1     153.285 156.940 201.124  1.00  0.00    -0.080 C 
ATOM     10  C   UNL     1     152.391 157.332 202.277  1.00  0.00     0.039 C 
ENDBRANCH   6   7
ENDBRANCH   5   6
ENDBRANCH   3   5
ENDBRANCH   1   2
BRANCH   1  11
ATOM     11  C   UNL     1     150.983 160.729 201.407  1.00  0.00     0.034 C 
BRANCH  11  12
ATOM     12  C   UNL     1     150.395 160.172 200.129  1.00  0.00    -0.077 C 
ATOM     13  C   UNL     1     151.159 159.372 199.349  1.00  0.00    -0.028 C 
ATOM     14  C   UNL     1     148.975 160.527 199.756  1.00  0.00     0.039 C 
BRANCH  13  15
ATOM     15  C   UNL     1     150.690 158.723 198.071  1.00  0.00     0.035 C 
BRANCH  15  16
ATOM     16  C   UNL     1     151.260 159.458 196.848  1.00  0.00     0.079 C 
BRANCH  16  17
ATOM     17  C   UNL     1     150.375 160.562 196.316  1.00  0.00     0.130 C 
ATOM     18  O   UNL     1     149.448 160.256 195.580  1.00  0.00    -0.300 OA
ATOM     19  C   UNL     1     150.571 162.011 196.665  1.00  0.00     0.087 C 
ENDBRANCH  16  17
ENDBRANCH  15  16
ENDBRANCH  13  15
ENDBRANCH  11  12
ENDBRANCH   1  11
TORSDOF 9
ENDMDL
MODEL 4
REMARK VINA RESULT:    -4.441      1.831      3.886
REMARK INTER + INTRA:          -8.216
REMARK INTER:                  -6.026
REMARK INTRA:                  -2.189
REMARK UNBOUND:                -1.438
REMARK SMILES CC(=O)CCC=C(C)CCC=C(C)CCC=C(C)C
REMARK SMILES IDX 10 1 11 2 12 3 13 4 14 5 15 6 16 7 18 8 17 9 19 10 9 11 7 12
REMARK SMILES IDX 6 13 8 14 5 15 4 16 2 17 3 18 1 19
REMARK H PARENT
REMARK Flexibility Score: inf
ROOT
ATOM      1  C   UNL     1     151.990 161.155 199.113  1.00  0.00     0.032 C 
ENDROOT
BRANCH   1   2
ATOM      2  C   UNL     1     151.294 160.438 200.242  1.00  0.00    -0.028 C 
ATOM      3  C   UNL     1     151.507 160.688 201.555  1.00  0.00    -0.077 C 
ATOM      4  C   UNL     1     152.432 161.787 202.019  1.00  0.00     0.039 C 
BRANCH   3   5
ATOM      5  C   UNL     1     150.735 159.901 202.593  1.00  0.00     0.034 C 
BRANCH   5   6
ATOM      6  C   UNL     1     151.630 158.891 203.324  1.00  0.00     0.032 C 
BRANCH   6   7
ATOM      7  C   UNL     1     151.890 157.656 202.495  1.00  0.00    -0.028 C 
ATOM      8  C   UNL     1     153.176 156.083 201.115  1.00  0.00     0.039 C 
ATOM      9  C   UNL     1     153.088 157.324 201.965  1.00  0.00    -0.080 C 
ATOM     10  C   UNL     1     154.331 158.146 202.215  1.00  0.00     0.039 C 
ENDBRANCH   6   7
ENDBRANCH   5   6
ENDBRANCH   3   5
ENDBRANCH   1   2
BRANCH   1  11
ATOM     11  C   UNL     1     152.729 160.163 198.207  1.00  0.00     0.034 C 
BRANCH  11  12
ATOM     12  C   UNL     1     154.090 159.826 198.776  1.00  0.00    -0.077 C 
ATOM     13  C   UNL     1     154.808 160.800 199.382  1.00  0.00    -0.028 C 
ATOM     14  C   UNL     1     154.613 158.414 198.647  1.00  0.00     0.039 C 
BRANCH  13  15
ATOM     15  C   UNL     1     156.158 160.595 200.021  1.00  0.00     0.035 C 
BRANCH  15  16
ATOM     16  C   UNL     1     157.281 160.785 198.989  1.00  0.00     0.079 C 
BRANCH  16  17
ATOM     17  C   UNL     1     157.756 162.213 198.841  1.00  0.00     0.130 C 
ATOM     18  O   UNL     1     157.390 162.847 197.863  1.00  0.00    -0.300 OA
ATOM     19  C   UNL     1     158.641 162.891 199.851  1.00  0.00     0.087 C 
ENDBRANCH  16  17
ENDBRANCH  15  16
ENDBRANCH  13  15
ENDBRANCH  11  12
ENDBRANCH   1  11
TORSDOF 9
ENDMDL
MODEL 5
REMARK VINA RESULT:    -4.384      1.359      2.410
REMARK INTER + INTRA:          -8.130
REMARK INTER:                  -6.617
REMARK INTRA:                  -1.512
REMARK UNBOUND:                -1.438
REMARK SMILES CC(=O)CCC=C(C)CCC=C(C)CCC=C(C)C
REMARK SMILES IDX 10 1 11 2 12 3 13 4 14 5 15 6 16 7 18 8 17 9 19 10 9 11 7 12
REMARK SMILES IDX 6 13 8 14 5 15 4 16 2 17 3 18 1 19
REMARK H PARENT
REMARK Flexibility Score: inf
ROOT
ATOM      1  C   UNL     1     156.373 160.334 198.569  1.00  0.00     0.032 C 
ENDROOT
BRANCH   1   2
ATOM      2  C   UNL     1     154.905 160.540 198.296  1.00  0.00    -0.028 C 
ATOM      3  C   UNL     1     153.958 159.585 198.445  1.00  0.00    -0.077 C 
ATOM      4  C   UNL     1     154.284 158.212 198.981  1.00  0.00     0.039 C 
BRANCH   3   5
ATOM      5  C   UNL     1     152.512 159.923 198.144  1.00  0.00     0.034 C 
BRANCH   5   6
ATOM      6  C   UNL     1     152.019 161.113 198.980  1.00  0.00     0.032 C 
BRANCH   6   7
ATOM      7  C   UNL     1     151.323 160.671 200.245  1.00  0.00    -0.028 C 
ATOM      8  C   UNL     1     151.093 160.097 202.622  1.00  0.00     0.039 C 
ATOM      9  C   UNL     1     151.907 160.609 201.462  1.00  0.00    -0.080 C 
ATOM     10  C   UNL     1     153.333 161.052 201.691  1.00  0.00     0.039 C 
ENDBRANCH   6   7
ENDBRANCH   5   6
ENDBRANCH   3   5
ENDBRANCH   1   2
BRANCH   1  11
ATOM     11  C   UNL     1     156.851 161.243 199.708  1.00  0.00     0.034 C 
BRANCH  11  12
ATOM     12  C   UNL     1     157.861 162.251 199.205  1.00  0.00    -0.077 C 
ATOM     13  C   UNL     1     158.667 162.873 200.097  1.00  0.00    -0.028 C 
ATOM     14  C   UNL     1     157.938 162.540 197.724  1.00  0.00     0.039 C 
BRANCH  13  15
ATOM     15  C   UNL     1     159.738 163.869 199.730  1.00  0.00     0.035 C 
BRANCH  15  16
ATOM     16  C   UNL     1     159.234 165.306 199.934  1.00  0.00     0.079 C 
BRANCH  16  17
ATOM     17  C   UNL     1     158.939 166.051 198.651  1.00  0.00     0.130 C 
ATOM     18  O   UNL     1     159.881 166.484 198.004  1.00  0.00    -0.300 OA
ATOM     19  C   UNL     1     157.545 166.265 198.129  1.00  0.00     0.087 C 
ENDBRANCH  16  17
ENDBRANCH  15  16
ENDBRANCH  13  15
ENDBRANCH  11  12
ENDBRANCH   1  11
TORSDOF 9
ENDMDL
MODEL 6
REMARK VINA RESULT:    -4.371      2.940      7.666
REMARK INTER + INTRA:          -8.109
REMARK INTER:                  -6.919
REMARK INTRA:                  -1.190
REMARK UNBOUND:                -1.438
REMARK SMILES CC(=O)CCC=C(C)CCC=C(C)CCC=C(C)C
REMARK SMILES IDX 10 1 11 2 12 3 13 4 14 5 15 6 16 7 18 8 17 9 19 10 9 11 7 12
REMARK SMILES IDX 6 13 8 14 5 15 4 16 2 17 3 18 1 19
REMARK H PARENT
REMARK Flexibility Score: inf
ROOT
ATOM      1  C   UNL     1     153.418 160.535 198.933  1.00  0.00     0.032 C 
ENDROOT
BRANCH   1   2
ATOM      2  C   UNL     1     154.696 160.726 199.711  1.00  0.00    -0.028 C 
ATOM      3  C   UNL     1     155.907 160.946 199.150  1.00  0.00    -0.077 C 
ATOM      4  C   UNL     1     156.083 161.094 197.659  1.00  0.00     0.039 C 
BRANCH   3   5
ATOM      5  C   UNL     1     157.115 161.130 200.046  1.00  0.00     0.034 C 
BRANCH   5   6
ATOM      6  C   UNL     1     158.315 161.698 199.275  1.00  0.00     0.032 C 
BRANCH   6   7
ATOM      7  C   UNL     1     158.813 162.994 199.869  1.00  0.00    -0.028 C 
ATOM      8  C   UNL     1     159.312 165.397 199.967  1.00  0.00     0.039 C 
ATOM      9  C   UNL     1     158.721 164.201 199.268  1.00  0.00    -0.080 C 
ATOM     10  C   UNL     1     158.033 164.382 197.935  1.00  0.00     0.039 C 
ENDBRANCH   6   7
ENDBRANCH   5   6
ENDBRANCH   3   5
ENDBRANCH   1   2
BRANCH   1  11
ATOM     11  C   UNL     1     152.256 161.283 199.596  1.00  0.00     0.034 C 
BRANCH  11  12
ATOM     12  C   UNL     1     152.089 160.851 201.036  1.00  0.00    -0.077 C 
ATOM     13  C   UNL     1     151.716 159.577 201.300  1.00  0.00    -0.028 C 
ATOM     14  C   UNL     1     152.338 161.853 202.139  1.00  0.00     0.039 C 
BRANCH  13  15
ATOM     15  C   UNL     1     151.548 159.005 202.686  1.00  0.00     0.035 C 
BRANCH  15  16
ATOM     16  C   UNL     1     151.879 157.504 202.696  1.00  0.00     0.079 C 
BRANCH  16  17
ATOM     17  C   UNL     1     153.357 157.193 202.784  1.00  0.00     0.130 C 
ATOM     18  O   UNL     1     153.895 157.247 203.879  1.00  0.00    -0.300 OA
ATOM     19  C   UNL     1     154.185 156.805 201.591  1.00  0.00     0.087 C 
ENDBRANCH  16  17
ENDBRANCH  15  16
ENDBRANCH  13  15
ENDBRANCH  11  12
ENDBRANCH   1  11
TORSDOF 9
ENDMDL
MODEL 7
REMARK VINA RESULT:    -4.359      3.834      6.381
REMARK INTER + INTRA:          -8.090
REMARK INTER:                  -5.187
REMARK INTRA:                  -2.903
REMARK UNBOUND:                -1.438
REMARK SMILES CC(=O)CCC=C(C)CCC=C(C)CCC=C(C)C
REMARK SMILES IDX 10 1 11 2 12 3 13 4 14 5 15 6 16 7 18 8 17 9 19 10 9 11 7 12
REMARK SMILES IDX 6 13 8 14 5 15 4 16 2 17 3 18 1 19
REMARK H PARENT
REMARK Flexibility Score: inf
ROOT
ATOM      1  C   UNL     1     152.289 161.436 201.102  1.00  0.00     0.032 C 
ENDROOT
BRANCH   1   2
ATOM      2  C   UNL     1     153.346 160.478 201.591  1.00  0.00    -0.028 C 
ATOM      3  C   UNL     1     154.443 160.122 200.882  1.00  0.00    -0.077 C 
ATOM      4  C   UNL     1     154.752 160.722 199.532  1.00  0.00     0.039 C 
BRANCH   3   5
ATOM      5  C   UNL     1     155.436 159.154 201.492  1.00  0.00     0.034 C 
BRANCH   5   6
ATOM      6  C   UNL     1     154.735 158.049 202.295  1.00  0.00     0.032 C 
BRANCH   6   7
ATOM      7  C   UNL     1     153.971 157.097 201.406  1.00  0.00    -0.028 C 
ATOM      8  C   UNL     1     152.064 155.757 200.631  1.00  0.00     0.039 C 
ATOM      9  C   UNL     1     152.672 156.764 201.572  1.00  0.00    -0.080 C 
ATOM     10  C   UNL     1     151.819 157.382 202.655  1.00  0.00     0.039 C 
ENDBRANCH   6   7
ENDBRANCH   5   6
ENDBRANCH   3   5
ENDBRANCH   1   2
BRANCH   1  11
ATOM     11  C   UNL     1     151.021 160.683 200.681  1.00  0.00     0.034 C 
BRANCH  11  12
ATOM     12  C   UNL     1     151.120 160.222 199.244  1.00  0.00    -0.077 C 
ATOM     13  C   UNL     1     151.000 158.903 198.968  1.00  0.00    -0.028 C 
ATOM     14  C   UNL     1     151.357 161.245 198.157  1.00  0.00     0.039 C 
BRANCH  13  15
ATOM     15  C   UNL     1     151.044 158.312 197.581  1.00  0.00     0.035 C 
BRANCH  15  16
ATOM     16  C   UNL     1     152.216 157.327 197.449  1.00  0.00     0.079 C 
BRANCH  16  17
ATOM     17  C   UNL     1     153.563 157.985 197.251  1.00  0.00     0.130 C 
ATOM     18  O   UNL     1     153.617 159.001 196.574  1.00  0.00    -0.300 OA
ATOM     19  C   UNL     1     154.831 157.457 197.863  1.00  0.00     0.087 C 
ENDBRANCH  16  17
ENDBRANCH  15  16
ENDBRANCH  13  15
ENDBRANCH  11  12
ENDBRANCH   1  11
TORSDOF 9
ENDMDL
MODEL 8
REMARK VINA RESULT:    -4.341      4.224      6.097
REMARK INTER + INTRA:          -8.064
REMARK INTER:                  -5.458
REMARK INTRA:                  -2.606
REMARK UNBOUND:                -1.438
REMARK SMILES CC(=O)CCC=C(C)CCC=C(C)CCC=C(C)C
REMARK SMILES IDX 10 1 11 2 12 3 13 4 14 5 15 6 16 7 18 8 17 9 19 10 9 11 7 12
REMARK SMILES IDX 6 13 8 14 5 15 4 16 2 17 3 18 1 19
REMARK H PARENT
REMARK Flexibility Score: inf
ROOT
ATOM      1  C   UNL     1     153.219 156.967 202.545  1.00  0.00     0.032 C 
ENDROOT
BRANCH   1   2
ATOM      2  C   UNL     1     153.410 158.442 202.292  1.00  0.00    -0.028 C 
ATOM      3  C   UNL     1     154.340 158.960 201.457  1.00  0.00    -0.077 C 
ATOM      4  C   UNL     1     155.246 158.084 200.626  1.00  0.00     0.039 C 
BRANCH   3   5
ATOM      5  C   UNL     1     154.425 160.463 201.285  1.00  0.00     0.034 C 
BRANCH   5   6
ATOM      6  C   UNL     1     153.129 161.160 201.722  1.00  0.00     0.032 C 
BRANCH   6   7
ATOM      7  C   UNL     1     152.038 161.038 200.684  1.00  0.00    -0.028 C 
ATOM      8  C   UNL     1     149.815 160.507 199.786  1.00  0.00     0.039 C 
ATOM      9  C   UNL     1     150.777 160.626 200.939  1.00  0.00    -0.080 C 
ATOM     10  C   UNL     1     150.306 160.304 202.338  1.00  0.00     0.039 C 
ENDBRANCH   6   7
ENDBRANCH   5   6
ENDBRANCH   3   5
ENDBRANCH   1   2
BRANCH   1  11
ATOM     11  C   UNL     1     151.884 156.482 201.967  1.00  0.00     0.034 C 
BRANCH  11  12
ATOM     12  C   UNL     1     151.975 156.317 200.467  1.00  0.00    -0.077 C 
ATOM     13  C   UNL     1     151.700 157.378 199.672  1.00  0.00    -0.028 C 
ATOM     14  C   UNL     1     152.364 154.973 199.896  1.00  0.00     0.039 C 
BRANCH  13  15
ATOM     15  C   UNL     1     151.786 157.363 198.166  1.00  0.00     0.035 C 
BRANCH  15  16
ATOM     16  C   UNL     1     153.047 158.100 197.688  1.00  0.00     0.079 C 
BRANCH  16  17
ATOM     17  C   UNL     1     152.834 159.567 197.390  1.00  0.00     0.130 C 
ATOM     18  O   UNL     1     151.740 159.922 196.979  1.00  0.00    -0.300 OA
ATOM     19  C   UNL     1     153.901 160.608 197.592  1.00  0.00     0.087 C 
ENDBRANCH  16  17
ENDBRANCH  15  16
ENDBRANCH  13  15
ENDBRANCH  11  12
ENDBRANCH   1  11
TORSDOF 9
ENDMDL
MODEL 9
REMARK VINA RESULT:    -4.109      1.333      2.542
REMARK INTER + INTRA:          -7.709
REMARK INTER:                  -6.507
REMARK INTRA:                  -1.202
REMARK UNBOUND:                -1.438
REMARK SMILES CC(=O)CCC=C(C)CCC=C(C)CCC=C(C)C
REMARK SMILES IDX 10 1 11 2 12 3 13 4 14 5 15 6 16 7 18 8 17 9 19 10 9 11 7 12
REMARK SMILES IDX 6 13 8 14 5 15 4 16 2 17 3 18 1 19
REMARK H PARENT
REMARK Flexibility Score: inf
ROOT
ATOM      1  C   UNL     1     155.209 160.495 199.730  1.00  0.00     0.032 C 
ENDROOT
BRANCH   1   2
ATOM      2  C   UNL     1     154.300 160.752 200.905  1.00  0.00    -0.028 C 
ATOM      3  C   UNL     1     152.988 161.069 200.803  1.00  0.00    -0.077 C 
ATOM      4  C   UNL     1     152.280 161.123 199.471  1.00  0.00     0.039 C 
BRANCH   3   5
ATOM      5  C   UNL     1     152.181 161.296 202.065  1.00  0.00     0.034 C 
BRANCH   5   6
ATOM      6  C   UNL     1     151.083 160.237 202.237  1.00  0.00     0.032 C 
BRANCH   6   7
ATOM      7  C   UNL     1     151.535 159.082 203.099  1.00  0.00    -0.028 C 
ATOM      8  C   UNL     1     152.352 156.824 203.615  1.00  0.00     0.039 C 
ATOM      9  C   UNL     1     151.987 157.900 202.626  1.00  0.00    -0.080 C 
ATOM     10  C   UNL     1     152.150 157.639 201.147  1.00  0.00     0.039 C 
ENDBRANCH   6   7
ENDBRANCH   5   6
ENDBRANCH   3   5
ENDBRANCH   1   2
BRANCH   1  11
ATOM     11  C   UNL     1     156.678 160.691 200.120  1.00  0.00     0.034 C 
BRANCH  11  12
ATOM     12  C   UNL     1     157.344 161.706 199.219  1.00  0.00    -0.077 C 
ATOM     13  C   UNL     1     158.260 162.552 199.746  1.00  0.00    -0.028 C 
ATOM     14  C   UNL     1     156.965 161.753 197.756  1.00  0.00     0.039 C 
BRANCH  13  15
ATOM     15  C   UNL     1     159.024 163.586 198.957  1.00  0.00     0.035 C 
BRANCH  15  16
ATOM     16  C   UNL     1     159.399 164.780 199.848  1.00  0.00     0.079 C 
BRANCH  16  17
ATOM     17  C   UNL     1     158.953 166.122 199.312  1.00  0.00     0.130 C 
ATOM     18  O   UNL     1     159.516 167.125 199.724  1.00  0.00    -0.300 OA
ATOM     19  C   UNL     1     157.866 166.274 198.285  1.00  0.00     0.087 C 
ENDBRANCH  16  17
ENDBRANCH  15  16
ENDBRANCH  13  15
ENDBRANCH  11  12
ENDBRANCH   1  11
TORSDOF 9
ENDMDL
