MODEL 1
REMARK VINA RESULT:    -2.631      0.000      0.000
REMARK INTER + INTRA:          -1.730
REMARK INTER:                  -3.554
REMARK INTRA:                   1.824
REMARK UNBOUND:                 1.824
REMARK SMILES C=C1C(=O)O[C@H]2[C@H]3O[C@@]3(C)CCC=C(C)CC[C@@H]12
REMARK SMILES IDX 6 1 18 2 2 3 1 4 3 5 4 6 5 7 17 8 16 9 14 10 15 11 13 12
REMARK SMILES IDX 7 14 9 15 8 16 10 17 11 18 12 19
REMARK H PARENT
REMARK Flexibility Score: 70.00
ROOT
ATOM      1  C   UNL     1      48.371  22.261  -2.650  1.00  0.00     0.216 C 
ATOM      2  C   UNL     1      48.994  23.638  -2.172  1.00  0.00     0.070 C 
ATOM      3  C   UNL     1      50.430  23.249  -1.954  1.00  0.00     0.037 C 
ATOM      4  C   UNL     1      51.458  24.087  -1.830  1.00  0.00     0.021 C 
ATOM      5  C   UNL     1      50.491  21.810  -1.872  1.00  0.00     0.334 C 
ATOM      6  O   UNL     1      51.505  21.133  -1.558  1.00  0.00    -0.247 OA
ATOM      7  O   UNL     1      49.265  21.259  -2.172  1.00  0.00    -0.455 OA
ENDROOT
BRANCH   2   8
ATOM      8  C   UNL     1      48.451  24.273  -0.853  1.00  0.00     0.017 C 
BRANCH   8   9
ATOM      9  C   UNL     1      47.605  25.561  -1.026  1.00  0.00     0.031 C 
BRANCH   9  10
ATOM     10  C   UNL     1      46.211  25.579  -0.404  1.00  0.00    -0.077 C 
ATOM     11  C   UNL     1      46.088  25.824   1.081  1.00  0.00     0.039 C 
ATOM     12  C   UNL     1      45.067  25.341  -1.091  1.00  0.00    -0.028 CG0
ATOM     13  G   UNL     1      44.949  25.230  -2.589  1.00  0.00     0.000 G0
ENDBRANCH   9  10
ENDBRANCH   8   9
ENDBRANCH   2   8
BRANCH   1  14
ATOM     14  C   UNL     1      46.898  21.799  -2.444  1.00  0.00     0.192 C 
ATOM     15  C   UNL     1      45.768  22.742  -2.743  1.00  0.00     0.096 C 
ATOM     16  O   UNL     1      46.161  22.426  -1.427  1.00  0.00    -0.362 OA
ATOM     17  C   UNL     1      44.403  22.137  -3.072  1.00  0.00     0.045 C 
BRANCH  15  18
ATOM     18  C   UNL     1      46.021  24.219  -3.125  1.00  0.00     0.042 C 
BRANCH  18  19
ATOM     19  C   UNL     1      44.964  25.221  -2.601  1.00  0.00     0.030 CG0
ATOM     20  G   UNL     1      45.053  25.328  -1.101  1.00  0.00     0.000 G0
ENDBRANCH  18  19
ENDBRANCH  15  18
ENDBRANCH   1  14
TORSDOF 0
ENDMDL
MODEL 2
REMARK VINA RESULT:    -2.554      2.327      3.653
REMARK INTER + INTRA:          -1.626
REMARK INTER:                  -3.519
REMARK INTRA:                   1.894
REMARK UNBOUND:                 1.824
REMARK SMILES C=C1C(=O)O[C@H]2[C@H]3O[C@@]3(C)CCC=C(C)CC[C@@H]12
REMARK SMILES IDX 6 1 18 2 2 3 1 4 3 5 4 6 5 7 17 8 16 9 14 10 15 11 13 12
REMARK SMILES IDX 7 14 9 15 8 16 10 17 11 18 12 19
REMARK H PARENT
REMARK Flexibility Score: 70.00
ROOT
ATOM      1  C   UNL     1      46.556  23.476  -0.074  1.00  0.00     0.216 C 
ATOM      2  C   UNL     1      47.473  22.536  -0.962  1.00  0.00     0.070 C 
ATOM      3  C   UNL     1      48.820  22.762  -0.334  1.00  0.00     0.037 C 
ATOM      4  C   UNL     1      49.900  22.000  -0.501  1.00  0.00     0.021 C 
ATOM      5  C   UNL     1      48.743  23.969   0.453  1.00  0.00     0.334 C 
ATOM      6  O   UNL     1      49.713  24.546   1.011  1.00  0.00    -0.247 OA
ATOM      7  O   UNL     1      47.446  24.428   0.505  1.00  0.00    -0.455 OA
ENDROOT
BRANCH   2   8
ATOM      8  C   UNL     1      47.583  22.844  -2.489  1.00  0.00     0.017 C 
BRANCH   8   9
ATOM      9  C   UNL     1      49.021  23.046  -3.032  1.00  0.00     0.031 C 
BRANCH   9  10
ATOM     10  C   UNL     1      49.577  24.468  -3.048  1.00  0.00    -0.077 C 
ATOM     11  C   UNL     1      51.074  24.655  -3.075  1.00  0.00     0.039 C 
ATOM     12  C   UNL     1      48.812  25.586  -2.988  1.00  0.00    -0.028 CG0
ATOM     13  G   UNL     1      47.311  25.630  -3.110  1.00  0.00     0.000 G0
ENDBRANCH   9  10
ENDBRANCH   8   9
ENDBRANCH   2   8
BRANCH   1  14
ATOM     14  C   UNL     1      45.248  24.185  -0.535  1.00  0.00     0.192 C 
ATOM     15  C   UNL     1      45.326  25.407  -1.405  1.00  0.00     0.096 C 
ATOM     16  O   UNL     1      45.002  25.474  -0.035  1.00  0.00    -0.362 OA
ATOM     17  C   UNL     1      44.113  25.741  -2.275  1.00  0.00     0.045 C 
BRANCH  15  18
ATOM     18  C   UNL     1      46.677  26.073  -1.753  1.00  0.00     0.042 C 
BRANCH  18  19
ATOM     19  C   UNL     1      47.300  25.626  -3.098  1.00  0.00     0.030 CG0
ATOM     20  G   UNL     1      48.803  25.618  -2.991  1.00  0.00     0.000 G0
ENDBRANCH  18  19
ENDBRANCH  15  18
ENDBRANCH   1  14
TORSDOF 0
ENDMDL
MODEL 3
REMARK VINA RESULT:    -1.058      2.108      4.902
REMARK INTER + INTRA:           0.395
REMARK INTER:                  -4.544
REMARK INTRA:                   4.939
REMARK UNBOUND:                 1.824
REMARK SMILES C=C1C(=O)O[C@H]2[C@H]3O[C@@]3(C)CCC=C(C)CC[C@@H]12
REMARK SMILES IDX 6 1 18 2 2 3 1 4 3 5 4 6 5 7 17 8 16 9 14 10 15 11 13 12
REMARK SMILES IDX 7 14 9 15 8 16 10 17 11 18 12 19
REMARK H PARENT
REMARK Flexibility Score: 70.00
ROOT
ATOM      1  C   UNL     1      48.092  24.368   0.548  1.00  0.00     0.216 C 
ATOM      2  C   UNL     1      47.586  25.286  -0.641  1.00  0.00     0.070 C 
ATOM      3  C   UNL     1      46.113  24.989  -0.634  1.00  0.00     0.037 C 
ATOM      4  C   UNL     1      45.165  25.707  -1.236  1.00  0.00     0.021 C 
ATOM      5  C   UNL     1      45.911  23.770   0.112  1.00  0.00     0.334 C 
ATOM      6  O   UNL     1      44.826  23.140   0.212  1.00  0.00    -0.247 OA
ATOM      7  O   UNL     1      47.089  23.366   0.701  1.00  0.00    -0.455 OA
ENDROOT
BRANCH   2   8
ATOM      8  C   UNL     1      48.139  25.006  -2.074  1.00  0.00     0.017 C 
BRANCH   8   9
ATOM      9  C   UNL     1      47.145  24.340  -3.060  1.00  0.00     0.031 C 
BRANCH   9  10
ATOM     10  C   UNL     1      46.949  22.830  -2.954  1.00  0.00    -0.077 C 
ATOM     11  C   UNL     1      45.549  22.276  -3.058  1.00  0.00     0.039 C 
ATOM     12  C   UNL     1      47.951  21.946  -2.722  1.00  0.00    -0.028 CG0
ATOM     13  G   UNL     1      49.423  22.264  -2.741  1.00  0.00     0.000 G0
ENDBRANCH   9  10
ENDBRANCH   8   9
ENDBRANCH   2   8
BRANCH   1  14
ATOM     14  C   UNL     1      49.505  23.726   0.676  1.00  0.00     0.192 C 
ATOM     15  C   UNL     1      50.300  23.414  -0.559  1.00  0.00     0.096 C 
ATOM     16  O   UNL     1      49.663  22.414   0.202  1.00  0.00    -0.362 OA
ATOM     17  C   UNL     1      51.821  23.325  -0.425  1.00  0.00     0.045 C 
BRANCH  15  18
ATOM     18  C   UNL     1      49.703  23.585  -1.975  1.00  0.00     0.042 C 
BRANCH  18  19
ATOM     19  C   UNL     1      49.438  22.264  -2.739  1.00  0.00     0.030 CG0
ATOM     20  G   UNL     1      47.969  21.930  -2.695  1.00  0.00     0.000 G0
ENDBRANCH  18  19
ENDBRANCH  15  18
ENDBRANCH   1  14
TORSDOF 0
ENDMDL
MODEL 4
REMARK VINA RESULT:    -1.018      2.893      5.571
REMARK INTER + INTRA:           0.449
REMARK INTER:                  -4.671
REMARK INTRA:                   5.119
REMARK UNBOUND:                 1.824
REMARK SMILES C=C1C(=O)O[C@H]2[C@H]3O[C@@]3(C)CCC=C(C)CC[C@@H]12
REMARK SMILES IDX 6 1 18 2 2 3 1 4 3 5 4 6 5 7 17 8 16 9 14 10 15 11 13 12
REMARK SMILES IDX 7 14 9 15 8 16 10 17 11 18 12 19
REMARK H PARENT
REMARK Flexibility Score: 70.00
ROOT
ATOM      1  C   UNL     1      48.231  24.608   0.539  1.00  0.00     0.216 C 
ATOM      2  C   UNL     1      48.387  25.121  -0.953  1.00  0.00     0.070 C 
ATOM      3  C   UNL     1      47.143  24.563  -1.586  1.00  0.00     0.037 C 
ATOM      4  C   UNL     1      46.623  24.935  -2.755  1.00  0.00     0.021 C 
ATOM      5  C   UNL     1      46.631  23.530  -0.718  1.00  0.00     0.334 C 
ATOM      6  O   UNL     1      45.682  22.747  -0.986  1.00  0.00    -0.247 OA
ATOM      7  O   UNL     1      47.340  23.497   0.462  1.00  0.00    -0.455 OA
ENDROOT
BRANCH   2   8
ATOM      8  C   UNL     1      49.621  24.631  -1.775  1.00  0.00     0.017 C 
BRANCH   8   9
ATOM      9  C   UNL     1      49.330  23.541  -2.838  1.00  0.00     0.031 C 
BRANCH   9  10
ATOM     10  C   UNL     1      49.556  22.085  -2.438  1.00  0.00    -0.077 C 
ATOM     11  C   UNL     1      48.636  21.031  -3.006  1.00  0.00     0.039 C 
ATOM     12  C   UNL     1      50.503  21.674  -1.560  1.00  0.00    -0.028 CG0
ATOM     13  G   UNL     1      51.612  22.529  -1.002  1.00  0.00     0.000 G0
ENDBRANCH   9  10
ENDBRANCH   8   9
ENDBRANCH   2   8
BRANCH   1  14
ATOM     14  C   UNL     1      49.393  24.288   1.526  1.00  0.00     0.192 C 
ATOM     15  C   UNL     1      50.770  24.009   0.996  1.00  0.00     0.096 C 
ATOM     16  O   UNL     1      49.930  22.991   1.491  1.00  0.00    -0.362 OA
ATOM     17  C   UNL     1      51.956  24.249   1.932  1.00  0.00     0.045 C 
BRANCH  15  18
ATOM     18  C   UNL     1      51.051  23.895  -0.520  1.00  0.00     0.042 C 
BRANCH  18  19
ATOM     19  C   UNL     1      51.613  22.528  -0.981  1.00  0.00     0.030 CG0
ATOM     20  G   UNL     1      50.502  21.676  -1.539  1.00  0.00     0.000 G0
ENDBRANCH  18  19
ENDBRANCH  15  18
ENDBRANCH   1  14
TORSDOF 0
ENDMDL
MODEL 5
REMARK VINA RESULT:     0.068      2.709      3.647
REMARK INTER + INTRA:           1.916
REMARK INTER:                   0.059
REMARK INTRA:                   1.857
REMARK UNBOUND:                 1.824
REMARK SMILES C=C1C(=O)O[C@H]2[C@H]3O[C@@]3(C)CCC=C(C)CC[C@@H]12
REMARK SMILES IDX 6 1 18 2 2 3 1 4 3 5 4 6 5 7 17 8 16 9 14 10 15 11 13 12
REMARK SMILES IDX 7 14 9 15 8 16 10 17 11 18 12 19
REMARK H PARENT
REMARK Flexibility Score: 70.00
ROOT
ATOM      1  C   UNL     1      45.551  22.745   0.540  1.00  0.00     0.216 C 
ATOM      2  C   UNL     1      47.032  22.557   0.007  1.00  0.00     0.070 C 
ATOM      3  C   UNL     1      47.693  23.799   0.535  1.00  0.00     0.037 C 
ATOM      4  C   UNL     1      49.006  24.008   0.628  1.00  0.00     0.021 C 
ATOM      5  C   UNL     1      46.656  24.735   0.891  1.00  0.00     0.334 C 
ATOM      6  O   UNL     1      46.832  25.932   1.238  1.00  0.00    -0.247 OA
ATOM      7  O   UNL     1      45.416  24.143   0.786  1.00  0.00    -0.455 OA
ENDROOT
BRANCH   2   8
ATOM      8  C   UNL     1      47.256  22.497  -1.538  1.00  0.00     0.017 C 
BRANCH   8   9
ATOM      9  C   UNL     1      48.290  23.503  -2.105  1.00  0.00     0.031 C 
BRANCH   9  10
ATOM     10  C   UNL     1      47.755  24.775  -2.758  1.00  0.00    -0.077 C 
ATOM     11  C   UNL     1      48.704  25.930  -2.969  1.00  0.00     0.039 C 
ATOM     12  C   UNL     1      46.461  24.960  -3.119  1.00  0.00    -0.028 CG0
ATOM     13  G   UNL     1      45.395  23.895  -3.140  1.00  0.00     0.000 G0
ENDBRANCH   9  10
ENDBRANCH   8   9
ENDBRANCH   2   8
BRANCH   1  14
ATOM     14  C   UNL     1      44.256  22.199  -0.131  1.00  0.00     0.192 C 
ATOM     15  C   UNL     1      43.733  22.842  -1.383  1.00  0.00     0.096 C 
ATOM     16  O   UNL     1      43.126  23.031  -0.126  1.00  0.00    -0.362 OA
ATOM     17  C   UNL     1      42.848  21.998  -2.302  1.00  0.00     0.045 C 
BRANCH  15  18
ATOM     18  C   UNL     1      44.367  24.128  -1.963  1.00  0.00     0.042 C 
BRANCH  18  19
ATOM     19  C   UNL     1      45.365  23.900  -3.124  1.00  0.00     0.030 CG0
ATOM     20  G   UNL     1      46.437  24.959  -3.097  1.00  0.00     0.000 G0
ENDBRANCH  18  19
ENDBRANCH  15  18
ENDBRANCH   1  14
TORSDOF 0
ENDMDL
