MODEL 1
REMARK VINA RESULT:     3.254      0.000      0.000
REMARK INTER + INTRA:           5.849
REMARK INTER:                   5.918
REMARK INTRA:                  -0.069
REMARK UNBOUND:                -0.069
REMARK SMILES CCCCCC=CCC=CCCCCCCCC(=O)[O-]
REMARK SMILES IDX 11 1 12 2 13 3 14 4 15 5 16 6 17 7 18 8 19 9 20 10 10 11
REMARK SMILES IDX 9 12 8 13 7 14 6 15 5 16 4 17 3 18 2 19 1 20
REMARK H PARENT
REMARK Flexibility Score: inf
ROOT
ATOM      1  C   UNL     1      30.919  16.899   5.819  1.00  0.00     0.027 C 
ENDROOT
BRANCH   1   2
ATOM      2  C   UNL     1      29.872  16.741   6.939  1.00  0.00     0.004 C 
BRANCH   2   3
ATOM      3  C   UNL     1      29.797  15.319   7.518  1.00  0.00     0.000 C 
BRANCH   3   4
ATOM      4  C   UNL     1      28.499  15.060   8.300  1.00  0.00     0.000 C 
BRANCH   4   5
ATOM      5  C   UNL     1      28.456  15.809   9.641  1.00  0.00     0.000 C 
BRANCH   5   6
ATOM      6  C   UNL     1      28.808  17.296   9.498  1.00  0.00     0.006 C 
BRANCH   6   7
ATOM      7  C   UNL     1      28.366  18.086  10.733  1.00  0.00     0.053 C 
BRANCH   7   8
ATOM      8  C   UNL     1      27.601  19.307  10.330  1.00  0.00     0.041 C 
ATOM      9  O   UNL     1      27.622  20.335  11.055  1.00  0.00    -0.550 OA
ATOM     10  O   UNL     1      26.905  19.325   9.128  1.00  0.00    -0.550 OA
ENDBRANCH   7   8
ENDBRANCH   6   7
ENDBRANCH   5   6
ENDBRANCH   4   5
ENDBRANCH   3   4
ENDBRANCH   2   3
ENDBRANCH   1   2
BRANCH   1  11
ATOM     11  C   UNL     1      30.996  18.315   5.299  1.00  0.00    -0.031 C 
ATOM     12  C   UNL     1      30.228  18.817   4.313  1.00  0.00    -0.027 C 
BRANCH  12  13
ATOM     13  C   UNL     1      29.195  18.038   3.532  1.00  0.00     0.054 C 
BRANCH  13  14
ATOM     14  C   UNL     1      29.054  18.554   2.127  1.00  0.00    -0.027 C 
ATOM     15  C   UNL     1      28.403  17.859   1.182  1.00  0.00    -0.031 C 
BRANCH  15  16
ATOM     16  C   UNL     1      28.139  18.437  -0.182  1.00  0.00     0.027 C 
BRANCH  16  17
ATOM     17  C   UNL     1      28.069  17.353  -1.272  1.00  0.00     0.004 C 
BRANCH  17  18
ATOM     18  C   UNL     1      28.858  16.090  -0.894  1.00  0.00     0.000 C 
BRANCH  18  19
ATOM     19  C   UNL     1      29.231  15.283  -2.143  1.00  0.00    -0.003 C 
ATOM     20  C   UNL     1      30.723  15.401  -2.447  1.00  0.00     0.004 C 
ENDBRANCH  18  19
ENDBRANCH  17  18
ENDBRANCH  16  17
ENDBRANCH  15  16
ENDBRANCH  13  14
ENDBRANCH  12  13
ENDBRANCH   1  11
TORSDOF 14
ENDMDL
MODEL 2
REMARK VINA RESULT:     3.610      0.951      1.229
REMARK INTER + INTRA:           6.495
REMARK INTER:                   7.323
REMARK INTRA:                  -0.828
REMARK UNBOUND:                -0.069
REMARK SMILES CCCCCC=CCC=CCCCCCCCC(=O)[O-]
REMARK SMILES IDX 11 1 12 2 13 3 14 4 15 5 16 6 17 7 18 8 19 9 20 10 10 11
REMARK SMILES IDX 9 12 8 13 7 14 6 15 5 16 4 17 3 18 2 19 1 20
REMARK H PARENT
REMARK Flexibility Score: inf
ROOT
ATOM      1  C   UNL     1      31.298  17.441   5.487  1.00  0.00     0.027 C 
ENDROOT
BRANCH   1   2
ATOM      2  C   UNL     1      30.641  17.222   6.863  1.00  0.00     0.004 C 
BRANCH   2   3
ATOM      3  C   UNL     1      29.914  15.874   6.993  1.00  0.00     0.000 C 
BRANCH   3   4
ATOM      4  C   UNL     1      29.889  15.344   8.437  1.00  0.00     0.000 C 
BRANCH   4   5
ATOM      5  C   UNL     1      28.489  14.886   8.875  1.00  0.00     0.000 C 
BRANCH   5   6
ATOM      6  C   UNL     1      27.794  15.904   9.791  1.00  0.00     0.006 C 
BRANCH   6   7
ATOM      7  C   UNL     1      28.001  17.332   9.279  1.00  0.00     0.053 C 
BRANCH   7   8
ATOM      8  C   UNL     1      28.415  18.236  10.397  1.00  0.00     0.041 C 
ATOM      9  O   UNL     1      27.681  19.202  10.735  1.00  0.00    -0.550 OA
ATOM     10  O   UNL     1      29.586  17.982  11.098  1.00  0.00    -0.550 OA
ENDBRANCH   7   8
ENDBRANCH   6   7
ENDBRANCH   5   6
ENDBRANCH   4   5
ENDBRANCH   3   4
ENDBRANCH   2   3
ENDBRANCH   1   2
BRANCH   1  11
ATOM     11  C   UNL     1      30.859  18.732   4.838  1.00  0.00    -0.031 C 
ATOM     12  C   UNL     1      29.832  18.852   3.975  1.00  0.00    -0.027 C 
BRANCH  12  13
ATOM     13  C   UNL     1      28.978  17.709   3.475  1.00  0.00     0.054 C 
BRANCH  13  14
ATOM     14  C   UNL     1      28.358  18.020   2.142  1.00  0.00    -0.027 C 
ATOM     15  C   UNL     1      29.099  18.396   1.089  1.00  0.00    -0.031 C 
BRANCH  15  16
ATOM     16  C   UNL     1      28.497  18.569  -0.280  1.00  0.00     0.027 C 
BRANCH  16  17
ATOM     17  C   UNL     1      27.989  17.239  -0.866  1.00  0.00     0.004 C 
BRANCH  17  18
ATOM     18  C   UNL     1      29.040  16.121  -0.778  1.00  0.00     0.000 C 
BRANCH  18  19
ATOM     19  C   UNL     1      29.201  15.414  -2.128  1.00  0.00    -0.003 C 
ATOM     20  C   UNL     1      30.663  15.393  -2.566  1.00  0.00     0.004 C 
ENDBRANCH  18  19
ENDBRANCH  17  18
ENDBRANCH  16  17
ENDBRANCH  15  16
ENDBRANCH  13  14
ENDBRANCH  12  13
ENDBRANCH   1  11
TORSDOF 14
ENDMDL
MODEL 3
REMARK VINA RESULT:     3.981      4.456      9.689
REMARK INTER + INTRA:           7.169
REMARK INTER:                   8.186
REMARK INTRA:                  -1.016
REMARK UNBOUND:                -0.069
REMARK SMILES CCCCCC=CCC=CCCCCCCCC(=O)[O-]
REMARK SMILES IDX 11 1 12 2 13 3 14 4 15 5 16 6 17 7 18 8 19 9 20 10 10 11
REMARK SMILES IDX 9 12 8 13 7 14 6 15 5 16 4 17 3 18 2 19 1 20
REMARK H PARENT
REMARK Flexibility Score: inf
ROOT
ATOM      1  C   UNL     1      28.791  17.615   3.652  1.00  0.00     0.027 C 
ENDROOT
BRANCH   1   2
ATOM      2  C   UNL     1      28.417  17.727   2.161  1.00  0.00     0.004 C 
BRANCH   2   3
ATOM      3  C   UNL     1      29.215  18.801   1.404  1.00  0.00     0.000 C 
BRANCH   3   4
ATOM      4  C   UNL     1      28.823  18.901  -0.080  1.00  0.00     0.000 C 
BRANCH   4   5
ATOM      5  C   UNL     1      27.629  18.001  -0.439  1.00  0.00     0.000 C 
BRANCH   5   6
ATOM      6  C   UNL     1      28.020  16.844  -1.369  1.00  0.00     0.006 C 
BRANCH   6   7
ATOM      7  C   UNL     1      29.465  16.404  -1.119  1.00  0.00     0.053 C 
BRANCH   7   8
ATOM      8  C   UNL     1      29.880  15.371  -2.120  1.00  0.00     0.041 C 
ATOM      9  O   UNL     1      29.011  14.727  -2.762  1.00  0.00    -0.550 OA
ATOM     10  O   UNL     1      31.227  15.158  -2.378  1.00  0.00    -0.550 OA
ENDBRANCH   7   8
ENDBRANCH   6   7
ENDBRANCH   5   6
ENDBRANCH   4   5
ENDBRANCH   3   4
ENDBRANCH   2   3
ENDBRANCH   1   2
BRANCH   1  11
ATOM     11  C   UNL     1      29.683  18.744   4.109  1.00  0.00    -0.031 C 
ATOM     12  C   UNL     1      30.773  18.600   4.888  1.00  0.00    -0.027 C 
BRANCH  12  13
ATOM     13  C   UNL     1      31.256  17.293   5.473  1.00  0.00     0.054 C 
BRANCH  13  14
ATOM     14  C   UNL     1      30.565  16.974   6.769  1.00  0.00    -0.027 C 
ATOM     15  C   UNL     1      29.875  15.835   6.939  1.00  0.00    -0.031 C 
BRANCH  15  16
ATOM     16  C   UNL     1      29.305  15.451   8.278  1.00  0.00     0.027 C 
BRANCH  16  17
ATOM     17  C   UNL     1      29.578  16.515   9.355  1.00  0.00     0.004 C 
BRANCH  17  18
ATOM     18  C   UNL     1      28.324  17.333   9.703  1.00  0.00     0.000 C 
BRANCH  18  19
ATOM     19  C   UNL     1      28.631  18.371  10.788  1.00  0.00    -0.003 C 
ATOM     20  C   UNL     1      27.625  19.518  10.751  1.00  0.00     0.004 C 
ENDBRANCH  18  19
ENDBRANCH  17  18
ENDBRANCH  16  17
ENDBRANCH  15  16
ENDBRANCH  13  14
ENDBRANCH  12  13
ENDBRANCH   1  11
TORSDOF 14
ENDMDL
MODEL 4
REMARK VINA RESULT:     4.689      4.645      9.447
REMARK INTER + INTRA:           8.457
REMARK INTER:                   9.556
REMARK INTRA:                  -1.099
REMARK UNBOUND:                -0.069
REMARK SMILES CCCCCC=CCC=CCCCCCCCC(=O)[O-]
REMARK SMILES IDX 11 1 12 2 13 3 14 4 15 5 16 6 17 7 18 8 19 9 20 10 10 11
REMARK SMILES IDX 9 12 8 13 7 14 6 15 5 16 4 17 3 18 2 19 1 20
REMARK H PARENT
REMARK Flexibility Score: inf
ROOT
ATOM      1  C   UNL     1      28.938  17.736   3.570  1.00  0.00     0.027 C 
ENDROOT
BRANCH   1   2
ATOM      2  C   UNL     1      28.389  17.933   2.144  1.00  0.00     0.004 C 
BRANCH   2   3
ATOM      3  C   UNL     1      29.152  18.989   1.329  1.00  0.00     0.000 C 
BRANCH   3   4
ATOM      4  C   UNL     1      29.005  18.794  -0.190  1.00  0.00     0.000 C 
BRANCH   4   5
ATOM      5  C   UNL     1      27.708  18.059  -0.569  1.00  0.00     0.000 C 
BRANCH   5   6
ATOM      6  C   UNL     1      27.973  16.717  -1.265  1.00  0.00     0.006 C 
BRANCH   6   7
ATOM      7  C   UNL     1      29.422  16.269  -1.063  1.00  0.00     0.053 C 
BRANCH   7   8
ATOM      8  C   UNL     1      29.853  15.363  -2.173  1.00  0.00     0.041 C 
ATOM      9  O   UNL     1      28.994  14.753  -2.861  1.00  0.00    -0.550 OA
ATOM     10  O   UNL     1      31.201  15.233  -2.480  1.00  0.00    -0.550 OA
ENDBRANCH   7   8
ENDBRANCH   6   7
ENDBRANCH   5   6
ENDBRANCH   4   5
ENDBRANCH   3   4
ENDBRANCH   2   3
ENDBRANCH   1   2
BRANCH   1  11
ATOM     11  C   UNL     1      29.868  18.850   3.988  1.00  0.00    -0.031 C 
ATOM     12  C   UNL     1      30.940  18.699   4.791  1.00  0.00    -0.027 C 
BRANCH  12  13
ATOM     13  C   UNL     1      31.361  17.403   5.445  1.00  0.00     0.054 C 
BRANCH  13  14
ATOM     14  C   UNL     1      30.793  17.268   6.830  1.00  0.00    -0.027 C 
ATOM     15  C   UNL     1      29.882  16.330   7.130  1.00  0.00    -0.031 C 
BRANCH  15  16
ATOM     16  C   UNL     1      29.420  16.104   8.545  1.00  0.00     0.027 C 
BRANCH  16  17
ATOM     17  C   UNL     1      29.632  14.650   9.002  1.00  0.00     0.004 C 
BRANCH  17  18
ATOM     18  C   UNL     1      28.369  14.043   9.633  1.00  0.00     0.000 C 
BRANCH  18  19
ATOM     19  C   UNL     1      27.104  14.618   8.987  1.00  0.00    -0.003 C 
ATOM     20  C   UNL     1      26.179  13.504   8.502  1.00  0.00     0.004 C 
ENDBRANCH  18  19
ENDBRANCH  17  18
ENDBRANCH  16  17
ENDBRANCH  15  16
ENDBRANCH  13  14
ENDBRANCH  12  13
ENDBRANCH   1  11
TORSDOF 14
ENDMDL
MODEL 5
REMARK VINA RESULT:     4.701      1.238      2.203
REMARK INTER + INTRA:           8.480
REMARK INTER:                   9.337
REMARK INTRA:                  -0.858
REMARK UNBOUND:                -0.069
REMARK SMILES CCCCCC=CCC=CCCCCCCCC(=O)[O-]
REMARK SMILES IDX 11 1 12 2 13 3 14 4 15 5 16 6 17 7 18 8 19 9 20 10 10 11
REMARK SMILES IDX 9 12 8 13 7 14 6 15 5 16 4 17 3 18 2 19 1 20
REMARK H PARENT
REMARK Flexibility Score: inf
ROOT
ATOM      1  C   UNL     1      30.592  18.541   4.372  1.00  0.00     0.027 C 
ENDROOT
BRANCH   1   2
ATOM      2  C   UNL     1      31.194  17.700   5.513  1.00  0.00     0.004 C 
BRANCH   2   3
ATOM      3  C   UNL     1      30.160  17.240   6.554  1.00  0.00     0.000 C 
BRANCH   3   4
ATOM      4  C   UNL     1      30.365  15.781   6.997  1.00  0.00     0.000 C 
BRANCH   4   5
ATOM      5  C   UNL     1      29.051  15.093   7.397  1.00  0.00     0.000 C 
BRANCH   5   6
ATOM      6  C   UNL     1      28.892  14.963   8.919  1.00  0.00     0.006 C 
BRANCH   6   7
ATOM      7  C   UNL     1      27.949  16.037   9.467  1.00  0.00     0.053 C 
BRANCH   7   8
ATOM      8  C   UNL     1      28.722  17.236   9.917  1.00  0.00     0.041 C 
ATOM      9  O   UNL     1      28.118  18.265  10.316  1.00  0.00    -0.550 OA
ATOM     10  O   UNL     1      30.110  17.198   9.942  1.00  0.00    -0.550 OA
ENDBRANCH   7   8
ENDBRANCH   6   7
ENDBRANCH   5   6
ENDBRANCH   4   5
ENDBRANCH   3   4
ENDBRANCH   2   3
ENDBRANCH   1   2
BRANCH   1  11
ATOM     11  C   UNL     1      29.218  18.064   3.967  1.00  0.00    -0.031 C 
ATOM     12  C   UNL     1      28.664  18.246   2.753  1.00  0.00    -0.027 C 
BRANCH  12  13
ATOM     13  C   UNL     1      29.304  19.000   1.610  1.00  0.00     0.054 C 
BRANCH  13  14
ATOM     14  C   UNL     1      28.706  18.614   0.285  1.00  0.00    -0.027 C 
ATOM     15  C   UNL     1      28.428  17.337  -0.018  1.00  0.00    -0.031 C 
BRANCH  15  16
ATOM     16  C   UNL     1      27.700  16.967  -1.282  1.00  0.00     0.027 C 
BRANCH  16  17
ATOM     17  C   UNL     1      28.306  15.726  -1.961  1.00  0.00     0.004 C 
BRANCH  17  18
ATOM     18  C   UNL     1      29.797  15.548  -1.635  1.00  0.00     0.000 C 
BRANCH  18  19
ATOM     19  C   UNL     1      30.631  15.457  -2.918  1.00  0.00    -0.003 C 
ATOM     20  C   UNL     1      31.951  14.732  -2.664  1.00  0.00     0.004 C 
ENDBRANCH  18  19
ENDBRANCH  17  18
ENDBRANCH  16  17
ENDBRANCH  15  16
ENDBRANCH  13  14
ENDBRANCH  12  13
ENDBRANCH   1  11
TORSDOF 14
ENDMDL
MODEL 6
REMARK VINA RESULT:     4.713      2.190      2.850
REMARK INTER + INTRA:           8.501
REMARK INTER:                   9.349
REMARK INTRA:                  -0.847
REMARK UNBOUND:                -0.069
REMARK SMILES CCCCCC=CCC=CCCCCCCCC(=O)[O-]
REMARK SMILES IDX 11 1 12 2 13 3 14 4 15 5 16 6 17 7 18 8 19 9 20 10 10 11
REMARK SMILES IDX 9 12 8 13 7 14 6 15 5 16 4 17 3 18 2 19 1 20
REMARK H PARENT
REMARK Flexibility Score: inf
ROOT
ATOM      1  C   UNL     1      31.387  17.353   5.361  1.00  0.00     0.027 C 
ENDROOT
BRANCH   1   2
ATOM      2  C   UNL     1      30.708  17.325   6.744  1.00  0.00     0.004 C 
BRANCH   2   3
ATOM      3  C   UNL     1      29.965  16.012   7.040  1.00  0.00     0.000 C 
BRANCH   3   4
ATOM      4  C   UNL     1      29.984  15.638   8.532  1.00  0.00     0.000 C 
BRANCH   4   5
ATOM      5  C   UNL     1      28.983  16.459   9.361  1.00  0.00     0.000 C 
BRANCH   5   6
ATOM      6  C   UNL     1      27.647  15.732   9.565  1.00  0.00     0.006 C 
BRANCH   6   7
ATOM      7  C   UNL     1      27.692  14.324   8.964  1.00  0.00     0.053 C 
BRANCH   7   8
ATOM      8  C   UNL     1      26.309  13.836   8.665  1.00  0.00     0.041 C 
ATOM      9  O   UNL     1      26.139  12.827   7.934  1.00  0.00    -0.550 OA
ATOM     10  O   UNL     1      25.212  14.467   9.236  1.00  0.00    -0.550 OA
ENDBRANCH   7   8
ENDBRANCH   6   7
ENDBRANCH   5   6
ENDBRANCH   4   5
ENDBRANCH   3   4
ENDBRANCH   2   3
ENDBRANCH   1   2
BRANCH   1  11
ATOM     11  C   UNL     1      31.043  18.595   4.575  1.00  0.00    -0.031 C 
ATOM     12  C   UNL     1      29.895  18.785   3.895  1.00  0.00    -0.027 C 
BRANCH  12  13
ATOM     13  C   UNL     1      28.783  17.770   3.766  1.00  0.00     0.054 C 
BRANCH  13  14
ATOM     14  C   UNL     1      28.330  17.620   2.340  1.00  0.00    -0.027 C 
ATOM     15  C   UNL     1      28.790  18.419   1.366  1.00  0.00    -0.031 C 
BRANCH  15  16
ATOM     16  C   UNL     1      28.446  18.179  -0.080  1.00  0.00     0.027 C 
BRANCH  16  17
ATOM     17  C   UNL     1      29.257  17.020  -0.687  1.00  0.00     0.004 C 
BRANCH  17  18
ATOM     18  C   UNL     1      28.397  16.105  -1.573  1.00  0.00     0.000 C 
BRANCH  18  19
ATOM     19  C   UNL     1      29.255  15.022  -2.237  1.00  0.00    -0.003 C 
ATOM     20  C   UNL     1      30.728  15.421  -2.252  1.00  0.00     0.004 C 
ENDBRANCH  18  19
ENDBRANCH  17  18
ENDBRANCH  16  17
ENDBRANCH  15  16
ENDBRANCH  13  14
ENDBRANCH  12  13
ENDBRANCH   1  11
TORSDOF 14
ENDMDL
MODEL 7
REMARK VINA RESULT:     5.590      5.060      9.391
REMARK INTER + INTRA:          10.096
REMARK INTER:                  10.633
REMARK INTRA:                  -0.537
REMARK UNBOUND:                -0.069
REMARK SMILES CCCCCC=CCC=CCCCCCCCC(=O)[O-]
REMARK SMILES IDX 11 1 12 2 13 3 14 4 15 5 16 6 17 7 18 8 19 9 20 10 10 11
REMARK SMILES IDX 9 12 8 13 7 14 6 15 5 16 4 17 3 18 2 19 1 20
REMARK H PARENT
REMARK Flexibility Score: inf
ROOT
ATOM      1  C   UNL     1      29.503  16.336   8.393  1.00  0.00     0.027 C 
ENDROOT
BRANCH   1   2
ATOM      2  C   UNL     1      30.184  16.243   7.014  1.00  0.00     0.004 C 
BRANCH   2   3
ATOM      3  C   UNL     1      30.994  17.495   6.640  1.00  0.00     0.000 C 
BRANCH   3   4
ATOM      4  C   UNL     1      30.966  17.797   5.132  1.00  0.00     0.000 C 
BRANCH   4   5
ATOM      5  C   UNL     1      29.575  18.231   4.642  1.00  0.00     0.000 C 
BRANCH   5   6
ATOM      6  C   UNL     1      29.598  18.769   3.204  1.00  0.00     0.006 C 
BRANCH   6   7
ATOM      7  C   UNL     1      28.634  17.985   2.310  1.00  0.00     0.053 C 
BRANCH   7   8
ATOM      8  C   UNL     1      28.827  18.359   0.874  1.00  0.00     0.041 C 
ATOM      9  O   UNL     1      29.614  19.291   0.563  1.00  0.00    -0.550 OA
ATOM     10  O   UNL     1      28.175  17.646  -0.123  1.00  0.00    -0.550 OA
ENDBRANCH   7   8
ENDBRANCH   6   7
ENDBRANCH   5   6
ENDBRANCH   4   5
ENDBRANCH   3   4
ENDBRANCH   2   3
ENDBRANCH   1   2
BRANCH   1  11
ATOM     11  C   UNL     1      29.453  15.004   9.102  1.00  0.00    -0.031 C 
ATOM     12  C   UNL     1      28.350  14.241   9.234  1.00  0.00    -0.027 C 
BRANCH  12  13
ATOM     13  C   UNL     1      26.972  14.611   8.738  1.00  0.00     0.054 C 
BRANCH  13  14
ATOM     14  C   UNL     1      26.126  13.395   8.484  1.00  0.00    -0.027 C 
ATOM     15  C   UNL     1      24.815  13.375   8.770  1.00  0.00    -0.031 C 
BRANCH  15  16
ATOM     16  C   UNL     1      23.942  12.211   8.386  1.00  0.00     0.027 C 
BRANCH  16  17
ATOM     17  C   UNL     1      23.143  11.661   9.581  1.00  0.00     0.004 C 
BRANCH  17  18
ATOM     18  C   UNL     1      22.015  10.713   9.146  1.00  0.00     0.000 C 
BRANCH  18  19
ATOM     19  C   UNL     1      21.802   9.603  10.181  1.00  0.00    -0.003 C 
ATOM     20  C   UNL     1      21.751   8.231   9.514  1.00  0.00     0.004 C 
ENDBRANCH  18  19
ENDBRANCH  17  18
ENDBRANCH  16  17
ENDBRANCH  15  16
ENDBRANCH  13  14
ENDBRANCH  12  13
ENDBRANCH   1  11
TORSDOF 14
ENDMDL
MODEL 8
REMARK VINA RESULT:     6.116      5.182      7.009
REMARK INTER + INTRA:          11.053
REMARK INTER:                  11.686
REMARK INTRA:                  -0.633
REMARK UNBOUND:                -0.069
REMARK SMILES CCCCCC=CCC=CCCCCCCCC(=O)[O-]
REMARK SMILES IDX 11 1 12 2 13 3 14 4 15 5 16 6 17 7 18 8 19 9 20 10 10 11
REMARK SMILES IDX 9 12 8 13 7 14 6 15 5 16 4 17 3 18 2 19 1 20
REMARK H PARENT
REMARK Flexibility Score: inf
ROOT
ATOM      1  C   UNL     1      28.097  14.419   9.289  1.00  0.00     0.027 C 
ENDROOT
BRANCH   1   2
ATOM      2  C   UNL     1      26.979  14.193   8.254  1.00  0.00     0.004 C 
BRANCH   2   3
ATOM      3  C   UNL     1      25.662  13.687   8.867  1.00  0.00     0.000 C 
BRANCH   3   4
ATOM      4  C   UNL     1      25.142  12.407   8.192  1.00  0.00     0.000 C 
BRANCH   4   5
ATOM      5  C   UNL     1      23.613  12.273   8.276  1.00  0.00     0.000 C 
BRANCH   5   6
ATOM      6  C   UNL     1      23.159  11.431   9.477  1.00  0.00     0.006 C 
BRANCH   6   7
ATOM      7  C   UNL     1      21.765  10.844   9.239  1.00  0.00     0.053 C 
BRANCH   7   8
ATOM      8  C   UNL     1      21.689   9.443   9.760  1.00  0.00     0.041 C 
ATOM      9  O   UNL     1      21.313   9.226  10.941  1.00  0.00    -0.550 OA
ATOM     10  O   UNL     1      21.987   8.375   8.924  1.00  0.00    -0.550 OA
ENDBRANCH   7   8
ENDBRANCH   6   7
ENDBRANCH   5   6
ENDBRANCH   4   5
ENDBRANCH   3   4
ENDBRANCH   2   3
ENDBRANCH   1   2
BRANCH   1  11
ATOM     11  C   UNL     1      28.343  15.884   9.561  1.00  0.00    -0.031 C 
ATOM     12  C   UNL     1      29.150  16.678   8.831  1.00  0.00    -0.027 C 
BRANCH  12  13
ATOM     13  C   UNL     1      29.979  16.227   7.650  1.00  0.00     0.054 C 
BRANCH  13  14
ATOM     14  C   UNL     1      30.058  17.287   6.588  1.00  0.00    -0.027 C 
ATOM     15  C   UNL     1      31.048  17.307   5.682  1.00  0.00    -0.031 C 
BRANCH  15  16
ATOM     16  C   UNL     1      31.048  18.281   4.535  1.00  0.00     0.027 C 
BRANCH  16  17
ATOM     17  C   UNL     1      29.628  18.730   4.150  1.00  0.00     0.004 C 
BRANCH  17  18
ATOM     18  C   UNL     1      29.049  17.911   2.986  1.00  0.00     0.000 C 
BRANCH  18  19
ATOM     19  C   UNL     1      28.991  18.748   1.703  1.00  0.00    -0.003 C 
ATOM     20  C   UNL     1      28.575  17.894   0.508  1.00  0.00     0.004 C 
ENDBRANCH  18  19
ENDBRANCH  17  18
ENDBRANCH  16  17
ENDBRANCH  15  16
ENDBRANCH  13  14
ENDBRANCH  12  13
ENDBRANCH   1  11
TORSDOF 14
ENDMDL
