MODEL 1
REMARK VINA RESULT:    -4.282      0.000      0.000
REMARK INTER + INTRA:          -4.549
REMARK INTER:                  -4.532
REMARK INTRA:                  -0.016
REMARK UNBOUND:                -0.016
REMARK SMILES O=C([O-])c1cccnc1
REMARK SMILES IDX 4 1 5 2 9 3 6 4 8 5 7 6 2 7 1 8 3 9
REMARK H PARENT
REMARK Flexibility Score: inf
ROOT
ATOM      1  C   UNL     1      25.723  12.778  17.568  1.00  0.00     0.016 A 
ATOM      2  C   UNL     1      25.779  14.029  18.202  1.00  0.00     0.013 A 
ATOM      3  C   UNL     1      26.105  11.640  18.301  1.00  0.00     0.120 A 
ATOM      4  C   UNL     1      26.206  14.125  19.527  1.00  0.00     0.021 A 
ATOM      5  N   UNL     1      26.517  11.761  19.592  1.00  0.00    -0.264 NA
ATOM      6  C   UNL     1      26.575  12.968  20.213  1.00  0.00     0.111 A 
ENDROOT
BRANCH   1   7
ATOM      7  C   UNL     1      25.273  12.663  16.164  1.00  0.00     0.073 C 
ATOM      8  O   UNL     1      24.119  12.236  15.894  1.00  0.00    -0.545 OA
ATOM      9  O   UNL     1      26.119  13.025  15.122  1.00  0.00    -0.545 OA
ENDBRANCH   1   7
TORSDOF 1
ENDMDL
MODEL 2
REMARK VINA RESULT:    -4.257      0.919      1.931
REMARK INTER + INTRA:          -4.522
REMARK INTER:                  -4.505
REMARK INTRA:                  -0.017
REMARK UNBOUND:                -0.016
REMARK SMILES O=C([O-])c1cccnc1
REMARK SMILES IDX 4 1 5 2 9 3 6 4 8 5 7 6 2 7 1 8 3 9
REMARK H PARENT
REMARK Flexibility Score: inf
ROOT
ATOM      1  C   UNL     1      25.798  12.821  17.539  1.00  0.00     0.016 A 
ATOM      2  C   UNL     1      26.117  11.657  18.257  1.00  0.00     0.013 A 
ATOM      3  C   UNL     1      25.948  14.063  18.180  1.00  0.00     0.120 A 
ATOM      4  C   UNL     1      26.571  11.748  19.573  1.00  0.00     0.021 A 
ATOM      5  N   UNL     1      26.394  14.124  19.464  1.00  0.00    -0.264 NA
ATOM      6  C   UNL     1      26.704  13.003  20.167  1.00  0.00     0.111 A 
ENDROOT
BRANCH   1   7
ATOM      7  C   UNL     1      25.315  12.738  16.144  1.00  0.00     0.073 C 
ATOM      8  O   UNL     1      26.050  13.104  15.189  1.00  0.00    -0.545 OA
ATOM      9  O   UNL     1      24.041  12.253  15.867  1.00  0.00    -0.545 OA
ENDBRANCH   1   7
TORSDOF 1
ENDMDL
MODEL 3
REMARK VINA RESULT:    -4.219      2.768      3.391
REMARK INTER + INTRA:          -4.482
REMARK INTER:                  -4.459
REMARK INTRA:                  -0.023
REMARK UNBOUND:                -0.016
REMARK SMILES O=C([O-])c1cccnc1
REMARK SMILES IDX 4 1 5 2 9 3 6 4 8 5 7 6 2 7 1 8 3 9
REMARK H PARENT
REMARK Flexibility Score: inf
ROOT
ATOM      1  C   UNL     1      25.749  11.736  17.872  1.00  0.00     0.016 A 
ATOM      2  C   UNL     1      26.053  13.049  18.265  1.00  0.00     0.013 A 
ATOM      3  C   UNL     1      25.076  11.542  16.652  1.00  0.00     0.120 A 
ATOM      4  C   UNL     1      25.691  14.125  17.453  1.00  0.00     0.021 A 
ATOM      5  N   UNL     1      24.735  12.609  15.880  1.00  0.00    -0.264 NA
ATOM      6  C   UNL     1      25.025  13.883  16.252  1.00  0.00     0.111 A 
ENDROOT
BRANCH   1   7
ATOM      7  C   UNL     1      26.127  10.587  18.723  1.00  0.00     0.073 C 
ATOM      8  O   UNL     1      25.671   9.437  18.486  1.00  0.00    -0.545 OA
ATOM      9  O   UNL     1      26.992  10.762  19.797  1.00  0.00    -0.545 OA
ENDBRANCH   1   7
TORSDOF 1
ENDMDL
MODEL 4
REMARK VINA RESULT:    -3.807     17.237     18.013
REMARK INTER + INTRA:          -4.046
REMARK INTER:                  -4.027
REMARK INTRA:                  -0.020
REMARK UNBOUND:                -0.016
REMARK SMILES O=C([O-])c1cccnc1
REMARK SMILES IDX 4 1 5 2 9 3 6 4 8 5 7 6 2 7 1 8 3 9
REMARK H PARENT
REMARK Flexibility Score: inf
ROOT
ATOM      1  C   UNL     1      19.408  -3.161  13.398  1.00  0.00     0.016 A 
ATOM      2  C   UNL     1      20.188  -3.062  14.562  1.00  0.00     0.013 A 
ATOM      3  C   UNL     1      18.431  -4.171  13.333  1.00  0.00     0.120 A 
ATOM      4  C   UNL     1      19.985  -3.949  15.619  1.00  0.00     0.021 A 
ATOM      5  N   UNL     1      18.254  -5.023  14.378  1.00  0.00    -0.264 NA
ATOM      6  C   UNL     1      19.004  -4.934  15.508  1.00  0.00     0.111 A 
ENDROOT
BRANCH   1   7
ATOM      7  C   UNL     1      19.614  -2.227  12.270  1.00  0.00     0.073 C 
ATOM      8  O   UNL     1      19.743  -0.991  12.478  1.00  0.00    -0.545 OA
ATOM      9  O   UNL     1      19.667  -2.702  10.964  1.00  0.00    -0.545 OA
ENDBRANCH   1   7
TORSDOF 1
ENDMDL
MODEL 5
REMARK VINA RESULT:    -3.666     17.511     18.435
REMARK INTER + INTRA:          -3.897
REMARK INTER:                  -3.877
REMARK INTRA:                  -0.020
REMARK UNBOUND:                -0.016
REMARK SMILES O=C([O-])c1cccnc1
REMARK SMILES IDX 4 1 5 2 9 3 6 4 8 5 7 6 2 7 1 8 3 9
REMARK H PARENT
REMARK Flexibility Score: inf
ROOT
ATOM      1  C   UNL     1      19.411  -3.770  14.418  1.00  0.00     0.016 A 
ATOM      2  C   UNL     1      20.109  -2.700  13.834  1.00  0.00     0.013 A 
ATOM      3  C   UNL     1      18.386  -4.383  13.674  1.00  0.00     0.120 A 
ATOM      4  C   UNL     1      19.783  -2.268  12.549  1.00  0.00     0.021 A 
ATOM      5  N   UNL     1      18.088  -3.942  12.423  1.00  0.00    -0.264 NA
ATOM      6  C   UNL     1      18.758  -2.907  11.851  1.00  0.00     0.111 A 
ENDROOT
BRANCH   1   7
ATOM      7  C   UNL     1      19.748  -4.238  15.779  1.00  0.00     0.073 C 
ATOM      8  O   UNL     1      19.766  -5.468  16.048  1.00  0.00    -0.545 OA
ATOM      9  O   UNL     1      20.050  -3.324  16.783  1.00  0.00    -0.545 OA
ENDBRANCH   1   7
TORSDOF 1
ENDMDL
MODEL 6
REMARK VINA RESULT:    -3.556     17.464     18.290
REMARK INTER + INTRA:          -3.780
REMARK INTER:                  -3.758
REMARK INTRA:                  -0.022
REMARK UNBOUND:                -0.016
REMARK SMILES O=C([O-])c1cccnc1
REMARK SMILES IDX 4 1 5 2 9 3 6 4 8 5 7 6 2 7 1 8 3 9
REMARK H PARENT
REMARK Flexibility Score: inf
ROOT
ATOM      1  C   UNL     1      19.039  -3.554  13.369  1.00  0.00     0.016 A 
ATOM      2  C   UNL     1      20.049  -2.944  14.131  1.00  0.00     0.013 A 
ATOM      3  C   UNL     1      18.345  -4.642  13.929  1.00  0.00     0.120 A 
ATOM      4  C   UNL     1      20.344  -3.416  15.410  1.00  0.00     0.021 A 
ATOM      5  N   UNL     1      18.653  -5.083  15.178  1.00  0.00    -0.264 NA
ATOM      6  C   UNL     1      19.628  -4.498  15.922  1.00  0.00     0.111 A 
ENDROOT
BRANCH   1   7
ATOM      7  C   UNL     1      18.717  -3.063  12.012  1.00  0.00     0.073 C 
ATOM      8  O   UNL     1      18.169  -3.822  11.169  1.00  0.00    -0.545 OA
ATOM      9  O   UNL     1      19.016  -1.754  11.648  1.00  0.00    -0.545 OA
ENDBRANCH   1   7
TORSDOF 1
ENDMDL
MODEL 7
REMARK VINA RESULT:    -3.352     17.643     18.736
REMARK INTER + INTRA:          -3.564
REMARK INTER:                  -3.547
REMARK INTRA:                  -0.018
REMARK UNBOUND:                -0.016
REMARK SMILES O=C([O-])c1cccnc1
REMARK SMILES IDX 4 1 5 2 9 3 6 4 8 5 7 6 2 7 1 8 3 9
REMARK H PARENT
REMARK Flexibility Score: inf
ROOT
ATOM      1  C   UNL     1      19.638  -4.043  15.420  1.00  0.00     0.016 A 
ATOM      2  C   UNL     1      19.259  -5.318  15.869  1.00  0.00     0.013 A 
ATOM      3  C   UNL     1      19.170  -3.611  14.166  1.00  0.00     0.120 A 
ATOM      4  C   UNL     1      18.438  -6.125  15.081  1.00  0.00     0.021 A 
ATOM      5  N   UNL     1      18.370  -4.417  13.416  1.00  0.00    -0.264 NA
ATOM      6  C   UNL     1      17.999  -5.652  13.844  1.00  0.00     0.111 A 
ENDROOT
BRANCH   1   7
ATOM      7  C   UNL     1      20.509  -3.179  16.246  1.00  0.00     0.073 C 
ATOM      8  O   UNL     1      21.609  -2.762  15.797  1.00  0.00    -0.545 OA
ATOM      9  O   UNL     1      20.123  -2.817  17.532  1.00  0.00    -0.545 OA
ENDBRANCH   1   7
TORSDOF 1
ENDMDL
MODEL 8
REMARK VINA RESULT:    -3.016     10.453     11.575
REMARK INTER + INTRA:          -3.209
REMARK INTER:                  -3.193
REMARK INTRA:                  -0.016
REMARK UNBOUND:                -0.016
REMARK SMILES O=C([O-])c1cccnc1
REMARK SMILES IDX 4 1 5 2 9 3 6 4 8 5 7 6 2 7 1 8 3 9
REMARK H PARENT
REMARK Flexibility Score: inf
ROOT
ATOM      1  C   UNL     1      20.254   6.261  11.027  1.00  0.00     0.016 A 
ATOM      2  C   UNL     1      19.631   5.922  12.239  1.00  0.00     0.013 A 
ATOM      3  C   UNL     1      20.000   5.459   9.899  1.00  0.00     0.120 A 
ATOM      4  C   UNL     1      18.783   4.816  12.307  1.00  0.00     0.021 A 
ATOM      5  N   UNL     1      19.169   4.386   9.992  1.00  0.00    -0.264 NA
ATOM      6  C   UNL     1      18.562   4.051  11.161  1.00  0.00     0.111 A 
ENDROOT
BRANCH   1   7
ATOM      7  C   UNL     1      21.154   7.430  10.942  1.00  0.00     0.073 C 
ATOM      8  O   UNL     1      20.684   8.598  10.886  1.00  0.00    -0.545 OA
ATOM      9  O   UNL     1      22.534   7.257  10.923  1.00  0.00    -0.545 OA
ENDBRANCH   1   7
TORSDOF 1
ENDMDL
MODEL 9
REMARK VINA RESULT:    -2.896     10.598     11.522
REMARK INTER + INTRA:          -3.082
REMARK INTER:                  -3.065
REMARK INTRA:                  -0.016
REMARK UNBOUND:                -0.016
REMARK SMILES O=C([O-])c1cccnc1
REMARK SMILES IDX 4 1 5 2 9 3 6 4 8 5 7 6 2 7 1 8 3 9
REMARK H PARENT
REMARK Flexibility Score: inf
ROOT
ATOM      1  C   UNL     1      19.354   6.273  11.362  1.00  0.00     0.016 A 
ATOM      2  C   UNL     1      20.693   6.693  11.423  1.00  0.00     0.013 A 
ATOM      3  C   UNL     1      18.393   7.174  10.869  1.00  0.00     0.120 A 
ATOM      4  C   UNL     1      21.045   7.975  11.001  1.00  0.00     0.021 A 
ATOM      5  N   UNL     1      18.763   8.419  10.463  1.00  0.00    -0.264 NA
ATOM      6  C   UNL     1      20.056   8.833  10.519  1.00  0.00     0.111 A 
ENDROOT
BRANCH   1   7
ATOM      7  C   UNL     1      18.968   4.917  11.807  1.00  0.00     0.073 C 
ATOM      8  O   UNL     1      18.843   4.656  13.033  1.00  0.00    -0.545 OA
ATOM      9  O   UNL     1      18.737   3.910  10.876  1.00  0.00    -0.545 OA
ENDBRANCH   1   7
TORSDOF 1
ENDMDL
