MODEL 1
REMARK VINA RESULT:    -2.905      0.000      0.000
REMARK INTER + INTRA:          -8.750
REMARK INTER:                  -5.452
REMARK INTRA:                  -3.298
REMARK UNBOUND:                -3.298
REMARK SMILES CCCCCCCCC=CCCCCCCCC(=O)[O-]
REMARK SMILES IDX 10 1 9 2 11 3 12 4 13 5 14 6 15 7 16 8 17 9 18 10 19 11
REMARK SMILES IDX 20 12 8 13 7 14 6 15 5 16 4 17 3 18 2 19 1 20
REMARK H PARENT
REMARK Flexibility Score: inf
ROOT
ATOM      1  C   UNL     1      11.970  44.815  66.341  1.00  0.00    -0.031 C 
ATOM      2  C   UNL     1      12.094  43.881  65.385  1.00  0.00    -0.031 C 
ENDROOT
BRANCH   1   3
ATOM      3  C   UNL     1      13.091  45.764  66.658  1.00  0.00     0.027 C 
BRANCH   3   4
ATOM      4  C   UNL     1      14.030  45.935  65.454  1.00  0.00     0.004 C 
BRANCH   4   5
ATOM      5  C   UNL     1      15.471  45.481  65.766  1.00  0.00     0.000 C 
BRANCH   5   6
ATOM      6  C   UNL     1      15.984  44.362  64.836  1.00  0.00     0.000 C 
BRANCH   6   7
ATOM      7  C   UNL     1      15.226  44.228  63.505  1.00  0.00     0.000 C 
BRANCH   7   8
ATOM      8  C   UNL     1      14.813  42.779  63.198  1.00  0.00     0.006 C 
BRANCH   8   9
ATOM      9  C   UNL     1      13.600  42.709  62.261  1.00  0.00     0.053 C 
BRANCH   9  10
ATOM     10  C   UNL     1      13.323  41.308  61.811  1.00  0.00     0.041 C 
ATOM     11  O   UNL     1      14.088  40.369  62.155  1.00  0.00    -0.550 OA
ATOM     12  O   UNL     1      12.238  41.043  60.984  1.00  0.00    -0.550 OA
ENDBRANCH   9  10
ENDBRANCH   8   9
ENDBRANCH   7   8
ENDBRANCH   6   7
ENDBRANCH   5   6
ENDBRANCH   4   5
ENDBRANCH   3   4
ENDBRANCH   1   3
BRANCH   2  13
ATOM     13  C   UNL     1      10.986  42.912  65.081  1.00  0.00     0.027 C 
BRANCH  13  14
ATOM     14  C   UNL     1      11.186  41.589  65.837  1.00  0.00     0.004 C 
BRANCH  14  15
ATOM     15  C   UNL     1      12.554  40.941  65.558  1.00  0.00     0.000 C 
BRANCH  15  16
ATOM     16  C   UNL     1      13.442  40.739  66.801  1.00  0.00     0.000 C 
BRANCH  16  17
ATOM     17  C   UNL     1      14.484  41.857  66.979  1.00  0.00    -0.000 C 
BRANCH  17  18
ATOM     18  C   UNL     1      14.345  42.598  68.321  1.00  0.00    -0.000 C 
BRANCH  18  19
ATOM     19  C   UNL     1      12.996  42.404  69.037  1.00  0.00    -0.003 C 
ATOM     20  C   UNL     1      12.528  43.654  69.781  1.00  0.00     0.004 C 
ENDBRANCH  18  19
ENDBRANCH  17  18
ENDBRANCH  16  17
ENDBRANCH  15  16
ENDBRANCH  14  15
ENDBRANCH  13  14
ENDBRANCH   2  13
TORSDOF 15
ENDMDL
MODEL 2
REMARK VINA RESULT:    -2.875      1.891      4.687
REMARK INTER + INTRA:          -8.694
REMARK INTER:                  -5.841
REMARK INTRA:                  -2.853
REMARK UNBOUND:                -3.298
REMARK SMILES CCCCCCCCC=CCCCCCCCC(=O)[O-]
REMARK SMILES IDX 10 1 9 2 11 3 12 4 13 5 14 6 15 7 16 8 17 9 18 10 19 11
REMARK SMILES IDX 20 12 8 13 7 14 6 15 5 16 4 17 3 18 2 19 1 20
REMARK H PARENT
REMARK Flexibility Score: inf
ROOT
ATOM      1  C   UNL     1      12.719  44.091  67.346  1.00  0.00    -0.031 C 
ATOM      2  C   UNL     1      13.367  45.254  67.177  1.00  0.00    -0.031 C 
ENDROOT
BRANCH   1   3
ATOM      3  C   UNL     1      13.077  43.151  68.462  1.00  0.00     0.027 C 
BRANCH   3   4
ATOM      4  C   UNL     1      14.383  42.401  68.157  1.00  0.00     0.004 C 
BRANCH   4   5
ATOM      5  C   UNL     1      14.447  41.906  66.697  1.00  0.00     0.000 C 
BRANCH   5   6
ATOM      6  C   UNL     1      14.009  40.438  66.521  1.00  0.00     0.000 C 
BRANCH   6   7
ATOM      7  C   UNL     1      12.512  40.238  66.231  1.00  0.00     0.000 C 
BRANCH   7   8
ATOM      8  C   UNL     1      12.237  39.020  65.334  1.00  0.00     0.006 C 
BRANCH   8   9
ATOM      9  C   UNL     1      13.304  38.851  64.245  1.00  0.00     0.053 C 
BRANCH   9  10
ATOM     10  C   UNL     1      13.866  37.463  64.225  1.00  0.00     0.041 C 
ATOM     11  O   UNL     1      14.342  36.957  65.276  1.00  0.00    -0.550 OA
ATOM     12  O   UNL     1      13.896  36.739  63.039  1.00  0.00    -0.550 OA
ENDBRANCH   9  10
ENDBRANCH   8   9
ENDBRANCH   7   8
ENDBRANCH   6   7
ENDBRANCH   5   6
ENDBRANCH   4   5
ENDBRANCH   3   4
ENDBRANCH   1   3
BRANCH   2  13
ATOM     13  C   UNL     1      13.031  46.187  66.046  1.00  0.00     0.027 C 
BRANCH  13  14
ATOM     14  C   UNL     1      14.218  46.335  65.082  1.00  0.00     0.004 C 
BRANCH  14  15
ATOM     15  C   UNL     1      15.493  45.638  65.590  1.00  0.00     0.000 C 
BRANCH  15  16
ATOM     16  C   UNL     1      16.039  44.531  64.667  1.00  0.00     0.000 C 
BRANCH  16  17
ATOM     17  C   UNL     1      15.116  44.242  63.471  1.00  0.00    -0.000 C 
BRANCH  17  18
ATOM     18  C   UNL     1      14.861  42.738  63.260  1.00  0.00    -0.000 C 
BRANCH  18  19
ATOM     19  C   UNL     1      13.389  42.351  63.032  1.00  0.00    -0.003 C 
ATOM     20  C   UNL     1      12.410  43.232  63.806  1.00  0.00     0.004 C 
ENDBRANCH  18  19
ENDBRANCH  17  18
ENDBRANCH  16  17
ENDBRANCH  15  16
ENDBRANCH  14  15
ENDBRANCH  13  14
ENDBRANCH   2  13
TORSDOF 15
ENDMDL
MODEL 3
REMARK VINA RESULT:    -2.854      2.253      5.240
REMARK INTER + INTRA:          -8.655
REMARK INTER:                  -5.912
REMARK INTRA:                  -2.743
REMARK UNBOUND:                -3.298
REMARK SMILES CCCCCCCCC=CCCCCCCCC(=O)[O-]
REMARK SMILES IDX 10 1 9 2 11 3 12 4 13 5 14 6 15 7 16 8 17 9 18 10 19 11
REMARK SMILES IDX 20 12 8 13 7 14 6 15 5 16 4 17 3 18 2 19 1 20
REMARK H PARENT
REMARK Flexibility Score: inf
ROOT
ATOM      1  C   UNL     1      14.558  43.077  66.793  1.00  0.00    -0.031 C 
ATOM      2  C   UNL     1      14.482  44.417  66.784  1.00  0.00    -0.031 C 
ENDROOT
BRANCH   1   3
ATOM      3  C   UNL     1      14.468  42.297  68.075  1.00  0.00     0.027 C 
BRANCH   3   4
ATOM      4  C   UNL     1      13.235  42.713  68.891  1.00  0.00     0.004 C 
BRANCH   4   5
ATOM      5  C   UNL     1      12.324  41.514  69.228  1.00  0.00     0.000 C 
BRANCH   5   6
ATOM      6  C   UNL     1      11.759  40.796  67.986  1.00  0.00     0.000 C 
BRANCH   6   7
ATOM      7  C   UNL     1      12.038  39.284  67.928  1.00  0.00     0.000 C 
BRANCH   7   8
ATOM      8  C   UNL     1      12.436  38.806  66.521  1.00  0.00     0.006 C 
BRANCH   8   9
ATOM      9  C   UNL     1      13.956  38.818  66.315  1.00  0.00     0.053 C 
BRANCH   9  10
ATOM     10  C   UNL     1      14.495  37.446  66.052  1.00  0.00     0.041 C 
ATOM     11  O   UNL     1      14.429  36.950  64.896  1.00  0.00    -0.550 OA
ATOM     12  O   UNL     1      15.040  36.700  67.089  1.00  0.00    -0.550 OA
ENDBRANCH   9  10
ENDBRANCH   8   9
ENDBRANCH   7   8
ENDBRANCH   6   7
ENDBRANCH   5   6
ENDBRANCH   4   5
ENDBRANCH   3   4
ENDBRANCH   1   3
BRANCH   2  13
ATOM     13  C   UNL     1      14.598  45.205  65.509  1.00  0.00     0.027 C 
BRANCH  13  14
ATOM     14  C   UNL     1      15.741  44.671  64.632  1.00  0.00     0.004 C 
BRANCH  14  15
ATOM     15  C   UNL     1      15.265  44.214  63.241  1.00  0.00     0.000 C 
BRANCH  15  16
ATOM     16  C   UNL     1      14.846  42.734  63.152  1.00  0.00     0.000 C 
BRANCH  16  17
ATOM     17  C   UNL     1      13.326  42.553  62.992  1.00  0.00    -0.000 C 
BRANCH  17  18
ATOM     18  C   UNL     1      12.721  41.608  64.046  1.00  0.00    -0.000 C 
BRANCH  18  19
ATOM     19  C   UNL     1      11.311  41.989  64.532  1.00  0.00    -0.003 C 
ATOM     20  C   UNL     1      11.256  43.367  65.188  1.00  0.00     0.004 C 
ENDBRANCH  18  19
ENDBRANCH  17  18
ENDBRANCH  16  17
ENDBRANCH  15  16
ENDBRANCH  14  15
ENDBRANCH  13  14
ENDBRANCH   2  13
TORSDOF 15
ENDMDL
MODEL 4
REMARK VINA RESULT:    -2.854      0.937      2.621
REMARK INTER + INTRA:          -8.655
REMARK INTER:                  -5.900
REMARK INTRA:                  -2.755
REMARK UNBOUND:                -3.298
REMARK SMILES CCCCCCCCC=CCCCCCCCC(=O)[O-]
REMARK SMILES IDX 10 1 9 2 11 3 12 4 13 5 14 6 15 7 16 8 17 9 18 10 19 11
REMARK SMILES IDX 20 12 8 13 7 14 6 15 5 16 4 17 3 18 2 19 1 20
REMARK H PARENT
REMARK Flexibility Score: inf
ROOT
ATOM      1  C   UNL     1      12.986  45.741  67.002  1.00  0.00    -0.031 C 
ATOM      2  C   UNL     1      12.218  46.283  67.959  1.00  0.00    -0.031 C 
ENDROOT
BRANCH   1   3
ATOM      3  C   UNL     1      13.019  46.308  65.610  1.00  0.00     0.027 C 
BRANCH   3   4
ATOM      4  C   UNL     1      14.463  46.532  65.137  1.00  0.00     0.004 C 
BRANCH   4   5
ATOM      5  C   UNL     1      15.447  45.521  65.762  1.00  0.00     0.000 C 
BRANCH   5   6
ATOM      6  C   UNL     1      16.049  44.531  64.744  1.00  0.00     0.000 C 
BRANCH   6   7
ATOM      7  C   UNL     1      15.152  44.221  63.534  1.00  0.00     0.000 C 
BRANCH   7   8
ATOM      8  C   UNL     1      15.015  42.713  63.266  1.00  0.00     0.006 C 
BRANCH   8   9
ATOM      9  C   UNL     1      13.956  42.410  62.197  1.00  0.00     0.053 C 
BRANCH   9  10
ATOM     10  C   UNL     1      13.765  40.937  62.003  1.00  0.00     0.041 C 
ATOM     11  O   UNL     1      13.944  40.419  60.870  1.00  0.00    -0.550 OA
ATOM     12  O   UNL     1      13.356  40.141  63.066  1.00  0.00    -0.550 OA
ENDBRANCH   9  10
ENDBRANCH   8   9
ENDBRANCH   7   8
ENDBRANCH   6   7
ENDBRANCH   5   6
ENDBRANCH   4   5
ENDBRANCH   3   4
ENDBRANCH   1   3
BRANCH   2  13
ATOM     13  C   UNL     1      12.160  45.705  69.346  1.00  0.00     0.027 C 
BRANCH  13  14
ATOM     14  C   UNL     1      11.600  44.275  69.326  1.00  0.00     0.004 C 
BRANCH  14  15
ATOM     15  C   UNL     1      12.536  43.256  70.001  1.00  0.00     0.000 C 
BRANCH  15  16
ATOM     16  C   UNL     1      13.055  42.138  69.076  1.00  0.00     0.000 C 
BRANCH  16  17
ATOM     17  C   UNL     1      14.303  42.555  68.278  1.00  0.00    -0.000 C 
BRANCH  17  18
ATOM     18  C   UNL     1      14.241  42.127  66.801  1.00  0.00    -0.000 C 
BRANCH  18  19
ATOM     19  C   UNL     1      12.872  41.605  66.329  1.00  0.00    -0.003 C 
ATOM     20  C   UNL     1      12.107  42.615  65.474  1.00  0.00     0.004 C 
ENDBRANCH  18  19
ENDBRANCH  17  18
ENDBRANCH  16  17
ENDBRANCH  15  16
ENDBRANCH  14  15
ENDBRANCH  13  14
ENDBRANCH   2  13
TORSDOF 15
ENDMDL
MODEL 5
REMARK VINA RESULT:    -2.851      3.594      6.292
REMARK INTER + INTRA:          -8.649
REMARK INTER:                  -5.475
REMARK INTRA:                  -3.174
REMARK UNBOUND:                -3.298
REMARK SMILES CCCCCCCCC=CCCCCCCCC(=O)[O-]
REMARK SMILES IDX 10 1 9 2 11 3 12 4 13 5 14 6 15 7 16 8 17 9 18 10 19 11
REMARK SMILES IDX 20 12 8 13 7 14 6 15 5 16 4 17 3 18 2 19 1 20
REMARK H PARENT
REMARK Flexibility Score: inf
ROOT
ATOM      1  C   UNL     1      12.572  42.228  65.369  1.00  0.00    -0.031 C 
ATOM      2  C   UNL     1      12.057  43.430  65.674  1.00  0.00    -0.031 C 
ENDROOT
BRANCH   1   3
ATOM      3  C   UNL     1      13.077  41.299  66.437  1.00  0.00     0.027 C 
BRANCH   3   4
ATOM      4  C   UNL     1      14.419  41.785  67.004  1.00  0.00     0.004 C 
BRANCH   4   5
ATOM      5  C   UNL     1      14.257  42.496  68.364  1.00  0.00     0.000 C 
BRANCH   5   6
ATOM      6  C   UNL     1      12.940  42.154  69.089  1.00  0.00     0.000 C 
BRANCH   6   7
ATOM      7  C   UNL     1      12.438  43.233  70.064  1.00  0.00     0.000 C 
BRANCH   7   8
ATOM      8  C   UNL     1      12.285  44.611  69.399  1.00  0.00     0.006 C 
BRANCH   8   9
ATOM      9  C   UNL     1      10.858  44.851  68.889  1.00  0.00     0.053 C 
BRANCH   9  10
ATOM     10  C   UNL     1       9.931  45.258  69.994  1.00  0.00     0.041 C 
ATOM     11  O   UNL     1       9.960  46.434  70.443  1.00  0.00    -0.550 OA
ATOM     12  O   UNL     1       9.059  44.331  70.550  1.00  0.00    -0.550 OA
ENDBRANCH   9  10
ENDBRANCH   8   9
ENDBRANCH   7   8
ENDBRANCH   6   7
ENDBRANCH   5   6
ENDBRANCH   4   5
ENDBRANCH   3   4
ENDBRANCH   1   3
BRANCH   2  13
ATOM     13  C   UNL     1      11.575  44.375  64.609  1.00  0.00     0.027 C 
BRANCH  13  14
ATOM     14  C   UNL     1      11.972  45.823  64.934  1.00  0.00     0.004 C 
BRANCH  14  15
ATOM     15  C   UNL     1      13.055  45.917  66.024  1.00  0.00     0.000 C 
BRANCH  15  16
ATOM     16  C   UNL     1      14.470  46.240  65.507  1.00  0.00     0.000 C 
BRANCH  16  17
ATOM     17  C   UNL     1      15.504  45.165  65.886  1.00  0.00    -0.000 C 
BRANCH  17  18
ATOM     18  C   UNL     1      15.820  44.203  64.726  1.00  0.00    -0.000 C 
BRANCH  18  19
ATOM     19  C   UNL     1      15.204  44.591  63.370  1.00  0.00    -0.003 C 
ATOM     20  C   UNL     1      14.666  43.391  62.591  1.00  0.00     0.004 C 
ENDBRANCH  18  19
ENDBRANCH  17  18
ENDBRANCH  16  17
ENDBRANCH  15  16
ENDBRANCH  14  15
ENDBRANCH  13  14
ENDBRANCH   2  13
TORSDOF 15
ENDMDL
MODEL 6
REMARK VINA RESULT:    -2.842      1.818      3.646
REMARK INTER + INTRA:          -8.633
REMARK INTER:                  -5.629
REMARK INTRA:                  -3.004
REMARK UNBOUND:                -3.298
REMARK SMILES CCCCCCCCC=CCCCCCCCC(=O)[O-]
REMARK SMILES IDX 10 1 9 2 11 3 12 4 13 5 14 6 15 7 16 8 17 9 18 10 19 11
REMARK SMILES IDX 20 12 8 13 7 14 6 15 5 16 4 17 3 18 2 19 1 20
REMARK H PARENT
REMARK Flexibility Score: inf
ROOT
ATOM      1  C   UNL     1      14.936  44.338  66.469  1.00  0.00    -0.031 C 
ATOM      2  C   UNL     1      14.812  43.068  66.054  1.00  0.00    -0.031 C 
ENDROOT
BRANCH   1   3
ATOM      3  C   UNL     1      15.277  45.444  65.510  1.00  0.00     0.027 C 
BRANCH   3   4
ATOM      4  C   UNL     1      14.108  46.431  65.365  1.00  0.00     0.004 C 
BRANCH   4   5
ATOM      5  C   UNL     1      13.005  46.190  66.418  1.00  0.00     0.000 C 
BRANCH   5   6
ATOM      6  C   UNL     1      11.648  45.783  65.811  1.00  0.00     0.000 C 
BRANCH   6   7
ATOM      7  C   UNL     1      11.207  44.342  66.119  1.00  0.00     0.000 C 
BRANCH   7   8
ATOM      8  C   UNL     1      11.428  43.386  64.934  1.00  0.00     0.006 C 
BRANCH   8   9
ATOM      9  C   UNL     1      11.692  44.140  63.624  1.00  0.00     0.053 C 
BRANCH   9  10
ATOM     10  C   UNL     1      12.928  43.648  62.936  1.00  0.00     0.041 C 
ATOM     11  O   UNL     1      13.189  42.417  62.907  1.00  0.00    -0.550 OA
ATOM     12  O   UNL     1      13.809  44.552  62.356  1.00  0.00    -0.550 OA
ENDBRANCH   9  10
ENDBRANCH   8   9
ENDBRANCH   7   8
ENDBRANCH   6   7
ENDBRANCH   5   6
ENDBRANCH   4   5
ENDBRANCH   3   4
ENDBRANCH   1   3
BRANCH   2  13
ATOM     13  C   UNL     1      14.498  41.952  67.012  1.00  0.00     0.027 C 
BRANCH  13  14
ATOM     14  C   UNL     1      14.212  42.497  68.420  1.00  0.00     0.004 C 
BRANCH  14  15
ATOM     15  C   UNL     1      12.832  42.074  68.956  1.00  0.00     0.000 C 
BRANCH  15  16
ATOM     16  C   UNL     1      12.245  43.000  70.039  1.00  0.00     0.000 C 
BRANCH  16  17
ATOM     17  C   UNL     1      12.348  44.490  69.669  1.00  0.00    -0.000 C 
BRANCH  17  18
ATOM     18  C   UNL     1      10.980  45.194  69.632  1.00  0.00    -0.000 C 
BRANCH  18  19
ATOM     19  C   UNL     1      10.986  46.657  70.110  1.00  0.00    -0.003 C 
ATOM     20  C   UNL     1      12.388  47.259  70.184  1.00  0.00     0.004 C 
ENDBRANCH  18  19
ENDBRANCH  17  18
ENDBRANCH  16  17
ENDBRANCH  15  16
ENDBRANCH  14  15
ENDBRANCH  13  14
ENDBRANCH   2  13
TORSDOF 15
ENDMDL
MODEL 7
REMARK VINA RESULT:    -2.822      1.402      3.151
REMARK INTER + INTRA:          -8.595
REMARK INTER:                  -5.785
REMARK INTRA:                  -2.810
REMARK UNBOUND:                -3.298
REMARK SMILES CCCCCCCCC=CCCCCCCCC(=O)[O-]
REMARK SMILES IDX 10 1 9 2 11 3 12 4 13 5 14 6 15 7 16 8 17 9 18 10 19 11
REMARK SMILES IDX 20 12 8 13 7 14 6 15 5 16 4 17 3 18 2 19 1 20
REMARK H PARENT
REMARK Flexibility Score: inf
ROOT
ATOM      1  C   UNL     1      15.287  44.371  66.462  1.00  0.00    -0.031 C 
ATOM      2  C   UNL     1      14.911  43.179  65.973  1.00  0.00    -0.031 C 
ENDROOT
BRANCH   1   3
ATOM      3  C   UNL     1      15.953  45.399  65.592  1.00  0.00     0.027 C 
BRANCH   3   4
ATOM      4  C   UNL     1      14.939  46.434  65.081  1.00  0.00     0.004 C 
BRANCH   4   5
ATOM      5  C   UNL     1      15.042  46.652  63.557  1.00  0.00     0.000 C 
BRANCH   5   6
ATOM      6  C   UNL     1      14.070  45.779  62.738  1.00  0.00     0.000 C 
BRANCH   6   7
ATOM      7  C   UNL     1      14.633  44.416  62.303  1.00  0.00     0.000 C 
BRANCH   7   8
ATOM      8  C   UNL     1      13.653  43.258  62.559  1.00  0.00     0.006 C 
BRANCH   8   9
ATOM      9  C   UNL     1      14.371  41.906  62.663  1.00  0.00     0.053 C 
BRANCH   9  10
ATOM     10  C   UNL     1      13.410  40.780  62.890  1.00  0.00     0.041 C 
ATOM     11  O   UNL     1      13.368  40.198  64.005  1.00  0.00    -0.550 OA
ATOM     12  O   UNL     1      12.583  40.351  61.859  1.00  0.00    -0.550 OA
ENDBRANCH   9  10
ENDBRANCH   8   9
ENDBRANCH   7   8
ENDBRANCH   6   7
ENDBRANCH   5   6
ENDBRANCH   4   5
ENDBRANCH   3   4
ENDBRANCH   1   3
BRANCH   2  13
ATOM     13  C   UNL     1      14.269  42.136  66.844  1.00  0.00     0.027 C 
BRANCH  13  14
ATOM     14  C   UNL     1      14.217  42.594  68.309  1.00  0.00     0.004 C 
BRANCH  14  15
ATOM     15  C   UNL     1      12.780  42.731  68.844  1.00  0.00     0.000 C 
BRANCH  15  16
ATOM     16  C   UNL     1      12.544  43.938  69.771  1.00  0.00     0.000 C 
BRANCH  16  17
ATOM     17  C   UNL     1      11.676  45.030  69.120  1.00  0.00    -0.000 C 
BRANCH  17  18
ATOM     18  C   UNL     1      12.411  45.795  68.005  1.00  0.00    -0.000 C 
BRANCH  18  19
ATOM     19  C   UNL     1      11.608  45.987  66.706  1.00  0.00    -0.003 C 
ATOM     20  C   UNL     1      11.644  44.763  65.793  1.00  0.00     0.004 C 
ENDBRANCH  18  19
ENDBRANCH  17  18
ENDBRANCH  16  17
ENDBRANCH  15  16
ENDBRANCH  14  15
ENDBRANCH  13  14
ENDBRANCH   2  13
TORSDOF 15
ENDMDL
MODEL 8
REMARK VINA RESULT:    -2.820      2.856      5.853
REMARK INTER + INTRA:          -8.592
REMARK INTER:                  -5.552
REMARK INTRA:                  -3.040
REMARK UNBOUND:                -3.298
REMARK SMILES CCCCCCCCC=CCCCCCCCC(=O)[O-]
REMARK SMILES IDX 10 1 9 2 11 3 12 4 13 5 14 6 15 7 16 8 17 9 18 10 19 11
REMARK SMILES IDX 20 12 8 13 7 14 6 15 5 16 4 17 3 18 2 19 1 20
REMARK H PARENT
REMARK Flexibility Score: inf
ROOT
ATOM      1  C   UNL     1      11.710  42.867  64.652  1.00  0.00    -0.031 C 
ATOM      2  C   UNL     1      11.858  44.053  65.263  1.00  0.00    -0.031 C 
ENDROOT
BRANCH   1   3
ATOM      3  C   UNL     1      11.831  41.575  65.410  1.00  0.00     0.027 C 
BRANCH   3   4
ATOM      4  C   UNL     1      13.198  40.917  65.169  1.00  0.00     0.004 C 
BRANCH   4   5
ATOM      5  C   UNL     1      14.036  40.816  66.461  1.00  0.00     0.000 C 
BRANCH   5   6
ATOM      6  C   UNL     1      14.546  42.177  66.976  1.00  0.00     0.000 C 
BRANCH   6   7
ATOM      7  C   UNL     1      14.238  42.466  68.455  1.00  0.00     0.000 C 
BRANCH   7   8
ATOM      8  C   UNL     1      13.073  43.453  68.638  1.00  0.00     0.006 C 
BRANCH   8   9
ATOM      9  C   UNL     1      12.397  43.303  70.007  1.00  0.00     0.053 C 
BRANCH   9  10
ATOM     10  C   UNL     1      11.570  42.057  70.087  1.00  0.00     0.041 C 
ATOM     11  O   UNL     1      11.597  41.345  71.125  1.00  0.00    -0.550 OA
ATOM     12  O   UNL     1      10.794  41.664  69.003  1.00  0.00    -0.550 OA
ENDBRANCH   9  10
ENDBRANCH   8   9
ENDBRANCH   7   8
ENDBRANCH   6   7
ENDBRANCH   5   6
ENDBRANCH   4   5
ENDBRANCH   3   4
ENDBRANCH   1   3
BRANCH   2  13
ATOM     13  C   UNL     1      11.765  45.348  64.505  1.00  0.00     0.027 C 
BRANCH  13  14
ATOM     14  C   UNL     1      12.712  46.403  65.096  1.00  0.00     0.004 C 
BRANCH  14  15
ATOM     15  C   UNL     1      13.922  45.784  65.819  1.00  0.00     0.000 C 
BRANCH  15  16
ATOM     16  C   UNL     1      15.281  46.023  65.133  1.00  0.00     0.000 C 
BRANCH  16  17
ATOM     17  C   UNL     1      16.037  44.717  64.835  1.00  0.00    -0.000 C 
BRANCH  17  18
ATOM     18  C   UNL     1      15.280  43.794  63.863  1.00  0.00    -0.000 C 
BRANCH  18  19
ATOM     19  C   UNL     1      14.907  44.434  62.513  1.00  0.00    -0.003 C 
ATOM     20  C   UNL     1      13.818  43.665  61.767  1.00  0.00     0.004 C 
ENDBRANCH  18  19
ENDBRANCH  17  18
ENDBRANCH  16  17
ENDBRANCH  15  16
ENDBRANCH  14  15
ENDBRANCH  13  14
ENDBRANCH   2  13
TORSDOF 15
ENDMDL
MODEL 9
REMARK VINA RESULT:    -2.805      2.286      5.189
REMARK INTER + INTRA:          -8.564
REMARK INTER:                  -5.463
REMARK INTRA:                  -3.100
REMARK UNBOUND:                -3.298
REMARK SMILES CCCCCCCCC=CCCCCCCCC(=O)[O-]
REMARK SMILES IDX 10 1 9 2 11 3 12 4 13 5 14 6 15 7 16 8 17 9 18 10 19 11
REMARK SMILES IDX 20 12 8 13 7 14 6 15 5 16 4 17 3 18 2 19 1 20
REMARK H PARENT
REMARK Flexibility Score: inf
ROOT
ATOM      1  C   UNL     1      14.614  43.406  67.201  1.00  0.00    -0.031 C 
ATOM      2  C   UNL     1      14.885  42.948  65.969  1.00  0.00    -0.031 C 
ENDROOT
BRANCH   1   3
ATOM      3  C   UNL     1      14.135  42.487  68.290  1.00  0.00     0.027 C 
BRANCH   3   4
ATOM      4  C   UNL     1      12.770  42.938  68.833  1.00  0.00     0.004 C 
BRANCH   4   5
ATOM      5  C   UNL     1      11.714  41.815  68.766  1.00  0.00     0.000 C 
BRANCH   5   6
ATOM      6  C   UNL     1      12.265  40.475  68.238  1.00  0.00     0.000 C 
BRANCH   6   7
ATOM      7  C   UNL     1      11.664  40.009  66.901  1.00  0.00     0.000 C 
BRANCH   7   8
ATOM      8  C   UNL     1      12.703  39.953  65.768  1.00  0.00     0.006 C 
BRANCH   8   9
ATOM      9  C   UNL     1      14.027  39.329  66.228  1.00  0.00     0.053 C 
BRANCH   9  10
ATOM     10  C   UNL     1      14.002  37.835  66.135  1.00  0.00     0.041 C 
ATOM     11  O   UNL     1      14.292  37.263  65.052  1.00  0.00    -0.550 OA
ATOM     12  O   UNL     1      13.626  37.074  67.235  1.00  0.00    -0.550 OA
ENDBRANCH   9  10
ENDBRANCH   8   9
ENDBRANCH   7   8
ENDBRANCH   6   7
ENDBRANCH   5   6
ENDBRANCH   4   5
ENDBRANCH   3   4
ENDBRANCH   1   3
BRANCH   2  13
ATOM     13  C   UNL     1      15.340  43.866  64.869  1.00  0.00     0.027 C 
BRANCH  13  14
ATOM     14  C   UNL     1      15.779  45.227  65.430  1.00  0.00     0.004 C 
BRANCH  14  15
ATOM     15  C   UNL     1      14.884  46.387  64.958  1.00  0.00     0.000 C 
BRANCH  15  16
ATOM     16  C   UNL     1      13.563  46.545  65.735  1.00  0.00     0.000 C 
BRANCH  16  17
ATOM     17  C   UNL     1      12.361  45.923  65.002  1.00  0.00    -0.000 C 
BRANCH  17  18
ATOM     18  C   UNL     1      11.528  44.992  65.901  1.00  0.00    -0.000 C 
BRANCH  18  19
ATOM     19  C   UNL     1      11.376  43.550  65.385  1.00  0.00    -0.003 C 
ATOM     20  C   UNL     1       9.951  43.013  65.516  1.00  0.00     0.004 C 
ENDBRANCH  18  19
ENDBRANCH  17  18
ENDBRANCH  16  17
ENDBRANCH  15  16
ENDBRANCH  14  15
ENDBRANCH  13  14
ENDBRANCH   2  13
TORSDOF 15
ENDMDL
