MODEL 1
REMARK VINA RESULT:    -3.774      0.000      0.000
REMARK INTER + INTRA:          -4.840
REMARK INTER:                  -4.546
REMARK INTRA:                  -0.294
REMARK UNBOUND:                -0.294
REMARK SMILES C=CCc1ccc(O)c(OC)c1
REMARK SMILES IDX 9 1 7 2 6 3 5 4 4 5 12 6 10 7 11 8 8 9 3 11 2 12 1 13
REMARK H PARENT 8 10
REMARK Flexibility Score: inf
ROOT
ATOM      1  C   UNL     1       1.771 -14.655  10.945  1.00  0.00     0.160 A 
ATOM      2  C   UNL     1       1.387 -15.886  10.393  1.00  0.00     0.157 A 
ATOM      3  C   UNL     1       0.637 -15.923   9.211  1.00  0.00     0.050 A 
ATOM      4  C   UNL     1       0.265 -14.737   8.574  1.00  0.00     0.008 A 
ATOM      5  C   UNL     1       0.631 -13.498   9.120  1.00  0.00    -0.040 A 
ATOM      6  C   UNL     1       1.392 -13.461  10.299  1.00  0.00     0.054 A 
ENDROOT
BRANCH   1   7
ATOM      7  O   UNL     1       2.527 -14.658  12.128  1.00  0.00    -0.493 OA
ATOM      8  C   UNL     1       1.998 -14.397  13.423  1.00  0.00     0.278 C 
ENDBRANCH   1   7
BRANCH   2   9
ATOM      9  O   UNL     1       1.757 -17.070  11.028  1.00  0.00    -0.504 OA
ATOM     10  H   UNL     1       1.237 -17.930  10.892  1.00  0.00     0.293 HD
ENDBRANCH   2   9
BRANCH   5  11
ATOM     11  C   UNL     1       0.255 -12.222   8.414  1.00  0.00     0.062 C 
BRANCH  11  12
ATOM     12  C   UNL     1       0.706 -12.252   6.981  1.00  0.00    -0.030 C 
ATOM     13  C   UNL     1       1.975 -12.010   6.638  1.00  0.00     0.004 C 
ENDBRANCH  11  12
ENDBRANCH   5  11
TORSDOF 4
ENDMDL
MODEL 2
REMARK VINA RESULT:    -3.663      2.081      3.093
REMARK INTER + INTRA:          -4.707
REMARK INTER:                  -4.427
REMARK INTRA:                  -0.280
REMARK UNBOUND:                -0.294
REMARK SMILES C=CCc1ccc(O)c(OC)c1
REMARK SMILES IDX 9 1 7 2 6 3 5 4 4 5 12 6 10 7 11 8 8 9 3 11 2 12 1 13
REMARK H PARENT 8 10
REMARK Flexibility Score: inf
ROOT
ATOM      1  C   UNL     1       2.688 -15.996  12.280  1.00  0.00     0.160 A 
ATOM      2  C   UNL     1       3.931 -15.940  11.632  1.00  0.00     0.157 A 
ATOM      3  C   UNL     1       4.051 -15.289  10.398  1.00  0.00     0.050 A 
ATOM      4  C   UNL     1       2.937 -14.693   9.803  1.00  0.00     0.008 A 
ATOM      5  C   UNL     1       1.685 -14.751  10.433  1.00  0.00    -0.040 A 
ATOM      6  C   UNL     1       1.566 -15.394  11.675  1.00  0.00     0.054 A 
ENDROOT
BRANCH   1   7
ATOM      7  O   UNL     1       2.608 -16.652  13.519  1.00  0.00    -0.493 OA
ATOM      8  C   UNL     1       1.872 -17.848  13.750  1.00  0.00     0.278 C 
ENDBRANCH   1   7
BRANCH   2   9
ATOM      9  O   UNL     1       5.043 -16.534  12.224  1.00  0.00    -0.504 OA
ATOM     10  H   UNL     1       4.951 -17.178  13.002  1.00  0.00     0.293 HD
ENDBRANCH   2   9
BRANCH   5  11
ATOM     11  C   UNL     1       0.492 -14.081   9.804  1.00  0.00     0.062 C 
BRANCH  11  12
ATOM     12  C   UNL     1       0.097 -14.779   8.533  1.00  0.00    -0.030 C 
ATOM     13  C   UNL     1      -0.302 -16.054   8.527  1.00  0.00     0.004 C 
ENDBRANCH  11  12
ENDBRANCH   5  11
TORSDOF 4
ENDMDL
MODEL 3
REMARK VINA RESULT:    -3.574      2.585      4.087
REMARK INTER + INTRA:          -4.599
REMARK INTER:                  -4.356
REMARK INTRA:                  -0.244
REMARK UNBOUND:                -0.294
REMARK SMILES C=CCc1ccc(O)c(OC)c1
REMARK SMILES IDX 9 1 7 2 6 3 5 4 4 5 12 6 10 7 11 8 8 9 3 11 2 12 1 13
REMARK H PARENT 8 10
REMARK Flexibility Score: inf
ROOT
ATOM      1  C   UNL     1       2.075 -16.564  13.637  1.00  0.00     0.160 A 
ATOM      2  C   UNL     1       1.719 -15.294  14.114  1.00  0.00     0.157 A 
ATOM      3  C   UNL     1       1.370 -14.278  13.215  1.00  0.00     0.050 A 
ATOM      4  C   UNL     1       1.373 -14.521  11.841  1.00  0.00     0.008 A 
ATOM      5  C   UNL     1       1.738 -15.782  11.347  1.00  0.00    -0.040 A 
ATOM      6  C   UNL     1       2.079 -16.803  12.248  1.00  0.00     0.054 A 
ENDROOT
BRANCH   1   7
ATOM      7  O   UNL     1       2.414 -17.558  14.568  1.00  0.00    -0.493 OA
ATOM      8  C   UNL     1       1.581 -18.661  14.908  1.00  0.00     0.278 C 
ENDBRANCH   1   7
BRANCH   2   9
ATOM      9  O   UNL     1       1.716 -15.050  15.486  1.00  0.00    -0.504 OA
ATOM     10  H   UNL     1       0.869 -14.784  15.976  1.00  0.00     0.293 HD
ENDBRANCH   2   9
BRANCH   5  11
ATOM     11  C   UNL     1       1.711 -16.049   9.865  1.00  0.00     0.062 C 
BRANCH  11  12
ATOM     12  C   UNL     1       0.551 -15.347   9.217  1.00  0.00    -0.030 C 
ATOM     13  C   UNL     1      -0.343 -16.007   8.474  1.00  0.00     0.004 C 
ENDBRANCH  11  12
ENDBRANCH   5  11
TORSDOF 4
ENDMDL
MODEL 4
REMARK VINA RESULT:    -3.555      2.523      4.804
REMARK INTER + INTRA:          -4.577
REMARK INTER:                  -4.350
REMARK INTRA:                  -0.227
REMARK UNBOUND:                -0.294
REMARK SMILES C=CCc1ccc(O)c(OC)c1
REMARK SMILES IDX 9 1 7 2 6 3 5 4 4 5 12 6 10 7 11 8 8 9 3 11 2 12 1 13
REMARK H PARENT 8 10
REMARK Flexibility Score: inf
ROOT
ATOM      1  C   UNL     1       1.845 -13.418   8.840  1.00  0.00     0.160 A 
ATOM      2  C   UNL     1       0.667 -13.988   8.335  1.00  0.00     0.157 A 
ATOM      3  C   UNL     1       0.214 -15.219   8.828  1.00  0.00     0.050 A 
ATOM      4  C   UNL     1       0.930 -15.887   9.823  1.00  0.00     0.008 A 
ATOM      5  C   UNL     1       2.116 -15.335  10.330  1.00  0.00    -0.040 A 
ATOM      6  C   UNL     1       2.565 -14.097   9.844  1.00  0.00     0.054 A 
ENDROOT
BRANCH   1   7
ATOM      7  O   UNL     1       2.264 -12.181   8.325  1.00  0.00    -0.493 OA
ATOM      8  C   UNL     1       3.288 -12.020   7.350  1.00  0.00     0.278 C 
ENDBRANCH   1   7
BRANCH   2   9
ATOM      9  O   UNL     1      -0.049 -13.323   7.341  1.00  0.00    -0.504 OA
ATOM     10  H   UNL     1      -0.801 -13.776   6.835  1.00  0.00     0.293 HD
ENDBRANCH   2   9
BRANCH   5  11
ATOM     11  C   UNL     1       2.869 -16.043  11.425  1.00  0.00     0.062 C 
BRANCH  11  12
ATOM     12  C   UNL     1       1.985 -16.274  12.618  1.00  0.00    -0.030 C 
ATOM     13  C   UNL     1       1.998 -17.430  13.289  1.00  0.00     0.004 C 
ENDBRANCH  11  12
ENDBRANCH   5  11
TORSDOF 4
ENDMDL
MODEL 5
REMARK VINA RESULT:    -3.507      2.522      4.759
REMARK INTER + INTRA:          -4.519
REMARK INTER:                  -4.295
REMARK INTRA:                  -0.225
REMARK UNBOUND:                -0.294
REMARK SMILES C=CCc1ccc(O)c(OC)c1
REMARK SMILES IDX 9 1 7 2 6 3 5 4 4 5 12 6 10 7 11 8 8 9 3 11 2 12 1 13
REMARK H PARENT 8 10
REMARK Flexibility Score: inf
ROOT
ATOM      1  C   UNL     1       0.724 -14.032   9.941  1.00  0.00     0.160 A 
ATOM      2  C   UNL     1       0.432 -15.002   8.970  1.00  0.00     0.157 A 
ATOM      3  C   UNL     1       0.870 -16.321   9.141  1.00  0.00     0.050 A 
ATOM      4  C   UNL     1       1.600 -16.681  10.275  1.00  0.00     0.008 A 
ATOM      5  C   UNL     1       1.909 -15.720  11.250  1.00  0.00    -0.040 A 
ATOM      6  C   UNL     1       1.462 -14.400  11.084  1.00  0.00     0.054 A 
ENDROOT
BRANCH   1   7
ATOM      7  O   UNL     1       0.263 -12.722   9.737  1.00  0.00    -0.493 OA
ATOM      8  C   UNL     1      -0.293 -11.897  10.755  1.00  0.00     0.278 C 
ENDBRANCH   1   7
BRANCH   2   9
ATOM      9  O   UNL     1      -0.296 -14.644   7.837  1.00  0.00    -0.504 OA
ATOM     10  H   UNL     1      -0.387 -15.270   7.045  1.00  0.00     0.293 HD
ENDBRANCH   2   9
BRANCH   5  11
ATOM     11  C   UNL     1       2.670 -16.119  12.487  1.00  0.00     0.062 C 
BRANCH  11  12
ATOM     12  C   UNL     1       1.831 -17.001  13.368  1.00  0.00    -0.030 C 
ATOM     13  C   UNL     1       2.213 -18.240  13.689  1.00  0.00     0.004 C 
ENDBRANCH  11  12
ENDBRANCH   5  11
TORSDOF 4
ENDMDL
MODEL 6
REMARK VINA RESULT:    -3.477      4.673      6.588
REMARK INTER + INTRA:          -4.483
REMARK INTER:                  -4.282
REMARK INTRA:                  -0.201
REMARK UNBOUND:                -0.294
REMARK SMILES C=CCc1ccc(O)c(OC)c1
REMARK SMILES IDX 9 1 7 2 6 3 5 4 4 5 12 6 10 7 11 8 8 9 3 11 2 12 1 13
REMARK H PARENT 8 10
REMARK Flexibility Score: inf
ROOT
ATOM      1  C   UNL     1       2.726 -19.542  14.726  1.00  0.00     0.160 A 
ATOM      2  C   UNL     1       1.690 -19.771  15.644  1.00  0.00     0.157 A 
ATOM      3  C   UNL     1       0.620 -18.871  15.735  1.00  0.00     0.050 A 
ATOM      4  C   UNL     1       0.577 -17.742  14.915  1.00  0.00     0.008 A 
ATOM      5  C   UNL     1       1.610 -17.494  14.000  1.00  0.00    -0.040 A 
ATOM      6  C   UNL     1       2.678 -18.400  13.902  1.00  0.00     0.054 A 
ENDROOT
BRANCH   1   7
ATOM      7  O   UNL     1       3.779 -20.469  14.660  1.00  0.00    -0.493 OA
ATOM      8  C   UNL     1       3.825 -21.572  13.762  1.00  0.00     0.278 C 
ENDBRANCH   1   7
BRANCH   2   9
ATOM      9  O   UNL     1       1.733 -20.897  16.464  1.00  0.00    -0.504 OA
ATOM     10  H   UNL     1       1.127 -20.990  17.271  1.00  0.00     0.293 HD
ENDBRANCH   2   9
BRANCH   5  11
ATOM     11  C   UNL     1       1.545 -16.291  13.096  1.00  0.00     0.062 C 
BRANCH  11  12
ATOM     12  C   UNL     1       2.253 -16.560  11.798  1.00  0.00    -0.030 C 
ATOM     13  C   UNL     1       1.734 -16.188  10.624  1.00  0.00     0.004 C 
ENDBRANCH  11  12
ENDBRANCH   5  11
TORSDOF 4
ENDMDL
MODEL 7
REMARK VINA RESULT:    -3.451      2.398      3.395
REMARK INTER + INTRA:          -4.451
REMARK INTER:                  -4.214
REMARK INTRA:                  -0.238
REMARK UNBOUND:                -0.294
REMARK SMILES C=CCc1ccc(O)c(OC)c1
REMARK SMILES IDX 9 1 7 2 6 3 5 4 4 5 12 6 10 7 11 8 8 9 3 11 2 12 1 13
REMARK H PARENT 8 10
REMARK Flexibility Score: inf
ROOT
ATOM      1  C   UNL     1       1.358 -14.687  13.426  1.00  0.00     0.160 A 
ATOM      2  C   UNL     1       1.730 -15.994  13.773  1.00  0.00     0.157 A 
ATOM      3  C   UNL     1       2.075 -16.915  12.776  1.00  0.00     0.050 A 
ATOM      4  C   UNL     1       2.049 -16.542  11.431  1.00  0.00     0.008 A 
ATOM      5  C   UNL     1       1.668 -15.242  11.067  1.00  0.00    -0.040 A 
ATOM      6  C   UNL     1       1.332 -14.315  12.067  1.00  0.00     0.054 A 
ENDROOT
BRANCH   1   7
ATOM      7  O   UNL     1       1.025 -13.790  14.454  1.00  0.00    -0.493 OA
ATOM      8  C   UNL     1       0.344 -12.556  14.256  1.00  0.00     0.278 C 
ENDBRANCH   1   7
BRANCH   2   9
ATOM      9  O   UNL     1       1.756 -16.369  15.115  1.00  0.00    -0.504 OA
ATOM     10  H   UNL     1       1.486 -17.300  15.412  1.00  0.00     0.293 HD
ENDBRANCH   2   9
BRANCH   5  11
ATOM     11  C   UNL     1       1.670 -14.833   9.618  1.00  0.00     0.062 C 
BRANCH  11  12
ATOM     12  C   UNL     1       0.280 -14.872   9.050  1.00  0.00    -0.030 C 
ATOM     13  C   UNL     1      -0.235 -15.989   8.527  1.00  0.00     0.004 C 
ENDBRANCH  11  12
ENDBRANCH   5  11
TORSDOF 4
ENDMDL
MODEL 8
REMARK VINA RESULT:    -3.390      2.747      4.948
REMARK INTER + INTRA:          -4.378
REMARK INTER:                  -4.105
REMARK INTRA:                  -0.273
REMARK UNBOUND:                -0.294
REMARK SMILES C=CCc1ccc(O)c(OC)c1
REMARK SMILES IDX 9 1 7 2 6 3 5 4 4 5 12 6 10 7 11 8 8 9 3 11 2 12 1 13
REMARK H PARENT 8 10
REMARK Flexibility Score: inf
ROOT
ATOM      1  C   UNL     1       2.077 -13.011   8.516  1.00  0.00     0.160 A 
ATOM      2  C   UNL     1       3.453 -12.995   8.243  1.00  0.00     0.157 A 
ATOM      3  C   UNL     1       4.260 -14.069   8.638  1.00  0.00     0.050 A 
ATOM      4  C   UNL     1       3.703 -15.161   9.307  1.00  0.00     0.008 A 
ATOM      5  C   UNL     1       2.331 -15.186   9.597  1.00  0.00    -0.040 A 
ATOM      6  C   UNL     1       1.520 -14.115   9.192  1.00  0.00     0.054 A 
ENDROOT
BRANCH   1   7
ATOM      7  O   UNL     1       1.300 -11.919   8.098  1.00  0.00    -0.493 OA
ATOM      8  C   UNL     1       0.311 -11.977   7.076  1.00  0.00     0.278 C 
ENDBRANCH   1   7
BRANCH   2   9
ATOM      9  O   UNL     1       4.010 -11.906   7.576  1.00  0.00    -0.504 OA
ATOM     10  H   UNL     1       4.400 -11.117   8.081  1.00  0.00     0.293 HD
ENDBRANCH   2   9
BRANCH   5  11
ATOM     11  C   UNL     1       1.728 -16.379  10.291  1.00  0.00     0.062 C 
BRANCH  11  12
ATOM     12  C   UNL     1       2.134 -16.417  11.737  1.00  0.00    -0.030 C 
ATOM     13  C   UNL     1       1.714 -15.495  12.609  1.00  0.00     0.004 C 
ENDBRANCH  11  12
ENDBRANCH   5  11
TORSDOF 4
ENDMDL
MODEL 9
REMARK VINA RESULT:    -3.076      1.790      2.939
REMARK INTER + INTRA:          -3.999
REMARK INTER:                  -3.820
REMARK INTRA:                  -0.179
REMARK UNBOUND:                -0.294
REMARK SMILES C=CCc1ccc(O)c(OC)c1
REMARK SMILES IDX 9 1 7 2 6 3 5 4 4 5 12 6 10 7 11 8 8 9 3 11 2 12 1 13
REMARK H PARENT 8 10
REMARK Flexibility Score: inf
ROOT
ATOM      1  C   UNL     1       1.744 -15.738  10.870  1.00  0.00     0.160 A 
ATOM      2  C   UNL     1       1.196 -16.180   9.657  1.00  0.00     0.157 A 
ATOM      3  C   UNL     1       0.454 -15.301   8.858  1.00  0.00     0.050 A 
ATOM      4  C   UNL     1       0.253 -13.980   9.263  1.00  0.00     0.008 A 
ATOM      5  C   UNL     1       0.785 -13.525  10.479  1.00  0.00    -0.040 A 
ATOM      6  C   UNL     1       1.537 -14.403  11.275  1.00  0.00     0.054 A 
ENDROOT
BRANCH   1   7
ATOM      7  O   UNL     1       2.486 -16.647  11.640  1.00  0.00    -0.493 OA
ATOM      8  C   UNL     1       2.934 -16.399  12.968  1.00  0.00     0.278 C 
ENDBRANCH   1   7
BRANCH   2   9
ATOM      9  O   UNL     1       1.394 -17.499   9.252  1.00  0.00    -0.504 OA
ATOM     10  H   UNL     1       1.655 -17.728   8.300  1.00  0.00     0.293 HD
ENDBRANCH   2   9
BRANCH   5  11
ATOM     11  C   UNL     1       0.593 -12.091  10.897  1.00  0.00     0.062 C 
BRANCH  11  12
ATOM     12  C   UNL     1       0.841 -11.927  12.370  1.00  0.00    -0.030 C 
ATOM     13  C   UNL     1      -0.163 -11.875  13.250  1.00  0.00     0.004 C 
ENDBRANCH  11  12
ENDBRANCH   5  11
TORSDOF 4
ENDMDL
