MODEL 1
REMARK VINA RESULT:    -2.860      0.000      0.000
REMARK INTER + INTRA:          -3.433
REMARK INTER:                  -3.361
REMARK INTRA:                  -0.071
REMARK UNBOUND:                -0.071
REMARK SMILES CCCCC(=O)[O-]
REMARK SMILES IDX 4 1 5 2 6 3 7 4 3 5 2 6 1 7
REMARK H PARENT
REMARK Flexibility Score: inf
ROOT
ATOM      1  C   UNL     1      27.751  20.336  14.523  1.00  0.00     0.053 C 
ENDROOT
BRANCH   1   2
ATOM      2  C   UNL     1      28.165  21.417  13.575  1.00  0.00     0.041 C 
ATOM      3  O   UNL     1      27.737  21.419  12.391  1.00  0.00    -0.550 OA
ATOM      4  O   UNL     1      29.062  22.395  13.985  1.00  0.00    -0.550 OA
ENDBRANCH   1   2
BRANCH   1   5
ATOM      5  C   UNL     1      28.292  20.623  15.930  1.00  0.00     0.006 C 
BRANCH   5   6
ATOM      6  C   UNL     1      27.172  20.870  16.953  1.00  0.00    -0.003 C 
ATOM      7  C   UNL     1      25.822  20.318  16.495  1.00  0.00     0.004 C 
ENDBRANCH   5   6
ENDBRANCH   1   5
TORSDOF 3
ENDMDL
MODEL 2
REMARK VINA RESULT:    -2.792      1.031      1.521
REMARK INTER + INTRA:          -3.354
REMARK INTER:                  -3.326
REMARK INTRA:                  -0.027
REMARK UNBOUND:                -0.071
REMARK SMILES CCCCC(=O)[O-]
REMARK SMILES IDX 4 1 5 2 6 3 7 4 3 5 2 6 1 7
REMARK H PARENT
REMARK Flexibility Score: inf
ROOT
ATOM      1  C   UNL     1      28.680  21.643  14.198  1.00  0.00     0.053 C 
ENDROOT
BRANCH   1   2
ATOM      2  C   UNL     1      28.173  21.719  12.793  1.00  0.00     0.041 C 
ATOM      3  O   UNL     1      28.627  22.587  12.002  1.00  0.00    -0.550 OA
ATOM      4  O   UNL     1      27.162  20.865  12.372  1.00  0.00    -0.550 OA
ENDBRANCH   1   2
BRANCH   1   5
ATOM      5  C   UNL     1      27.946  20.540  14.973  1.00  0.00     0.006 C 
BRANCH   5   6
ATOM      6  C   UNL     1      27.665  20.933  16.433  1.00  0.00    -0.003 C 
ATOM      7  C   UNL     1      26.256  20.551  16.885  1.00  0.00     0.004 C 
ENDBRANCH   5   6
ENDBRANCH   1   5
TORSDOF 3
ENDMDL
MODEL 3
REMARK VINA RESULT:    -2.639     16.339     17.355
REMARK INTER + INTRA:          -3.174
REMARK INTER:                  -3.122
REMARK INTRA:                  -0.052
REMARK UNBOUND:                -0.071
REMARK SMILES CCCCC(=O)[O-]
REMARK SMILES IDX 4 1 5 2 6 3 7 4 3 5 2 6 1 7
REMARK H PARENT
REMARK Flexibility Score: inf
ROOT
ATOM      1  C   UNL     1      10.180  21.447  17.379  1.00  0.00     0.053 C 
ENDROOT
BRANCH   1   2
ATOM      2  C   UNL     1      11.212  21.736  18.423  1.00  0.00     0.041 C 
ATOM      3  O   UNL     1      10.985  22.594  19.317  1.00  0.00    -0.550 OA
ATOM      4  O   UNL     1      12.443  21.095  18.381  1.00  0.00    -0.550 OA
ENDBRANCH   1   2
BRANCH   1   5
ATOM      5  C   UNL     1       9.971  22.672  16.480  1.00  0.00     0.006 C 
BRANCH   5   6
ATOM      6  C   UNL     1      10.063  22.329  14.985  1.00  0.00    -0.003 C 
ATOM      7  C   UNL     1      11.500  22.328  14.466  1.00  0.00     0.004 C 
ENDBRANCH   5   6
ENDBRANCH   1   5
TORSDOF 3
ENDMDL
MODEL 4
REMARK VINA RESULT:    -2.554      2.440      3.912
REMARK INTER + INTRA:          -3.073
REMARK INTER:                  -3.051
REMARK INTRA:                  -0.022
REMARK UNBOUND:                -0.071
REMARK SMILES CCCCC(=O)[O-]
REMARK SMILES IDX 4 1 5 2 6 3 7 4 3 5 2 6 1 7
REMARK H PARENT
REMARK Flexibility Score: inf
ROOT
ATOM      1  C   UNL     1      28.176  20.946  15.690  1.00  0.00     0.053 C 
ENDROOT
BRANCH   1   2
ATOM      2  C   UNL     1      26.808  20.506  16.105  1.00  0.00     0.041 C 
ATOM      3  O   UNL     1      26.463  20.563  17.315  1.00  0.00    -0.550 OA
ATOM      4  O   UNL     1      25.930  19.985  15.163  1.00  0.00    -0.550 OA
ENDBRANCH   1   2
BRANCH   1   5
ATOM      5  C   UNL     1      28.227  21.178  14.174  1.00  0.00     0.006 C 
BRANCH   5   6
ATOM      6  C   UNL     1      29.094  22.387  13.791  1.00  0.00    -0.003 C 
ATOM      7  C   UNL     1      28.927  22.794  12.327  1.00  0.00     0.004 C 
ENDBRANCH   5   6
ENDBRANCH   1   5
TORSDOF 3
ENDMDL
MODEL 5
REMARK VINA RESULT:    -2.261      3.517      4.605
REMARK INTER + INTRA:          -2.729
REMARK INTER:                  -2.708
REMARK INTRA:                  -0.021
REMARK UNBOUND:                -0.071
REMARK SMILES CCCCC(=O)[O-]
REMARK SMILES IDX 4 1 5 2 6 3 7 4 3 5 2 6 1 7
REMARK H PARENT
REMARK Flexibility Score: inf
ROOT
ATOM      1  C   UNL     1      23.718  20.598  15.848  1.00  0.00     0.053 C 
ENDROOT
BRANCH   1   2
ATOM      2  C   UNL     1      22.925  20.112  14.677  1.00  0.00     0.041 C 
ATOM      3  O   UNL     1      23.487  19.923  13.566  1.00  0.00    -0.550 OA
ATOM      4  O   UNL     1      21.556  19.915  14.797  1.00  0.00    -0.550 OA
ENDBRANCH   1   2
BRANCH   1   5
ATOM      5  C   UNL     1      25.070  19.875  15.917  1.00  0.00     0.006 C 
BRANCH   5   6
ATOM      6  C   UNL     1      26.058  20.562  16.872  1.00  0.00    -0.003 C 
ATOM      7  C   UNL     1      27.354  20.981  16.179  1.00  0.00     0.004 C 
ENDBRANCH   5   6
ENDBRANCH   1   5
TORSDOF 3
ENDMDL
MODEL 6
REMARK VINA RESULT:    -2.256      2.243      4.162
REMARK INTER + INTRA:          -2.723
REMARK INTER:                  -2.702
REMARK INTRA:                  -0.022
REMARK UNBOUND:                -0.071
REMARK SMILES CCCCC(=O)[O-]
REMARK SMILES IDX 4 1 5 2 6 3 7 4 3 5 2 6 1 7
REMARK H PARENT
REMARK Flexibility Score: inf
ROOT
ATOM      1  C   UNL     1      28.545  21.408  14.342  1.00  0.00     0.053 C 
ENDROOT
BRANCH   1   2
ATOM      2  C   UNL     1      27.624  20.797  15.350  1.00  0.00     0.041 C 
ATOM      3  O   UNL     1      27.875  20.898  16.580  1.00  0.00    -0.550 OA
ATOM      4  O   UNL     1      26.517  20.071  14.930  1.00  0.00    -0.550 OA
ENDBRANCH   1   2
BRANCH   1   5
ATOM      5  C   UNL     1      27.996  21.205  12.923  1.00  0.00     0.006 C 
BRANCH   5   6
ATOM      6  C   UNL     1      28.566  22.219  11.919  1.00  0.00    -0.003 C 
ATOM      7  C   UNL     1      29.074  21.559  10.638  1.00  0.00     0.004 C 
ENDBRANCH   5   6
ENDBRANCH   1   5
TORSDOF 3
ENDMDL
MODEL 7
REMARK VINA RESULT:    -2.090      2.090      3.181
REMARK INTER + INTRA:          -2.528
REMARK INTER:                  -2.482
REMARK INTRA:                  -0.046
REMARK UNBOUND:                -0.071
REMARK SMILES CCCCC(=O)[O-]
REMARK SMILES IDX 4 1 5 2 6 3 7 4 3 5 2 6 1 7
REMARK H PARENT
REMARK Flexibility Score: inf
ROOT
ATOM      1  C   UNL     1      28.240  22.244  12.017  1.00  0.00     0.053 C 
ENDROOT
BRANCH   1   2
ATOM      2  C   UNL     1      29.132  21.738  10.929  1.00  0.00     0.041 C 
ATOM      3  O   UNL     1      30.124  22.418  10.556  1.00  0.00    -0.550 OA
ATOM      4  O   UNL     1      28.841  20.538  10.293  1.00  0.00    -0.550 OA
ENDBRANCH   1   2
BRANCH   1   5
ATOM      5  C   UNL     1      27.842  21.100  12.959  1.00  0.00     0.006 C 
BRANCH   5   6
ATOM      6  C   UNL     1      28.752  21.008  14.194  1.00  0.00    -0.003 C 
ATOM      7  C   UNL     1      27.969  21.006  15.506  1.00  0.00     0.004 C 
ENDBRANCH   5   6
ENDBRANCH   1   5
TORSDOF 3
ENDMDL
MODEL 8
REMARK VINA RESULT:    -2.048     17.170     17.715
REMARK INTER + INTRA:          -2.479
REMARK INTER:                  -2.372
REMARK INTRA:                  -0.106
REMARK UNBOUND:                -0.071
REMARK SMILES CCCCC(=O)[O-]
REMARK SMILES IDX 4 1 5 2 6 3 7 4 3 5 2 6 1 7
REMARK H PARENT
REMARK Flexibility Score: inf
ROOT
ATOM      1  C   UNL     1      10.617  22.978  20.035  1.00  0.00     0.053 C 
ENDROOT
BRANCH   1   2
ATOM      2  C   UNL     1      11.006  22.010  18.963  1.00  0.00     0.041 C 
ATOM      3  O   UNL     1      11.743  21.025  19.236  1.00  0.00    -0.550 OA
ATOM      4  O   UNL     1      10.599  22.222  17.653  1.00  0.00    -0.550 OA
ENDBRANCH   1   2
BRANCH   1   5
ATOM      5  C   UNL     1      10.168  22.227  21.296  1.00  0.00     0.006 C 
BRANCH   5   6
ATOM      6  C   UNL     1      11.105  22.469  22.490  1.00  0.00    -0.003 C 
ATOM      7  C   UNL     1      11.949  21.243  22.837  1.00  0.00     0.004 C 
ENDBRANCH   5   6
ENDBRANCH   1   5
TORSDOF 3
ENDMDL
MODEL 9
REMARK VINA RESULT:    -2.037     12.792     14.131
REMARK INTER + INTRA:          -2.465
REMARK INTER:                  -2.441
REMARK INTRA:                  -0.024
REMARK UNBOUND:                -0.071
REMARK SMILES CCCCC(=O)[O-]
REMARK SMILES IDX 4 1 5 2 6 3 7 4 3 5 2 6 1 7
REMARK H PARENT
REMARK Flexibility Score: inf
ROOT
ATOM      1  C   UNL     1      13.897  19.962  16.643  1.00  0.00     0.053 C 
ENDROOT
BRANCH   1   2
ATOM      2  C   UNL     1      15.292  20.494  16.554  1.00  0.00     0.041 C 
ATOM      3  O   UNL     1      16.241  19.875  17.104  1.00  0.00    -0.550 OA
ATOM      4  O   UNL     1      15.537  21.698  15.908  1.00  0.00    -0.550 OA
ENDBRANCH   1   2
BRANCH   1   5
ATOM      5  C   UNL     1      13.297  20.260  18.023  1.00  0.00     0.006 C 
BRANCH   5   6
ATOM      6  C   UNL     1      11.964  21.020  17.936  1.00  0.00    -0.003 C 
ATOM      7  C   UNL     1      11.269  21.149  19.291  1.00  0.00     0.004 C 
ENDBRANCH   5   6
ENDBRANCH   1   5
TORSDOF 3
ENDMDL
