MODEL 1
REMARK VINA RESULT:    -3.906      0.000      0.000
REMARK INTER + INTRA:          -9.593
REMARK INTER:                  -7.102
REMARK INTRA:                  -2.490
REMARK UNBOUND:                -2.490
REMARK SMILES CCCCCCCCCCCCCC[C@H](C)C(=O)[O-]
REMARK SMILES IDX 9 1 10 2 11 3 12 4 13 5 14 6 15 7 16 8 17 9 18 10 19 11 8 12
REMARK SMILES IDX 7 13 6 14 5 15 4 16 3 17 2 18 1 19
REMARK H PARENT
REMARK Flexibility Score: inf
ROOT
ATOM      1  C   UNL     1      -6.798   2.942  54.525  1.00  0.00     0.000 C 
ENDROOT
BRANCH   1   2
ATOM      2  C   UNL     1      -8.287   3.251  54.745  1.00  0.00     0.000 C 
BRANCH   2   3
ATOM      3  C   UNL     1      -8.541   4.738  55.045  1.00  0.00     0.000 C 
BRANCH   3   4
ATOM      4  C   UNL     1      -7.251   5.514  55.366  1.00  0.00     0.000 C 
BRANCH   4   5
ATOM      5  C   UNL     1      -7.358   6.517  56.530  1.00  0.00     0.001 C 
BRANCH   5   6
ATOM      6  C   UNL     1      -7.278   5.914  57.950  1.00  0.00     0.009 C 
BRANCH   6   7
ATOM      7  C   UNL     1      -6.415   4.636  58.122  1.00  0.00     0.032 C 
ATOM      8  C   UNL     1      -7.252   3.373  58.377  1.00  0.00     0.014 C 
BRANCH   7   9
ATOM      9  C   UNL     1      -5.315   4.821  59.137  1.00  0.00     0.044 C 
ATOM     10  O   UNL     1      -4.902   3.858  59.838  1.00  0.00    -0.550 OA
ATOM     11  O   UNL     1      -4.730   6.071  59.293  1.00  0.00    -0.550 OA
ENDBRANCH   7   9
ENDBRANCH   6   7
ENDBRANCH   5   6
ENDBRANCH   4   5
ENDBRANCH   3   4
ENDBRANCH   2   3
ENDBRANCH   1   2
BRANCH   1  12
ATOM     12  C   UNL     1      -6.444   2.752  53.039  1.00  0.00     0.000 C 
BRANCH  12  13
ATOM     13  C   UNL     1      -7.689   2.613  52.145  1.00  0.00    -0.000 C 
BRANCH  13  14
ATOM     14  C   UNL     1      -7.708   3.539  50.913  1.00  0.00    -0.000 C 
BRANCH  14  15
ATOM     15  C   UNL     1      -7.194   4.970  51.159  1.00  0.00    -0.000 C 
BRANCH  15  16
ATOM     16  C   UNL     1      -8.242   5.950  51.718  1.00  0.00    -0.000 C 
BRANCH  16  17
ATOM     17  C   UNL     1      -9.635   5.746  51.106  1.00  0.00    -0.000 C 
BRANCH  17  18
ATOM     18  C   UNL     1     -10.709   5.678  52.197  1.00  0.00    -0.003 C 
ATOM     19  C   UNL     1     -11.196   4.248  52.405  1.00  0.00     0.004 C 
ENDBRANCH  17  18
ENDBRANCH  16  17
ENDBRANCH  15  16
ENDBRANCH  14  15
ENDBRANCH  13  14
ENDBRANCH  12  13
ENDBRANCH   1  12
TORSDOF 14
ENDMDL
MODEL 2
REMARK VINA RESULT:    -3.889      1.290      2.218
REMARK INTER + INTRA:          -9.561
REMARK INTER:                  -7.441
REMARK INTRA:                  -2.121
REMARK UNBOUND:                -2.490
REMARK SMILES CCCCCCCCCCCCCC[C@H](C)C(=O)[O-]
REMARK SMILES IDX 9 1 10 2 11 3 12 4 13 5 14 6 15 7 16 8 17 9 18 10 19 11 8 12
REMARK SMILES IDX 7 13 6 14 5 15 4 16 3 17 2 18 1 19
REMARK H PARENT
REMARK Flexibility Score: inf
ROOT
ATOM      1  C   UNL     1      -7.415   2.863  52.863  1.00  0.00     0.000 C 
ENDROOT
BRANCH   1   2
ATOM      2  C   UNL     1      -5.966   3.188  53.263  1.00  0.00     0.000 C 
BRANCH   2   3
ATOM      3  C   UNL     1      -5.888   4.111  54.491  1.00  0.00     0.000 C 
BRANCH   3   4
ATOM      4  C   UNL     1      -7.269   4.426  55.093  1.00  0.00     0.000 C 
BRANCH   4   5
ATOM      5  C   UNL     1      -7.358   5.747  55.879  1.00  0.00     0.001 C 
BRANCH   5   6
ATOM      6  C   UNL     1      -6.252   5.982  56.932  1.00  0.00     0.009 C 
BRANCH   6   7
ATOM      7  C   UNL     1      -6.331   5.142  58.233  1.00  0.00     0.032 C 
ATOM      8  C   UNL     1      -6.799   5.955  59.450  1.00  0.00     0.014 C 
BRANCH   7   9
ATOM      9  C   UNL     1      -5.059   4.375  58.498  1.00  0.00     0.044 C 
ATOM     10  O   UNL     1      -4.674   3.458  57.724  1.00  0.00    -0.550 OA
ATOM     11  O   UNL     1      -4.286   4.694  59.607  1.00  0.00    -0.550 OA
ENDBRANCH   7   9
ENDBRANCH   6   7
ENDBRANCH   5   6
ENDBRANCH   4   5
ENDBRANCH   3   4
ENDBRANCH   2   3
ENDBRANCH   1   2
BRANCH   1  12
ATOM     12  C   UNL     1      -7.727   3.239  51.404  1.00  0.00     0.000 C 
BRANCH  12  13
ATOM     13  C   UNL     1      -7.319   4.684  51.063  1.00  0.00    -0.000 C 
BRANCH  13  14
ATOM     14  C   UNL     1      -8.233   5.773  51.658  1.00  0.00    -0.000 C 
BRANCH  14  15
ATOM     15  C   UNL     1      -9.647   5.849  51.048  1.00  0.00    -0.000 C 
BRANCH  15  16
ATOM     16  C   UNL     1     -10.798   5.810  52.070  1.00  0.00    -0.000 C 
BRANCH  16  17
ATOM     17  C   UNL     1     -10.475   4.951  53.300  1.00  0.00    -0.000 C 
BRANCH  17  18
ATOM     18  C   UNL     1     -10.910   5.656  54.590  1.00  0.00    -0.003 C 
ATOM     19  C   UNL     1     -10.569   7.142  54.549  1.00  0.00     0.004 C 
ENDBRANCH  17  18
ENDBRANCH  16  17
ENDBRANCH  15  16
ENDBRANCH  14  15
ENDBRANCH  13  14
ENDBRANCH  12  13
ENDBRANCH   1  12
TORSDOF 14
ENDMDL
MODEL 3
REMARK VINA RESULT:    -3.867      2.019      2.797
REMARK INTER + INTRA:          -9.522
REMARK INTER:                  -7.992
REMARK INTRA:                  -1.531
REMARK UNBOUND:                -2.490
REMARK SMILES CCCCCCCCCCCCCC[C@H](C)C(=O)[O-]
REMARK SMILES IDX 9 1 10 2 11 3 12 4 13 5 14 6 15 7 16 8 17 9 18 10 19 11 8 12
REMARK SMILES IDX 7 13 6 14 5 15 4 16 3 17 2 18 1 19
REMARK H PARENT
REMARK Flexibility Score: inf
ROOT
ATOM      1  C   UNL     1      -7.319   4.235  55.227  1.00  0.00     0.000 C 
ENDROOT
BRANCH   1   2
ATOM      2  C   UNL     1      -7.807   5.687  55.099  1.00  0.00     0.000 C 
BRANCH   2   3
ATOM      3  C   UNL     1      -7.519   6.518  56.360  1.00  0.00     0.000 C 
BRANCH   3   4
ATOM      4  C   UNL     1      -7.428   5.661  57.635  1.00  0.00     0.000 C 
BRANCH   4   5
ATOM      5  C   UNL     1      -6.132   5.830  58.450  1.00  0.00     0.001 C 
BRANCH   5   6
ATOM      6  C   UNL     1      -6.304   5.910  59.983  1.00  0.00     0.009 C 
BRANCH   6   7
ATOM      7  C   UNL     1      -7.756   5.969  60.525  1.00  0.00     0.032 C 
ATOM      8  C   UNL     1      -8.030   7.213  61.385  1.00  0.00     0.014 C 
BRANCH   7   9
ATOM      9  C   UNL     1      -8.166   4.688  61.207  1.00  0.00     0.044 C 
ATOM     10  O   UNL     1      -7.454   3.650  61.131  1.00  0.00    -0.550 OA
ATOM     11  O   UNL     1      -9.341   4.650  61.946  1.00  0.00    -0.550 OA
ENDBRANCH   7   9
ENDBRANCH   6   7
ENDBRANCH   5   6
ENDBRANCH   4   5
ENDBRANCH   3   4
ENDBRANCH   2   3
ENDBRANCH   1   2
BRANCH   1  12
ATOM     12  C   UNL     1      -5.837   4.071  54.848  1.00  0.00     0.000 C 
BRANCH  12  13
ATOM     13  C   UNL     1      -5.646   3.560  53.408  1.00  0.00    -0.000 C 
BRANCH  13  14
ATOM     14  C   UNL     1      -6.744   2.598  52.912  1.00  0.00    -0.000 C 
BRANCH  14  15
ATOM     15  C   UNL     1      -7.573   3.108  51.716  1.00  0.00    -0.000 C 
BRANCH  15  16
ATOM     16  C   UNL     1      -7.164   4.496  51.188  1.00  0.00    -0.000 C 
BRANCH  16  17
ATOM     17  C   UNL     1      -8.258   5.555  51.388  1.00  0.00    -0.000 C 
BRANCH  17  18
ATOM     18  C   UNL     1      -9.632   4.899  51.560  1.00  0.00    -0.003 C 
ATOM     19  C   UNL     1     -10.747   5.940  51.539  1.00  0.00     0.004 C 
ENDBRANCH  17  18
ENDBRANCH  16  17
ENDBRANCH  15  16
ENDBRANCH  14  15
ENDBRANCH  13  14
ENDBRANCH  12  13
ENDBRANCH   1  12
TORSDOF 14
ENDMDL
MODEL 4
REMARK VINA RESULT:    -3.838      1.702      2.992
REMARK INTER + INTRA:          -9.470
REMARK INTER:                  -7.716
REMARK INTRA:                  -1.754
REMARK UNBOUND:                -2.490
REMARK SMILES CCCCCCCCCCCCCC[C@H](C)C(=O)[O-]
REMARK SMILES IDX 9 1 10 2 11 3 12 4 13 5 14 6 15 7 16 8 17 9 18 10 19 11 8 12
REMARK SMILES IDX 7 13 6 14 5 15 4 16 3 17 2 18 1 19
REMARK H PARENT
REMARK Flexibility Score: inf
ROOT
ATOM      1  C   UNL     1      -6.797   5.019  55.505  1.00  0.00     0.000 C 
ENDROOT
BRANCH   1   2
ATOM      2  C   UNL     1      -6.172   5.804  56.670  1.00  0.00     0.000 C 
BRANCH   2   3
ATOM      3  C   UNL     1      -7.110   5.902  57.885  1.00  0.00     0.000 C 
BRANCH   3   4
ATOM      4  C   UNL     1      -6.360   5.838  59.227  1.00  0.00     0.000 C 
BRANCH   4   5
ATOM      5  C   UNL     1      -4.890   5.386  59.139  1.00  0.00     0.001 C 
BRANCH   5   6
ATOM      6  C   UNL     1      -4.579   3.984  59.709  1.00  0.00     0.009 C 
BRANCH   6   7
ATOM      7  C   UNL     1      -4.626   2.795  58.714  1.00  0.00     0.032 C 
ATOM      8  C   UNL     1      -6.040   2.226  58.519  1.00  0.00     0.014 C 
BRANCH   7   9
ATOM      9  C   UNL     1      -3.609   1.731  59.044  1.00  0.00     0.044 C 
ATOM     10  O   UNL     1      -3.891   0.506  58.954  1.00  0.00    -0.550 OA
ATOM     11  O   UNL     1      -2.331   2.104  59.442  1.00  0.00    -0.550 OA
ENDBRANCH   7   9
ENDBRANCH   6   7
ENDBRANCH   5   6
ENDBRANCH   4   5
ENDBRANCH   3   4
ENDBRANCH   2   3
ENDBRANCH   1   2
BRANCH   1  12
ATOM     12  C   UNL     1      -5.922   3.840  55.045  1.00  0.00     0.000 C 
BRANCH  12  13
ATOM     13  C   UNL     1      -6.741   2.712  54.392  1.00  0.00    -0.000 C 
BRANCH  13  14
ATOM     14  C   UNL     1      -6.452   2.485  52.895  1.00  0.00    -0.000 C 
BRANCH  14  15
ATOM     15  C   UNL     1      -7.422   3.186  51.925  1.00  0.00    -0.000 C 
BRANCH  15  16
ATOM     16  C   UNL     1      -6.927   4.535  51.372  1.00  0.00    -0.000 C 
BRANCH  16  17
ATOM     17  C   UNL     1      -7.826   5.711  51.777  1.00  0.00    -0.000 C 
BRANCH  17  18
ATOM     18  C   UNL     1      -9.281   5.258  51.943  1.00  0.00    -0.003 C 
ATOM     19  C   UNL     1     -10.185   5.914  50.905  1.00  0.00     0.004 C 
ENDBRANCH  17  18
ENDBRANCH  16  17
ENDBRANCH  15  16
ENDBRANCH  14  15
ENDBRANCH  13  14
ENDBRANCH  12  13
ENDBRANCH   1  12
TORSDOF 14
ENDMDL
MODEL 5
REMARK VINA RESULT:    -3.838      8.542     10.528
REMARK INTER + INTRA:          -9.469
REMARK INTER:                  -7.238
REMARK INTRA:                  -2.231
REMARK UNBOUND:                -2.490
REMARK SMILES CCCCCCCCCCCCCC[C@H](C)C(=O)[O-]
REMARK SMILES IDX 9 1 10 2 11 3 12 4 13 5 14 6 15 7 16 8 17 9 18 10 19 11 8 12
REMARK SMILES IDX 7 13 6 14 5 15 4 16 3 17 2 18 1 19
REMARK H PARENT
REMARK Flexibility Score: inf
ROOT
ATOM      1  C   UNL     1      -1.661   0.254  57.029  1.00  0.00     0.000 C 
ENDROOT
BRANCH   1   2
ATOM      2  C   UNL     1      -1.677   1.592  57.786  1.00  0.00     0.000 C 
BRANCH   2   3
ATOM      3  C   UNL     1      -1.717   1.405  59.312  1.00  0.00     0.000 C 
BRANCH   3   4
ATOM      4  C   UNL     1      -0.747   2.340  60.056  1.00  0.00     0.000 C 
BRANCH   4   5
ATOM      5  C   UNL     1       0.412   1.638  60.787  1.00  0.00     0.001 C 
BRANCH   5   6
ATOM      6  C   UNL     1       1.656   1.317  59.929  1.00  0.00     0.009 C 
BRANCH   6   7
ATOM      7  C   UNL     1       1.801  -0.142  59.422  1.00  0.00     0.032 C 
ATOM      8  C   UNL     1       0.805  -1.111  60.077  1.00  0.00     0.014 C 
BRANCH   7   9
ATOM      9  C   UNL     1       3.225  -0.634  59.491  1.00  0.00     0.044 C 
ATOM     10  O   UNL     1       4.004  -0.257  60.408  1.00  0.00    -0.550 OA
ATOM     11  O   UNL     1       3.687  -1.533  58.538  1.00  0.00    -0.550 OA
ENDBRANCH   7   9
ENDBRANCH   6   7
ENDBRANCH   5   6
ENDBRANCH   4   5
ENDBRANCH   3   4
ENDBRANCH   2   3
ENDBRANCH   1   2
BRANCH   1  12
ATOM     12  C   UNL     1      -0.324  -0.007  56.312  1.00  0.00     0.000 C 
BRANCH  12  13
ATOM     13  C   UNL     1       0.568   1.245  56.247  1.00  0.00    -0.000 C 
BRANCH  13  14
ATOM     14  C   UNL     1       2.038   0.974  55.869  1.00  0.00    -0.000 C 
BRANCH  14  15
ATOM     15  C   UNL     1       2.416   1.314  54.414  1.00  0.00    -0.000 C 
BRANCH  15  16
ATOM     16  C   UNL     1       2.054   0.232  53.379  1.00  0.00    -0.000 C 
BRANCH  16  17
ATOM     17  C   UNL     1       2.904  -1.038  53.522  1.00  0.00    -0.000 C 
BRANCH  17  18
ATOM     18  C   UNL     1       2.025  -2.256  53.825  1.00  0.00    -0.003 C 
ATOM     19  C   UNL     1       0.631  -2.094  53.225  1.00  0.00     0.004 C 
ENDBRANCH  17  18
ENDBRANCH  16  17
ENDBRANCH  15  16
ENDBRANCH  14  15
ENDBRANCH  13  14
ENDBRANCH  12  13
ENDBRANCH   1  12
TORSDOF 14
ENDMDL
MODEL 6
REMARK VINA RESULT:    -3.828      9.502     11.555
REMARK INTER + INTRA:          -9.452
REMARK INTER:                  -6.924
REMARK INTRA:                  -2.528
REMARK UNBOUND:                -2.490
REMARK SMILES CCCCCCCCCCCCCC[C@H](C)C(=O)[O-]
REMARK SMILES IDX 9 1 10 2 11 3 12 4 13 5 14 6 15 7 16 8 17 9 18 10 19 11 8 12
REMARK SMILES IDX 7 13 6 14 5 15 4 16 3 17 2 18 1 19
REMARK H PARENT
REMARK Flexibility Score: inf
ROOT
ATOM      1  C   UNL     1       3.192  -0.850  54.190  1.00  0.00     0.000 C 
ENDROOT
BRANCH   1   2
ATOM      2  C   UNL     1       3.064   0.269  55.236  1.00  0.00     0.000 C 
BRANCH   2   3
ATOM      3  C   UNL     1       2.255   1.470  54.717  1.00  0.00     0.000 C 
BRANCH   3   4
ATOM      4  C   UNL     1       1.328   2.076  55.786  1.00  0.00     0.000 C 
BRANCH   4   5
ATOM      5  C   UNL     1       0.607   1.055  56.685  1.00  0.00     0.001 C 
BRANCH   5   6
ATOM      6  C   UNL     1       0.296   1.522  58.124  1.00  0.00     0.009 C 
BRANCH   6   7
ATOM      7  C   UNL     1       1.336   1.163  59.218  1.00  0.00     0.032 C 
ATOM      8  C   UNL     1       2.132  -0.111  58.899  1.00  0.00     0.014 C 
BRANCH   7   9
ATOM      9  C   UNL     1       0.730   1.142  60.599  1.00  0.00     0.044 C 
ATOM     10  O   UNL     1       0.577   2.202  61.264  1.00  0.00    -0.550 OA
ATOM     11  O   UNL     1       0.317  -0.066  61.147  1.00  0.00    -0.550 OA
ENDBRANCH   7   9
ENDBRANCH   6   7
ENDBRANCH   5   6
ENDBRANCH   4   5
ENDBRANCH   3   4
ENDBRANCH   2   3
ENDBRANCH   1   2
BRANCH   1  12
ATOM     12  C   UNL     1       1.931  -0.997  53.320  1.00  0.00     0.000 C 
BRANCH  12  13
ATOM     13  C   UNL     1       1.150  -2.289  53.620  1.00  0.00    -0.000 C 
BRANCH  13  14
ATOM     14  C   UNL     1       0.133  -2.177  54.774  1.00  0.00    -0.000 C 
BRANCH  14  15
ATOM     15  C   UNL     1       0.627  -2.697  56.138  1.00  0.00    -0.000 C 
BRANCH  15  16
ATOM     16  C   UNL     1       1.779  -3.717  56.065  1.00  0.00    -0.000 C 
BRANCH  16  17
ATOM     17  C   UNL     1       2.960  -3.348  56.975  1.00  0.00    -0.000 C 
BRANCH  17  18
ATOM     18  C   UNL     1       4.296  -3.612  56.272  1.00  0.00    -0.003 C 
ATOM     19  C   UNL     1       4.095  -4.396  54.979  1.00  0.00     0.004 C 
ENDBRANCH  17  18
ENDBRANCH  16  17
ENDBRANCH  15  16
ENDBRANCH  14  15
ENDBRANCH  13  14
ENDBRANCH  12  13
ENDBRANCH   1  12
TORSDOF 14
ENDMDL
MODEL 7
REMARK VINA RESULT:    -3.820      1.402      2.410
REMARK INTER + INTRA:          -9.437
REMARK INTER:                  -6.873
REMARK INTRA:                  -2.563
REMARK UNBOUND:                -2.490
REMARK SMILES CCCCCCCCCCCCCC[C@H](C)C(=O)[O-]
REMARK SMILES IDX 9 1 10 2 11 3 12 4 13 5 14 6 15 7 16 8 17 9 18 10 19 11 8 12
REMARK SMILES IDX 7 13 6 14 5 15 4 16 3 17 2 18 1 19
REMARK H PARENT
REMARK Flexibility Score: inf
ROOT
ATOM      1  C   UNL     1      -7.435   2.247  52.519  1.00  0.00     0.000 C 
ENDROOT
BRANCH   1   2
ATOM      2  C   UNL     1      -6.183   2.798  53.222  1.00  0.00     0.000 C 
BRANCH   2   3
ATOM      3  C   UNL     1      -6.440   3.140  54.699  1.00  0.00     0.000 C 
BRANCH   3   4
ATOM      4  C   UNL     1      -6.198   4.625  55.021  1.00  0.00     0.000 C 
BRANCH   4   5
ATOM      5  C   UNL     1      -6.791   5.114  56.356  1.00  0.00     0.001 C 
BRANCH   5   6
ATOM      6  C   UNL     1      -6.714   4.117  57.534  1.00  0.00     0.009 C 
BRANCH   6   7
ATOM      7  C   UNL     1      -5.575   4.335  58.564  1.00  0.00     0.032 C 
ATOM      8  C   UNL     1      -4.972   5.747  58.507  1.00  0.00     0.014 C 
BRANCH   7   9
ATOM      9  C   UNL     1      -4.528   3.251  58.499  1.00  0.00     0.044 C 
ATOM     10  O   UNL     1      -4.179   2.615  59.530  1.00  0.00    -0.550 OA
ATOM     11  O   UNL     1      -3.947   2.933  57.278  1.00  0.00    -0.550 OA
ENDBRANCH   7   9
ENDBRANCH   6   7
ENDBRANCH   5   6
ENDBRANCH   4   5
ENDBRANCH   3   4
ENDBRANCH   2   3
ENDBRANCH   1   2
BRANCH   1  12
ATOM     12  C   UNL     1      -7.917   3.150  51.370  1.00  0.00     0.000 C 
BRANCH  12  13
ATOM     13  C   UNL     1      -7.074   4.429  51.227  1.00  0.00    -0.000 C 
BRANCH  13  14
ATOM     14  C   UNL     1      -7.794   5.729  51.637  1.00  0.00    -0.000 C 
BRANCH  14  15
ATOM     15  C   UNL     1      -9.329   5.625  51.741  1.00  0.00    -0.000 C 
BRANCH  15  16
ATOM     16  C   UNL     1      -9.941   6.283  52.991  1.00  0.00    -0.000 C 
BRANCH  16  17
ATOM     17  C   UNL     1      -9.817   5.408  54.247  1.00  0.00    -0.000 C 
BRANCH  17  18
ATOM     18  C   UNL     1     -10.386   4.007  53.997  1.00  0.00    -0.003 C 
ATOM     19  C   UNL     1     -10.028   3.055  55.134  1.00  0.00     0.004 C 
ENDBRANCH  17  18
ENDBRANCH  16  17
ENDBRANCH  15  16
ENDBRANCH  14  15
ENDBRANCH  13  14
ENDBRANCH  12  13
ENDBRANCH   1  12
TORSDOF 14
ENDMDL
MODEL 8
REMARK VINA RESULT:    -3.803      8.517     10.733
REMARK INTER + INTRA:          -9.406
REMARK INTER:                  -7.863
REMARK INTRA:                  -1.543
REMARK UNBOUND:                -2.490
REMARK SMILES CCCCCCCCCCCCCC[C@H](C)C(=O)[O-]
REMARK SMILES IDX 9 1 10 2 11 3 12 4 13 5 14 6 15 7 16 8 17 9 18 10 19 11 8 12
REMARK SMILES IDX 7 13 6 14 5 15 4 16 3 17 2 18 1 19
REMARK H PARENT
REMARK Flexibility Score: inf
ROOT
ATOM      1  C   UNL     1       2.179   0.365  56.288  1.00  0.00     0.000 C 
ENDROOT
BRANCH   1   2
ATOM      2  C   UNL     1       0.967   1.312  56.298  1.00  0.00     0.000 C 
BRANCH   2   3
ATOM      3  C   UNL     1      -0.347   0.581  56.621  1.00  0.00     0.000 C 
BRANCH   3   4
ATOM      4  C   UNL     1      -1.328   1.444  57.436  1.00  0.00     0.000 C 
BRANCH   4   5
ATOM      5  C   UNL     1      -1.546   0.993  58.892  1.00  0.00     0.001 C 
BRANCH   5   6
ATOM      6  C   UNL     1      -1.001   1.942  59.982  1.00  0.00     0.009 C 
BRANCH   6   7
ATOM      7  C   UNL     1       0.397   1.610  60.568  1.00  0.00     0.032 C 
ATOM      8  C   UNL     1       1.523   2.459  59.959  1.00  0.00     0.014 C 
BRANCH   7   9
ATOM      9  C   UNL     1       0.696   0.132  60.533  1.00  0.00     0.044 C 
ATOM     10  O   UNL     1       1.476  -0.358  59.673  1.00  0.00    -0.550 OA
ATOM     11  O   UNL     1       0.115  -0.707  61.476  1.00  0.00    -0.550 OA
ENDBRANCH   7   9
ENDBRANCH   6   7
ENDBRANCH   5   6
ENDBRANCH   4   5
ENDBRANCH   3   4
ENDBRANCH   2   3
ENDBRANCH   1   2
BRANCH   1  12
ATOM     12  C   UNL     1       3.106   0.601  55.083  1.00  0.00     0.000 C 
BRANCH  12  13
ATOM     13  C   UNL     1       2.358   0.549  53.739  1.00  0.00    -0.000 C 
BRANCH  13  14
ATOM     14  C   UNL     1       2.007  -0.870  53.248  1.00  0.00    -0.000 C 
BRANCH  14  15
ATOM     15  C   UNL     1       2.968  -1.982  53.712  1.00  0.00    -0.000 C 
BRANCH  15  16
ATOM     16  C   UNL     1       2.291  -3.176  54.409  1.00  0.00    -0.000 C 
BRANCH  16  17
ATOM     17  C   UNL     1       0.880  -3.457  53.874  1.00  0.00    -0.000 C 
BRANCH  17  18
ATOM     18  C   UNL     1       0.668  -4.958  53.647  1.00  0.00    -0.003 C 
ATOM     19  C   UNL     1       1.457  -5.786  54.656  1.00  0.00     0.004 C 
ENDBRANCH  17  18
ENDBRANCH  16  17
ENDBRANCH  15  16
ENDBRANCH  14  15
ENDBRANCH  13  14
ENDBRANCH  12  13
ENDBRANCH   1  12
TORSDOF 14
ENDMDL
MODEL 9
REMARK VINA RESULT:    -3.791      1.110      3.034
REMARK INTER + INTRA:          -9.384
REMARK INTER:                  -6.983
REMARK INTRA:                  -2.401
REMARK UNBOUND:                -2.490
REMARK SMILES CCCCCCCCCCCCCC[C@H](C)C(=O)[O-]
REMARK SMILES IDX 9 1 10 2 11 3 12 4 13 5 14 6 15 7 16 8 17 9 18 10 19 11 8 12
REMARK SMILES IDX 7 13 6 14 5 15 4 16 3 17 2 18 1 19
REMARK H PARENT
REMARK Flexibility Score: inf
ROOT
ATOM      1  C   UNL     1     -10.818   4.248  53.227  1.00  0.00     0.000 C 
ENDROOT
BRANCH   1   2
ATOM      2  C   UNL     1     -10.185   3.336  54.290  1.00  0.00     0.000 C 
BRANCH   2   3
ATOM      3  C   UNL     1      -9.341   4.118  55.311  1.00  0.00     0.000 C 
BRANCH   3   4
ATOM      4  C   UNL     1      -8.980   5.535  54.830  1.00  0.00     0.000 C 
BRANCH   4   5
ATOM      5  C   UNL     1      -8.389   6.464  55.907  1.00  0.00     0.001 C 
BRANCH   5   6
ATOM      6  C   UNL     1      -6.964   6.116  56.391  1.00  0.00     0.009 C 
BRANCH   6   7
ATOM      7  C   UNL     1      -6.844   5.399  57.761  1.00  0.00     0.032 C 
ATOM      8  C   UNL     1      -7.684   6.061  58.864  1.00  0.00     0.014 C 
BRANCH   7   9
ATOM      9  C   UNL     1      -5.408   5.183  58.171  1.00  0.00     0.044 C 
ATOM     10  O   UNL     1      -4.745   6.094  58.736  1.00  0.00    -0.550 OA
ATOM     11  O   UNL     1      -4.807   3.953  57.938  1.00  0.00    -0.550 OA
ENDBRANCH   7   9
ENDBRANCH   6   7
ENDBRANCH   5   6
ENDBRANCH   4   5
ENDBRANCH   3   4
ENDBRANCH   2   3
ENDBRANCH   1   2
BRANCH   1  12
ATOM     12  C   UNL     1     -10.925   3.571  51.850  1.00  0.00     0.000 C 
BRANCH  12  13
ATOM     13  C   UNL     1     -10.206   4.362  50.742  1.00  0.00    -0.000 C 
BRANCH  13  14
ATOM     14  C   UNL     1      -9.403   5.583  51.235  1.00  0.00    -0.000 C 
BRANCH  14  15
ATOM     15  C   UNL     1      -7.893   5.342  51.426  1.00  0.00    -0.000 C 
BRANCH  15  16
ATOM     16  C   UNL     1      -7.409   3.928  51.057  1.00  0.00    -0.000 C 
BRANCH  16  17
ATOM     17  C   UNL     1      -7.076   3.072  52.287  1.00  0.00    -0.000 C 
BRANCH  17  18
ATOM     18  C   UNL     1      -6.058   3.779  53.189  1.00  0.00    -0.003 C 
ATOM     19  C   UNL     1      -5.986   3.120  54.563  1.00  0.00     0.004 C 
ENDBRANCH  17  18
ENDBRANCH  16  17
ENDBRANCH  15  16
ENDBRANCH  14  15
ENDBRANCH  13  14
ENDBRANCH  12  13
ENDBRANCH   1  12
TORSDOF 14
ENDMDL
