MODEL 1
REMARK VINA RESULT:     2.517      0.000      0.000
REMARK INTER + INTRA:           2.225
REMARK INTER:                   2.811
REMARK INTRA:                  -0.586
REMARK UNBOUND:                -0.586
REMARK SMILES C=C(C)[C@H]1CC[C@]2(C(=O)[O-])CC[C@@]3(C)[C@@H](CC[C@H]4[C@@]5(C)CCC(=O)C(C)(C)[C@H]5CC[C@]43C)[C@H]12
REMARK SMILES IDX 7 1 6 2 33 3 11 4 5 5 15 6 4 7 12 8 16 9 13 10 17 11 31 12
REMARK SMILES IDX 14 13 18 14 30 15 32 16 19 17 29 18 21 19 20 20 28 21 22 22
REMARK SMILES IDX 25 23 23 24 26 25 27 26 24 27 8 28 9 29 10 30 2 31 3 32 1 33
REMARK H PARENT
REMARK Flexibility Score: inf
ROOT
ATOM      1  C   UNL     1     -12.519  14.551 -28.067  1.00  0.00     0.014 C 
ATOM      2  C   UNL     1     -11.939  15.100 -26.738  1.00  0.00     0.014 C 
ATOM      3  C   UNL     1     -13.236  13.200 -27.708  1.00  0.00     0.012 C 
ATOM      4  C   UNL     1     -13.528  15.579 -28.635  1.00  0.00     0.014 C 
ATOM      5  C   UNL     1     -11.944  13.941 -25.767  1.00  0.00     0.009 C 
ATOM      6  C   UNL     1     -14.702  13.094 -28.268  1.00  0.00     0.000 C 
ATOM      7  C   UNL     1     -13.167  13.127 -26.159  1.00  0.00     0.018 C 
ATOM      8  C   UNL     1     -14.262  15.063 -29.881  1.00  0.00     0.008 C 
ATOM      9  C   UNL     1     -15.260  11.674 -28.128  1.00  0.00     0.005 C 
ATOM     10  C   UNL     1     -14.856  13.601 -29.753  1.00  0.00    -0.024 C 
ATOM     11  C   UNL     1     -16.739  11.640 -28.482  1.00  0.00     0.005 C 
ATOM     12  C   UNL     1     -16.414  13.566 -30.203  1.00  0.00    -0.024 C 
ATOM     13  C   UNL     1     -13.996  12.685 -30.698  1.00  0.00     0.012 C 
ATOM     14  C   UNL     1     -17.082  12.151 -29.920  1.00  0.00     0.002 C 
ATOM     15  C   UNL     1     -17.246  14.678 -29.459  1.00  0.00     0.008 C 
ATOM     16  C   UNL     1     -16.459  13.870 -31.740  1.00  0.00     0.012 C 
ATOM     17  C   UNL     1     -18.666  12.056 -30.284  1.00  0.00    -0.025 C 
ATOM     18  C   UNL     1     -18.693  14.315 -29.067  1.00  0.00     0.006 C 
ATOM     19  C   UNL     1     -19.369  10.985 -29.376  1.00  0.00     0.015 C 
ATOM     20  C   UNL     1     -18.768  11.540 -31.756  1.00  0.00     0.012 C 
ATOM     21  C   UNL     1     -19.410  13.465 -30.146  1.00  0.00     0.008 C 
ATOM     22  C   UNL     1     -20.878  10.878 -29.540  1.00  0.00     0.077 C 
ATOM     23  C   UNL     1     -21.012  13.435 -30.008  1.00  0.00     0.027 C 
ATOM     24  C   UNL     1     -21.488  12.205 -29.253  1.00  0.00     0.138 C 
ATOM     25  C   UNL     1     -21.681  13.411 -31.408  1.00  0.00     0.020 C 
ATOM     26  C   UNL     1     -21.574  14.705 -29.306  1.00  0.00     0.020 C 
ATOM     27  O   UNL     1     -22.430  12.266 -28.474  1.00  0.00    -0.299 OA
ENDROOT
BRANCH   1  28
ATOM     28  C   UNL     1     -11.355  14.327 -29.028  1.00  0.00     0.048 C 
ATOM     29  O   UNL     1     -10.875  15.294 -29.680  1.00  0.00    -0.550 OA
ATOM     30  O   UNL     1     -10.879  13.047 -29.290  1.00  0.00    -0.550 OA
ENDBRANCH   1  28
BRANCH   7  31
ATOM     31  C   UNL     1     -13.124  11.726 -25.559  1.00  0.00    -0.077 C 
ATOM     32  C   UNL     1     -11.879  10.897 -25.761  1.00  0.00     0.039 C 
ATOM     33  C   UNL     1     -14.195  11.179 -24.957  1.00  0.00     0.008 C 
ENDBRANCH   7  31
TORSDOF 2
ENDMDL
MODEL 2
REMARK VINA RESULT:     2.754      9.706     12.447
REMARK INTER + INTRA:           2.490
REMARK INTER:                   2.902
REMARK INTRA:                  -0.412
REMARK UNBOUND:                -0.586
REMARK SMILES C=C(C)[C@H]1CC[C@]2(C(=O)[O-])CC[C@@]3(C)[C@@H](CC[C@H]4[C@@]5(C)CCC(=O)C(C)(C)[C@H]5CC[C@]43C)[C@H]12
REMARK SMILES IDX 7 1 6 2 33 3 11 4 5 5 15 6 4 7 12 8 16 9 13 10 17 11 31 12
REMARK SMILES IDX 14 13 18 14 30 15 32 16 19 17 29 18 21 19 20 20 28 21 22 22
REMARK SMILES IDX 25 23 23 24 26 25 27 26 24 27 8 28 9 29 10 30 2 31 3 32 1 33
REMARK H PARENT
REMARK Flexibility Score: inf
ROOT
ATOM      1  C   UNL     1     -24.300  19.708 -32.916  1.00  0.00     0.014 C 
ATOM      2  C   UNL     1     -24.283  20.317 -34.341  1.00  0.00     0.014 C 
ATOM      3  C   UNL     1     -25.812  19.502 -32.543  1.00  0.00     0.012 C 
ATOM      4  C   UNL     1     -23.546  18.355 -32.941  1.00  0.00     0.014 C 
ATOM      5  C   UNL     1     -25.685  20.827 -34.595  1.00  0.00     0.009 C 
ATOM      6  C   UNL     1     -26.139  18.061 -32.003  1.00  0.00     0.000 C 
ATOM      7  C   UNL     1     -26.581  19.855 -33.844  1.00  0.00     0.018 C 
ATOM      8  C   UNL     1     -23.627  17.606 -31.603  1.00  0.00     0.008 C 
ATOM      9  C   UNL     1     -27.549  17.986 -31.407  1.00  0.00     0.005 C 
ATOM     10  C   UNL     1     -25.078  17.508 -30.976  1.00  0.00    -0.024 C 
ATOM     11  C   UNL     1     -27.919  16.548 -31.081  1.00  0.00     0.005 C 
ATOM     12  C   UNL     1     -25.432  15.979 -30.566  1.00  0.00    -0.024 C 
ATOM     13  C   UNL     1     -25.075  18.427 -29.700  1.00  0.00     0.012 C 
ATOM     14  C   UNL     1     -26.943  15.825 -30.096  1.00  0.00     0.002 C 
ATOM     15  C   UNL     1     -25.170  14.994 -31.767  1.00  0.00     0.008 C 
ATOM     16  C   UNL     1     -24.473  15.581 -29.392  1.00  0.00     0.012 C 
ATOM     17  C   UNL     1     -27.394  14.304 -29.730  1.00  0.00    -0.025 C 
ATOM     18  C   UNL     1     -26.151  13.812 -31.919  1.00  0.00     0.006 C 
ATOM     19  C   UNL     1     -28.935  14.122 -29.972  1.00  0.00     0.015 C 
ATOM     20  C   UNL     1     -27.150  14.109 -28.199  1.00  0.00     0.012 C 
ATOM     21  C   UNL     1     -26.576  13.208 -30.558  1.00  0.00     0.008 C 
ATOM     22  C   UNL     1     -29.466  12.710 -29.774  1.00  0.00     0.077 C 
ATOM     23  C   UNL     1     -27.219  11.738 -30.659  1.00  0.00     0.027 C 
ATOM     24  C   UNL     1     -28.738  11.789 -30.689  1.00  0.00     0.138 C 
ATOM     25  C   UNL     1     -26.806  10.875 -29.436  1.00  0.00     0.020 C 
ATOM     26  C   UNL     1     -26.717  10.951 -31.904  1.00  0.00     0.020 C 
ATOM     27  O   UNL     1     -29.383  11.022 -31.391  1.00  0.00    -0.299 OA
ENDROOT
BRANCH   1  28
ATOM     28  C   UNL     1     -23.624  20.701 -31.975  1.00  0.00     0.048 C 
ATOM     29  O   UNL     1     -24.231  21.744 -31.610  1.00  0.00    -0.550 OA
ATOM     30  O   UNL     1     -22.296  20.539 -31.595  1.00  0.00    -0.550 OA
ENDBRANCH   1  28
BRANCH   7  31
ATOM     31  C   UNL     1     -27.985  20.419 -33.657  1.00  0.00    -0.077 C 
ATOM     32  C   UNL     1     -29.162  19.502 -33.884  1.00  0.00     0.039 C 
ATOM     33  C   UNL     1     -28.198  21.722 -33.404  1.00  0.00     0.008 C 
ENDBRANCH   7  31
TORSDOF 2
ENDMDL
