MODEL 1
REMARK VINA RESULT:    -3.894      0.000      0.000
REMARK INTER + INTRA:          -6.103
REMARK INTER:                  -5.715
REMARK INTRA:                  -0.389
REMARK UNBOUND:                -0.389
REMARK SMILES O=C([O-])CCCCCCCC(=O)[O-]
REMARK SMILES IDX 7 1 6 2 5 3 4 4 2 5 1 6 3 7 8 8 9 9 10 10 11 11 12 12 13 13
REMARK H PARENT
REMARK Flexibility Score: inf
ROOT
ATOM      1  C   UNL     1      -4.740   5.763  -2.661  1.00  0.00     0.000 C 
ENDROOT
BRANCH   1   2
ATOM      2  C   UNL     1      -4.079   6.600  -3.771  1.00  0.00     0.000 C 
BRANCH   2   3
ATOM      3  C   UNL     1      -4.529   6.183  -5.181  1.00  0.00     0.006 C 
BRANCH   3   4
ATOM      4  C   UNL     1      -5.670   5.158  -5.145  1.00  0.00     0.053 C 
BRANCH   4   5
ATOM      5  C   UNL     1      -5.719   4.332  -6.396  1.00  0.00     0.041 C 
ATOM      6  O   UNL     1      -6.815   3.873  -6.809  1.00  0.00    -0.550 OA
ATOM      7  O   UNL     1      -4.548   4.046  -7.086  1.00  0.00    -0.550 OA
ENDBRANCH   4   5
ENDBRANCH   3   4
ENDBRANCH   2   3
ENDBRANCH   1   2
BRANCH   1   8
ATOM      8  C   UNL     1      -4.069   5.864  -1.275  1.00  0.00     0.000 C 
BRANCH   8   9
ATOM      9  C   UNL     1      -2.636   5.306  -1.201  1.00  0.00     0.006 C 
BRANCH   9  10
ATOM     10  C   UNL     1      -1.717   6.144  -0.305  1.00  0.00     0.053 C 
BRANCH  10  11
ATOM     11  C   UNL     1      -0.568   6.684  -1.096  1.00  0.00     0.041 C 
ATOM     12  O   UNL     1       0.539   6.903  -0.537  1.00  0.00    -0.550 OA
ATOM     13  O   UNL     1      -0.732   6.994  -2.440  1.00  0.00    -0.550 OA
ENDBRANCH  10  11
ENDBRANCH   9  10
ENDBRANCH   8   9
ENDBRANCH   1   8
TORSDOF 8
ENDMDL
MODEL 2
REMARK VINA RESULT:    -3.759      0.383      6.323
REMARK INTER + INTRA:          -5.906
REMARK INTER:                  -5.490
REMARK INTRA:                  -0.416
REMARK UNBOUND:                -0.389
REMARK SMILES O=C([O-])CCCCCCCC(=O)[O-]
REMARK SMILES IDX 7 1 6 2 5 3 4 4 2 5 1 6 3 7 8 8 9 9 10 10 11 11 12 12 13 13
REMARK H PARENT
REMARK Flexibility Score: inf
ROOT
ATOM      1  C   UNL     1      -4.951   5.984  -2.616  1.00  0.00     0.000 C 
ENDROOT
BRANCH   1   2
ATOM      2  C   UNL     1      -4.381   6.051  -1.188  1.00  0.00     0.000 C 
BRANCH   2   3
ATOM      3  C   UNL     1      -3.081   5.244  -1.026  1.00  0.00     0.006 C 
BRANCH   3   4
ATOM      4  C   UNL     1      -1.991   6.041  -0.296  1.00  0.00     0.053 C 
BRANCH   4   5
ATOM      5  C   UNL     1      -0.803   6.295  -1.174  1.00  0.00     0.041 C 
ATOM      6  O   UNL     1      -0.875   6.087  -2.413  1.00  0.00    -0.550 OA
ATOM      7  O   UNL     1       0.393   6.731  -0.617  1.00  0.00    -0.550 OA
ENDBRANCH   4   5
ENDBRANCH   3   4
ENDBRANCH   2   3
ENDBRANCH   1   2
BRANCH   1   8
ATOM      8  C   UNL     1      -4.056   6.603  -3.709  1.00  0.00     0.000 C 
BRANCH   8   9
ATOM      9  C   UNL     1      -4.448   6.245  -5.154  1.00  0.00     0.006 C 
BRANCH   9  10
ATOM     10  C   UNL     1      -5.673   5.326  -5.228  1.00  0.00     0.053 C 
BRANCH  10  11
ATOM     11  C   UNL     1      -5.587   4.439  -6.429  1.00  0.00     0.041 C 
ATOM     12  O   UNL     1      -4.523   4.382  -7.100  1.00  0.00    -0.550 OA
ATOM     13  O   UNL     1      -6.698   3.712  -6.839  1.00  0.00    -0.550 OA
ENDBRANCH  10  11
ENDBRANCH   9  10
ENDBRANCH   8   9
ENDBRANCH   1   8
TORSDOF 8
ENDMDL
MODEL 3
REMARK VINA RESULT:    -3.732      1.538      6.477
REMARK INTER + INTRA:          -5.867
REMARK INTER:                  -5.468
REMARK INTRA:                  -0.398
REMARK UNBOUND:                -0.389
REMARK SMILES O=C([O-])CCCCCCCC(=O)[O-]
REMARK SMILES IDX 7 1 6 2 5 3 4 4 2 5 1 6 3 7 8 8 9 9 10 10 11 11 12 12 13 13
REMARK H PARENT
REMARK Flexibility Score: inf
ROOT
ATOM      1  C   UNL     1      -4.245   6.485  -3.790  1.00  0.00     0.000 C 
ENDROOT
BRANCH   1   2
ATOM      2  C   UNL     1      -5.276   5.993  -2.758  1.00  0.00     0.000 C 
BRANCH   2   3
ATOM      3  C   UNL     1      -4.638   5.623  -1.408  1.00  0.00     0.006 C 
BRANCH   3   4
ATOM      4  C   UNL     1      -3.107   5.548  -1.491  1.00  0.00     0.053 C 
BRANCH   4   5
ATOM      5  C   UNL     1      -2.463   5.801  -0.161  1.00  0.00     0.041 C 
ATOM      6  O   UNL     1      -3.062   5.490   0.901  1.00  0.00    -0.550 OA
ATOM      7  O   UNL     1      -1.214   6.406  -0.097  1.00  0.00    -0.550 OA
ENDBRANCH   4   5
ENDBRANCH   3   4
ENDBRANCH   2   3
ENDBRANCH   1   2
BRANCH   1   8
ATOM      8  C   UNL     1      -4.591   6.176  -5.261  1.00  0.00     0.000 C 
BRANCH   8   9
ATOM      9  C   UNL     1      -5.842   5.304  -5.468  1.00  0.00     0.006 C 
BRANCH   9  10
ATOM     10  C   UNL     1      -5.566   4.057  -6.317  1.00  0.00     0.053 C 
BRANCH  10  11
ATOM     11  C   UNL     1      -4.960   4.443  -7.628  1.00  0.00     0.041 C 
ATOM     12  O   UNL     1      -3.799   4.058  -7.927  1.00  0.00    -0.550 OA
ATOM     13  O   UNL     1      -5.656   5.270  -8.501  1.00  0.00    -0.550 OA
ENDBRANCH  10  11
ENDBRANCH   9  10
ENDBRANCH   8   9
ENDBRANCH   1   8
TORSDOF 8
ENDMDL
MODEL 4
REMARK VINA RESULT:    -3.663      3.650      6.255
REMARK INTER + INTRA:          -5.765
REMARK INTER:                  -5.439
REMARK INTRA:                  -0.326
REMARK UNBOUND:                -0.389
REMARK SMILES O=C([O-])CCCCCCCC(=O)[O-]
REMARK SMILES IDX 7 1 6 2 5 3 4 4 2 5 1 6 3 7 8 8 9 9 10 10 11 11 12 12 13 13
REMARK H PARENT
REMARK Flexibility Score: inf
ROOT
ATOM      1  C   UNL     1      -4.759   6.008  -2.915  1.00  0.00     0.000 C 
ENDROOT
BRANCH   1   2
ATOM      2  C   UNL     1      -3.505   6.492  -3.666  1.00  0.00     0.000 C 
BRANCH   2   3
ATOM      3  C   UNL     1      -2.338   6.831  -2.722  1.00  0.00     0.006 C 
BRANCH   3   4
ATOM      4  C   UNL     1      -1.994   5.665  -1.786  1.00  0.00     0.053 C 
BRANCH   4   5
ATOM      5  C   UNL     1      -1.467   6.145  -0.467  1.00  0.00     0.041 C 
ATOM      6  O   UNL     1      -2.208   6.136   0.550  1.00  0.00    -0.550 OA
ATOM      7  O   UNL     1      -0.169   6.630  -0.370  1.00  0.00    -0.550 OA
ENDBRANCH   4   5
ENDBRANCH   3   4
ENDBRANCH   2   3
ENDBRANCH   1   2
BRANCH   1   8
ATOM      8  C   UNL     1      -5.897   7.043  -2.804  1.00  0.00     0.000 C 
BRANCH   8   9
ATOM      9  C   UNL     1      -7.068   6.630  -1.894  1.00  0.00     0.006 C 
BRANCH   9  10
ATOM     10  C   UNL     1      -6.623   6.297  -0.465  1.00  0.00     0.053 C 
BRANCH  10  11
ATOM     11  C   UNL     1      -7.774   5.770   0.331  1.00  0.00     0.041 C 
ATOM     12  O   UNL     1      -8.929   6.242   0.164  1.00  0.00    -0.550 OA
ATOM     13  O   UNL     1      -7.564   4.792   1.295  1.00  0.00    -0.550 OA
ENDBRANCH  10  11
ENDBRANCH   9  10
ENDBRANCH   8   9
ENDBRANCH   1   8
TORSDOF 8
ENDMDL
MODEL 5
REMARK VINA RESULT:    -3.663     10.808     13.559
REMARK INTER + INTRA:          -5.764
REMARK INTER:                  -5.300
REMARK INTRA:                  -0.464
REMARK UNBOUND:                -0.389
REMARK SMILES O=C([O-])CCCCCCCC(=O)[O-]
REMARK SMILES IDX 7 1 6 2 5 3 4 4 2 5 1 6 3 7 8 8 9 9 10 10 11 11 12 12 13 13
REMARK H PARENT
REMARK Flexibility Score: inf
ROOT
ATOM      1  C   UNL     1      -8.205  -5.446  -4.205  1.00  0.00     0.000 C 
ENDROOT
BRANCH   1   2
ATOM      2  C   UNL     1      -7.882  -4.012  -3.750  1.00  0.00     0.000 C 
BRANCH   2   3
ATOM      3  C   UNL     1      -8.746  -2.953  -4.456  1.00  0.00     0.006 C 
BRANCH   3   4
ATOM      4  C   UNL     1      -7.955  -2.170  -5.512  1.00  0.00     0.053 C 
BRANCH   4   5
ATOM      5  C   UNL     1      -8.300  -2.605  -6.904  1.00  0.00     0.041 C 
ATOM      6  O   UNL     1      -7.940  -3.736  -7.321  1.00  0.00    -0.550 OA
ATOM      7  O   UNL     1      -8.992  -1.748  -7.750  1.00  0.00    -0.550 OA
ENDBRANCH   4   5
ENDBRANCH   3   4
ENDBRANCH   2   3
ENDBRANCH   1   2
BRANCH   1   8
ATOM      8  C   UNL     1      -9.672  -5.690  -4.613  1.00  0.00     0.000 C 
BRANCH   8   9
ATOM      9  C   UNL     1     -10.125  -7.161  -4.575  1.00  0.00     0.006 C 
BRANCH   9  10
ATOM     10  C   UNL     1      -9.034  -8.107  -4.059  1.00  0.00     0.053 C 
BRANCH  10  11
ATOM     11  C   UNL     1      -9.257  -9.492  -4.576  1.00  0.00     0.041 C 
ATOM     12  O   UNL     1      -9.183 -10.478  -3.797  1.00  0.00    -0.550 OA
ATOM     13  O   UNL     1      -9.496  -9.700  -5.928  1.00  0.00    -0.550 OA
ENDBRANCH  10  11
ENDBRANCH   9  10
ENDBRANCH   8   9
ENDBRANCH   1   8
TORSDOF 8
ENDMDL
MODEL 6
REMARK VINA RESULT:    -3.639     17.807     19.603
REMARK INTER + INTRA:          -5.729
REMARK INTER:                  -5.391
REMARK INTRA:                  -0.338
REMARK UNBOUND:                -0.389
REMARK SMILES O=C([O-])CCCCCCCC(=O)[O-]
REMARK SMILES IDX 7 1 6 2 5 3 4 4 2 5 1 6 3 7 8 8 9 9 10 10 11 11 12 12 13 13
REMARK H PARENT
REMARK Flexibility Score: inf
ROOT
ATOM      1  C   UNL     1      -2.411  -8.897   8.452  1.00  0.00     0.000 C 
ENDROOT
BRANCH   1   2
ATOM      2  C   UNL     1      -1.342  -9.293   9.487  1.00  0.00     0.000 C 
BRANCH   2   3
ATOM      3  C   UNL     1      -0.063  -8.445   9.377  1.00  0.00     0.006 C 
BRANCH   3   4
ATOM      4  C   UNL     1       1.204  -9.309   9.344  1.00  0.00     0.053 C 
BRANCH   4   5
ATOM      5  C   UNL     1       1.394  -9.971   8.013  1.00  0.00     0.041 C 
ATOM      6  O   UNL     1       1.916  -9.336   7.060  1.00  0.00    -0.550 OA
ATOM      7  O   UNL     1       0.967 -11.278   7.818  1.00  0.00    -0.550 OA
ENDBRANCH   4   5
ENDBRANCH   3   4
ENDBRANCH   2   3
ENDBRANCH   1   2
BRANCH   1   8
ATOM      8  C   UNL     1      -3.607  -8.102   9.015  1.00  0.00     0.000 C 
BRANCH   8   9
ATOM      9  C   UNL     1      -4.544  -7.495   7.956  1.00  0.00     0.006 C 
BRANCH   9  10
ATOM     10  C   UNL     1      -4.476  -8.226   6.611  1.00  0.00     0.053 C 
BRANCH  10  11
ATOM     11  C   UNL     1      -5.533  -9.282   6.536  1.00  0.00     0.041 C 
ATOM     12  O   UNL     1      -6.392  -9.384   7.452  1.00  0.00    -0.550 OA
ATOM     13  O   UNL     1      -5.541 -10.186   5.482  1.00  0.00    -0.550 OA
ENDBRANCH  10  11
ENDBRANCH   9  10
ENDBRANCH   8   9
ENDBRANCH   1   8
TORSDOF 8
ENDMDL
MODEL 7
REMARK VINA RESULT:    -3.616     10.705     13.273
REMARK INTER + INTRA:          -5.696
REMARK INTER:                  -5.228
REMARK INTRA:                  -0.467
REMARK UNBOUND:                -0.389
REMARK SMILES O=C([O-])CCCCCCCC(=O)[O-]
REMARK SMILES IDX 7 1 6 2 5 3 4 4 2 5 1 6 3 7 8 8 9 9 10 10 11 11 12 12 13 13
REMARK H PARENT
REMARK Flexibility Score: inf
ROOT
ATOM      1  C   UNL     1      -8.249  -5.249  -4.183  1.00  0.00     0.000 C 
ENDROOT
BRANCH   1   2
ATOM      2  C   UNL     1      -9.751  -5.507  -4.399  1.00  0.00     0.000 C 
BRANCH   2   3
ATOM      3  C   UNL     1     -10.075  -6.994  -4.617  1.00  0.00     0.006 C 
BRANCH   3   4
ATOM      4  C   UNL     1      -8.961  -7.913  -4.097  1.00  0.00     0.053 C 
BRANCH   4   5
ATOM      5  C   UNL     1      -9.209  -9.348  -4.453  1.00  0.00     0.041 C 
ATOM      6  O   UNL     1      -9.210 -10.231  -3.557  1.00  0.00    -0.550 OA
ATOM      7  O   UNL     1      -9.408  -9.711  -5.779  1.00  0.00    -0.550 OA
ENDBRANCH   4   5
ENDBRANCH   3   4
ENDBRANCH   2   3
ENDBRANCH   1   2
BRANCH   1   8
ATOM      8  C   UNL     1      -7.869  -3.780  -3.903  1.00  0.00     0.000 C 
BRANCH   8   9
ATOM      9  C   UNL     1      -8.832  -2.733  -4.491  1.00  0.00     0.006 C 
BRANCH   9  10
ATOM     10  C   UNL     1      -8.201  -1.912  -5.622  1.00  0.00     0.053 C 
BRANCH  10  11
ATOM     11  C   UNL     1      -8.323  -2.637  -6.924  1.00  0.00     0.041 C 
ATOM     12  O   UNL     1      -9.346  -3.329  -7.170  1.00  0.00    -0.550 OA
ATOM     13  O   UNL     1      -7.286  -2.591  -7.846  1.00  0.00    -0.550 OA
ENDBRANCH  10  11
ENDBRANCH   9  10
ENDBRANCH   8   9
ENDBRANCH   1   8
TORSDOF 8
ENDMDL
MODEL 8
REMARK VINA RESULT:    -3.587     12.291     14.087
REMARK INTER + INTRA:          -5.654
REMARK INTER:                  -5.234
REMARK INTRA:                  -0.420
REMARK UNBOUND:                -0.389
REMARK SMILES O=C([O-])CCCCCCCC(=O)[O-]
REMARK SMILES IDX 7 1 6 2 5 3 4 4 2 5 1 6 3 7 8 8 9 9 10 10 11 11 12 12 13 13
REMARK H PARENT
REMARK Flexibility Score: inf
ROOT
ATOM      1  C   UNL     1       6.203   3.857   7.598  1.00  0.00     0.000 C 
ENDROOT
BRANCH   1   2
ATOM      2  C   UNL     1       4.858   3.466   8.237  1.00  0.00     0.000 C 
BRANCH   2   3
ATOM      3  C   UNL     1       4.474   2.001   7.970  1.00  0.00     0.006 C 
BRANCH   3   4
ATOM      4  C   UNL     1       3.422   1.488   8.962  1.00  0.00     0.053 C 
BRANCH   4   5
ATOM      5  C   UNL     1       2.063   1.391   8.336  1.00  0.00     0.041 C 
ATOM      6  O   UNL     1       1.948   1.099   7.118  1.00  0.00    -0.550 OA
ATOM      7  O   UNL     1       0.928   1.654   9.093  1.00  0.00    -0.550 OA
ENDBRANCH   4   5
ENDBRANCH   3   4
ENDBRANCH   2   3
ENDBRANCH   1   2
BRANCH   1   8
ATOM      8  C   UNL     1       6.967   2.701   6.920  1.00  0.00     0.000 C 
BRANCH   8   9
ATOM      9  C   UNL     1       7.486   3.004   5.503  1.00  0.00     0.006 C 
BRANCH   9  10
ATOM     10  C   UNL     1       6.953   2.023   4.451  1.00  0.00     0.053 C 
BRANCH  10  11
ATOM     11  C   UNL     1       5.834   2.644   3.677  1.00  0.00     0.041 C 
ATOM     12  O   UNL     1       5.868   3.869   3.387  1.00  0.00    -0.550 OA
ATOM     13  O   UNL     1       4.729   1.883   3.319  1.00  0.00    -0.550 OA
ENDBRANCH  10  11
ENDBRANCH   9  10
ENDBRANCH   8   9
ENDBRANCH   1   8
TORSDOF 8
ENDMDL
MODEL 9
REMARK VINA RESULT:    -3.566     18.098     19.036
REMARK INTER + INTRA:          -5.623
REMARK INTER:                  -4.985
REMARK INTRA:                  -0.638
REMARK UNBOUND:                -0.389
REMARK SMILES O=C([O-])CCCCCCCC(=O)[O-]
REMARK SMILES IDX 7 1 6 2 5 3 4 4 2 5 1 6 3 7 8 8 9 9 10 10 11 11 12 12 13 13
REMARK H PARENT
REMARK Flexibility Score: inf
ROOT
ATOM      1  C   UNL     1      -4.263  -7.885   6.781  1.00  0.00     0.000 C 
ENDROOT
BRANCH   1   2
ATOM      2  C   UNL     1      -5.201  -8.916   6.127  1.00  0.00     0.000 C 
BRANCH   2   3
ATOM      3  C   UNL     1      -6.093  -9.643   7.148  1.00  0.00     0.006 C 
BRANCH   3   4
ATOM      4  C   UNL     1      -6.253 -11.133   6.821  1.00  0.00     0.053 C 
BRANCH   4   5
ATOM      5  C   UNL     1      -6.628 -11.352   5.385  1.00  0.00     0.041 C 
ATOM      6  O   UNL     1      -5.808 -11.882   4.592  1.00  0.00    -0.550 OA
ATOM      7  O   UNL     1      -7.871 -10.942   4.920  1.00  0.00    -0.550 OA
ENDBRANCH   4   5
ENDBRANCH   3   4
ENDBRANCH   2   3
ENDBRANCH   1   2
BRANCH   1   8
ATOM      8  C   UNL     1      -4.495  -7.651   8.288  1.00  0.00     0.000 C 
BRANCH   8   9
ATOM      9  C   UNL     1      -3.438  -8.275   9.216  1.00  0.00     0.006 C 
BRANCH   9  10
ATOM     10  C   UNL     1      -2.258  -8.885   8.450  1.00  0.00     0.053 C 
BRANCH  10  11
ATOM     11  C   UNL     1      -2.176 -10.357   8.703  1.00  0.00     0.041 C 
ATOM     12  O   UNL     1      -3.050 -11.130   8.229  1.00  0.00    -0.550 OA
ATOM     13  O   UNL     1      -1.165 -10.871   9.503  1.00  0.00    -0.550 OA
ENDBRANCH  10  11
ENDBRANCH   9  10
ENDBRANCH   8   9
ENDBRANCH   1   8
TORSDOF 8
ENDMDL
