MODEL 1
REMARK VINA RESULT:     2.796      0.000      0.000
REMARK INTER + INTRA:           4.115
REMARK INTER:                   4.921
REMARK INTRA:                  -0.806
REMARK UNBOUND:                -0.806
REMARK SMILES CCCCCCC=CCCCCCCCC(=O)[O-]
REMARK SMILES IDX 10 1 11 2 12 3 13 4 14 5 15 6 16 7 17 8 18 9 9 10 8 11 7 12
REMARK SMILES IDX 6 13 5 14 4 15 3 16 2 17 1 18
REMARK H PARENT
REMARK Flexibility Score: inf
ROOT
ATOM      1  C   UNL     1      11.759  20.783  31.173  1.00  0.00     0.004 C 
ENDROOT
BRANCH   1   2
ATOM      2  C   UNL     1      10.576  21.062  30.234  1.00  0.00     0.000 C 
BRANCH   2   3
ATOM      3  C   UNL     1       9.963  19.754  29.719  1.00  0.00     0.000 C 
BRANCH   3   4
ATOM      4  C   UNL     1       9.043  20.014  28.517  1.00  0.00     0.000 C 
BRANCH   4   5
ATOM      5  C   UNL     1       8.050  21.161  28.769  1.00  0.00     0.006 C 
BRANCH   5   6
ATOM      6  C   UNL     1       6.605  20.779  28.422  1.00  0.00     0.053 C 
BRANCH   6   7
ATOM      7  C   UNL     1       5.767  20.723  29.660  1.00  0.00     0.041 C 
ATOM      8  O   UNL     1       5.040  19.721  29.890  1.00  0.00    -0.550 OA
ATOM      9  O   UNL     1       5.757  21.798  30.541  1.00  0.00    -0.550 OA
ENDBRANCH   6   7
ENDBRANCH   5   6
ENDBRANCH   4   5
ENDBRANCH   3   4
ENDBRANCH   2   3
ENDBRANCH   1   2
BRANCH   1  10
ATOM     10  C   UNL     1      11.927  19.288  31.489  1.00  0.00     0.027 C 
BRANCH  10  11
ATOM     11  C   UNL     1      13.166  18.970  32.295  1.00  0.00    -0.031 C 
ATOM     12  C   UNL     1      13.213  18.814  33.632  1.00  0.00    -0.031 C 
BRANCH  12  13
ATOM     13  C   UNL     1      12.024  18.866  34.559  1.00  0.00     0.027 C 
BRANCH  13  14
ATOM     14  C   UNL     1      11.971  20.191  35.334  1.00  0.00     0.004 C 
BRANCH  14  15
ATOM     15  C   UNL     1      12.437  21.385  34.488  1.00  0.00     0.000 C 
BRANCH  15  16
ATOM     16  C   UNL     1      11.970  22.709  35.104  1.00  0.00    -0.000 C 
BRANCH  16  17
ATOM     17  C   UNL     1      11.269  22.474  36.448  1.00  0.00    -0.003 C 
ATOM     18  C   UNL     1      11.004  23.792  37.169  1.00  0.00     0.004 C 
ENDBRANCH  16  17
ENDBRANCH  15  16
ENDBRANCH  14  15
ENDBRANCH  13  14
ENDBRANCH  12  13
ENDBRANCH  10  11
ENDBRANCH   1  10
TORSDOF 13
ENDMDL
MODEL 2
REMARK VINA RESULT:     3.044      2.831      6.985
REMARK INTER + INTRA:           4.550
REMARK INTER:                   4.706
REMARK INTRA:                  -0.156
REMARK UNBOUND:                -0.806
REMARK SMILES CCCCCCC=CCCCCCCCC(=O)[O-]
REMARK SMILES IDX 10 1 11 2 12 3 13 4 14 5 15 6 16 7 17 8 18 9 9 10 8 11 7 12
REMARK SMILES IDX 6 13 5 14 4 15 3 16 2 17 1 18
REMARK H PARENT
REMARK Flexibility Score: inf
ROOT
ATOM      1  C   UNL     1      11.759  19.094  31.201  1.00  0.00     0.004 C 
ENDROOT
BRANCH   1   2
ATOM      2  C   UNL     1      12.502  18.162  32.169  1.00  0.00     0.000 C 
BRANCH   2   3
ATOM      3  C   UNL     1      13.545  18.935  32.985  1.00  0.00     0.000 C 
BRANCH   3   4
ATOM      4  C   UNL     1      13.219  18.882  34.485  1.00  0.00     0.000 C 
BRANCH   4   5
ATOM      5  C   UNL     1      11.917  19.620  34.834  1.00  0.00     0.006 C 
BRANCH   5   6
ATOM      6  C   UNL     1      12.113  20.681  35.925  1.00  0.00     0.053 C 
BRANCH   6   7
ATOM      7  C   UNL     1      11.855  22.049  35.376  1.00  0.00     0.041 C 
ATOM      8  O   UNL     1      12.137  22.316  34.179  1.00  0.00    -0.550 OA
ATOM      9  O   UNL     1      11.343  23.043  36.201  1.00  0.00    -0.550 OA
ENDBRANCH   6   7
ENDBRANCH   5   6
ENDBRANCH   4   5
ENDBRANCH   3   4
ENDBRANCH   2   3
ENDBRANCH   1   2
BRANCH   1  10
ATOM     10  C   UNL     1      12.099  20.576  31.424  1.00  0.00     0.027 C 
BRANCH  10  11
ATOM     11  C   UNL     1      11.069  21.530  30.864  1.00  0.00    -0.031 C 
ATOM     12  C   UNL     1      10.117  21.216  29.965  1.00  0.00    -0.031 C 
BRANCH  12  13
ATOM     13  C   UNL     1       9.868  19.838  29.402  1.00  0.00     0.027 C 
BRANCH  13  14
ATOM     14  C   UNL     1       8.860  19.877  28.243  1.00  0.00     0.004 C 
BRANCH  14  15
ATOM     15  C   UNL     1       8.027  21.167  28.233  1.00  0.00     0.000 C 
BRANCH  15  16
ATOM     16  C   UNL     1       6.530  20.854  28.342  1.00  0.00    -0.000 C 
BRANCH  16  17
ATOM     17  C   UNL     1       6.150  20.482  29.780  1.00  0.00    -0.003 C 
ATOM     18  C   UNL     1       5.420  21.630  30.471  1.00  0.00     0.004 C 
ENDBRANCH  16  17
ENDBRANCH  15  16
ENDBRANCH  14  15
ENDBRANCH  13  14
ENDBRANCH  12  13
ENDBRANCH  10  11
ENDBRANCH   1  10
TORSDOF 13
ENDMDL
MODEL 3
REMARK VINA RESULT:     3.096      4.552      7.553
REMARK INTER + INTRA:           4.643
REMARK INTER:                   5.493
REMARK INTRA:                  -0.850
REMARK UNBOUND:                -0.806
REMARK SMILES CCCCCCC=CCCCCCCCC(=O)[O-]
REMARK SMILES IDX 10 1 11 2 12 3 13 4 14 5 15 6 16 7 17 8 18 9 9 10 8 11 7 12
REMARK SMILES IDX 6 13 5 14 4 15 3 16 2 17 1 18
REMARK H PARENT
REMARK Flexibility Score: inf
ROOT
ATOM      1  C   UNL     1      12.500  19.505  35.038  1.00  0.00     0.004 C 
ENDROOT
BRANCH   1   2
ATOM      2  C   UNL     1      11.866  18.606  33.967  1.00  0.00     0.000 C 
BRANCH   2   3
ATOM      3  C   UNL     1      12.887  18.236  32.885  1.00  0.00     0.000 C 
BRANCH   3   4
ATOM      4  C   UNL     1      13.602  19.487  32.353  1.00  0.00     0.000 C 
BRANCH   4   5
ATOM      5  C   UNL     1      15.040  19.616  32.880  1.00  0.00     0.006 C 
BRANCH   5   6
ATOM      6  C   UNL     1      16.085  19.603  31.757  1.00  0.00     0.053 C 
BRANCH   6   7
ATOM      7  C   UNL     1      17.468  19.642  32.328  1.00  0.00     0.041 C 
ATOM      8  O   UNL     1      17.738  20.416  33.283  1.00  0.00    -0.550 OA
ATOM      9  O   UNL     1      18.469  18.852  31.777  1.00  0.00    -0.550 OA
ENDBRANCH   6   7
ENDBRANCH   5   6
ENDBRANCH   4   5
ENDBRANCH   3   4
ENDBRANCH   2   3
ENDBRANCH   1   2
BRANCH   1  10
ATOM     10  C   UNL     1      11.563  20.634  35.497  1.00  0.00     0.027 C 
BRANCH  10  11
ATOM     11  C   UNL     1      12.074  22.020  35.174  1.00  0.00    -0.031 C 
ATOM     12  C   UNL     1      12.182  22.548  33.940  1.00  0.00    -0.031 C 
BRANCH  12  13
ATOM     13  C   UNL     1      11.753  21.873  32.661  1.00  0.00     0.027 C 
BRANCH  13  14
ATOM     14  C   UNL     1      11.120  22.872  31.680  1.00  0.00     0.004 C 
BRANCH  14  15
ATOM     15  C   UNL     1      10.373  22.176  30.533  1.00  0.00     0.000 C 
BRANCH  15  16
ATOM     16  C   UNL     1      10.956  20.783  30.266  1.00  0.00    -0.000 C 
BRANCH  16  17
ATOM     17  C   UNL     1       9.891  19.844  29.684  1.00  0.00    -0.003 C 
ATOM     18  C   UNL     1       8.774  20.631  29.006  1.00  0.00     0.004 C 
ENDBRANCH  16  17
ENDBRANCH  15  16
ENDBRANCH  14  15
ENDBRANCH  13  14
ENDBRANCH  12  13
ENDBRANCH  10  11
ENDBRANCH   1  10
TORSDOF 13
ENDMDL
MODEL 4
REMARK VINA RESULT:     3.134      4.452      7.769
REMARK INTER + INTRA:           4.710
REMARK INTER:                   5.308
REMARK INTRA:                  -0.597
REMARK UNBOUND:                -0.806
REMARK SMILES CCCCCCC=CCCCCCCCC(=O)[O-]
REMARK SMILES IDX 10 1 11 2 12 3 13 4 14 5 15 6 16 7 17 8 18 9 9 10 8 11 7 12
REMARK SMILES IDX 6 13 5 14 4 15 3 16 2 17 1 18
REMARK H PARENT
REMARK Flexibility Score: inf
ROOT
ATOM      1  C   UNL     1      11.815  20.504  34.764  1.00  0.00     0.004 C 
ENDROOT
BRANCH   1   2
ATOM      2  C   UNL     1      12.697  19.247  34.748  1.00  0.00     0.000 C 
BRANCH   2   3
ATOM      3  C   UNL     1      12.548  18.488  33.424  1.00  0.00     0.000 C 
BRANCH   3   4
ATOM      4  C   UNL     1      13.500  19.050  32.358  1.00  0.00     0.000 C 
BRANCH   4   5
ATOM      5  C   UNL     1      14.907  19.332  32.911  1.00  0.00     0.006 C 
BRANCH   5   6
ATOM      6  C   UNL     1      15.932  19.611  31.804  1.00  0.00     0.053 C 
BRANCH   6   7
ATOM      7  C   UNL     1      17.314  19.669  32.374  1.00  0.00     0.041 C 
ATOM      8  O   UNL     1      17.595  20.501  33.276  1.00  0.00    -0.550 OA
ATOM      9  O   UNL     1      18.306  18.831  31.878  1.00  0.00    -0.550 OA
ENDBRANCH   6   7
ENDBRANCH   5   6
ENDBRANCH   4   5
ENDBRANCH   3   4
ENDBRANCH   2   3
ENDBRANCH   1   2
BRANCH   1  10
ATOM     10  C   UNL     1      12.585  21.775  34.375  1.00  0.00     0.027 C 
BRANCH  10  11
ATOM     11  C   UNL     1      11.805  22.712  33.481  1.00  0.00    -0.031 C 
ATOM     12  C   UNL     1      11.448  22.464  32.207  1.00  0.00    -0.031 C 
BRANCH  12  13
ATOM     13  C   UNL     1      11.708  21.178  31.462  1.00  0.00     0.027 C 
BRANCH  13  14
ATOM     14  C   UNL     1      10.885  21.101  30.167  1.00  0.00     0.004 C 
BRANCH  14  15
ATOM     15  C   UNL     1      10.212  19.733  29.981  1.00  0.00     0.000 C 
BRANCH  15  16
ATOM     16  C   UNL     1       9.244  19.756  28.791  1.00  0.00    -0.000 C 
BRANCH  16  17
ATOM     17  C   UNL     1       8.431  21.057  28.769  1.00  0.00    -0.003 C 
ATOM     18  C   UNL     1       6.941  20.778  28.939  1.00  0.00     0.004 C 
ENDBRANCH  16  17
ENDBRANCH  15  16
ENDBRANCH  14  15
ENDBRANCH  13  14
ENDBRANCH  12  13
ENDBRANCH  10  11
ENDBRANCH   1  10
TORSDOF 13
ENDMDL
MODEL 5
REMARK VINA RESULT:     3.139      2.974      7.713
REMARK INTER + INTRA:           4.719
REMARK INTER:                   5.152
REMARK INTRA:                  -0.432
REMARK UNBOUND:                -0.806
REMARK SMILES CCCCCCC=CCCCCCCCC(=O)[O-]
REMARK SMILES IDX 10 1 11 2 12 3 13 4 14 5 15 6 16 7 17 8 18 9 9 10 8 11 7 12
REMARK SMILES IDX 6 13 5 14 4 15 3 16 2 17 1 18
REMARK H PARENT
REMARK Flexibility Score: inf
ROOT
ATOM      1  C   UNL     1      12.118  20.245  31.686  1.00  0.00     0.004 C 
ENDROOT
BRANCH   1   2
ATOM      2  C   UNL     1      12.131  18.709  31.707  1.00  0.00     0.000 C 
BRANCH   2   3
ATOM      3  C   UNL     1      12.988  18.182  32.864  1.00  0.00     0.000 C 
BRANCH   3   4
ATOM      4  C   UNL     1      13.238  19.281  33.908  1.00  0.00     0.000 C 
BRANCH   4   5
ATOM      5  C   UNL     1      11.981  19.615  34.728  1.00  0.00     0.006 C 
BRANCH   5   6
ATOM      6  C   UNL     1      12.260  20.623  35.851  1.00  0.00     0.053 C 
BRANCH   6   7
ATOM      7  C   UNL     1      11.840  21.998  35.436  1.00  0.00     0.041 C 
ATOM      8  O   UNL     1      12.104  22.420  34.279  1.00  0.00    -0.550 OA
ATOM      9  O   UNL     1      11.194  22.831  36.341  1.00  0.00    -0.550 OA
ENDBRANCH   6   7
ENDBRANCH   5   6
ENDBRANCH   4   5
ENDBRANCH   3   4
ENDBRANCH   2   3
ENDBRANCH   1   2
BRANCH   1  10
ATOM     10  C   UNL     1      11.157  20.817  30.632  1.00  0.00     0.027 C 
BRANCH  10  11
ATOM     11  C   UNL     1      10.519  19.765  29.753  1.00  0.00    -0.031 C 
ATOM     12  C   UNL     1       9.343  19.890  29.110  1.00  0.00    -0.031 C 
BRANCH  12  13
ATOM     13  C   UNL     1       8.480  21.128  29.100  1.00  0.00     0.027 C 
BRANCH  13  14
ATOM     14  C   UNL     1       6.986  20.773  29.047  1.00  0.00     0.004 C 
BRANCH  14  15
ATOM     15  C   UNL     1       6.403  20.897  27.632  1.00  0.00     0.000 C 
BRANCH  15  16
ATOM     16  C   UNL     1       7.237  21.860  26.778  1.00  0.00    -0.000 C 
BRANCH  16  17
ATOM     17  C   UNL     1       6.400  22.449  25.636  1.00  0.00    -0.003 C 
ATOM     18  C   UNL     1       6.591  23.959  25.534  1.00  0.00     0.004 C 
ENDBRANCH  16  17
ENDBRANCH  15  16
ENDBRANCH  14  15
ENDBRANCH  13  14
ENDBRANCH  12  13
ENDBRANCH  10  11
ENDBRANCH   1  10
TORSDOF 13
ENDMDL
MODEL 6
REMARK VINA RESULT:     3.424      3.023      6.883
REMARK INTER + INTRA:           5.220
REMARK INTER:                   6.112
REMARK INTRA:                  -0.892
REMARK UNBOUND:                -0.806
REMARK SMILES CCCCCCC=CCCCCCCCC(=O)[O-]
REMARK SMILES IDX 10 1 11 2 12 3 13 4 14 5 15 6 16 7 17 8 18 9 9 10 8 11 7 12
REMARK SMILES IDX 6 13 5 14 4 15 3 16 2 17 1 18
REMARK H PARENT
REMARK Flexibility Score: inf
ROOT
ATOM      1  C   UNL     1      11.330  22.944  32.419  1.00  0.00     0.004 C 
ENDROOT
BRANCH   1   2
ATOM      2  C   UNL     1      12.203  21.985  33.241  1.00  0.00     0.000 C 
BRANCH   2   3
ATOM      3  C   UNL     1      12.069  22.271  34.742  1.00  0.00     0.000 C 
BRANCH   3   4
ATOM      4  C   UNL     1      11.622  21.013  35.502  1.00  0.00     0.000 C 
BRANCH   4   5
ATOM      5  C   UNL     1      12.507  19.793  35.201  1.00  0.00     0.006 C 
BRANCH   5   6
ATOM      6  C   UNL     1      11.888  18.857  34.155  1.00  0.00     0.053 C 
BRANCH   6   7
ATOM      7  C   UNL     1      12.858  18.600  33.045  1.00  0.00     0.041 C 
ATOM      8  O   UNL     1      12.624  17.703  32.192  1.00  0.00    -0.550 OA
ATOM      9  O   UNL     1      14.043  19.323  32.976  1.00  0.00    -0.550 OA
ENDBRANCH   6   7
ENDBRANCH   5   6
ENDBRANCH   4   5
ENDBRANCH   3   4
ENDBRANCH   2   3
ENDBRANCH   1   2
BRANCH   1  10
ATOM     10  C   UNL     1      10.881  22.338  31.080  1.00  0.00     0.027 C 
BRANCH  10  11
ATOM     11  C   UNL     1      11.693  21.139  30.649  1.00  0.00    -0.031 C 
ATOM     12  C   UNL     1      11.192  19.947  30.273  1.00  0.00    -0.031 C 
BRANCH  12  13
ATOM     13  C   UNL     1       9.725  19.615  30.153  1.00  0.00     0.027 C 
BRANCH  13  14
ATOM     14  C   UNL     1       9.186  19.943  28.752  1.00  0.00     0.004 C 
BRANCH  14  15
ATOM     15  C   UNL     1       8.267  21.174  28.752  1.00  0.00     0.000 C 
BRANCH  15  16
ATOM     16  C   UNL     1       6.856  20.804  28.278  1.00  0.00    -0.000 C 
BRANCH  16  17
ATOM     17  C   UNL     1       5.969  20.393  29.459  1.00  0.00    -0.003 C 
ATOM     18  C   UNL     1       5.719  21.569  30.397  1.00  0.00     0.004 C 
ENDBRANCH  16  17
ENDBRANCH  15  16
ENDBRANCH  14  15
ENDBRANCH  13  14
ENDBRANCH  12  13
ENDBRANCH  10  11
ENDBRANCH   1  10
TORSDOF 13
ENDMDL
MODEL 7
REMARK VINA RESULT:     3.507      1.712      3.729
REMARK INTER + INTRA:           5.367
REMARK INTER:                   6.033
REMARK INTRA:                  -0.666
REMARK UNBOUND:                -0.806
REMARK SMILES CCCCCCC=CCCCCCCCC(=O)[O-]
REMARK SMILES IDX 10 1 11 2 12 3 13 4 14 5 15 6 16 7 17 8 18 9 9 10 8 11 7 12
REMARK SMILES IDX 6 13 5 14 4 15 3 16 2 17 1 18
REMARK H PARENT
REMARK Flexibility Score: inf
ROOT
ATOM      1  C   UNL     1      11.610  22.383  32.726  1.00  0.00     0.004 C 
ENDROOT
BRANCH   1   2
ATOM      2  C   UNL     1      11.832  21.245  31.719  1.00  0.00     0.000 C 
BRANCH   2   3
ATOM      3  C   UNL     1      10.746  21.250  30.637  1.00  0.00     0.000 C 
BRANCH   3   4
ATOM      4  C   UNL     1      10.605  19.862  29.994  1.00  0.00     0.000 C 
BRANCH   4   5
ATOM      5  C   UNL     1       9.298  19.708  29.198  1.00  0.00     0.006 C 
BRANCH   5   6
ATOM      6  C   UNL     1       8.630  21.055  28.892  1.00  0.00     0.053 C 
BRANCH   6   7
ATOM      7  C   UNL     1       7.154  20.880  28.724  1.00  0.00     0.041 C 
ATOM      8  O   UNL     1       6.428  20.621  29.719  1.00  0.00    -0.550 OA
ATOM      9  O   UNL     1       6.585  20.961  27.459  1.00  0.00    -0.550 OA
ENDBRANCH   6   7
ENDBRANCH   5   6
ENDBRANCH   4   5
ENDBRANCH   3   4
ENDBRANCH   2   3
ENDBRANCH   1   2
BRANCH   1  10
ATOM     10  C   UNL     1      12.415  22.196  34.021  1.00  0.00     0.027 C 
BRANCH  10  11
ATOM     11  C   UNL     1      11.668  21.447  35.101  1.00  0.00    -0.031 C 
ATOM     12  C   UNL     1      11.837  20.147  35.413  1.00  0.00    -0.031 C 
BRANCH  12  13
ATOM     13  C   UNL     1      12.848  19.222  34.783  1.00  0.00     0.027 C 
BRANCH  13  14
ATOM     14  C   UNL     1      12.426  18.809  33.365  1.00  0.00     0.004 C 
BRANCH  14  15
ATOM     15  C   UNL     1      13.612  18.767  32.389  1.00  0.00     0.000 C 
BRANCH  15  16
ATOM     16  C   UNL     1      14.832  19.484  32.979  1.00  0.00    -0.000 C 
BRANCH  16  17
ATOM     17  C   UNL     1      15.893  19.742  31.901  1.00  0.00    -0.003 C 
ATOM     18  C   UNL     1      17.298  19.708  32.492  1.00  0.00     0.004 C 
ENDBRANCH  16  17
ENDBRANCH  15  16
ENDBRANCH  14  15
ENDBRANCH  13  14
ENDBRANCH  12  13
ENDBRANCH  10  11
ENDBRANCH   1  10
TORSDOF 13
ENDMDL
MODEL 8
REMARK VINA RESULT:     3.641      1.276      3.409
REMARK INTER + INTRA:           5.603
REMARK INTER:                   6.443
REMARK INTRA:                  -0.840
REMARK UNBOUND:                -0.806
REMARK SMILES CCCCCCC=CCCCCCCCC(=O)[O-]
REMARK SMILES IDX 10 1 11 2 12 3 13 4 14 5 15 6 16 7 17 8 18 9 9 10 8 11 7 12
REMARK SMILES IDX 6 13 5 14 4 15 3 16 2 17 1 18
REMARK H PARENT
REMARK Flexibility Score: inf
ROOT
ATOM      1  C   UNL     1      11.228  22.988  31.841  1.00  0.00     0.004 C 
ENDROOT
BRANCH   1   2
ATOM      2  C   UNL     1      10.827  22.260  30.550  1.00  0.00     0.000 C 
BRANCH   2   3
ATOM      3  C   UNL     1      11.170  20.768  30.631  1.00  0.00     0.000 C 
BRANCH   3   4
ATOM      4  C   UNL     1      10.549  19.996  29.457  1.00  0.00     0.000 C 
BRANCH   4   5
ATOM      5  C   UNL     1       9.012  19.987  29.502  1.00  0.00     0.006 C 
BRANCH   5   6
ATOM      6  C   UNL     1       8.386  20.997  28.532  1.00  0.00     0.053 C 
BRANCH   6   7
ATOM      7  C   UNL     1       6.897  20.848  28.512  1.00  0.00     0.041 C 
ATOM      8  O   UNL     1       6.279  20.797  27.417  1.00  0.00    -0.550 OA
ATOM      9  O   UNL     1       6.186  20.809  29.706  1.00  0.00    -0.550 OA
ENDBRANCH   6   7
ENDBRANCH   5   6
ENDBRANCH   4   5
ENDBRANCH   3   4
ENDBRANCH   2   3
ENDBRANCH   1   2
BRANCH   1  10
ATOM     10  C   UNL     1      11.753  22.032  32.923  1.00  0.00     0.027 C 
BRANCH  10  11
ATOM     11  C   UNL     1      12.198  22.728  34.189  1.00  0.00    -0.031 C 
ATOM     12  C   UNL     1      11.996  22.279  35.443  1.00  0.00    -0.031 C 
BRANCH  12  13
ATOM     13  C   UNL     1      11.344  20.968  35.807  1.00  0.00     0.027 C 
BRANCH  13  14
ATOM     14  C   UNL     1      12.357  19.814  35.800  1.00  0.00     0.004 C 
BRANCH  14  15
ATOM     15  C   UNL     1      12.299  18.990  34.505  1.00  0.00     0.000 C 
BRANCH  15  16
ATOM     16  C   UNL     1      13.520  19.271  33.621  1.00  0.00    -0.000 C 
BRANCH  16  17
ATOM     17  C   UNL     1      13.235  18.909  32.158  1.00  0.00    -0.003 C 
ATOM     18  C   UNL     1      12.504  17.574  32.054  1.00  0.00     0.004 C 
ENDBRANCH  16  17
ENDBRANCH  15  16
ENDBRANCH  14  15
ENDBRANCH  13  14
ENDBRANCH  12  13
ENDBRANCH  10  11
ENDBRANCH   1  10
TORSDOF 13
ENDMDL
MODEL 9
REMARK VINA RESULT:     3.755      3.238      7.242
REMARK INTER + INTRA:           5.803
REMARK INTER:                   6.527
REMARK INTRA:                  -0.724
REMARK UNBOUND:                -0.806
REMARK SMILES CCCCCCC=CCCCCCCCC(=O)[O-]
REMARK SMILES IDX 10 1 11 2 12 3 13 4 14 5 15 6 16 7 17 8 18 9 9 10 8 11 7 12
REMARK SMILES IDX 6 13 5 14 4 15 3 16 2 17 1 18
REMARK H PARENT
REMARK Flexibility Score: inf
ROOT
ATOM      1  C   UNL     1      13.113  19.101  33.171  1.00  0.00     0.004 C 
ENDROOT
BRANCH   1   2
ATOM      2  C   UNL     1      12.085  18.943  34.301  1.00  0.00     0.000 C 
BRANCH   2   3
ATOM      3  C   UNL     1      12.109  20.156  35.239  1.00  0.00     0.000 C 
BRANCH   3   4
ATOM      4  C   UNL     1      12.098  21.468  34.441  1.00  0.00     0.000 C 
BRANCH   4   5
ATOM      5  C   UNL     1      12.056  22.711  35.345  1.00  0.00     0.006 C 
BRANCH   5   6
ATOM      6  C   UNL     1      11.129  22.531  36.554  1.00  0.00     0.053 C 
BRANCH   6   7
ATOM      7  C   UNL     1      10.936  23.833  37.264  1.00  0.00     0.041 C 
ATOM      8  O   UNL     1      11.812  24.735  37.186  1.00  0.00    -0.550 OA
ATOM      9  O   UNL     1       9.807  24.037  38.049  1.00  0.00    -0.550 OA
ENDBRANCH   6   7
ENDBRANCH   5   6
ENDBRANCH   4   5
ENDBRANCH   3   4
ENDBRANCH   2   3
ENDBRANCH   1   2
BRANCH   1  10
ATOM     10  C   UNL     1      12.472  19.056  31.775  1.00  0.00     0.027 C 
BRANCH  10  11
ATOM     11  C   UNL     1      11.976  20.398  31.288  1.00  0.00    -0.031 C 
ATOM     12  C   UNL     1      10.931  20.595  30.461  1.00  0.00    -0.031 C 
BRANCH  12  13
ATOM     13  C   UNL     1      10.029  19.512  29.922  1.00  0.00     0.027 C 
BRANCH  13  14
ATOM     14  C   UNL     1       9.271  19.982  28.670  1.00  0.00     0.004 C 
BRANCH  14  15
ATOM     15  C   UNL     1       8.309  21.141  28.968  1.00  0.00     0.000 C 
BRANCH  15  16
ATOM     16  C   UNL     1       6.919  20.863  28.382  1.00  0.00    -0.000 C 
BRANCH  16  17
ATOM     17  C   UNL     1       5.941  20.414  29.475  1.00  0.00    -0.003 C 
ATOM     18  C   UNL     1       5.650  21.548  30.453  1.00  0.00     0.004 C 
ENDBRANCH  16  17
ENDBRANCH  15  16
ENDBRANCH  14  15
ENDBRANCH  13  14
ENDBRANCH  12  13
ENDBRANCH  10  11
ENDBRANCH   1  10
TORSDOF 13
ENDMDL
