MODEL 1
REMARK VINA RESULT:    -2.352      0.000      0.000
REMARK INTER + INTRA:          -2.640
REMARK INTER:                  -2.627
REMARK INTRA:                  -0.012
REMARK UNBOUND:                -0.012
REMARK SMILES CCCC(=O)[O-]
REMARK SMILES IDX 3 1 4 2 5 3 6 4 2 5 1 6
REMARK H PARENT
REMARK Flexibility Score: inf
ROOT
ATOM      1  C   UNL     1      -7.368  20.679  16.741  1.00  0.00     0.052 C 
ENDROOT
BRANCH   1   2
ATOM      2  C   UNL     1      -8.414  21.357  17.571  1.00  0.00     0.041 C 
ATOM      3  O   UNL     1      -9.125  20.688  18.366  1.00  0.00    -0.550 OA
ATOM      4  O   UNL     1      -8.626  22.724  17.441  1.00  0.00    -0.550 OA
ENDBRANCH   1   2
BRANCH   1   5
ATOM      5  C   UNL     1      -7.473  21.074  15.262  1.00  0.00     0.003 C 
ATOM      6  C   UNL     1      -6.124  21.008  14.546  1.00  0.00     0.004 C 
ENDBRANCH   1   5
TORSDOF 2
ENDMDL
MODEL 2
REMARK VINA RESULT:    -2.246      6.687      7.332
REMARK INTER + INTRA:          -2.521
REMARK INTER:                  -2.515
REMARK INTRA:                  -0.006
REMARK UNBOUND:                -0.012
REMARK SMILES CCCC(=O)[O-]
REMARK SMILES IDX 3 1 4 2 5 3 6 4 2 5 1 6
REMARK H PARENT
REMARK Flexibility Score: inf
ROOT
ATOM      1  C   UNL     1      -1.240  21.178  17.929  1.00  0.00     0.052 C 
ENDROOT
BRANCH   1   2
ATOM      2  C   UNL     1      -1.473  20.972  16.464  1.00  0.00     0.041 C 
ATOM      3  O   UNL     1      -0.622  21.368  15.625  1.00  0.00    -0.550 OA
ATOM      4  O   UNL     1      -2.644  20.369  16.024  1.00  0.00    -0.550 OA
ENDBRANCH   1   2
BRANCH   1   5
ATOM      5  C   UNL     1      -1.480  19.890  18.728  1.00  0.00     0.003 C 
ATOM      6  C   UNL     1      -0.715  19.875  20.051  1.00  0.00     0.004 C 
ENDBRANCH   1   5
TORSDOF 2
ENDMDL
MODEL 3
REMARK VINA RESULT:    -2.206      1.317      1.567
REMARK INTER + INTRA:          -2.476
REMARK INTER:                  -2.447
REMARK INTRA:                  -0.029
REMARK UNBOUND:                -0.012
REMARK SMILES CCCC(=O)[O-]
REMARK SMILES IDX 3 1 4 2 5 3 6 4 2 5 1 6
REMARK H PARENT
REMARK Flexibility Score: inf
ROOT
ATOM      1  C   UNL     1      -7.920  21.524  16.566  1.00  0.00     0.052 C 
ENDROOT
BRANCH   1   2
ATOM      2  C   UNL     1      -7.680  20.677  17.778  1.00  0.00     0.041 C 
ATOM      3  O   UNL     1      -8.589  20.527  18.637  1.00  0.00    -0.550 OA
ATOM      4  O   UNL     1      -6.442  20.080  17.976  1.00  0.00    -0.550 OA
ENDBRANCH   1   2
BRANCH   1   5
ATOM      5  C   UNL     1      -7.663  20.743  15.270  1.00  0.00     0.003 C 
ATOM      6  C   UNL     1      -6.325  21.106  14.628  1.00  0.00     0.004 C 
ENDBRANCH   1   5
TORSDOF 2
ENDMDL
MODEL 4
REMARK VINA RESULT:    -2.012      1.217      1.475
REMARK INTER + INTRA:          -2.259
REMARK INTER:                  -2.239
REMARK INTRA:                  -0.020
REMARK UNBOUND:                -0.012
REMARK SMILES CCCC(=O)[O-]
REMARK SMILES IDX 3 1 4 2 5 3 6 4 2 5 1 6
REMARK H PARENT
REMARK Flexibility Score: inf
ROOT
ATOM      1  C   UNL     1      -8.374  22.107  17.171  1.00  0.00     0.052 C 
ENDROOT
BRANCH   1   2
ATOM      2  C   UNL     1      -8.384  21.708  18.615  1.00  0.00     0.041 C 
ATOM      3  O   UNL     1      -8.426  20.491  18.936  1.00  0.00    -0.550 OA
ATOM      4  O   UNL     1      -8.378  22.681  19.605  1.00  0.00    -0.550 OA
ENDBRANCH   1   2
BRANCH   1   5
ATOM      5  C   UNL     1      -8.205  20.892  16.249  1.00  0.00     0.003 C 
ATOM      6  C   UNL     1      -7.160  21.131  15.159  1.00  0.00     0.004 C 
ENDBRANCH   1   5
TORSDOF 2
ENDMDL
MODEL 5
REMARK VINA RESULT:    -1.965      1.978      3.453
REMARK INTER + INTRA:          -2.207
REMARK INTER:                  -2.179
REMARK INTRA:                  -0.029
REMARK UNBOUND:                -0.012
REMARK SMILES CCCC(=O)[O-]
REMARK SMILES IDX 3 1 4 2 5 3 6 4 2 5 1 6
REMARK H PARENT
REMARK Flexibility Score: inf
ROOT
ATOM      1  C   UNL     1      -9.005  21.403  17.440  1.00  0.00     0.052 C 
ENDROOT
BRANCH   1   2
ATOM      2  C   UNL     1      -7.743  21.023  16.730  1.00  0.00     0.041 C 
ATOM      3  O   UNL     1      -7.555  21.380  15.536  1.00  0.00    -0.550 OA
ATOM      4  O   UNL     1      -6.787  20.249  17.375  1.00  0.00    -0.550 OA
ENDBRANCH   1   2
BRANCH   1   5
ATOM      5  C   UNL     1      -9.013  22.888  17.828  1.00  0.00     0.003 C 
ATOM      6  C   UNL     1      -8.722  23.102  19.313  1.00  0.00     0.004 C 
ENDBRANCH   1   5
TORSDOF 2
ENDMDL
MODEL 6
REMARK VINA RESULT:    -1.931     17.890     18.732
REMARK INTER + INTRA:          -2.169
REMARK INTER:                  -2.161
REMARK INTRA:                  -0.009
REMARK UNBOUND:                -0.012
REMARK SMILES CCCC(=O)[O-]
REMARK SMILES IDX 3 1 4 2 5 3 6 4 2 5 1 6
REMARK H PARENT
REMARK Flexibility Score: inf
ROOT
ATOM      1  C   UNL     1      10.696  22.445  12.204  1.00  0.00     0.052 C 
ENDROOT
BRANCH   1   2
ATOM      2  C   UNL     1      10.020  21.819  13.385  1.00  0.00     0.041 C 
ATOM      3  O   UNL     1       8.864  21.333  13.270  1.00  0.00    -0.550 OA
ATOM      4  O   UNL     1      10.654  21.801  14.620  1.00  0.00    -0.550 OA
ENDBRANCH   1   2
BRANCH   1   5
ATOM      5  C   UNL     1      11.125  23.889  12.496  1.00  0.00     0.003 C 
ATOM      6  C   UNL     1      10.641  24.867  11.426  1.00  0.00     0.004 C 
ENDBRANCH   1   5
TORSDOF 2
ENDMDL
MODEL 7
REMARK VINA RESULT:    -1.860      2.323      3.383
REMARK INTER + INTRA:          -2.089
REMARK INTER:                  -2.046
REMARK INTRA:                  -0.044
REMARK UNBOUND:                -0.012
REMARK SMILES CCCC(=O)[O-]
REMARK SMILES IDX 3 1 4 2 5 3 6 4 2 5 1 6
REMARK H PARENT
REMARK Flexibility Score: inf
ROOT
ATOM      1  C   UNL     1      -8.341  20.876  15.620  1.00  0.00     0.052 C 
ENDROOT
BRANCH   1   2
ATOM      2  C   UNL     1      -6.849  20.769  15.558  1.00  0.00     0.041 C 
ATOM      3  O   UNL     1      -6.231  21.109  14.514  1.00  0.00    -0.550 OA
ATOM      4  O   UNL     1      -6.142  20.263  16.641  1.00  0.00    -0.550 OA
ENDBRANCH   1   2
BRANCH   1   5
ATOM      5  C   UNL     1      -8.838  21.025  17.064  1.00  0.00     0.003 C 
ATOM      6  C   UNL     1      -8.767  22.470  17.557  1.00  0.00     0.004 C 
ENDBRANCH   1   5
TORSDOF 2
ENDMDL
MODEL 8
REMARK VINA RESULT:    -1.857     13.929     14.811
REMARK INTER + INTRA:          -2.086
REMARK INTER:                  -2.066
REMARK INTRA:                  -0.020
REMARK UNBOUND:                -0.012
REMARK SMILES CCCC(=O)[O-]
REMARK SMILES IDX 3 1 4 2 5 3 6 4 2 5 1 6
REMARK H PARENT
REMARK Flexibility Score: inf
ROOT
ATOM      1  C   UNL     1       7.194  20.240  15.933  1.00  0.00     0.052 C 
ENDROOT
BRANCH   1   2
ATOM      2  C   UNL     1       5.869  20.888  15.673  1.00  0.00     0.041 C 
ATOM      3  O   UNL     1       5.313  21.576  16.569  1.00  0.00    -0.550 OA
ATOM      4  O   UNL     1       5.234  20.705  14.451  1.00  0.00    -0.550 OA
ENDBRANCH   1   2
BRANCH   1   5
ATOM      5  C   UNL     1       7.983  20.022  14.635  1.00  0.00     0.003 C 
ATOM      6  C   UNL     1       9.286  20.820  14.606  1.00  0.00     0.004 C 
ENDBRANCH   1   5
TORSDOF 2
ENDMDL
MODEL 9
REMARK VINA RESULT:    -1.830     14.527     15.438
REMARK INTER + INTRA:          -2.057
REMARK INTER:                  -2.020
REMARK INTRA:                  -0.037
REMARK UNBOUND:                -0.012
REMARK SMILES CCCC(=O)[O-]
REMARK SMILES IDX 3 1 4 2 5 3 6 4 2 5 1 6
REMARK H PARENT
REMARK Flexibility Score: inf
ROOT
ATOM      1  C   UNL     1       7.202  20.070  15.842  1.00  0.00     0.052 C 
ENDROOT
BRANCH   1   2
ATOM      2  C   UNL     1       8.045  20.421  14.655  1.00  0.00     0.041 C 
ATOM      3  O   UNL     1       7.633  20.178  13.490  1.00  0.00    -0.550 OA
ATOM      4  O   UNL     1       9.300  20.988  14.837  1.00  0.00    -0.550 OA
ENDBRANCH   1   2
BRANCH   1   5
ATOM      5  C   UNL     1       5.990  21.003  15.972  1.00  0.00     0.003 C 
ATOM      6  C   UNL     1       4.696  20.342  15.499  1.00  0.00     0.004 C 
ENDBRANCH   1   5
TORSDOF 2
ENDMDL
