MODEL 1
REMARK VINA RESULT:    -3.861      0.000      0.000
REMARK INTER + INTRA:         -13.857
REMARK INTER:                 -10.181
REMARK INTRA:                  -3.676
REMARK UNBOUND:                -3.676
REMARK SMILES CCCCCCCCCCCCCCCCCCCCCCCCCCCCCC(=O)[O-]
REMARK SMILES IDX 16 1 17 2 18 3 19 4 20 5 21 6 22 7 23 8 24 9 25 10 26 11
REMARK SMILES IDX 27 12 28 13 29 14 30 15 31 16 32 17 15 18 14 19 13 20 12 21
REMARK SMILES IDX 11 22 10 23 9 24 8 25 7 26 6 27 5 28 4 29 3 30 2 31 1 32
REMARK H PARENT
REMARK Flexibility Score: inf
ROOT
ATOM      1  C   UNL     1     -22.272 -10.948  39.391  1.00  0.00     0.000 C 
ENDROOT
BRANCH   1   2
ATOM      2  C   UNL     1     -20.950 -11.621  39.813  1.00  0.00     0.000 C 
BRANCH   2   3
ATOM      3  C   UNL     1     -20.006 -11.997  38.655  1.00  0.00     0.000 C 
BRANCH   3   4
ATOM      4  C   UNL     1     -19.468 -13.434  38.763  1.00  0.00     0.000 C 
BRANCH   4   5
ATOM      5  C   UNL     1     -20.572 -14.452  39.096  1.00  0.00     0.000 C 
BRANCH   5   6
ATOM      6  C   UNL     1     -20.040 -15.680  39.850  1.00  0.00     0.000 C 
BRANCH   6   7
ATOM      7  C   UNL     1     -20.751 -15.842  41.202  1.00  0.00     0.000 C 
BRANCH   7   8
ATOM      8  C   UNL     1     -21.031 -14.500  41.895  1.00  0.00     0.000 C 
BRANCH   8   9
ATOM      9  C   UNL     1     -22.451 -14.416  42.477  1.00  0.00     0.000 C 
BRANCH   9  10
ATOM     10  C   UNL     1     -22.749 -15.620  43.384  1.00  0.00     0.000 C 
BRANCH  10  11
ATOM     11  C   UNL     1     -21.852 -15.657  44.638  1.00  0.00     0.000 C 
BRANCH  11  12
ATOM     12  C   UNL     1     -22.329 -14.745  45.785  1.00  0.00     0.000 C 
BRANCH  12  13
ATOM     13  C   UNL     1     -21.198 -13.954  46.472  1.00  0.00     0.006 C 
BRANCH  13  14
ATOM     14  C   UNL     1     -21.457 -13.750  47.972  1.00  0.00     0.053 C 
BRANCH  14  15
ATOM     15  C   UNL     1     -21.479 -12.293  48.309  1.00  0.00     0.041 C 
ATOM     16  O   UNL     1     -22.322 -11.846  49.132  1.00  0.00    -0.550 OA
ATOM     17  O   UNL     1     -20.605 -11.419  47.673  1.00  0.00    -0.550 OA
ENDBRANCH  14  15
ENDBRANCH  13  14
ENDBRANCH  12  13
ENDBRANCH  11  12
ENDBRANCH  10  11
ENDBRANCH   9  10
ENDBRANCH   8   9
ENDBRANCH   7   8
ENDBRANCH   6   7
ENDBRANCH   5   6
ENDBRANCH   4   5
ENDBRANCH   3   4
ENDBRANCH   2   3
ENDBRANCH   1   2
BRANCH   1  18
ATOM     18  C   UNL     1     -23.512 -11.864  39.429  1.00  0.00     0.000 C 
BRANCH  18  19
ATOM     19  C   UNL     1     -23.634 -12.846  38.246  1.00  0.00     0.000 C 
BRANCH  19  20
ATOM     20  C   UNL     1     -23.912 -12.193  36.880  1.00  0.00     0.000 C 
BRANCH  20  21
ATOM     21  C   UNL     1     -22.658 -12.115  35.994  1.00  0.00     0.000 C 
BRANCH  21  22
ATOM     22  C   UNL     1     -21.991 -13.484  35.775  1.00  0.00     0.000 C 
BRANCH  22  23
ATOM     23  C   UNL     1     -20.701 -13.464  34.930  1.00  0.00     0.000 C 
BRANCH  23  24
ATOM     24  C   UNL     1     -20.892 -13.068  33.456  1.00  0.00    -0.000 C 
BRANCH  24  25
ATOM     25  C   UNL     1     -22.167 -13.662  32.837  1.00  0.00    -0.000 C 
BRANCH  25  26
ATOM     26  C   UNL     1     -22.929 -12.605  32.032  1.00  0.00    -0.000 C 
BRANCH  26  27
ATOM     27  C   UNL     1     -24.435 -12.669  32.325  1.00  0.00    -0.000 C 
BRANCH  27  28
ATOM     28  C   UNL     1     -24.942 -11.458  33.128  1.00  0.00    -0.000 C 
BRANCH  28  29
ATOM     29  C   UNL     1     -26.467 -11.417  33.354  1.00  0.00    -0.000 C 
BRANCH  29  30
ATOM     30  C   UNL     1     -26.918 -11.598  34.817  1.00  0.00    -0.000 C 
BRANCH  30  31
ATOM     31  C   UNL     1     -28.046 -10.654  35.268  1.00  0.00    -0.003 C 
ATOM     32  C   UNL     1     -28.366  -9.574  34.233  1.00  0.00     0.004 C 
ENDBRANCH  30  31
ENDBRANCH  29  30
ENDBRANCH  28  29
ENDBRANCH  27  28
ENDBRANCH  26  27
ENDBRANCH  25  26
ENDBRANCH  24  25
ENDBRANCH  23  24
ENDBRANCH  22  23
ENDBRANCH  21  22
ENDBRANCH  20  21
ENDBRANCH  19  20
ENDBRANCH  18  19
ENDBRANCH   1  18
TORSDOF 28
ENDMDL
MODEL 2
REMARK VINA RESULT:    -3.853      5.369      9.650
REMARK INTER + INTRA:         -13.835
REMARK INTER:                  -9.534
REMARK INTRA:                  -4.301
REMARK UNBOUND:                -3.676
REMARK SMILES CCCCCCCCCCCCCCCCCCCCCCCCCCCCCC(=O)[O-]
REMARK SMILES IDX 16 1 17 2 18 3 19 4 20 5 21 6 22 7 23 8 24 9 25 10 26 11
REMARK SMILES IDX 27 12 28 13 29 14 30 15 31 16 32 17 15 18 14 19 13 20 12 21
REMARK SMILES IDX 11 22 10 23 9 24 8 25 7 26 6 27 5 28 4 29 3 30 2 31 1 32
REMARK H PARENT
REMARK Flexibility Score: inf
ROOT
ATOM      1  C   UNL     1     -24.780  -8.672  45.689  1.00  0.00     0.000 C 
ENDROOT
BRANCH   1   2
ATOM      2  C   UNL     1     -25.960  -9.138  44.812  1.00  0.00     0.000 C 
BRANCH   2   3
ATOM      3  C   UNL     1     -25.745 -10.476  44.081  1.00  0.00     0.000 C 
BRANCH   3   4
ATOM      4  C   UNL     1     -26.595 -11.619  44.663  1.00  0.00     0.000 C 
BRANCH   4   5
ATOM      5  C   UNL     1     -25.849 -12.964  44.666  1.00  0.00     0.000 C 
BRANCH   5   6
ATOM      6  C   UNL     1     -24.957 -13.146  45.904  1.00  0.00     0.000 C 
BRANCH   6   7
ATOM      7  C   UNL     1     -25.732 -12.815  47.189  1.00  0.00     0.000 C 
BRANCH   7   8
ATOM      8  C   UNL     1     -26.092 -14.063  48.008  1.00  0.00     0.000 C 
BRANCH   8   9
ATOM      9  C   UNL     1     -27.151 -13.780  49.086  1.00  0.00     0.000 C 
BRANCH   9  10
ATOM     10  C   UNL     1     -28.254 -14.850  49.070  1.00  0.00     0.000 C 
BRANCH  10  11
ATOM     11  C   UNL     1     -28.123 -15.824  47.882  1.00  0.00     0.000 C 
BRANCH  11  12
ATOM     12  C   UNL     1     -29.315 -15.796  46.905  1.00  0.00     0.000 C 
BRANCH  12  13
ATOM     13  C   UNL     1     -29.701 -14.383  46.425  1.00  0.00     0.006 C 
BRANCH  13  14
ATOM     14  C   UNL     1     -29.152 -14.074  45.024  1.00  0.00     0.053 C 
BRANCH  14  15
ATOM     15  C   UNL     1     -30.038 -13.102  44.313  1.00  0.00     0.041 C 
ATOM     16  O   UNL     1     -30.541 -12.129  44.937  1.00  0.00    -0.550 OA
ATOM     17  O   UNL     1     -30.355 -13.301  42.974  1.00  0.00    -0.550 OA
ENDBRANCH  14  15
ENDBRANCH  13  14
ENDBRANCH  12  13
ENDBRANCH  11  12
ENDBRANCH  10  11
ENDBRANCH   9  10
ENDBRANCH   8   9
ENDBRANCH   7   8
ENDBRANCH   6   7
ENDBRANCH   5   6
ENDBRANCH   4   5
ENDBRANCH   3   4
ENDBRANCH   2   3
ENDBRANCH   1   2
BRANCH   1  18
ATOM     18  C   UNL     1     -24.490  -9.558  46.918  1.00  0.00     0.000 C 
BRANCH  18  19
ATOM     19  C   UNL     1     -22.995  -9.741  47.252  1.00  0.00     0.000 C 
BRANCH  19  20
ATOM     20  C   UNL     1     -22.694 -10.764  48.361  1.00  0.00     0.000 C 
BRANCH  20  21
ATOM     21  C   UNL     1     -21.829 -11.936  47.868  1.00  0.00     0.000 C 
BRANCH  21  22
ATOM     22  C   UNL     1     -22.246 -13.287  48.473  1.00  0.00     0.000 C 
BRANCH  22  23
ATOM     23  C   UNL     1     -21.885 -14.529  47.632  1.00  0.00     0.000 C 
BRANCH  23  24
ATOM     24  C   UNL     1     -21.386 -14.230  46.208  1.00  0.00    -0.000 C 
BRANCH  24  25
ATOM     25  C   UNL     1     -21.206 -15.497  45.358  1.00  0.00    -0.000 C 
BRANCH  25  26
ATOM     26  C   UNL     1     -21.379 -15.187  43.868  1.00  0.00    -0.000 C 
BRANCH  26  27
ATOM     27  C   UNL     1     -22.839 -15.376  43.432  1.00  0.00    -0.000 C 
BRANCH  27  28
ATOM     28  C   UNL     1     -23.333 -14.262  42.491  1.00  0.00    -0.000 C 
BRANCH  28  29
ATOM     29  C   UNL     1     -22.282 -13.739  41.491  1.00  0.00    -0.000 C 
BRANCH  29  30
ATOM     30  C   UNL     1     -22.666 -12.439  40.757  1.00  0.00    -0.000 C 
BRANCH  30  31
ATOM     31  C   UNL     1     -21.478 -11.643  40.189  1.00  0.00    -0.003 C 
ATOM     32  C   UNL     1     -20.243 -11.695  41.089  1.00  0.00     0.004 C 
ENDBRANCH  30  31
ENDBRANCH  29  30
ENDBRANCH  28  29
ENDBRANCH  27  28
ENDBRANCH  26  27
ENDBRANCH  25  26
ENDBRANCH  24  25
ENDBRANCH  23  24
ENDBRANCH  22  23
ENDBRANCH  21  22
ENDBRANCH  20  21
ENDBRANCH  19  20
ENDBRANCH  18  19
ENDBRANCH   1  18
TORSDOF 28
ENDMDL
MODEL 3
REMARK VINA RESULT:    -3.832      4.505      9.567
REMARK INTER + INTRA:         -13.782
REMARK INTER:                 -10.018
REMARK INTRA:                  -3.763
REMARK UNBOUND:                -3.676
REMARK SMILES CCCCCCCCCCCCCCCCCCCCCCCCCCCCCC(=O)[O-]
REMARK SMILES IDX 16 1 17 2 18 3 19 4 20 5 21 6 22 7 23 8 24 9 25 10 26 11
REMARK SMILES IDX 27 12 28 13 29 14 30 15 31 16 32 17 15 18 14 19 13 20 12 21
REMARK SMILES IDX 11 22 10 23 9 24 8 25 7 26 6 27 5 28 4 29 3 30 2 31 1 32
REMARK H PARENT
REMARK Flexibility Score: inf
ROOT
ATOM      1  C   UNL     1     -25.623  -9.385  40.995  1.00  0.00     0.000 C 
ENDROOT
BRANCH   1   2
ATOM      2  C   UNL     1     -24.352  -9.408  40.121  1.00  0.00     0.000 C 
BRANCH   2   3
ATOM      3  C   UNL     1     -23.742 -10.803  39.888  1.00  0.00     0.000 C 
BRANCH   3   4
ATOM      4  C   UNL     1     -22.385 -10.749  39.165  1.00  0.00     0.000 C 
BRANCH   4   5
ATOM      5  C   UNL     1     -21.199 -10.948  40.124  1.00  0.00     0.000 C 
BRANCH   5   6
ATOM      6  C   UNL     1     -19.985 -11.595  39.442  1.00  0.00     0.000 C 
BRANCH   6   7
ATOM      7  C   UNL     1     -20.426 -12.724  38.499  1.00  0.00     0.000 C 
BRANCH   7   8
ATOM      8  C   UNL     1     -20.001 -14.116  38.990  1.00  0.00     0.000 C 
BRANCH   8   9
ATOM      9  C   UNL     1     -21.194 -15.056  39.219  1.00  0.00     0.000 C 
BRANCH   9  10
ATOM     10  C   UNL     1     -22.526 -14.329  38.974  1.00  0.00     0.000 C 
BRANCH  10  11
ATOM     11  C   UNL     1     -23.454 -14.358  40.206  1.00  0.00     0.000 C 
BRANCH  11  12
ATOM     12  C   UNL     1     -22.792 -13.869  41.509  1.00  0.00     0.000 C 
BRANCH  12  13
ATOM     13  C   UNL     1     -22.708 -14.942  42.613  1.00  0.00     0.006 C 
BRANCH  13  14
ATOM     14  C   UNL     1     -21.654 -14.604  43.676  1.00  0.00     0.053 C 
BRANCH  14  15
ATOM     15  C   UNL     1     -20.286 -14.574  43.072  1.00  0.00     0.041 C 
ATOM     16  O   UNL     1     -19.579 -13.534  43.154  1.00  0.00    -0.550 OA
ATOM     17  O   UNL     1     -19.813 -15.675  42.368  1.00  0.00    -0.550 OA
ENDBRANCH  14  15
ENDBRANCH  13  14
ENDBRANCH  12  13
ENDBRANCH  11  12
ENDBRANCH  10  11
ENDBRANCH   9  10
ENDBRANCH   8   9
ENDBRANCH   7   8
ENDBRANCH   6   7
ENDBRANCH   5   6
ENDBRANCH   4   5
ENDBRANCH   3   4
ENDBRANCH   2   3
ENDBRANCH   1   2
BRANCH   1  18
ATOM     18  C   UNL     1     -25.610 -10.356  42.192  1.00  0.00     0.000 C 
BRANCH  18  19
ATOM     19  C   UNL     1     -25.785  -9.692  43.573  1.00  0.00     0.000 C 
BRANCH  19  20
ATOM     20  C   UNL     1     -26.402 -10.591  44.658  1.00  0.00     0.000 C 
BRANCH  20  21
ATOM     21  C   UNL     1     -25.813 -12.011  44.658  1.00  0.00     0.000 C 
BRANCH  21  22
ATOM     22  C   UNL     1     -26.885 -13.106  44.518  1.00  0.00     0.000 C 
BRANCH  22  23
ATOM     23  C   UNL     1     -28.318 -12.600  44.253  1.00  0.00     0.000 C 
BRANCH  23  24
ATOM     24  C   UNL     1     -29.438 -13.581  44.637  1.00  0.00    -0.000 C 
BRANCH  24  25
ATOM     25  C   UNL     1     -28.933 -14.770  45.470  1.00  0.00    -0.000 C 
BRANCH  25  26
ATOM     26  C   UNL     1     -29.654 -14.837  46.820  1.00  0.00    -0.000 C 
BRANCH  26  27
ATOM     27  C   UNL     1     -29.291 -16.125  47.574  1.00  0.00    -0.000 C 
BRANCH  27  28
ATOM     28  C   UNL     1     -28.745 -15.858  48.988  1.00  0.00    -0.000 C 
BRANCH  28  29
ATOM     29  C   UNL     1     -28.467 -14.376  49.311  1.00  0.00    -0.000 C 
BRANCH  29  30
ATOM     30  C   UNL     1     -26.977 -14.002  49.445  1.00  0.00    -0.000 C 
BRANCH  30  31
ATOM     31  C   UNL     1     -26.235 -13.815  48.111  1.00  0.00    -0.003 C 
ATOM     32  C   UNL     1     -25.171 -12.718  48.171  1.00  0.00     0.004 C 
ENDBRANCH  30  31
ENDBRANCH  29  30
ENDBRANCH  28  29
ENDBRANCH  27  28
ENDBRANCH  26  27
ENDBRANCH  25  26
ENDBRANCH  24  25
ENDBRANCH  23  24
ENDBRANCH  22  23
ENDBRANCH  21  22
ENDBRANCH  20  21
ENDBRANCH  19  20
ENDBRANCH  18  19
ENDBRANCH   1  18
TORSDOF 28
ENDMDL
MODEL 4
REMARK VINA RESULT:    -3.829      5.235     11.187
REMARK INTER + INTRA:         -13.772
REMARK INTER:                 -10.248
REMARK INTRA:                  -3.524
REMARK UNBOUND:                -3.676
REMARK SMILES CCCCCCCCCCCCCCCCCCCCCCCCCCCCCC(=O)[O-]
REMARK SMILES IDX 16 1 17 2 18 3 19 4 20 5 21 6 22 7 23 8 24 9 25 10 26 11
REMARK SMILES IDX 27 12 28 13 29 14 30 15 31 16 32 17 15 18 14 19 13 20 12 21
REMARK SMILES IDX 11 22 10 23 9 24 8 25 7 26 6 27 5 28 4 29 3 30 2 31 1 32
REMARK H PARENT
REMARK Flexibility Score: inf
ROOT
ATOM      1  C   UNL     1     -26.381 -10.591  44.521  1.00  0.00     0.000 C 
ENDROOT
BRANCH   1   2
ATOM      2  C   UNL     1     -25.697  -9.745  43.428  1.00  0.00     0.000 C 
BRANCH   2   3
ATOM      3  C   UNL     1     -25.550 -10.438  42.060  1.00  0.00     0.000 C 
BRANCH   3   4
ATOM      4  C   UNL     1     -25.580  -9.448  40.882  1.00  0.00     0.000 C 
BRANCH   4   5
ATOM      5  C   UNL     1     -24.260  -9.431  40.094  1.00  0.00     0.000 C 
BRANCH   5   6
ATOM      6  C   UNL     1     -23.746 -10.841  39.764  1.00  0.00     0.000 C 
BRANCH   6   7
ATOM      7  C   UNL     1     -22.214 -10.900  39.862  1.00  0.00     0.000 C 
BRANCH   7   8
ATOM      8  C   UNL     1     -21.567 -11.640  38.682  1.00  0.00     0.000 C 
BRANCH   8   9
ATOM      9  C   UNL     1     -22.596 -12.349  37.788  1.00  0.00     0.000 C 
BRANCH   9  10
ATOM     10  C   UNL     1     -22.180 -13.802  37.511  1.00  0.00     0.000 C 
BRANCH  10  11
ATOM     11  C   UNL     1     -22.531 -14.754  38.672  1.00  0.00     0.000 C 
BRANCH  11  12
ATOM     12  C   UNL     1     -21.310 -15.268  39.460  1.00  0.00     0.000 C 
BRANCH  12  13
ATOM     13  C   UNL     1     -21.173 -14.663  40.872  1.00  0.00     0.006 C 
BRANCH  13  14
ATOM     14  C   UNL     1     -22.525 -14.214  41.447  1.00  0.00     0.053 C 
BRANCH  14  15
ATOM     15  C   UNL     1     -22.810 -14.919  42.734  1.00  0.00     0.041 C 
ATOM     16  O   UNL     1     -22.072 -15.867  43.116  1.00  0.00    -0.550 OA
ATOM     17  O   UNL     1     -23.925 -14.567  43.487  1.00  0.00    -0.550 OA
ENDBRANCH  14  15
ENDBRANCH  13  14
ENDBRANCH  12  13
ENDBRANCH  11  12
ENDBRANCH  10  11
ENDBRANCH   9  10
ENDBRANCH   8   9
ENDBRANCH   7   8
ENDBRANCH   6   7
ENDBRANCH   5   6
ENDBRANCH   4   5
ENDBRANCH   3   4
ENDBRANCH   2   3
ENDBRANCH   1   2
BRANCH   1  18
ATOM     18  C   UNL     1     -25.844 -12.029  44.667  1.00  0.00     0.000 C 
BRANCH  18  19
ATOM     19  C   UNL     1     -26.925 -13.128  44.711  1.00  0.00     0.000 C 
BRANCH  19  20
ATOM     20  C   UNL     1     -28.318 -12.695  44.222  1.00  0.00     0.000 C 
BRANCH  20  21
ATOM     21  C   UNL     1     -29.416 -13.705  44.592  1.00  0.00     0.000 C 
BRANCH  21  22
ATOM     22  C   UNL     1     -28.960 -14.729  45.647  1.00  0.00     0.000 C 
BRANCH  22  23
ATOM     23  C   UNL     1     -29.731 -14.692  46.982  1.00  0.00     0.000 C 
BRANCH  23  24
ATOM     24  C   UNL     1     -29.163 -15.597  48.089  1.00  0.00    -0.000 C 
BRANCH  24  25
ATOM     25  C   UNL     1     -30.083 -15.694  49.315  1.00  0.00    -0.000 C 
BRANCH  25  26
ATOM     26  C   UNL     1     -30.486 -14.300  49.809  1.00  0.00    -0.000 C 
BRANCH  26  27
ATOM     27  C   UNL     1     -29.580 -13.841  50.960  1.00  0.00    -0.000 C 
BRANCH  27  28
ATOM     28  C   UNL     1     -28.588 -12.742  50.541  1.00  0.00    -0.000 C 
BRANCH  28  29
ATOM     29  C   UNL     1     -27.107 -13.052  50.838  1.00  0.00    -0.000 C 
BRANCH  29  30
ATOM     30  C   UNL     1     -26.642 -14.469  50.447  1.00  0.00    -0.000 C 
BRANCH  30  31
ATOM     31  C   UNL     1     -25.755 -14.536  49.193  1.00  0.00    -0.003 C 
ATOM     32  C   UNL     1     -25.916 -13.317  48.285  1.00  0.00     0.004 C 
ENDBRANCH  30  31
ENDBRANCH  29  30
ENDBRANCH  28  29
ENDBRANCH  27  28
ENDBRANCH  26  27
ENDBRANCH  25  26
ENDBRANCH  24  25
ENDBRANCH  23  24
ENDBRANCH  22  23
ENDBRANCH  21  22
ENDBRANCH  20  21
ENDBRANCH  19  20
ENDBRANCH  18  19
ENDBRANCH   1  18
TORSDOF 28
ENDMDL
MODEL 5
REMARK VINA RESULT:    -3.826      3.944      7.089
REMARK INTER + INTRA:         -13.765
REMARK INTER:                 -10.108
REMARK INTRA:                  -3.657
REMARK UNBOUND:                -3.676
REMARK SMILES CCCCCCCCCCCCCCCCCCCCCCCCCCCCCC(=O)[O-]
REMARK SMILES IDX 16 1 17 2 18 3 19 4 20 5 21 6 22 7 23 8 24 9 25 10 26 11
REMARK SMILES IDX 27 12 28 13 29 14 30 15 31 16 32 17 15 18 14 19 13 20 12 21
REMARK SMILES IDX 11 22 10 23 9 24 8 25 7 26 6 27 5 28 4 29 3 30 2 31 1 32
REMARK H PARENT
REMARK Flexibility Score: inf
ROOT
ATOM      1  C   UNL     1     -25.272 -10.297  42.414  1.00  0.00     0.000 C 
ENDROOT
BRANCH   1   2
ATOM      2  C   UNL     1     -26.007  -9.754  43.657  1.00  0.00     0.000 C 
BRANCH   2   3
ATOM      3  C   UNL     1     -26.148 -10.751  44.822  1.00  0.00     0.000 C 
BRANCH   3   4
ATOM      4  C   UNL     1     -25.765 -12.188  44.430  1.00  0.00     0.000 C 
BRANCH   4   5
ATOM      5  C   UNL     1     -26.922 -13.181  44.626  1.00  0.00     0.000 C 
BRANCH   5   6
ATOM      6  C   UNL     1     -28.287 -12.585  44.250  1.00  0.00     0.000 C 
BRANCH   6   7
ATOM      7  C   UNL     1     -29.425 -13.548  44.623  1.00  0.00     0.000 C 
BRANCH   7   8
ATOM      8  C   UNL     1     -28.960 -14.706  45.517  1.00  0.00     0.000 C 
BRANCH   8   9
ATOM      9  C   UNL     1     -29.624 -14.691  46.903  1.00  0.00     0.000 C 
BRANCH   9  10
ATOM     10  C   UNL     1     -28.734 -15.379  47.950  1.00  0.00     0.000 C 
BRANCH  10  11
ATOM     11  C   UNL     1     -27.881 -14.378  48.756  1.00  0.00     0.000 C 
BRANCH  11  12
ATOM     12  C   UNL     1     -26.373 -14.432  48.439  1.00  0.00     0.000 C 
BRANCH  12  13
ATOM     13  C   UNL     1     -25.645 -13.085  48.618  1.00  0.00     0.006 C 
BRANCH  13  14
ATOM     14  C   UNL     1     -24.527 -12.884  47.586  1.00  0.00     0.053 C 
BRANCH  14  15
ATOM     15  C   UNL     1     -23.228 -13.414  48.105  1.00  0.00     0.041 C 
ATOM     16  O   UNL     1     -22.836 -14.566  47.776  1.00  0.00    -0.550 OA
ATOM     17  O   UNL     1     -22.477 -12.659  48.998  1.00  0.00    -0.550 OA
ENDBRANCH  14  15
ENDBRANCH  13  14
ENDBRANCH  12  13
ENDBRANCH  11  12
ENDBRANCH  10  11
ENDBRANCH   9  10
ENDBRANCH   8   9
ENDBRANCH   7   8
ENDBRANCH   6   7
ENDBRANCH   5   6
ENDBRANCH   4   5
ENDBRANCH   3   4
ENDBRANCH   2   3
ENDBRANCH   1   2
BRANCH   1  18
ATOM     18  C   UNL     1     -25.605  -9.576  41.092  1.00  0.00     0.000 C 
BRANCH  18  19
ATOM     19  C   UNL     1     -24.444  -9.505  40.078  1.00  0.00     0.000 C 
BRANCH  19  20
ATOM     20  C   UNL     1     -23.464 -10.690  40.122  1.00  0.00     0.000 C 
BRANCH  20  21
ATOM     21  C   UNL     1     -23.682 -11.683  38.969  1.00  0.00     0.000 C 
BRANCH  21  22
ATOM     22  C   UNL     1     -22.626 -11.554  37.857  1.00  0.00     0.000 C 
BRANCH  22  23
ATOM     23  C   UNL     1     -22.617 -12.694  36.817  1.00  0.00     0.000 C 
BRANCH  23  24
ATOM     24  C   UNL     1     -21.258 -13.388  36.621  1.00  0.00    -0.000 C 
BRANCH  24  25
ATOM     25  C   UNL     1     -20.397 -13.387  37.893  1.00  0.00    -0.000 C 
BRANCH  25  26
ATOM     26  C   UNL     1     -20.711 -14.605  38.768  1.00  0.00    -0.000 C 
BRANCH  26  27
ATOM     27  C   UNL     1     -20.969 -14.186  40.223  1.00  0.00    -0.000 C 
BRANCH  27  28
ATOM     28  C   UNL     1     -22.399 -14.507  40.694  1.00  0.00    -0.000 C 
BRANCH  28  29
ATOM     29  C   UNL     1     -22.845 -13.772  41.974  1.00  0.00    -0.000 C 
BRANCH  29  30
ATOM     30  C   UNL     1     -23.524 -14.659  43.037  1.00  0.00    -0.000 C 
BRANCH  30  31
ATOM     31  C   UNL     1     -22.659 -14.965  44.272  1.00  0.00    -0.003 C 
ATOM     32  C   UNL     1     -21.161 -14.843  43.993  1.00  0.00     0.004 C 
ENDBRANCH  30  31
ENDBRANCH  29  30
ENDBRANCH  28  29
ENDBRANCH  27  28
ENDBRANCH  26  27
ENDBRANCH  25  26
ENDBRANCH  24  25
ENDBRANCH  23  24
ENDBRANCH  22  23
ENDBRANCH  21  22
ENDBRANCH  20  21
ENDBRANCH  19  20
ENDBRANCH  18  19
ENDBRANCH   1  18
TORSDOF 28
ENDMDL
MODEL 6
REMARK VINA RESULT:    -3.814      5.143     11.856
REMARK INTER + INTRA:         -13.732
REMARK INTER:                 -11.704
REMARK INTRA:                  -2.029
REMARK UNBOUND:                -3.676
REMARK SMILES CCCCCCCCCCCCCCCCCCCCCCCCCCCCCC(=O)[O-]
REMARK SMILES IDX 16 1 17 2 18 3 19 4 20 5 21 6 22 7 23 8 24 9 25 10 26 11
REMARK SMILES IDX 27 12 28 13 29 14 30 15 31 16 32 17 15 18 14 19 13 20 12 21
REMARK SMILES IDX 11 22 10 23 9 24 8 25 7 26 6 27 5 28 4 29 3 30 2 31 1 32
REMARK H PARENT
REMARK Flexibility Score: inf
ROOT
ATOM      1  C   UNL     1     -23.303 -12.192  36.731  1.00  0.00     0.000 C 
ENDROOT
BRANCH   1   2
ATOM      2  C   UNL     1     -21.881 -12.787  36.675  1.00  0.00     0.000 C 
BRANCH   2   3
ATOM      3  C   UNL     1     -21.586 -13.666  35.445  1.00  0.00     0.000 C 
BRANCH   3   4
ATOM      4  C   UNL     1     -21.942 -12.975  34.117  1.00  0.00     0.000 C 
BRANCH   4   5
ATOM      5  C   UNL     1     -21.857 -13.931  32.915  1.00  0.00     0.000 C 
BRANCH   5   6
ATOM      6  C   UNL     1     -23.121 -13.905  32.044  1.00  0.00     0.000 C 
BRANCH   6   7
ATOM      7  C   UNL     1     -23.655 -12.471  31.899  1.00  0.00     0.000 C 
BRANCH   7   8
ATOM      8  C   UNL     1     -25.117 -12.329  32.347  1.00  0.00     0.000 C 
BRANCH   8   9
ATOM      9  C   UNL     1     -25.296 -11.297  33.472  1.00  0.00     0.000 C 
BRANCH   9  10
ATOM     10  C   UNL     1     -26.646 -11.483  34.183  1.00  0.00     0.000 C 
BRANCH  10  11
ATOM     11  C   UNL     1     -27.784 -10.682  33.518  1.00  0.00     0.000 C 
BRANCH  11  12
ATOM     12  C   UNL     1     -28.483  -9.678  34.455  1.00  0.00     0.000 C 
BRANCH  12  13
ATOM     13  C   UNL     1     -29.361  -8.642  33.724  1.00  0.00     0.006 C 
BRANCH  13  14
ATOM     14  C   UNL     1     -30.847  -8.780  34.086  1.00  0.00     0.053 C 
BRANCH  14  15
ATOM     15  C   UNL     1     -31.706  -8.168  33.026  1.00  0.00     0.041 C 
ATOM     16  O   UNL     1     -31.650  -6.929  32.802  1.00  0.00    -0.550 OA
ATOM     17  O   UNL     1     -32.611  -8.956  32.324  1.00  0.00    -0.550 OA
ENDBRANCH  14  15
ENDBRANCH  13  14
ENDBRANCH  12  13
ENDBRANCH  11  12
ENDBRANCH  10  11
ENDBRANCH   9  10
ENDBRANCH   8   9
ENDBRANCH   7   8
ENDBRANCH   6   7
ENDBRANCH   5   6
ENDBRANCH   4   5
ENDBRANCH   3   4
ENDBRANCH   2   3
ENDBRANCH   1   2
BRANCH   1  18
ATOM     18  C   UNL     1     -24.182 -12.710  37.887  1.00  0.00     0.000 C 
BRANCH  18  19
ATOM     19  C   UNL     1     -23.407 -13.316  39.075  1.00  0.00     0.000 C 
BRANCH  19  20
ATOM     20  C   UNL     1     -22.825 -12.293  40.067  1.00  0.00     0.000 C 
BRANCH  20  21
ATOM     21  C   UNL     1     -22.065 -12.957  41.226  1.00  0.00     0.000 C 
BRANCH  21  22
ATOM     22  C   UNL     1     -22.761 -14.224  41.753  1.00  0.00     0.000 C 
BRANCH  22  23
ATOM     23  C   UNL     1     -21.866 -15.181  42.568  1.00  0.00     0.000 C 
BRANCH  23  24
ATOM     24  C   UNL     1     -22.527 -15.788  43.817  1.00  0.00    -0.000 C 
BRANCH  24  25
ATOM     25  C   UNL     1     -22.419 -14.880  45.052  1.00  0.00    -0.000 C 
BRANCH  25  26
ATOM     26  C   UNL     1     -22.268 -15.711  46.331  1.00  0.00    -0.000 C 
BRANCH  26  27
ATOM     27  C   UNL     1     -22.080 -14.806  47.557  1.00  0.00    -0.000 C 
BRANCH  27  28
ATOM     28  C   UNL     1     -23.311 -14.786  48.482  1.00  0.00    -0.000 C 
BRANCH  28  29
ATOM     29  C   UNL     1     -23.888 -13.385  48.769  1.00  0.00    -0.000 C 
BRANCH  29  30
ATOM     30  C   UNL     1     -24.427 -12.632  47.536  1.00  0.00    -0.000 C 
BRANCH  30  31
ATOM     31  C   UNL     1     -25.730 -13.201  46.950  1.00  0.00    -0.003 C 
ATOM     32  C   UNL     1     -25.912 -12.866  45.469  1.00  0.00     0.004 C 
ENDBRANCH  30  31
ENDBRANCH  29  30
ENDBRANCH  28  29
ENDBRANCH  27  28
ENDBRANCH  26  27
ENDBRANCH  25  26
ENDBRANCH  24  25
ENDBRANCH  23  24
ENDBRANCH  22  23
ENDBRANCH  21  22
ENDBRANCH  20  21
ENDBRANCH  19  20
ENDBRANCH  18  19
ENDBRANCH   1  18
TORSDOF 28
ENDMDL
MODEL 7
REMARK VINA RESULT:    -3.778      5.202     11.388
REMARK INTER + INTRA:         -13.638
REMARK INTER:                  -9.085
REMARK INTRA:                  -4.553
REMARK UNBOUND:                -3.676
REMARK SMILES CCCCCCCCCCCCCCCCCCCCCCCCCCCCCC(=O)[O-]
REMARK SMILES IDX 16 1 17 2 18 3 19 4 20 5 21 6 22 7 23 8 24 9 25 10 26 11
REMARK SMILES IDX 27 12 28 13 29 14 30 15 31 16 32 17 15 18 14 19 13 20 12 21
REMARK SMILES IDX 11 22 10 23 9 24 8 25 7 26 6 27 5 28 4 29 3 30 2 31 1 32
REMARK H PARENT
REMARK Flexibility Score: inf
ROOT
ATOM      1  C   UNL     1     -26.551 -15.120  49.223  1.00  0.00     0.000 C 
ENDROOT
BRANCH   1   2
ATOM      2  C   UNL     1     -25.122 -15.392  49.735  1.00  0.00     0.000 C 
BRANCH   2   3
ATOM      3  C   UNL     1     -24.146 -15.957  48.686  1.00  0.00     0.000 C 
BRANCH   3   4
ATOM      4  C   UNL     1     -22.677 -15.894  49.140  1.00  0.00     0.000 C 
BRANCH   4   5
ATOM      5  C   UNL     1     -21.725 -15.498  47.998  1.00  0.00     0.000 C 
BRANCH   5   6
ATOM      6  C   UNL     1     -22.304 -15.802  46.609  1.00  0.00     0.000 C 
BRANCH   6   7
ATOM      7  C   UNL     1     -21.996 -14.661  45.627  1.00  0.00     0.000 C 
BRANCH   7   8
ATOM      8  C   UNL     1     -21.960 -15.124  44.164  1.00  0.00     0.000 C 
BRANCH   8   9
ATOM      9  C   UNL     1     -23.314 -14.962  43.455  1.00  0.00     0.000 C 
BRANCH   9  10
ATOM     10  C   UNL     1     -23.221 -13.939  42.312  1.00  0.00     0.000 C 
BRANCH  10  11
ATOM     11  C   UNL     1     -21.835 -13.927  41.636  1.00  0.00     0.000 C 
BRANCH  11  12
ATOM     12  C   UNL     1     -21.573 -12.692  40.751  1.00  0.00     0.000 C 
BRANCH  12  13
ATOM     13  C   UNL     1     -22.835 -11.861  40.443  1.00  0.00     0.006 C 
BRANCH  13  14
ATOM     14  C   UNL     1     -22.906 -11.433  38.970  1.00  0.00     0.053 C 
BRANCH  14  15
ATOM     15  C   UNL     1     -23.260 -12.597  38.099  1.00  0.00     0.041 C 
ATOM     16  O   UNL     1     -24.062 -13.477  38.512  1.00  0.00    -0.550 OA
ATOM     17  O   UNL     1     -22.660 -12.741  36.853  1.00  0.00    -0.550 OA
ENDBRANCH  14  15
ENDBRANCH  13  14
ENDBRANCH  12  13
ENDBRANCH  11  12
ENDBRANCH  10  11
ENDBRANCH   9  10
ENDBRANCH   8   9
ENDBRANCH   7   8
ENDBRANCH   6   7
ENDBRANCH   5   6
ENDBRANCH   4   5
ENDBRANCH   3   4
ENDBRANCH   2   3
ENDBRANCH   1   2
BRANCH   1  18
ATOM     18  C   UNL     1     -27.192 -13.816  49.738  1.00  0.00     0.000 C 
BRANCH  18  19
ATOM     19  C   UNL     1     -28.705 -13.902  50.027  1.00  0.00     0.000 C 
BRANCH  19  20
ATOM     20  C   UNL     1     -29.224 -15.308  50.376  1.00  0.00     0.000 C 
BRANCH  20  21
ATOM     21  C   UNL     1     -30.368 -15.763  49.455  1.00  0.00     0.000 C 
BRANCH  21  22
ATOM     22  C   UNL     1     -30.446 -14.954  48.149  1.00  0.00     0.000 C 
BRANCH  22  23
ATOM     23  C   UNL     1     -29.726 -15.582  46.937  1.00  0.00     0.000 C 
BRANCH  23  24
ATOM     24  C   UNL     1     -28.649 -14.697  46.287  1.00  0.00    -0.000 C 
BRANCH  24  25
ATOM     25  C   UNL     1     -29.115 -14.060  44.968  1.00  0.00    -0.000 C 
BRANCH  25  26
ATOM     26  C   UNL     1     -28.152 -12.954  44.525  1.00  0.00    -0.000 C 
BRANCH  26  27
ATOM     27  C   UNL     1     -26.698 -13.449  44.543  1.00  0.00    -0.000 C 
BRANCH  27  28
ATOM     28  C   UNL     1     -25.746 -12.486  45.274  1.00  0.00    -0.000 C 
BRANCH  28  29
ATOM     29  C   UNL     1     -25.186 -13.011  46.611  1.00  0.00    -0.000 C 
BRANCH  29  30
ATOM     30  C   UNL     1     -24.681 -11.926  47.583  1.00  0.00    -0.000 C 
BRANCH  30  31
ATOM     31  C   UNL     1     -23.240 -12.126  48.084  1.00  0.00    -0.003 C 
ATOM     32  C   UNL     1     -23.159 -12.321  49.599  1.00  0.00     0.004 C 
ENDBRANCH  30  31
ENDBRANCH  29  30
ENDBRANCH  28  29
ENDBRANCH  27  28
ENDBRANCH  26  27
ENDBRANCH  25  26
ENDBRANCH  24  25
ENDBRANCH  23  24
ENDBRANCH  22  23
ENDBRANCH  21  22
ENDBRANCH  20  21
ENDBRANCH  19  20
ENDBRANCH  18  19
ENDBRANCH   1  18
TORSDOF 28
ENDMDL
MODEL 8
REMARK VINA RESULT:    -3.721      4.365     10.299
REMARK INTER + INTRA:         -13.489
REMARK INTER:                  -9.876
REMARK INTRA:                  -3.613
REMARK UNBOUND:                -3.676
REMARK SMILES CCCCCCCCCCCCCCCCCCCCCCCCCCCCCC(=O)[O-]
REMARK SMILES IDX 16 1 17 2 18 3 19 4 20 5 21 6 22 7 23 8 24 9 25 10 26 11
REMARK SMILES IDX 27 12 28 13 29 14 30 15 31 16 32 17 15 18 14 19 13 20 12 21
REMARK SMILES IDX 11 22 10 23 9 24 8 25 7 26 6 27 5 28 4 29 3 30 2 31 1 32
REMARK H PARENT
REMARK Flexibility Score: inf
ROOT
ATOM      1  C   UNL     1     -25.250 -10.500  42.370  1.00  0.00     0.000 C 
ENDROOT
BRANCH   1   2
ATOM      2  C   UNL     1     -25.621  -9.586  41.184  1.00  0.00     0.000 C 
BRANCH   2   3
ATOM      3  C   UNL     1     -24.512  -9.396  40.131  1.00  0.00     0.000 C 
BRANCH   3   4
ATOM      4  C   UNL     1     -23.463 -10.521  40.158  1.00  0.00     0.000 C 
BRANCH   4   5
ATOM      5  C   UNL     1     -23.693 -11.566  39.054  1.00  0.00     0.000 C 
BRANCH   5   6
ATOM      6  C   UNL     1     -22.545 -11.618  38.035  1.00  0.00     0.000 C 
BRANCH   6   7
ATOM      7  C   UNL     1     -22.054 -13.060  37.838  1.00  0.00     0.000 C 
BRANCH   7   8
ATOM      8  C   UNL     1     -20.536 -13.205  38.015  1.00  0.00     0.000 C 
BRANCH   8   9
ATOM      9  C   UNL     1     -19.891 -11.964  38.653  1.00  0.00     0.000 C 
BRANCH   9  10
ATOM     10  C   UNL     1     -19.238 -12.312  40.000  1.00  0.00     0.000 C 
BRANCH  10  11
ATOM     11  C   UNL     1     -20.142 -11.974  41.203  1.00  0.00     0.000 C 
BRANCH  11  12
ATOM     12  C   UNL     1     -20.507 -13.188  42.081  1.00  0.00     0.000 C 
BRANCH  12  13
ATOM     13  C   UNL     1     -21.447 -14.199  41.395  1.00  0.00     0.006 C 
BRANCH  13  14
ATOM     14  C   UNL     1     -22.927 -13.898  41.670  1.00  0.00     0.053 C 
BRANCH  14  15
ATOM     15  C   UNL     1     -23.385 -14.591  42.913  1.00  0.00     0.041 C 
ATOM     16  O   UNL     1     -24.381 -14.156  43.552  1.00  0.00    -0.550 OA
ATOM     17  O   UNL     1     -22.679 -15.685  43.399  1.00  0.00    -0.550 OA
ENDBRANCH  14  15
ENDBRANCH  13  14
ENDBRANCH  12  13
ENDBRANCH  11  12
ENDBRANCH  10  11
ENDBRANCH   9  10
ENDBRANCH   8   9
ENDBRANCH   7   8
ENDBRANCH   6   7
ENDBRANCH   5   6
ENDBRANCH   4   5
ENDBRANCH   3   4
ENDBRANCH   2   3
ENDBRANCH   1   2
BRANCH   1  18
ATOM     18  C   UNL     1     -25.890 -10.111  43.718  1.00  0.00     0.000 C 
BRANCH  18  19
ATOM     19  C   UNL     1     -26.292 -11.299  44.615  1.00  0.00     0.000 C 
BRANCH  19  20
ATOM     20  C   UNL     1     -27.622 -11.979  44.244  1.00  0.00     0.000 C 
BRANCH  20  21
ATOM     21  C   UNL     1     -27.650 -13.470  44.616  1.00  0.00     0.000 C 
BRANCH  21  22
ATOM     22  C   UNL     1     -29.044 -13.953  45.054  1.00  0.00     0.000 C 
BRANCH  22  23
ATOM     23  C   UNL     1     -29.056 -15.184  45.985  1.00  0.00     0.000 C 
BRANCH  23  24
ATOM     24  C   UNL     1     -29.613 -14.929  47.396  1.00  0.00    -0.000 C 
BRANCH  24  25
ATOM     25  C   UNL     1     -28.981 -15.837  48.462  1.00  0.00    -0.000 C 
BRANCH  25  26
ATOM     26  C   UNL     1     -28.651 -15.044  49.731  1.00  0.00    -0.000 C 
BRANCH  26  27
ATOM     27  C   UNL     1     -27.147 -14.751  49.821  1.00  0.00    -0.000 C 
BRANCH  27  28
ATOM     28  C   UNL     1     -26.752 -13.428  49.141  1.00  0.00    -0.000 C 
BRANCH  28  29
ATOM     29  C   UNL     1     -26.002 -13.581  47.802  1.00  0.00    -0.000 C 
BRANCH  29  30
ATOM     30  C   UNL     1     -24.491 -13.861  47.925  1.00  0.00    -0.000 C 
BRANCH  30  31
ATOM     31  C   UNL     1     -23.592 -12.619  47.800  1.00  0.00    -0.003 C 
ATOM     32  C   UNL     1     -22.442 -12.614  48.808  1.00  0.00     0.004 C 
ENDBRANCH  30  31
ENDBRANCH  29  30
ENDBRANCH  28  29
ENDBRANCH  27  28
ENDBRANCH  26  27
ENDBRANCH  25  26
ENDBRANCH  24  25
ENDBRANCH  23  24
ENDBRANCH  22  23
ENDBRANCH  21  22
ENDBRANCH  20  21
ENDBRANCH  19  20
ENDBRANCH  18  19
ENDBRANCH   1  18
TORSDOF 28
ENDMDL
MODEL 9
REMARK VINA RESULT:    -3.686      4.564     10.195
REMARK INTER + INTRA:         -13.397
REMARK INTER:                  -9.448
REMARK INTRA:                  -3.949
REMARK UNBOUND:                -3.676
REMARK SMILES CCCCCCCCCCCCCCCCCCCCCCCCCCCCCC(=O)[O-]
REMARK SMILES IDX 16 1 17 2 18 3 19 4 20 5 21 6 22 7 23 8 24 9 25 10 26 11
REMARK SMILES IDX 27 12 28 13 29 14 30 15 31 16 32 17 15 18 14 19 13 20 12 21
REMARK SMILES IDX 11 22 10 23 9 24 8 25 7 26 6 27 5 28 4 29 3 30 2 31 1 32
REMARK H PARENT
REMARK Flexibility Score: inf
ROOT
ATOM      1  C   UNL     1     -22.846 -10.422  48.004  1.00  0.00     0.000 C 
ENDROOT
BRANCH   1   2
ATOM      2  C   UNL     1     -21.313 -10.594  48.012  1.00  0.00     0.000 C 
BRANCH   2   3
ATOM      3  C   UNL     1     -20.808 -11.947  48.549  1.00  0.00     0.000 C 
BRANCH   3   4
ATOM      4  C   UNL     1     -20.079 -12.780  47.480  1.00  0.00     0.000 C 
BRANCH   4   5
ATOM      5  C   UNL     1     -21.050 -13.564  46.582  1.00  0.00     0.000 C 
BRANCH   5   6
ATOM      6  C   UNL     1     -21.318 -14.986  47.095  1.00  0.00     0.000 C 
BRANCH   6   7
ATOM      7  C   UNL     1     -21.951 -15.854  45.996  1.00  0.00     0.000 C 
BRANCH   7   8
ATOM      8  C   UNL     1     -22.710 -15.029  44.946  1.00  0.00     0.000 C 
BRANCH   8   9
ATOM      9  C   UNL     1     -22.590 -15.615  43.530  1.00  0.00     0.000 C 
BRANCH   9  10
ATOM     10  C   UNL     1     -21.261 -15.208  42.874  1.00  0.00     0.000 C 
BRANCH  10  11
ATOM     11  C   UNL     1     -21.406 -14.921  41.366  1.00  0.00     0.000 C 
BRANCH  11  12
ATOM     12  C   UNL     1     -22.208 -13.645  41.038  1.00  0.00     0.000 C 
BRANCH  12  13
ATOM     13  C   UNL     1     -21.347 -12.369  40.947  1.00  0.00     0.006 C 
BRANCH  13  14
ATOM     14  C   UNL     1     -21.127 -11.917  39.496  1.00  0.00     0.053 C 
BRANCH  14  15
ATOM     15  C   UNL     1     -22.353 -11.250  38.959  1.00  0.00     0.041 C 
ATOM     16  O   UNL     1     -23.070 -10.541  39.714  1.00  0.00    -0.550 OA
ATOM     17  O   UNL     1     -22.736 -11.458  37.639  1.00  0.00    -0.550 OA
ENDBRANCH  14  15
ENDBRANCH  13  14
ENDBRANCH  12  13
ENDBRANCH  11  12
ENDBRANCH  10  11
ENDBRANCH   9  10
ENDBRANCH   8   9
ENDBRANCH   7   8
ENDBRANCH   6   7
ENDBRANCH   5   6
ENDBRANCH   4   5
ENDBRANCH   3   4
ENDBRANCH   2   3
ENDBRANCH   1   2
BRANCH   1  18
ATOM     18  C   UNL     1     -23.630 -11.511  48.765  1.00  0.00     0.000 C 
BRANCH  18  19
ATOM     19  C   UNL     1     -24.747 -12.197  47.954  1.00  0.00     0.000 C 
BRANCH  19  20
ATOM     20  C   UNL     1     -24.625 -13.727  47.836  1.00  0.00     0.000 C 
BRANCH  20  21
ATOM     21  C   UNL     1     -25.110 -14.460  49.097  1.00  0.00     0.000 C 
BRANCH  21  22
ATOM     22  C   UNL     1     -26.480 -15.137  48.908  1.00  0.00     0.000 C 
BRANCH  22  23
ATOM     23  C   UNL     1     -27.697 -14.190  48.949  1.00  0.00     0.000 C 
BRANCH  23  24
ATOM     24  C   UNL     1     -28.891 -14.624  48.082  1.00  0.00    -0.000 C 
BRANCH  24  25
ATOM     25  C   UNL     1     -28.491 -14.958  46.636  1.00  0.00    -0.000 C 
BRANCH  25  26
ATOM     26  C   UNL     1     -29.276 -14.100  45.639  1.00  0.00    -0.000 C 
BRANCH  26  27
ATOM     27  C   UNL     1     -28.335 -13.443  44.618  1.00  0.00    -0.000 C 
BRANCH  27  28
ATOM     28  C   UNL     1     -26.856 -13.508  45.038  1.00  0.00    -0.000 C 
BRANCH  28  29
ATOM     29  C   UNL     1     -26.007 -12.286  44.629  1.00  0.00    -0.000 C 
BRANCH  29  30
ATOM     30  C   UNL     1     -26.807 -11.003  44.329  1.00  0.00    -0.000 C 
BRANCH  30  31
ATOM     31  C   UNL     1     -25.952  -9.741  44.125  1.00  0.00    -0.003 C 
ATOM     32  C   UNL     1     -25.270  -9.270  45.410  1.00  0.00     0.004 C 
ENDBRANCH  30  31
ENDBRANCH  29  30
ENDBRANCH  28  29
ENDBRANCH  27  28
ENDBRANCH  26  27
ENDBRANCH  25  26
ENDBRANCH  24  25
ENDBRANCH  23  24
ENDBRANCH  22  23
ENDBRANCH  21  22
ENDBRANCH  20  21
ENDBRANCH  19  20
ENDBRANCH  18  19
ENDBRANCH   1  18
TORSDOF 28
ENDMDL
