MODEL 1
REMARK VINA RESULT:    -2.451      0.000      0.000
REMARK INTER + INTRA:          -4.562
REMARK INTER:                  -3.740
REMARK INTRA:                  -0.822
REMARK UNBOUND:                -0.822
REMARK SMILES OC[C@@H]1O[C@@H](O[C@]2(CO)O[C@H](CO)[C@H](O)[C@@H]2O)[C@H](O)[C@H](O)[C@@H]1O
REMARK SMILES IDX 6 1 5 2 3 3 22 4 4 5 20 6 18 7 2 8 1 9 23 11 21 13 19 15
REMARK SMILES IDX 7 17 16 18 10 19 14 20 11 21 8 22 9 23 17 25 15 27 12 29
REMARK SMILES IDX 13 30
REMARK H PARENT 1 10 23 12 21 14 19 16 9 24 17 26 15 28 13 31
REMARK Flexibility Score: inf
ROOT
ATOM      1  O   UNL     1      -4.414   0.141  -8.318  1.00  0.00    -0.313 OA
ENDROOT
BRANCH   1   2
ATOM      2  C   UNL     1      -5.741  -0.354  -8.448  1.00  0.00     0.285 C 
ATOM      3  C   UNL     1      -6.734   1.569  -9.503  1.00  0.00     0.178 C 
ATOM      4  C   UNL     1      -6.390   2.267  -8.147  1.00  0.00     0.177 C 
ATOM      5  O   UNL     1      -6.318   0.202  -9.616  1.00  0.00    -0.341 OA
ATOM      6  C   UNL     1      -6.804   1.411  -6.931  1.00  0.00     0.179 C 
ATOM      7  C   UNL     1      -6.655  -0.102  -7.216  1.00  0.00     0.202 C 
BRANCH   3   8
ATOM      8  C   UNL     1      -8.237   1.643  -9.842  1.00  0.00     0.191 C 
BRANCH   8   9
ATOM      9  O   UNL     1      -8.774   0.360  -9.986  1.00  0.00    -0.394 OA
ATOM     10  H   UNL     1      -8.398  -0.019 -10.830  1.00  0.00     0.210 HD
ENDBRANCH   8   9
ENDBRANCH   3   8
BRANCH   4  11
ATOM     11  O   UNL     1      -6.974   3.544  -8.063  1.00  0.00    -0.387 OA
ATOM     12  H   UNL     1      -6.944   3.810  -7.108  1.00  0.00     0.211 HD
ENDBRANCH   4  11
BRANCH   6  13
ATOM     13  O   UNL     1      -8.125   1.692  -6.538  1.00  0.00    -0.387 OA
ATOM     14  H   UNL     1      -8.730   1.232  -7.177  1.00  0.00     0.211 HD
ENDBRANCH   6  13
BRANCH   7  15
ATOM     15  O   UNL     1      -7.918  -0.668  -7.459  1.00  0.00    -0.385 OA
ATOM     16  H   UNL     1      -8.440  -0.030  -8.006  1.00  0.00     0.211 HD
ENDBRANCH   7  15
ENDBRANCH   1   2
BRANCH   1  17
ATOM     17  C   UNL     1      -3.412  -0.386  -9.188  1.00  0.00     0.224 C 
ATOM     18  C   UNL     1      -2.900   0.788 -10.055  1.00  0.00     0.208 C 
ATOM     19  O   UNL     1      -2.325  -0.866  -8.418  1.00  0.00    -0.337 OA
ATOM     20  C   UNL     1      -1.405   0.566 -10.123  1.00  0.00     0.180 C 
ATOM     21  C   UNL     1      -1.113  -0.331  -8.910  1.00  0.00     0.179 C 
BRANCH  17  22
ATOM     22  C   UNL     1      -3.925  -1.527 -10.112  1.00  0.00     0.225 C 
BRANCH  22  23
ATOM     23  O   UNL     1      -3.433  -2.770  -9.686  1.00  0.00    -0.391 OA
ATOM     24  H   UNL     1      -2.567  -2.924 -10.153  1.00  0.00     0.210 HD
ENDBRANCH  22  23
ENDBRANCH  17  22
BRANCH  18  25
ATOM     25  O   UNL     1      -3.217   2.049  -9.504  1.00  0.00    -0.385 OA
ATOM     26  H   UNL     1      -3.165   1.978  -8.515  1.00  0.00     0.211 HD
ENDBRANCH  18  25
BRANCH  20  27
ATOM     27  O   UNL     1      -0.699   1.784 -10.106  1.00  0.00    -0.387 OA
ATOM     28  H   UNL     1       0.138   1.619  -9.596  1.00  0.00     0.211 HD
ENDBRANCH  20  27
BRANCH  21  29
ATOM     29  C   UNL     1      -0.378   0.358  -7.750  1.00  0.00     0.191 C 
BRANCH  29  30
ATOM     30  O   UNL     1       0.826  -0.301  -7.474  1.00  0.00    -0.394 OA
ATOM     31  H   UNL     1       1.055  -0.814  -8.294  1.00  0.00     0.210 HD
ENDBRANCH  29  30
ENDBRANCH  21  29
ENDBRANCH   1  17
TORSDOF 13
ENDMDL
MODEL 2
REMARK VINA RESULT:    -0.661     10.940     12.721
REMARK INTER + INTRA:          -1.831
REMARK INTER:                  -1.085
REMARK INTRA:                  -0.746
REMARK UNBOUND:                -0.822
REMARK SMILES OC[C@@H]1O[C@@H](O[C@]2(CO)O[C@H](CO)[C@H](O)[C@@H]2O)[C@H](O)[C@H](O)[C@@H]1O
REMARK SMILES IDX 6 1 5 2 3 3 22 4 4 5 20 6 18 7 2 8 1 9 23 11 21 13 19 15
REMARK SMILES IDX 7 17 16 18 10 19 14 20 11 21 8 22 9 23 17 25 15 27 12 29
REMARK SMILES IDX 13 30
REMARK H PARENT 1 10 23 12 21 14 19 16 9 24 17 26 15 28 13 31
REMARK Flexibility Score: inf
ROOT
ATOM      1  O   UNL     1      -1.326   8.417  -0.160  1.00  0.00    -0.313 OA
ENDROOT
BRANCH   1   2
ATOM      2  C   UNL     1      -2.231   9.421  -0.603  1.00  0.00     0.285 C 
ATOM      3  C   UNL     1      -4.122   8.822   0.760  1.00  0.00     0.178 C 
ATOM      4  C   UNL     1      -4.086   7.507  -0.083  1.00  0.00     0.177 C 
ATOM      5  O   UNL     1      -3.084   9.768   0.473  1.00  0.00    -0.341 OA
ATOM      6  C   UNL     1      -3.934   7.789  -1.593  1.00  0.00     0.179 C 
ATOM      7  C   UNL     1      -3.064   9.040  -1.859  1.00  0.00     0.202 C 
BRANCH   3   8
ATOM      8  C   UNL     1      -5.477   9.552   0.663  1.00  0.00     0.191 C 
BRANCH   8   9
ATOM      9  O   UNL     1      -6.254   9.300   1.798  1.00  0.00    -0.394 OA
ATOM     10  H   UNL     1      -5.739   8.661   2.367  1.00  0.00     0.210 HD
ENDBRANCH   8   9
ENDBRANCH   3   8
BRANCH   4  11
ATOM     11  O   UNL     1      -5.225   6.715   0.149  1.00  0.00    -0.387 OA
ATOM     12  H   UNL     1      -5.909   6.995  -0.511  1.00  0.00     0.211 HD
ENDBRANCH   4  11
BRANCH   6  13
ATOM     13  O   UNL     1      -5.188   7.942  -2.211  1.00  0.00    -0.387 OA
ATOM     14  H   UNL     1      -5.426   7.068  -2.620  1.00  0.00     0.211 HD
ENDBRANCH   6  13
BRANCH   7  15
ATOM     15  O   UNL     1      -3.884  10.125  -2.211  1.00  0.00    -0.385 OA
ATOM     16  H   UNL     1      -4.767   9.993  -1.783  1.00  0.00     0.211 HD
ENDBRANCH   7  15
ENDBRANCH   1   2
BRANCH   1  17
ATOM     17  C   UNL     1      -0.184   8.826   0.593  1.00  0.00     0.224 C 
ATOM     18  C   UNL     1       0.227   7.629   1.482  1.00  0.00     0.208 C 
ATOM     19  O   UNL     1       0.888   9.102  -0.290  1.00  0.00    -0.337 OA
ATOM     20  C   UNL     1       1.737   7.626   1.415  1.00  0.00     0.180 C 
ATOM     21  C   UNL     1       2.048   8.414   0.132  1.00  0.00     0.179 C 
BRANCH  17  22
ATOM     22  C   UNL     1      -0.440  10.072   1.488  1.00  0.00     0.225 C 
BRANCH  22  23
ATOM     23  O   UNL     1      -1.252   9.739   2.583  1.00  0.00    -0.391 OA
ATOM     24  H   UNL     1      -1.203  10.493   3.231  1.00  0.00     0.210 HD
ENDBRANCH  22  23
ENDBRANCH  17  22
BRANCH  18  25
ATOM     25  O   UNL     1      -0.320   6.406   1.033  1.00  0.00    -0.385 OA
ATOM     26  H   UNL     1      -0.682   6.545   0.120  1.00  0.00     0.211 HD
ENDBRANCH  18  25
BRANCH  20  27
ATOM     27  O   UNL     1       2.254   6.316   1.411  1.00  0.00    -0.387 OA
ATOM     28  H   UNL     1       2.285   6.027   0.461  1.00  0.00     0.211 HD
ENDBRANCH  20  27
BRANCH  21  29
ATOM     29  C   UNL     1       2.567   7.571  -1.042  1.00  0.00     0.191 C 
BRANCH  29  30
ATOM     30  O   UNL     1       3.902   7.205  -0.830  1.00  0.00    -0.394 OA
ATOM     31  H   UNL     1       4.119   7.478   0.102  1.00  0.00     0.210 HD
ENDBRANCH  29  30
ENDBRANCH  21  29
ENDBRANCH   1  17
TORSDOF 13
ENDMDL
MODEL 3
REMARK VINA RESULT:    -0.485      1.567      6.190
REMARK INTER + INTRA:          -1.562
REMARK INTER:                  -0.845
REMARK INTRA:                  -0.716
REMARK UNBOUND:                -0.822
REMARK SMILES OC[C@@H]1O[C@@H](O[C@]2(CO)O[C@H](CO)[C@H](O)[C@@H]2O)[C@H](O)[C@H](O)[C@@H]1O
REMARK SMILES IDX 6 1 5 2 3 3 22 4 4 5 20 6 18 7 2 8 1 9 23 11 21 13 19 15
REMARK SMILES IDX 7 17 16 18 10 19 14 20 11 21 8 22 9 23 17 25 15 27 12 29
REMARK SMILES IDX 13 30
REMARK H PARENT 1 10 23 12 21 14 19 16 9 24 17 26 15 28 13 31
REMARK Flexibility Score: inf
ROOT
ATOM      1  O   UNL     1      -3.682   0.812  -8.324  1.00  0.00    -0.313 OA
ENDROOT
BRANCH   1   2
ATOM      2  C   UNL     1      -2.766   0.582  -9.388  1.00  0.00     0.285 C 
ATOM      3  C   UNL     1      -2.634  -1.816  -9.228  1.00  0.00     0.178 C 
ATOM      4  C   UNL     1      -2.004  -1.509  -7.830  1.00  0.00     0.177 C 
ATOM      5  O   UNL     1      -3.063  -0.671  -9.976  1.00  0.00    -0.341 OA
ATOM      6  C   UNL     1      -0.927  -0.406  -7.908  1.00  0.00     0.179 C 
ATOM      7  C   UNL     1      -1.267   0.653  -8.983  1.00  0.00     0.202 C 
BRANCH   3   8
ATOM      8  C   UNL     1      -1.703  -2.656 -10.125  1.00  0.00     0.191 C 
BRANCH   8   9
ATOM      9  O   UNL     1      -1.642  -3.977  -9.672  1.00  0.00    -0.394 OA
ATOM     10  H   UNL     1      -0.677  -4.184  -9.511  1.00  0.00     0.210 HD
ENDBRANCH   8   9
ENDBRANCH   3   8
BRANCH   4  11
ATOM     11  O   UNL     1      -1.468  -2.669  -7.241  1.00  0.00    -0.387 OA
ATOM     12  H   UNL     1      -1.441  -3.363  -7.947  1.00  0.00     0.211 HD
ENDBRANCH   4  11
BRANCH   6  13
ATOM     13  O   UNL     1       0.343  -0.952  -8.164  1.00  0.00    -0.387 OA
ATOM     14  H   UNL     1       0.826  -0.318  -8.758  1.00  0.00     0.211 HD
ENDBRANCH   6  13
BRANCH   7  15
ATOM     15  O   UNL     1      -0.474   0.444 -10.124  1.00  0.00    -0.385 OA
ATOM     16  H   UNL     1      -0.216   1.329 -10.484  1.00  0.00     0.211 HD
ENDBRANCH   7  15
ENDBRANCH   1   2
BRANCH   1  17
ATOM     17  C   UNL     1      -4.969   1.341  -8.648  1.00  0.00     0.224 C 
ATOM     18  C   UNL     1      -5.958   0.153  -8.663  1.00  0.00     0.208 C 
ATOM     19  O   UNL     1      -5.379   2.238  -7.632  1.00  0.00    -0.337 OA
ATOM     20  C   UNL     1      -7.200   0.704  -7.999  1.00  0.00     0.180 C 
ATOM     21  C   UNL     1      -6.682   1.908  -7.197  1.00  0.00     0.179 C 
BRANCH  17  22
ATOM     22  C   UNL     1      -5.015   2.072 -10.021  1.00  0.00     0.225 C 
BRANCH  22  23
ATOM     23  O   UNL     1      -6.171   2.860 -10.125  1.00  0.00    -0.391 OA
ATOM     24  H   UNL     1      -6.303   3.070 -11.089  1.00  0.00     0.210 HD
ENDBRANCH  22  23
ENDBRANCH  17  22
BRANCH  18  25
ATOM     25  O   UNL     1      -5.458  -0.979  -7.981  1.00  0.00    -0.385 OA
ATOM     26  H   UNL     1      -5.030  -1.578  -8.647  1.00  0.00     0.211 HD
ENDBRANCH  18  25
BRANCH  20  27
ATOM     27  O   UNL     1      -7.839  -0.268  -7.207  1.00  0.00    -0.387 OA
ATOM     28  H   UNL     1      -8.173  -0.967  -7.829  1.00  0.00     0.211 HD
ENDBRANCH  20  27
BRANCH  21  29
ATOM     29  C   UNL     1      -6.652   1.713  -5.673  1.00  0.00     0.191 C 
BRANCH  29  30
ATOM     30  O   UNL     1      -7.951   1.562  -5.173  1.00  0.00    -0.394 OA
ATOM     31  H   UNL     1      -8.356   0.807  -5.678  1.00  0.00     0.210 HD
ENDBRANCH  29  30
ENDBRANCH  21  29
ENDBRANCH   1  17
TORSDOF 13
ENDMDL
MODEL 4
REMARK VINA RESULT:     0.351     11.222     13.797
REMARK INTER + INTRA:          -0.287
REMARK INTER:                  -1.837
REMARK INTRA:                   1.550
REMARK UNBOUND:                -0.822
REMARK SMILES OC[C@@H]1O[C@@H](O[C@]2(CO)O[C@H](CO)[C@H](O)[C@@H]2O)[C@H](O)[C@H](O)[C@@H]1O
REMARK SMILES IDX 6 1 5 2 3 3 22 4 4 5 20 6 18 7 2 8 1 9 23 11 21 13 19 15
REMARK SMILES IDX 7 17 16 18 10 19 14 20 11 21 8 22 9 23 17 25 15 27 12 29
REMARK SMILES IDX 13 30
REMARK H PARENT 1 10 23 12 21 14 19 16 9 24 17 26 15 28 13 31
REMARK Flexibility Score: inf
ROOT
ATOM      1  O   UNL     1      -1.835   9.004  -0.745  1.00  0.00    -0.313 OA
ENDROOT
BRANCH   1   2
ATOM      2  C   UNL     1      -1.509   8.380   0.491  1.00  0.00     0.285 C 
ATOM      3  C   UNL     1       0.049  10.020   1.315  1.00  0.00     0.178 C 
ATOM      4  C   UNL     1       0.894   9.578   0.076  1.00  0.00     0.177 C 
ATOM      5  O   UNL     1      -1.231   9.388   1.446  1.00  0.00    -0.341 OA
ATOM      6  C   UNL     1       0.967   8.042  -0.059  1.00  0.00     0.179 C 
ATOM      7  C   UNL     1      -0.337   7.361   0.417  1.00  0.00     0.202 C 
BRANCH   3   8
ATOM      8  C   UNL     1       0.810   9.845   2.644  1.00  0.00     0.191 C 
BRANCH   8   9
ATOM      9  O   UNL     1       2.169  10.125   2.474  1.00  0.00    -0.394 OA
ATOM     10  H   UNL     1       2.589   9.304   2.088  1.00  0.00     0.210 HD
ENDBRANCH   8   9
ENDBRANCH   3   8
BRANCH   4  11
ATOM     11  O   UNL     1       2.190  10.123   0.115  1.00  0.00    -0.387 OA
ATOM     12  H   UNL     1       2.800   9.394   0.396  1.00  0.00     0.211 HD
ENDBRANCH   4  11
BRANCH   6  13
ATOM     13  O   UNL     1       2.063   7.521   0.652  1.00  0.00    -0.387 OA
ATOM     14  H   UNL     1       1.804   6.617   0.976  1.00  0.00     0.211 HD
ENDBRANCH   6  13
BRANCH   7  15
ATOM     15  O   UNL     1      -0.142   6.795   1.688  1.00  0.00    -0.385 OA
ATOM     16  H   UNL     1       0.826   6.624   1.803  1.00  0.00     0.211 HD
ENDBRANCH   7  15
ENDBRANCH   1   2
BRANCH   1  17
ATOM     17  C   UNL     1      -3.188   8.936  -1.195  1.00  0.00     0.224 C 
ATOM     18  C   UNL     1      -3.733   7.547  -0.790  1.00  0.00     0.208 C 
ATOM     19  O   UNL     1      -3.957   9.919  -0.526  1.00  0.00    -0.337 OA
ATOM     20  C   UNL     1      -5.141   7.831  -0.317  1.00  0.00     0.180 C 
ATOM     21  C   UNL     1      -5.117   9.329   0.026  1.00  0.00     0.179 C 
BRANCH  17  22
ATOM     22  C   UNL     1      -3.345   9.126  -2.731  1.00  0.00     0.225 C 
BRANCH  22  23
ATOM     23  O   UNL     1      -3.295   7.890  -3.392  1.00  0.00    -0.391 OA
ATOM     24  H   UNL     1      -2.379   7.790  -3.768  1.00  0.00     0.210 HD
ENDBRANCH  22  23
ENDBRANCH  17  22
BRANCH  18  25
ATOM     25  O   UNL     1      -2.957   6.931   0.217  1.00  0.00    -0.385 OA
ATOM     26  H   UNL     1      -2.333   7.610   0.585  1.00  0.00     0.211 HD
ENDBRANCH  18  25
BRANCH  20  27
ATOM     27  O   UNL     1      -5.500   7.010   0.769  1.00  0.00    -0.387 OA
ATOM     28  H   UNL     1      -6.101   7.550   1.347  1.00  0.00     0.211 HD
ENDBRANCH  20  27
BRANCH  21  29
ATOM     29  C   UNL     1      -5.162   9.656   1.526  1.00  0.00     0.191 C 
BRANCH  29  30
ATOM     30  O   UNL     1      -6.407   9.308   2.065  1.00  0.00    -0.394 OA
ATOM     31  H   UNL     1      -6.364   9.540   3.032  1.00  0.00     0.210 HD
ENDBRANCH  29  30
ENDBRANCH  21  29
ENDBRANCH   1  17
TORSDOF 13
ENDMDL
MODEL 5
REMARK VINA RESULT:     0.375     11.169     13.475
REMARK INTER + INTRA:          -0.250
REMARK INTER:                   0.132
REMARK INTRA:                  -0.383
REMARK UNBOUND:                -0.822
REMARK SMILES OC[C@@H]1O[C@@H](O[C@]2(CO)O[C@H](CO)[C@H](O)[C@@H]2O)[C@H](O)[C@H](O)[C@@H]1O
REMARK SMILES IDX 6 1 5 2 3 3 22 4 4 5 20 6 18 7 2 8 1 9 23 11 21 13 19 15
REMARK SMILES IDX 7 17 16 18 10 19 14 20 11 21 8 22 9 23 17 25 15 27 12 29
REMARK SMILES IDX 13 30
REMARK H PARENT 1 10 23 12 21 14 19 16 9 24 17 26 15 28 13 31
REMARK Flexibility Score: inf
ROOT
ATOM      1  O   UNL     1      -1.822   9.439   0.280  1.00  0.00    -0.313 OA
ENDROOT
BRANCH   1   2
ATOM      2  C   UNL     1      -1.188   8.695   1.313  1.00  0.00     0.285 C 
ATOM      3  C   UNL     1       0.737  10.104   1.635  1.00  0.00     0.178 C 
ATOM      4  C   UNL     1       1.074   9.674   0.170  1.00  0.00     0.177 C 
ATOM      5  O   UNL     1      -0.496   9.595   2.160  1.00  0.00    -0.341 OA
ATOM      6  C   UNL     1       0.915   8.153  -0.040  1.00  0.00     0.179 C 
ATOM      7  C   UNL     1      -0.235   7.572   0.816  1.00  0.00     0.202 C 
BRANCH   3   8
ATOM      8  C   UNL     1       1.863   9.754   2.628  1.00  0.00     0.191 C 
BRANCH   8   9
ATOM      9  O   UNL     1       1.444   9.970   3.944  1.00  0.00    -0.394 OA
ATOM     10  H   UNL     1       1.270   9.071   4.345  1.00  0.00     0.210 HD
ENDBRANCH   8   9
ENDBRANCH   3   8
BRANCH   4  11
ATOM     11  O   UNL     1       2.367  10.083  -0.203  1.00  0.00    -0.387 OA
ATOM     12  H   UNL     1       2.662   9.474  -0.927  1.00  0.00     0.211 HD
ENDBRANCH   4  11
BRANCH   6  13
ATOM     13  O   UNL     1       2.112   7.473   0.247  1.00  0.00    -0.387 OA
ATOM     14  H   UNL     1       2.753   8.140   0.610  1.00  0.00     0.211 HD
ENDBRANCH   6  13
BRANCH   7  15
ATOM     15  O   UNL     1       0.294   6.895   1.928  1.00  0.00    -0.385 OA
ATOM     16  H   UNL     1       0.752   6.081   1.601  1.00  0.00     0.211 HD
ENDBRANCH   7  15
ENDBRANCH   1   2
BRANCH   1  17
ATOM     17  C   UNL     1      -3.051   8.941  -0.250  1.00  0.00     0.224 C 
ATOM     18  C   UNL     1      -3.239   9.585  -1.643  1.00  0.00     0.208 C 
ATOM     19  O   UNL     1      -2.954   7.540  -0.426  1.00  0.00    -0.337 OA
ATOM     20  C   UNL     1      -3.776   8.458  -2.496  1.00  0.00     0.180 C 
ATOM     21  C   UNL     1      -3.356   7.191  -1.735  1.00  0.00     0.179 C 
BRANCH  17  22
ATOM     22  C   UNL     1      -4.288   9.259   0.639  1.00  0.00     0.225 C 
BRANCH  22  23
ATOM     23  O   UNL     1      -5.155   8.157   0.695  1.00  0.00    -0.391 OA
ATOM     24  H   UNL     1      -5.648   8.210   1.558  1.00  0.00     0.210 HD
ENDBRANCH  22  23
ENDBRANCH  17  22
BRANCH  18  25
ATOM     25  O   UNL     1      -2.036  10.110  -2.166  1.00  0.00    -0.385 OA
ATOM     26  H   UNL     1      -2.101  11.100  -2.159  1.00  0.00     0.211 HD
ENDBRANCH  18  25
BRANCH  20  27
ATOM     27  O   UNL     1      -3.275   8.518  -3.811  1.00  0.00    -0.387 OA
ATOM     28  H   UNL     1      -3.840   7.910  -4.357  1.00  0.00     0.211 HD
ENDBRANCH  20  27
BRANCH  21  29
ATOM     29  C   UNL     1      -2.227   6.380  -2.391  1.00  0.00     0.191 C 
BRANCH  29  30
ATOM     30  O   UNL     1      -2.559   6.060  -3.713  1.00  0.00    -0.394 OA
ATOM     31  H   UNL     1      -1.844   5.448  -4.037  1.00  0.00     0.210 HD
ENDBRANCH  29  30
ENDBRANCH  21  29
ENDBRANCH   1  17
TORSDOF 13
ENDMDL
