MODEL 1
REMARK VINA RESULT:    -4.335      0.000      0.000
REMARK INTER + INTRA:          -5.992
REMARK INTER:                  -5.222
REMARK INTRA:                  -0.770
REMARK UNBOUND:                -0.770
REMARK SMILES O=c1ccn([C@@H]2O[C@H](CO)[C@H](O)[C@H]2O)c(=O)[nH]1
REMARK SMILES IDX 6 1 13 2 11 3 8 4 7 5 5 6 3 7 4 8 2 9 17 10 1 11 15 12 16 14
REMARK SMILES IDX 14 15 12 17 9 19 10 20
REMARK H PARENT 17 13 14 16 12 18 10 21
REMARK Flexibility Score: inf
ROOT
ATOM      1  C   UNL     1      35.777   4.290   6.065  1.00  0.00     0.255 C 
ATOM      2  C   UNL     1      34.648   3.275   6.162  1.00  0.00     0.196 C 
ATOM      3  C   UNL     1      35.377   2.045   6.635  1.00  0.00     0.179 C 
ATOM      4  C   UNL     1      36.808   2.258   6.104  1.00  0.00     0.178 C 
ATOM      5  O   UNL     1      36.959   3.609   5.712  1.00  0.00    -0.347 OA
ENDROOT
BRANCH   1   6
ATOM      6  N   UNL     1      35.464   5.351   5.084  1.00  0.00    -0.271 N 
ATOM      7  C   UNL     1      35.648   6.185   2.842  1.00  0.00     0.090 A 
ATOM      8  C   UNL     1      35.901   5.204   3.796  1.00  0.00     0.099 A 
ATOM      9  C   UNL     1      34.950   7.324   3.227  1.00  0.00     0.253 A 
ATOM     10  N   UNL     1      34.536   7.461   4.514  1.00  0.00    -0.274 N 
ATOM     11  O   UNL     1      34.706   8.229   2.384  1.00  0.00    -0.269 OA
ATOM     12  C   UNL     1      34.790   6.495   5.441  1.00  0.00     0.330 A 
ATOM     13  H   UNL     1      34.018   8.323   4.798  1.00  0.00     0.175 HD
ATOM     14  O   UNL     1      34.401   6.671   6.629  1.00  0.00    -0.248 OA
ENDBRANCH   1   6
BRANCH   2  15
ATOM     15  O   UNL     1      33.679   3.671   7.096  1.00  0.00    -0.386 OA
ATOM     16  H   UNL     1      34.167   3.873   7.937  1.00  0.00     0.211 HD
ENDBRANCH   2  15
BRANCH   3  17
ATOM     17  O   UNL     1      34.774   0.876   6.140  1.00  0.00    -0.387 OA
ATOM     18  H   UNL     1      35.460   0.416   5.588  1.00  0.00     0.211 HD
ENDBRANCH   3  17
BRANCH   4  19
ATOM     19  C   UNL     1      37.182   1.355   4.914  1.00  0.00     0.191 C 
BRANCH  19  20
ATOM     20  O   UNL     1      36.476   1.730   3.760  1.00  0.00    -0.394 OA
ATOM     21  H   UNL     1      35.823   2.424   4.040  1.00  0.00     0.210 HD
ENDBRANCH  19  20
ENDBRANCH   4  19
TORSDOF 5
ENDMDL
MODEL 2
REMARK VINA RESULT:    -4.266      1.657      2.653
REMARK INTER + INTRA:          -5.909
REMARK INTER:                  -5.215
REMARK INTRA:                  -0.694
REMARK UNBOUND:                -0.770
REMARK SMILES O=c1ccn([C@@H]2O[C@H](CO)[C@H](O)[C@H]2O)c(=O)[nH]1
REMARK SMILES IDX 6 1 13 2 11 3 8 4 7 5 5 6 3 7 4 8 2 9 17 10 1 11 15 12 16 14
REMARK SMILES IDX 14 15 12 17 9 19 10 20
REMARK H PARENT 17 13 14 16 12 18 10 21
REMARK Flexibility Score: inf
ROOT
ATOM      1  C   UNL     1      35.469   5.664   5.440  1.00  0.00     0.255 C 
ATOM      2  C   UNL     1      34.112   5.777   6.119  1.00  0.00     0.196 C 
ATOM      3  C   UNL     1      34.322   4.963   7.368  1.00  0.00     0.179 C 
ATOM      4  C   UNL     1      35.422   3.964   6.958  1.00  0.00     0.178 C 
ATOM      5  O   UNL     1      36.022   4.407   5.755  1.00  0.00    -0.347 OA
ENDROOT
BRANCH   1   6
ATOM      6  N   UNL     1      35.355   5.841   3.977  1.00  0.00    -0.271 N 
ATOM      7  C   UNL     1      35.216   4.845   1.799  1.00  0.00     0.090 A 
ATOM      8  C   UNL     1      35.303   4.729   3.183  1.00  0.00     0.099 A 
ATOM      9  C   UNL     1      35.194   6.117   1.237  1.00  0.00     0.253 A 
ATOM     10  N   UNL     1      35.262   7.211   2.039  1.00  0.00    -0.274 N 
ATOM     11  O   UNL     1      35.115   6.253  -0.013  1.00  0.00    -0.269 OA
ATOM     12  C   UNL     1      35.348   7.087   3.394  1.00  0.00     0.330 A 
ATOM     13  H   UNL     1      35.253   8.164   1.610  1.00  0.00     0.175 HD
ATOM     14  O   UNL     1      35.427   8.130   4.099  1.00  0.00    -0.248 OA
ENDBRANCH   1   6
BRANCH   2  15
ATOM     15  O   UNL     1      33.803   7.108   6.435  1.00  0.00    -0.386 OA
ATOM     16  H   UNL     1      34.666   7.553   6.645  1.00  0.00     0.211 HD
ENDBRANCH   2  15
BRANCH   3  17
ATOM     17  O   UNL     1      33.130   4.336   7.771  1.00  0.00    -0.387 OA
ATOM     18  H   UNL     1      32.618   5.011   8.291  1.00  0.00     0.211 HD
ENDBRANCH   3  17
BRANCH   4  19
ATOM     19  C   UNL     1      34.923   2.522   6.758  1.00  0.00     0.191 C 
BRANCH  19  20
ATOM     20  O   UNL     1      33.834   2.486   5.874  1.00  0.00    -0.394 OA
ATOM     21  H   UNL     1      33.685   3.419   5.569  1.00  0.00     0.210 HD
ENDBRANCH  19  20
ENDBRANCH   4  19
TORSDOF 5
ENDMDL
MODEL 3
REMARK VINA RESULT:    -4.057      7.461      8.882
REMARK INTER + INTRA:          -5.656
REMARK INTER:                  -5.088
REMARK INTRA:                  -0.569
REMARK UNBOUND:                -0.770
REMARK SMILES O=c1ccn([C@@H]2O[C@H](CO)[C@H](O)[C@H]2O)c(=O)[nH]1
REMARK SMILES IDX 6 1 13 2 11 3 8 4 7 5 5 6 3 7 4 8 2 9 17 10 1 11 15 12 16 14
REMARK SMILES IDX 14 15 12 17 9 19 10 20
REMARK H PARENT 17 13 14 16 12 18 10 21
REMARK Flexibility Score: inf
ROOT
ATOM      1  C   UNL     1      34.404   9.340  -0.792  1.00  0.00     0.255 C 
ATOM      2  C   UNL     1      33.127   9.101   0.001  1.00  0.00     0.196 C 
ATOM      3  C   UNL     1      32.710   7.739  -0.487  1.00  0.00     0.179 C 
ATOM      4  C   UNL     1      33.321   7.668  -1.900  1.00  0.00     0.178 C 
ATOM      5  O   UNL     1      34.279   8.701  -2.042  1.00  0.00    -0.347 OA
ENDROOT
BRANCH   1   6
ATOM      6  N   UNL     1      34.670  10.784  -0.961  1.00  0.00    -0.271 N 
ATOM      7  C   UNL     1      33.881  12.947  -1.636  1.00  0.00     0.090 A 
ATOM      8  C   UNL     1      33.671  11.585  -1.441  1.00  0.00     0.099 A 
ATOM      9  C   UNL     1      35.132  13.477  -1.342  1.00  0.00     0.253 A 
ATOM     10  N   UNL     1      36.118  12.665  -0.879  1.00  0.00    -0.274 N 
ATOM     11  O   UNL     1      35.351  14.707  -1.508  1.00  0.00    -0.269 OA
ATOM     12  C   UNL     1      35.903  11.332  -0.693  1.00  0.00     0.330 A 
ATOM     13  H   UNL     1      37.059  13.069  -0.668  1.00  0.00     0.175 HD
ATOM     14  O   UNL     1      36.853  10.612  -0.278  1.00  0.00    -0.248 OA
ENDBRANCH   1   6
BRANCH   2  15
ATOM     15  O   UNL     1      33.375   9.084   1.382  1.00  0.00    -0.386 OA
ATOM     16  H   UNL     1      32.509   9.289   1.823  1.00  0.00     0.211 HD
ENDBRANCH   2  15
BRANCH   3  17
ATOM     17  O   UNL     1      31.311   7.606  -0.484  1.00  0.00    -0.387 OA
ATOM     18  H   UNL     1      30.990   8.020   0.360  1.00  0.00     0.211 HD
ENDBRANCH   3  17
BRANCH   4  19
ATOM     19  C   UNL     1      32.294   7.789  -3.040  1.00  0.00     0.191 C 
BRANCH  19  20
ATOM     20  O   UNL     1      31.431   6.683  -3.056  1.00  0.00    -0.394 OA
ATOM     21  H   UNL     1      31.966   5.910  -3.377  1.00  0.00     0.210 HD
ENDBRANCH  19  20
ENDBRANCH   4  19
TORSDOF 5
ENDMDL
MODEL 4
REMARK VINA RESULT:    -3.996      7.857     11.565
REMARK INTER + INTRA:          -5.583
REMARK INTER:                  -4.863
REMARK INTRA:                  -0.720
REMARK UNBOUND:                -0.770
REMARK SMILES O=c1ccn([C@@H]2O[C@H](CO)[C@H](O)[C@H]2O)c(=O)[nH]1
REMARK SMILES IDX 6 1 13 2 11 3 8 4 7 5 5 6 3 7 4 8 2 9 17 10 1 11 15 12 16 14
REMARK SMILES IDX 14 15 12 17 9 19 10 20
REMARK H PARENT 17 13 14 16 12 18 10 21
REMARK Flexibility Score: inf
ROOT
ATOM      1  C   UNL     1      34.322  12.178  -2.638  1.00  0.00     0.255 C 
ATOM      2  C   UNL     1      33.333  13.325  -2.498  1.00  0.00     0.196 C 
ATOM      3  C   UNL     1      34.234  14.527  -2.607  1.00  0.00     0.179 C 
ATOM      4  C   UNL     1      35.592  13.995  -2.108  1.00  0.00     0.178 C 
ATOM      5  O   UNL     1      35.554  12.581  -2.083  1.00  0.00    -0.347 OA
ENDROOT
BRANCH   1   6
ATOM      6  N   UNL     1      33.822  10.952  -1.982  1.00  0.00    -0.271 N 
ATOM      7  C   UNL     1      33.742   9.562  -0.028  1.00  0.00     0.090 A 
ATOM      8  C   UNL     1      34.173  10.713  -0.681  1.00  0.00     0.099 A 
ATOM      9  C   UNL     1      32.955   8.654  -0.727  1.00  0.00     0.253 A 
ATOM     10  N   UNL     1      32.628   8.899  -2.022  1.00  0.00    -0.274 N 
ATOM     11  O   UNL     1      32.550   7.603  -0.160  1.00  0.00    -0.269 OA
ATOM     12  C   UNL     1      33.056  10.029  -2.654  1.00  0.00     0.330 A 
ATOM     13  H   UNL     1      32.043   8.208  -2.544  1.00  0.00     0.175 HD
ATOM     14  O   UNL     1      32.743  10.208  -3.864  1.00  0.00    -0.248 OA
ENDBRANCH   1   6
BRANCH   2  15
ATOM     15  O   UNL     1      32.385  13.316  -3.531  1.00  0.00    -0.386 OA
ATOM     16  H   UNL     1      32.082  12.375  -3.625  1.00  0.00     0.211 HD
ENDBRANCH   2  15
BRANCH   3  17
ATOM     17  O   UNL     1      33.746  15.599  -1.839  1.00  0.00    -0.387 OA
ATOM     18  H   UNL     1      33.710  15.279  -0.899  1.00  0.00     0.211 HD
ENDBRANCH   3  17
BRANCH   4  19
ATOM     19  C   UNL     1      35.995  14.502  -0.712  1.00  0.00     0.191 C 
BRANCH  19  20
ATOM     20  O   UNL     1      36.368  15.854  -0.758  1.00  0.00    -0.394 OA
ATOM     21  H   UNL     1      36.696  16.090   0.149  1.00  0.00     0.210 HD
ENDBRANCH  19  20
ENDBRANCH   4  19
TORSDOF 5
ENDMDL
MODEL 5
REMARK VINA RESULT:    -3.870      6.547      8.855
REMARK INTER + INTRA:          -5.431
REMARK INTER:                  -4.735
REMARK INTRA:                  -0.696
REMARK UNBOUND:                -0.770
REMARK SMILES O=c1ccn([C@@H]2O[C@H](CO)[C@H](O)[C@H]2O)c(=O)[nH]1
REMARK SMILES IDX 6 1 13 2 11 3 8 4 7 5 5 6 3 7 4 8 2 9 17 10 1 11 15 12 16 14
REMARK SMILES IDX 14 15 12 17 9 19 10 20
REMARK H PARENT 17 13 14 16 12 18 10 21
REMARK Flexibility Score: inf
ROOT
ATOM      1  C   UNL     1      33.059   9.791  -0.985  1.00  0.00     0.255 C 
ATOM      2  C   UNL     1      33.053   8.984  -2.274  1.00  0.00     0.196 C 
ATOM      3  C   UNL     1      32.572   7.639  -1.796  1.00  0.00     0.179 C 
ATOM      4  C   UNL     1      33.015   7.611  -0.320  1.00  0.00     0.178 C 
ATOM      5  O   UNL     1      33.361   8.922   0.083  1.00  0.00    -0.347 OA
ENDROOT
BRANCH   1   6
ATOM      6  N   UNL     1      34.027  10.905  -1.051  1.00  0.00    -0.271 N 
ATOM      7  C   UNL     1      36.263  11.698  -0.695  1.00  0.00     0.090 A 
ATOM      8  C   UNL     1      35.320  10.675  -0.668  1.00  0.00     0.099 A 
ATOM      9  C   UNL     1      35.862  12.963  -1.109  1.00  0.00     0.253 A 
ATOM     10  N   UNL     1      34.571  13.178  -1.472  1.00  0.00    -0.274 N 
ATOM     11  O   UNL     1      36.695  13.909  -1.144  1.00  0.00    -0.269 OA
ATOM     12  C   UNL     1      33.655  12.170  -1.442  1.00  0.00     0.330 A 
ATOM     13  H   UNL     1      34.275  14.134  -1.775  1.00  0.00     0.175 HD
ATOM     14  O   UNL     1      32.462  12.419  -1.771  1.00  0.00    -0.248 OA
ENDBRANCH   1   6
BRANCH   2  15
ATOM     15  O   UNL     1      32.165   9.526  -3.216  1.00  0.00    -0.386 OA
ATOM     16  H   UNL     1      32.717  10.068  -3.840  1.00  0.00     0.211 HD
ENDBRANCH   2  15
BRANCH   3  17
ATOM     17  O   UNL     1      33.131   6.600  -2.559  1.00  0.00    -0.387 OA
ATOM     18  H   UNL     1      33.240   5.826  -1.945  1.00  0.00     0.211 HD
ENDBRANCH   3  17
BRANCH   4  19
ATOM     19  C   UNL     1      34.204   6.677  -0.035  1.00  0.00     0.191 C 
BRANCH  19  20
ATOM     20  O   UNL     1      33.825   5.331  -0.156  1.00  0.00    -0.394 OA
ATOM     21  H   UNL     1      33.248   5.270  -0.962  1.00  0.00     0.210 HD
ENDBRANCH  19  20
ENDBRANCH   4  19
TORSDOF 5
ENDMDL
MODEL 6
REMARK VINA RESULT:    -3.820      9.821     13.401
REMARK INTER + INTRA:          -5.371
REMARK INTER:                  -4.773
REMARK INTRA:                  -0.598
REMARK UNBOUND:                -0.770
REMARK SMILES O=c1ccn([C@@H]2O[C@H](CO)[C@H](O)[C@H]2O)c(=O)[nH]1
REMARK SMILES IDX 6 1 13 2 11 3 8 4 7 5 5 6 3 7 4 8 2 9 17 10 1 11 15 12 16 14
REMARK SMILES IDX 14 15 12 17 9 19 10 20
REMARK H PARENT 17 13 14 16 12 18 10 21
REMARK Flexibility Score: inf
ROOT
ATOM      1  C   UNL     1      34.824  15.300  -2.607  1.00  0.00     0.255 C 
ATOM      2  C   UNL     1      34.722  16.187  -1.375  1.00  0.00     0.196 C 
ATOM      3  C   UNL     1      35.623  17.335  -1.744  1.00  0.00     0.179 C 
ATOM      4  C   UNL     1      36.621  16.698  -2.731  1.00  0.00     0.178 C 
ATOM      5  O   UNL     1      36.115  15.446  -3.155  1.00  0.00    -0.347 OA
ENDROOT
BRANCH   1   6
ATOM      6  N   UNL     1      34.547  13.886  -2.277  1.00  0.00    -0.271 N 
ATOM      7  C   UNL     1      35.078  11.946  -0.969  1.00  0.00     0.090 A 
ATOM      8  C   UNL     1      35.290  13.281  -1.301  1.00  0.00     0.099 A 
ATOM      9  C   UNL     1      34.102  11.235  -1.658  1.00  0.00     0.253 A 
ATOM     10  N   UNL     1      33.383  11.847  -2.634  1.00  0.00    -0.274 N 
ATOM     11  O   UNL     1      33.888  10.025  -1.378  1.00  0.00    -0.269 OA
ATOM     12  C   UNL     1      33.598  13.155  -2.953  1.00  0.00     0.330 A 
ATOM     13  H   UNL     1      32.655  11.304  -3.153  1.00  0.00     0.175 HD
ATOM     14  O   UNL     1      32.919  13.678  -3.878  1.00  0.00    -0.248 OA
ENDBRANCH   1   6
BRANCH   2  15
ATOM     15  O   UNL     1      33.407  16.630  -1.168  1.00  0.00    -0.386 OA
ATOM     16  H   UNL     1      32.925  15.880  -0.731  1.00  0.00     0.211 HD
ENDBRANCH   2  15
BRANCH   3  17
ATOM     17  O   UNL     1      36.244  17.879  -0.607  1.00  0.00    -0.387 OA
ATOM     18  H   UNL     1      36.939  17.226  -0.326  1.00  0.00     0.211 HD
ENDBRANCH   3  17
BRANCH   4  19
ATOM     19  C   UNL     1      38.033  16.489  -2.156  1.00  0.00     0.191 C 
BRANCH  19  20
ATOM     20  O   UNL     1      38.721  17.708  -2.061  1.00  0.00    -0.394 OA
ATOM     21  H   UNL     1      39.658  17.528  -2.334  1.00  0.00     0.210 HD
ENDBRANCH  19  20
ENDBRANCH   4  19
TORSDOF 5
ENDMDL
MODEL 7
REMARK VINA RESULT:    -3.702      2.676      6.396
REMARK INTER + INTRA:          -5.229
REMARK INTER:                  -4.510
REMARK INTRA:                  -0.720
REMARK UNBOUND:                -0.770
REMARK SMILES O=c1ccn([C@@H]2O[C@H](CO)[C@H](O)[C@H]2O)c(=O)[nH]1
REMARK SMILES IDX 6 1 13 2 11 3 8 4 7 5 5 6 3 7 4 8 2 9 17 10 1 11 15 12 16 14
REMARK SMILES IDX 14 15 12 17 9 19 10 20
REMARK H PARENT 17 13 14 16 12 18 10 21
REMARK Flexibility Score: inf
ROOT
ATOM      1  C   UNL     1      35.377   5.898   0.969  1.00  0.00     0.255 C 
ATOM      2  C   UNL     1      34.016   5.740   0.307  1.00  0.00     0.196 C 
ATOM      3  C   UNL     1      33.972   6.940  -0.601  1.00  0.00     0.179 C 
ATOM      4  C   UNL     1      34.895   7.952   0.107  1.00  0.00     0.178 C 
ATOM      5  O   UNL     1      35.659   7.274   1.087  1.00  0.00    -0.347 OA
ENDROOT
BRANCH   1   6
ATOM      6  N   UNL     1      35.413   5.236   2.290  1.00  0.00    -0.271 N 
ATOM      7  C   UNL     1      35.329   5.429   4.680  1.00  0.00     0.090 A 
ATOM      8  C   UNL     1      35.281   6.005   3.414  1.00  0.00     0.099 A 
ATOM      9  C   UNL     1      35.524   4.057   4.781  1.00  0.00     0.253 A 
ATOM     10  N   UNL     1      35.668   3.310   3.656  1.00  0.00    -0.274 N 
ATOM     11  O   UNL     1      35.570   3.508   5.915  1.00  0.00    -0.269 OA
ATOM     12  C   UNL     1      35.621   3.883   2.420  1.00  0.00     0.330 A 
ATOM     13  H   UNL     1      35.822   2.279   3.739  1.00  0.00     0.175 HD
ATOM     14  O   UNL     1      35.776   3.153   1.402  1.00  0.00    -0.248 OA
ENDBRANCH   1   6
BRANCH   2  15
ATOM     15  O   UNL     1      33.939   4.551  -0.432  1.00  0.00    -0.386 OA
ATOM     16  H   UNL     1      32.989   4.261  -0.398  1.00  0.00     0.211 HD
ENDBRANCH   2  15
BRANCH   3  17
ATOM     17  O   UNL     1      32.657   7.410  -0.758  1.00  0.00    -0.387 OA
ATOM     18  H   UNL     1      32.726   8.312  -1.169  1.00  0.00     0.211 HD
ENDBRANCH   3  17
BRANCH   4  19
ATOM     19  C   UNL     1      34.152   9.119   0.783  1.00  0.00     0.191 C 
BRANCH  19  20
ATOM     20  O   UNL     1      33.437   8.675   1.906  1.00  0.00    -0.394 OA
ATOM     21  H   UNL     1      34.111   8.451   2.601  1.00  0.00     0.210 HD
ENDBRANCH  19  20
ENDBRANCH   4  19
TORSDOF 5
ENDMDL
MODEL 8
REMARK VINA RESULT:    -3.648      5.462      9.810
REMARK INTER + INTRA:          -5.164
REMARK INTER:                  -4.489
REMARK INTRA:                  -0.676
REMARK UNBOUND:                -0.770
REMARK SMILES O=c1ccn([C@@H]2O[C@H](CO)[C@H](O)[C@H]2O)c(=O)[nH]1
REMARK SMILES IDX 6 1 13 2 11 3 8 4 7 5 5 6 3 7 4 8 2 9 17 10 1 11 15 12 16 14
REMARK SMILES IDX 14 15 12 17 9 19 10 20
REMARK H PARENT 17 13 14 16 12 18 10 21
REMARK Flexibility Score: inf
ROOT
ATOM      1  C   UNL     1      34.079  10.488  -1.438  1.00  0.00     0.255 C 
ATOM      2  C   UNL     1      33.171  11.700  -1.293  1.00  0.00     0.196 C 
ATOM      3  C   UNL     1      33.617  12.560  -2.446  1.00  0.00     0.179 C 
ATOM      4  C   UNL     1      35.081  12.128  -2.663  1.00  0.00     0.178 C 
ATOM      5  O   UNL     1      35.311  10.915  -1.972  1.00  0.00    -0.347 OA
ENDROOT
BRANCH   1   6
ATOM      6  N   UNL     1      34.272   9.803  -0.143  1.00  0.00    -0.271 N 
ATOM      7  C   UNL     1      35.687   9.346   1.741  1.00  0.00     0.090 A 
ATOM      8  C   UNL     1      35.451   9.986   0.527  1.00  0.00     0.099 A 
ATOM      9  C   UNL     1      34.704   8.507   2.254  1.00  0.00     0.253 A 
ATOM     10  N   UNL     1      33.545   8.325   1.568  1.00  0.00    -0.274 N 
ATOM     11  O   UNL     1      34.890   7.915   3.351  1.00  0.00    -0.269 OA
ATOM     12  C   UNL     1      33.324   8.955   0.380  1.00  0.00     0.330 A 
ATOM     13  H   UNL     1      32.814   7.687   1.956  1.00  0.00     0.175 HD
ATOM     14  O   UNL     1      32.240   8.743  -0.231  1.00  0.00    -0.248 OA
ENDBRANCH   1   6
BRANCH   2  15
ATOM     15  O   UNL     1      31.819  11.350  -1.425  1.00  0.00    -0.386 OA
ATOM     16  H   UNL     1      31.717  10.462  -0.993  1.00  0.00     0.211 HD
ENDBRANCH   2  15
BRANCH   3  17
ATOM     17  O   UNL     1      33.486  13.926  -2.141  1.00  0.00    -0.387 OA
ATOM     18  H   UNL     1      34.197  14.138  -1.480  1.00  0.00     0.211 HD
ENDBRANCH   3  17
BRANCH   4  19
ATOM     19  C   UNL     1      36.121  13.164  -2.199  1.00  0.00     0.191 C 
BRANCH  19  20
ATOM     20  O   UNL     1      36.023  13.388  -0.817  1.00  0.00    -0.394 OA
ATOM     21  H   UNL     1      36.029  14.373  -0.688  1.00  0.00     0.210 HD
ENDBRANCH  19  20
ENDBRANCH   4  19
TORSDOF 5
ENDMDL
MODEL 9
REMARK VINA RESULT:    -3.636      3.815      7.939
REMARK INTER + INTRA:          -5.150
REMARK INTER:                  -4.559
REMARK INTRA:                  -0.591
REMARK UNBOUND:                -0.770
REMARK SMILES O=c1ccn([C@@H]2O[C@H](CO)[C@H](O)[C@H]2O)c(=O)[nH]1
REMARK SMILES IDX 6 1 13 2 11 3 8 4 7 5 5 6 3 7 4 8 2 9 17 10 1 11 15 12 16 14
REMARK SMILES IDX 14 15 12 17 9 19 10 20
REMARK H PARENT 17 13 14 16 12 18 10 21
REMARK Flexibility Score: inf
ROOT
ATOM      1  C   UNL     1      34.255   7.862  -0.253  1.00  0.00     0.255 C 
ATOM      2  C   UNL     1      32.896   8.544  -0.203  1.00  0.00     0.196 C 
ATOM      3  C   UNL     1      33.009   9.542  -1.324  1.00  0.00     0.179 C 
ATOM      4  C   UNL     1      34.525   9.808  -1.410  1.00  0.00     0.178 C 
ATOM      5  O   UNL     1      35.211   8.803  -0.686  1.00  0.00    -0.347 OA
ENDROOT
BRANCH   1   6
ATOM      6  N   UNL     1      34.624   7.300   1.063  1.00  0.00    -0.271 N 
ATOM      7  C   UNL     1      34.872   7.617   3.428  1.00  0.00     0.090 A 
ATOM      8  C   UNL     1      34.517   8.096   2.170  1.00  0.00     0.099 A 
ATOM      9  C   UNL     1      35.349   6.315   3.536  1.00  0.00     0.253 A 
ATOM     10  N   UNL     1      35.463   5.543   2.424  1.00  0.00    -0.274 N 
ATOM     11  O   UNL     1      35.677   5.855   4.662  1.00  0.00    -0.269 OA
ATOM     12  C   UNL     1      35.114   6.022   1.196  1.00  0.00     0.330 A 
ATOM     13  H   UNL     1      35.829   4.568   2.511  1.00  0.00     0.175 HD
ATOM     14  O   UNL     1      35.252   5.275   0.188  1.00  0.00    -0.248 OA
ENDBRANCH   1   6
BRANCH   2  15
ATOM     15  O   UNL     1      31.855   7.636  -0.445  1.00  0.00    -0.386 OA
ATOM     16  H   UNL     1      31.541   7.811  -1.371  1.00  0.00     0.211 HD
ENDBRANCH   2  15
BRANCH   3  17
ATOM     17  O   UNL     1      32.261  10.701  -1.050  1.00  0.00    -0.387 OA
ATOM     18  H   UNL     1      31.897  11.014  -1.920  1.00  0.00     0.211 HD
ENDBRANCH   3  17
BRANCH   4  19
ATOM     19  C   UNL     1      34.957  11.184  -0.873  1.00  0.00     0.191 C 
BRANCH  19  20
ATOM     20  O   UNL     1      34.580  12.207  -1.756  1.00  0.00    -0.394 OA
ATOM     21  H   UNL     1      34.445  11.781  -2.643  1.00  0.00     0.210 HD
ENDBRANCH  19  20
ENDBRANCH   4  19
TORSDOF 5
ENDMDL
