MODEL 1
REMARK VINA RESULT:    -6.143      0.000      0.000
REMARK INTER + INTRA:          -6.929
REMARK INTER:                  -6.862
REMARK INTRA:                  -0.067
REMARK UNBOUND:                -0.067
REMARK SMILES COc1cc2ccc(=O)oc2c(O)c1O
REMARK SMILES IDX 3 1 14 2 12 3 11 4 5 5 4 6 6 7 7 8 8 9 9 10 10 11 2 12 1 13
REMARK SMILES IDX 15 14 13 16
REMARK H PARENT 15 15 13 17
REMARK Flexibility Score: inf
ROOT
ATOM      1  C   UNL     1     -26.757  15.713  55.374  1.00  0.00     0.165 A 
ATOM      2  C   UNL     1     -27.239  16.850  54.696  1.00  0.00     0.204 A 
ATOM      3  C   UNL     1     -27.451  16.814  53.310  1.00  0.00     0.205 A 
ATOM      4  C   UNL     1     -27.181  15.640  52.589  1.00  0.00     0.184 A 
ATOM      5  C   UNL     1     -26.698  14.499  53.263  1.00  0.00     0.025 A 
ATOM      6  C   UNL     1     -26.488  14.537  54.647  1.00  0.00     0.062 A 
ATOM      7  C   UNL     1     -26.438  13.342  52.519  1.00  0.00     0.020 A 
ATOM      8  C   UNL     1     -26.661  13.348  51.144  1.00  0.00     0.094 A 
ATOM      9  C   UNL     1     -27.142  14.514  50.541  1.00  0.00     0.336 A 
ATOM     10  O   UNL     1     -27.349  14.540  49.300  1.00  0.00    -0.246 OA
ATOM     11  O   UNL     1     -27.380  15.600  51.272  1.00  0.00    -0.419 OA
ENDROOT
BRANCH   1  12
ATOM     12  O   UNL     1     -26.558  15.788  56.762  1.00  0.00    -0.493 OA
ATOM     13  C   UNL     1     -27.503  15.364  57.739  1.00  0.00     0.278 C 
ENDBRANCH   1  12
BRANCH   2  14
ATOM     14  O   UNL     1     -27.515  18.029  55.388  1.00  0.00    -0.502 OA
ATOM     15  H   UNL     1     -27.101  18.239  56.289  1.00  0.00     0.293 HD
ENDBRANCH   2  14
BRANCH   3  16
ATOM     16  O   UNL     1     -27.929  17.955  52.665  1.00  0.00    -0.502 OA
ATOM     17  H   UNL     1     -28.807  17.963  52.161  1.00  0.00     0.293 HD
ENDBRANCH   3  16
TORSDOF 3
ENDMDL
MODEL 2
REMARK VINA RESULT:    -5.941      2.450      4.443
REMARK INTER + INTRA:          -6.703
REMARK INTER:                  -6.635
REMARK INTRA:                  -0.069
REMARK UNBOUND:                -0.067
REMARK SMILES COc1cc2ccc(=O)oc2c(O)c1O
REMARK SMILES IDX 3 1 14 2 12 3 11 4 5 5 4 6 6 7 7 8 8 9 9 10 10 11 2 12 1 13
REMARK SMILES IDX 15 14 13 16
REMARK H PARENT 15 15 13 17
REMARK Flexibility Score: inf
ROOT
ATOM      1  C   UNL     1     -29.950  14.930  52.935  1.00  0.00     0.165 A 
ATOM      2  C   UNL     1     -29.508  16.182  52.467  1.00  0.00     0.204 A 
ATOM      3  C   UNL     1     -28.379  16.794  53.033  1.00  0.00     0.205 A 
ATOM      4  C   UNL     1     -27.684  16.158  54.073  1.00  0.00     0.184 A 
ATOM      5  C   UNL     1     -28.123  14.903  54.545  1.00  0.00     0.025 A 
ATOM      6  C   UNL     1     -29.249  14.294  53.979  1.00  0.00     0.062 A 
ATOM      7  C   UNL     1     -27.409  14.292  55.583  1.00  0.00     0.020 A 
ATOM      8  C   UNL     1     -26.294  14.934  56.117  1.00  0.00     0.094 A 
ATOM      9  C   UNL     1     -25.915  16.176  55.601  1.00  0.00     0.336 A 
ATOM     10  O   UNL     1     -24.911  16.772  56.070  1.00  0.00    -0.246 OA
ATOM     11  O   UNL     1     -26.611  16.734  54.614  1.00  0.00    -0.419 OA
ENDROOT
BRANCH   1  12
ATOM     12  O   UNL     1     -31.084  14.349  52.344  1.00  0.00    -0.493 OA
ATOM     13  C   UNL     1     -32.405  14.436  52.868  1.00  0.00     0.278 C 
ENDBRANCH   1  12
BRANCH   2  14
ATOM     14  O   UNL     1     -30.182  16.836  51.435  1.00  0.00    -0.502 OA
ATOM     15  H   UNL     1     -29.798  17.649  50.967  1.00  0.00     0.293 HD
ENDBRANCH   2  14
BRANCH   3  16
ATOM     16  O   UNL     1     -27.965  18.035  52.549  1.00  0.00    -0.502 OA
ATOM     17  H   UNL     1     -28.094  18.891  53.075  1.00  0.00     0.293 HD
ENDBRANCH   3  16
TORSDOF 3
ENDMDL
MODEL 3
REMARK VINA RESULT:    -5.895      1.526      2.385
REMARK INTER + INTRA:          -6.651
REMARK INTER:                  -6.613
REMARK INTRA:                  -0.038
REMARK UNBOUND:                -0.067
REMARK SMILES COc1cc2ccc(=O)oc2c(O)c1O
REMARK SMILES IDX 3 1 14 2 12 3 11 4 5 5 4 6 6 7 7 8 8 9 9 10 10 11 2 12 1 13
REMARK SMILES IDX 15 14 13 16
REMARK H PARENT 15 15 13 17
REMARK Flexibility Score: inf
ROOT
ATOM      1  C   UNL     1     -26.921  16.412  54.266  1.00  0.00     0.165 A 
ATOM      2  C   UNL     1     -27.407  16.635  52.963  1.00  0.00     0.204 A 
ATOM      3  C   UNL     1     -27.362  15.613  52.003  1.00  0.00     0.205 A 
ATOM      4  C   UNL     1     -26.828  14.359  52.338  1.00  0.00     0.184 A 
ATOM      5  C   UNL     1     -26.340  14.130  53.641  1.00  0.00     0.025 A 
ATOM      6  C   UNL     1     -26.387  15.151  54.598  1.00  0.00     0.062 A 
ATOM      7  C   UNL     1     -25.814  12.870  53.947  1.00  0.00     0.020 A 
ATOM      8  C   UNL     1     -25.787  11.883  52.964  1.00  0.00     0.094 A 
ATOM      9  C   UNL     1     -26.288  12.178  51.693  1.00  0.00     0.336 A 
ATOM     10  O   UNL     1     -26.272  11.301  50.792  1.00  0.00    -0.246 OA
ATOM     11  O   UNL     1     -26.782  13.385  51.430  1.00  0.00    -0.419 OA
ENDROOT
BRANCH   1  12
ATOM     12  O   UNL     1     -26.984  17.459  55.200  1.00  0.00    -0.493 OA
ATOM     13  C   UNL     1     -25.993  18.470  55.351  1.00  0.00     0.278 C 
ENDBRANCH   1  12
BRANCH   2  14
ATOM     14  O   UNL     1     -27.942  17.872  52.604  1.00  0.00    -0.502 OA
ATOM     15  H   UNL     1     -28.833  17.961  52.129  1.00  0.00     0.293 HD
ENDBRANCH   2  14
BRANCH   3  16
ATOM     16  O   UNL     1     -27.850  15.864  50.720  1.00  0.00    -0.502 OA
ATOM     17  H   UNL     1     -28.025  16.803  50.383  1.00  0.00     0.293 HD
ENDBRANCH   3  16
TORSDOF 3
ENDMDL
MODEL 4
REMARK VINA RESULT:    -5.829      1.069      4.724
REMARK INTER + INTRA:          -6.578
REMARK INTER:                  -6.528
REMARK INTRA:                  -0.050
REMARK UNBOUND:                -0.067
REMARK SMILES COc1cc2ccc(=O)oc2c(O)c1O
REMARK SMILES IDX 3 1 14 2 12 3 11 4 5 5 4 6 6 7 7 8 8 9 9 10 10 11 2 12 1 13
REMARK SMILES IDX 15 14 13 16
REMARK H PARENT 15 15 13 17
REMARK Flexibility Score: inf
ROOT
ATOM      1  C   UNL     1     -27.165  15.641  52.669  1.00  0.00     0.165 A 
ATOM      2  C   UNL     1     -27.541  16.784  53.400  1.00  0.00     0.204 A 
ATOM      3  C   UNL     1     -27.585  16.748  54.802  1.00  0.00     0.205 A 
ATOM      4  C   UNL     1     -27.255  15.567  55.484  1.00  0.00     0.184 A 
ATOM      5  C   UNL     1     -26.878  14.419  54.756  1.00  0.00     0.025 A 
ATOM      6  C   UNL     1     -26.833  14.458  53.357  1.00  0.00     0.062 A 
ATOM      7  C   UNL     1     -26.553  13.256  55.463  1.00  0.00     0.020 A 
ATOM      8  C   UNL     1     -26.611  13.262  56.855  1.00  0.00     0.094 A 
ATOM      9  C   UNL     1     -26.992  14.435  57.512  1.00  0.00     0.336 A 
ATOM     10  O   UNL     1     -27.051  14.461  58.769  1.00  0.00    -0.246 OA
ATOM     11  O   UNL     1     -27.296  15.527  56.815  1.00  0.00    -0.419 OA
ENDROOT
BRANCH   1  12
ATOM     12  O   UNL     1     -27.132  15.717  51.266  1.00  0.00    -0.493 OA
ATOM     13  C   UNL     1     -27.189  14.593  50.394  1.00  0.00     0.278 C 
ENDBRANCH   1  12
BRANCH   2  14
ATOM     14  O   UNL     1     -27.875  17.971  52.747  1.00  0.00    -0.502 OA
ATOM     15  H   UNL     1     -28.799  18.383  52.808  1.00  0.00     0.293 HD
ENDBRANCH   2  14
BRANCH   3  16
ATOM     16  O   UNL     1     -27.962  17.897  55.500  1.00  0.00    -0.502 OA
ATOM     17  H   UNL     1     -27.322  18.395  56.106  1.00  0.00     0.293 HD
ENDBRANCH   3  16
TORSDOF 3
ENDMDL
MODEL 5
REMARK VINA RESULT:    -5.787      5.001      5.558
REMARK INTER + INTRA:          -6.531
REMARK INTER:                  -6.461
REMARK INTRA:                  -0.069
REMARK UNBOUND:                -0.067
REMARK SMILES COc1cc2ccc(=O)oc2c(O)c1O
REMARK SMILES IDX 3 1 14 2 12 3 11 4 5 5 4 6 6 7 7 8 8 9 9 10 10 11 2 12 1 13
REMARK SMILES IDX 15 14 13 16
REMARK H PARENT 15 15 13 17
REMARK Flexibility Score: inf
ROOT
ATOM      1  C   UNL     1     -30.046  14.003  53.640  1.00  0.00     0.165 A 
ATOM      2  C   UNL     1     -29.685  14.921  52.635  1.00  0.00     0.204 A 
ATOM      3  C   UNL     1     -30.669  15.657  51.958  1.00  0.00     0.205 A 
ATOM      4  C   UNL     1     -32.024  15.479  52.279  1.00  0.00     0.184 A 
ATOM      5  C   UNL     1     -32.390  14.560  53.285  1.00  0.00     0.025 A 
ATOM      6  C   UNL     1     -31.406  13.828  53.960  1.00  0.00     0.062 A 
ATOM      7  C   UNL     1     -33.748  14.404  53.586  1.00  0.00     0.020 A 
ATOM      8  C   UNL     1     -34.694  15.153  52.889  1.00  0.00     0.094 A 
ATOM      9  C   UNL     1     -34.260  16.045  51.905  1.00  0.00     0.336 A 
ATOM     10  O   UNL     1     -35.099  16.730  51.264  1.00  0.00    -0.246 OA
ATOM     11  O   UNL     1     -32.963  16.174  51.639  1.00  0.00    -0.419 OA
ENDROOT
BRANCH   1  12
ATOM     12  O   UNL     1     -29.031  13.286  54.296  1.00  0.00    -0.493 OA
ATOM     13  C   UNL     1     -28.483  13.635  55.563  1.00  0.00     0.278 C 
ENDBRANCH   1  12
BRANCH   2  14
ATOM     14  O   UNL     1     -28.346  15.117  52.295  1.00  0.00    -0.502 OA
ATOM     15  H   UNL     1     -27.766  14.372  51.925  1.00  0.00     0.293 HD
ENDBRANCH   2  14
BRANCH   3  16
ATOM     16  O   UNL     1     -30.282  16.559  50.966  1.00  0.00    -0.502 OA
ATOM     17  H   UNL     1     -30.211  16.293  49.991  1.00  0.00     0.293 HD
ENDBRANCH   3  16
TORSDOF 3
ENDMDL
MODEL 6
REMARK VINA RESULT:    -5.677      5.660      6.124
REMARK INTER + INTRA:          -6.408
REMARK INTER:                  -6.339
REMARK INTRA:                  -0.069
REMARK UNBOUND:                -0.067
REMARK SMILES COc1cc2ccc(=O)oc2c(O)c1O
REMARK SMILES IDX 3 1 14 2 12 3 11 4 5 5 4 6 6 7 7 8 8 9 9 10 10 11 2 12 1 13
REMARK SMILES IDX 15 14 13 16
REMARK H PARENT 15 15 13 17
REMARK Flexibility Score: inf
ROOT
ATOM      1  C   UNL     1     -31.684  13.329  54.772  1.00  0.00     0.165 A 
ATOM      2  C   UNL     1     -30.664  13.582  53.834  1.00  0.00     0.204 A 
ATOM      3  C   UNL     1     -30.916  14.380  52.708  1.00  0.00     0.205 A 
ATOM      4  C   UNL     1     -32.192  14.932  52.510  1.00  0.00     0.184 A 
ATOM      5  C   UNL     1     -33.216  14.681  53.446  1.00  0.00     0.025 A 
ATOM      6  C   UNL     1     -32.962  13.885  54.570  1.00  0.00     0.062 A 
ATOM      7  C   UNL     1     -34.478  15.245  53.224  1.00  0.00     0.020 A 
ATOM      8  C   UNL     1     -34.686  16.031  52.092  1.00  0.00     0.094 A 
ATOM      9  C   UNL     1     -33.625  16.238  51.206  1.00  0.00     0.336 A 
ATOM     10  O   UNL     1     -33.793  16.944  50.179  1.00  0.00    -0.246 OA
ATOM     11  O   UNL     1     -32.436  15.690  51.442  1.00  0.00    -0.419 OA
ENDROOT
BRANCH   1  12
ATOM     12  O   UNL     1     -31.394  12.526  55.887  1.00  0.00    -0.493 OA
ATOM     13  C   UNL     1     -31.793  11.167  56.031  1.00  0.00     0.278 C 
ENDBRANCH   1  12
BRANCH   2  14
ATOM     14  O   UNL     1     -29.388  13.045  54.007  1.00  0.00    -0.502 OA
ATOM     15  H   UNL     1     -29.042  12.751  54.913  1.00  0.00     0.293 HD
ENDBRANCH   2  14
BRANCH   3  16
ATOM     16  O   UNL     1     -29.886  14.612  51.796  1.00  0.00    -0.502 OA
ATOM     17  H   UNL     1     -29.074  15.171  52.029  1.00  0.00     0.293 HD
ENDBRANCH   3  16
TORSDOF 3
ENDMDL
MODEL 7
REMARK VINA RESULT:    -5.630      5.821      6.915
REMARK INTER + INTRA:          -6.356
REMARK INTER:                  -6.291
REMARK INTRA:                  -0.065
REMARK UNBOUND:                -0.067
REMARK SMILES COc1cc2ccc(=O)oc2c(O)c1O
REMARK SMILES IDX 3 1 14 2 12 3 11 4 5 5 4 6 6 7 7 8 8 9 9 10 10 11 2 12 1 13
REMARK SMILES IDX 15 14 13 16
REMARK H PARENT 15 15 13 17
REMARK Flexibility Score: inf
ROOT
ATOM      1  C   UNL     1     -33.132  15.717  52.196  1.00  0.00     0.165 A 
ATOM      2  C   UNL     1     -31.745  15.565  52.001  1.00  0.00     0.204 A 
ATOM      3  C   UNL     1     -31.040  14.556  52.673  1.00  0.00     0.205 A 
ATOM      4  C   UNL     1     -31.715  13.690  53.547  1.00  0.00     0.184 A 
ATOM      5  C   UNL     1     -33.104  13.838  53.746  1.00  0.00     0.025 A 
ATOM      6  C   UNL     1     -33.806  14.846  53.074  1.00  0.00     0.062 A 
ATOM      7  C   UNL     1     -33.751  12.960  54.623  1.00  0.00     0.020 A 
ATOM      8  C   UNL     1     -33.014  11.971  55.270  1.00  0.00     0.094 A 
ATOM      9  C   UNL     1     -31.640  11.881  55.026  1.00  0.00     0.336 A 
ATOM     10  O   UNL     1     -30.956  10.996  55.601  1.00  0.00    -0.246 OA
ATOM     11  O   UNL     1     -31.050  12.729  54.187  1.00  0.00    -0.419 OA
ENDROOT
BRANCH   1  12
ATOM     12  O   UNL     1     -33.804  16.739  51.506  1.00  0.00    -0.493 OA
ATOM     13  C   UNL     1     -34.469  16.571  50.258  1.00  0.00     0.278 C 
ENDBRANCH   1  12
BRANCH   2  14
ATOM     14  O   UNL     1     -31.050  16.412  51.138  1.00  0.00    -0.502 OA
ATOM     15  H   UNL     1     -31.061  16.290  50.132  1.00  0.00     0.293 HD
ENDBRANCH   2  14
BRANCH   3  16
ATOM     16  O   UNL     1     -29.666  14.429  52.460  1.00  0.00    -0.502 OA
ATOM     17  H   UNL     1     -28.985  14.677  53.167  1.00  0.00     0.293 HD
ENDBRANCH   3  16
TORSDOF 3
ENDMDL
MODEL 8
REMARK VINA RESULT:    -5.559      7.230      7.896
REMARK INTER + INTRA:          -6.276
REMARK INTER:                  -6.225
REMARK INTRA:                  -0.051
REMARK UNBOUND:                -0.067
REMARK SMILES COc1cc2ccc(=O)oc2c(O)c1O
REMARK SMILES IDX 3 1 14 2 12 3 11 4 5 5 4 6 6 7 7 8 8 9 9 10 10 11 2 12 1 13
REMARK SMILES IDX 15 14 13 16
REMARK H PARENT 15 15 13 17
REMARK Flexibility Score: inf
ROOT
ATOM      1  C   UNL     1     -32.073  15.126  52.401  1.00  0.00     0.165 A 
ATOM      2  C   UNL     1     -33.043  14.620  53.287  1.00  0.00     0.204 A 
ATOM      3  C   UNL     1     -34.409  14.776  53.009  1.00  0.00     0.205 A 
ATOM      4  C   UNL     1     -34.817  15.442  51.843  1.00  0.00     0.184 A 
ATOM      5  C   UNL     1     -33.848  15.952  50.953  1.00  0.00     0.025 A 
ATOM      6  C   UNL     1     -32.485  15.793  51.231  1.00  0.00     0.062 A 
ATOM      7  C   UNL     1     -34.283  16.610  49.797  1.00  0.00     0.020 A 
ATOM      8  C   UNL     1     -35.649  16.745  49.559  1.00  0.00     0.094 A 
ATOM      9  C   UNL     1     -36.554  16.215  50.484  1.00  0.00     0.336 A 
ATOM     10  O   UNL     1     -37.791  16.327  50.288  1.00  0.00    -0.246 OA
ATOM     11  O   UNL     1     -36.113  15.594  51.574  1.00  0.00    -0.419 OA
ENDROOT
BRANCH   1  12
ATOM     12  O   UNL     1     -30.714  14.949  52.713  1.00  0.00    -0.493 OA
ATOM     13  C   UNL     1     -29.681  15.872  52.382  1.00  0.00     0.278 C 
ENDBRANCH   1  12
BRANCH   2  14
ATOM     14  O   UNL     1     -32.665  13.954  54.454  1.00  0.00    -0.502 OA
ATOM     15  H   UNL     1     -32.973  13.012  54.665  1.00  0.00     0.293 HD
ENDBRANCH   2  14
BRANCH   3  16
ATOM     16  O   UNL     1     -35.348  14.264  53.906  1.00  0.00    -0.502 OA
ATOM     17  H   UNL     1     -36.307  14.590  53.930  1.00  0.00     0.293 HD
ENDBRANCH   3  16
TORSDOF 3
ENDMDL
MODEL 9
REMARK VINA RESULT:    -5.554      4.328      5.638
REMARK INTER + INTRA:          -6.271
REMARK INTER:                  -6.222
REMARK INTRA:                  -0.049
REMARK UNBOUND:                -0.067
REMARK SMILES COc1cc2ccc(=O)oc2c(O)c1O
REMARK SMILES IDX 3 1 14 2 12 3 11 4 5 5 4 6 6 7 7 8 8 9 9 10 10 11 2 12 1 13
REMARK SMILES IDX 15 14 13 16
REMARK H PARENT 15 15 13 17
REMARK Flexibility Score: inf
ROOT
ATOM      1  C   UNL     1     -25.306  11.345  57.826  1.00  0.00     0.165 A 
ATOM      2  C   UNL     1     -24.511  10.470  57.060  1.00  0.00     0.204 A 
ATOM      3  C   UNL     1     -24.456  10.599  55.664  1.00  0.00     0.205 A 
ATOM      4  C   UNL     1     -25.198  11.603  55.022  1.00  0.00     0.184 A 
ATOM      5  C   UNL     1     -25.996  12.481  55.785  1.00  0.00     0.025 A 
ATOM      6  C   UNL     1     -26.048  12.351  57.178  1.00  0.00     0.062 A 
ATOM      7  C   UNL     1     -26.724  13.473  55.118  1.00  0.00     0.020 A 
ATOM      8  C   UNL     1     -26.642  13.566  53.731  1.00  0.00     0.094 A 
ATOM      9  C   UNL     1     -25.831  12.662  53.037  1.00  0.00     0.336 A 
ATOM     10  O   UNL     1     -25.745  12.729  51.784  1.00  0.00    -0.246 OA
ATOM     11  O   UNL     1     -25.150  11.729  53.697  1.00  0.00    -0.419 OA
ENDROOT
BRANCH   1  12
ATOM     12  O   UNL     1     -25.334  11.185  59.222  1.00  0.00    -0.493 OA
ATOM     13  C   UNL     1     -26.028  12.045  60.120  1.00  0.00     0.278 C 
ENDBRANCH   1  12
BRANCH   2  14
ATOM     14  O   UNL     1     -23.765   9.464  57.673  1.00  0.00    -0.502 OA
ATOM     15  H   UNL     1     -22.928   9.075  57.252  1.00  0.00     0.293 HD
ENDBRANCH   2  14
BRANCH   3  16
ATOM     16  O   UNL     1     -23.660   9.717  54.931  1.00  0.00    -0.502 OA
ATOM     17  H   UNL     1     -22.735   9.969  54.606  1.00  0.00     0.293 HD
ENDBRANCH   3  16
TORSDOF 3
ENDMDL
