MODEL 1
REMARK VINA RESULT:    48.040      0.000      0.000
REMARK INTER + INTRA:          59.062
REMARK INTER:                  59.273
REMARK INTRA:                  -0.212
REMARK UNBOUND:                -0.212
REMARK SMILES COc1cc(-c2oc3cc(O)cc(O)c3c(=O)c2O)ccc1O
REMARK SMILES IDX 6 1 18 2 16 3 17 4 15 5 13 6 12 7 10 8 9 9 8 10 7 11 5 12
REMARK SMILES IDX 3 13 22 14 4 15 21 16 20 17 2 18 1 19 23 20 19 22 14 24
REMARK SMILES IDX 11 26
REMARK H PARENT 23 21 19 23 14 25 11 27
REMARK Flexibility Score: inf
ROOT
ATOM      1  C   UNL     1      17.491  41.160  10.631  1.00  0.00     0.180 A 
ATOM      2  C   UNL     1      18.417  40.199  10.182  1.00  0.00     0.208 A 
ATOM      3  C   UNL     1      19.782  40.403  10.434  1.00  0.00     0.238 A 
ATOM      4  O   UNL     1      20.620  39.544  10.046  1.00  0.00    -0.285 OA
ATOM      5  C   UNL     1      20.200  41.569  11.110  1.00  0.00     0.111 A 
ATOM      6  C   UNL     1      21.556  41.852  11.399  1.00  0.00     0.134 A 
ATOM      7  C   UNL     1      21.892  43.038  12.067  1.00  0.00     0.093 A 
ATOM      8  C   UNL     1      20.898  43.946  12.451  1.00  0.00     0.123 A 
ATOM      9  C   UNL     1      19.559  43.671  12.168  1.00  0.00     0.094 A 
ATOM     10  C   UNL     1      19.204  42.493  11.504  1.00  0.00     0.146 A 
ATOM     11  O   UNL     1      17.922  42.253  11.252  1.00  0.00    -0.452 OA
ENDROOT
BRANCH   1  12
ATOM     12  C   UNL     1      16.032  41.007  10.420  1.00  0.00     0.025 A 
ATOM     13  C   UNL     1      13.979  39.734  10.794  1.00  0.00     0.161 A 
ATOM     14  C   UNL     1      13.275  40.647   9.996  1.00  0.00     0.157 A 
ATOM     15  C   UNL     1      15.361  39.917  10.997  1.00  0.00     0.062 A 
ATOM     16  C   UNL     1      13.945  41.724   9.404  1.00  0.00     0.051 A 
ATOM     17  C   UNL     1      15.315  41.901   9.608  1.00  0.00     0.016 A 
BRANCH  13  18
ATOM     18  O   UNL     1      13.273  38.663  11.366  1.00  0.00    -0.493 OA
ATOM     19  C   UNL     1      13.111  38.460  12.766  1.00  0.00     0.278 C 
ENDBRANCH  13  18
BRANCH  14  20
ATOM     20  O   UNL     1      11.908  40.474   9.793  1.00  0.00    -0.504 OA
ATOM     21  H   UNL     1      11.339  39.939  10.439  1.00  0.00     0.293 HD
ENDBRANCH  14  20
ENDBRANCH   1  12
BRANCH   2  22
ATOM     22  O   UNL     1      17.982  39.077   9.471  1.00  0.00    -0.502 OA
ATOM     23  H   UNL     1      18.244  38.134   9.732  1.00  0.00     0.293 HD
ENDBRANCH   2  22
BRANCH   6  24
ATOM     24  O   UNL     1      22.570  40.968  11.029  1.00  0.00    -0.507 OA
ATOM     25  H   UNL     1      23.435  41.291  10.613  1.00  0.00     0.293 HD
ENDBRANCH   6  24
BRANCH   8  26
ATOM     26  O   UNL     1      21.230  45.125  13.113  1.00  0.00    -0.508 OA
ATOM     27  H   UNL     1      21.211  45.188  14.125  1.00  0.00     0.293 HD
ENDBRANCH   8  26
TORSDOF 6
ENDMDL
MODEL 2
REMARK VINA RESULT:    48.949      1.466      7.272
REMARK INTER + INTRA:          60.184
REMARK INTER:                  60.568
REMARK INTRA:                  -0.385
REMARK UNBOUND:                -0.212
REMARK SMILES COc1cc(-c2oc3cc(O)cc(O)c3c(=O)c2O)ccc1O
REMARK SMILES IDX 6 1 18 2 16 3 17 4 15 5 13 6 12 7 10 8 9 9 8 10 7 11 5 12
REMARK SMILES IDX 3 13 22 14 4 15 21 16 20 17 2 18 1 19 23 20 19 22 14 24
REMARK SMILES IDX 11 26
REMARK H PARENT 23 21 19 23 14 25 11 27
REMARK Flexibility Score: inf
ROOT
ATOM      1  C   UNL     1      17.280  40.944  10.717  1.00  0.00     0.180 A 
ATOM      2  C   UNL     1      16.632  41.563   9.631  1.00  0.00     0.208 A 
ATOM      3  C   UNL     1      15.259  41.342   9.445  1.00  0.00     0.238 A 
ATOM      4  O   UNL     1      14.666  41.899   8.482  1.00  0.00    -0.285 OA
ATOM      5  C   UNL     1      14.563  40.495  10.333  1.00  0.00     0.111 A 
ATOM      6  C   UNL     1      13.180  40.217  10.214  1.00  0.00     0.134 A 
ATOM      7  C   UNL     1      12.562  39.356  11.132  1.00  0.00     0.093 A 
ATOM      8  C   UNL     1      13.300  38.767  12.166  1.00  0.00     0.123 A 
ATOM      9  C   UNL     1      14.664  39.039  12.287  1.00  0.00     0.094 A 
ATOM     10  C   UNL     1      15.298  39.896  11.383  1.00  0.00     0.146 A 
ATOM     11  O   UNL     1      16.596  40.141  11.525  1.00  0.00    -0.452 OA
ENDROOT
BRANCH   1  12
ATOM     12  C   UNL     1      18.723  41.143  10.991  1.00  0.00     0.025 A 
ATOM     13  C   UNL     1      20.510  42.504  11.955  1.00  0.00     0.161 A 
ATOM     14  C   UNL     1      21.457  41.588  11.479  1.00  0.00     0.157 A 
ATOM     15  C   UNL     1      19.142  42.279  11.701  1.00  0.00     0.062 A 
ATOM     16  C   UNL     1      21.044  40.463  10.754  1.00  0.00     0.051 A 
ATOM     17  C   UNL     1      19.688  40.244  10.504  1.00  0.00     0.016 A 
BRANCH  13  18
ATOM     18  O   UNL     1      20.963  43.623  12.672  1.00  0.00    -0.493 OA
ATOM     19  C   UNL     1      20.574  44.966  12.403  1.00  0.00     0.278 C 
ENDBRANCH  13  18
BRANCH  14  20
ATOM     20  O   UNL     1      22.811  41.803  11.729  1.00  0.00    -0.504 OA
ATOM     21  H   UNL     1      23.486  41.050  11.679  1.00  0.00     0.293 HD
ENDBRANCH  14  20
ENDBRANCH   1  12
BRANCH   2  22
ATOM     22  O   UNL     1      17.355  42.358   8.737  1.00  0.00    -0.502 OA
ATOM     23  H   UNL     1      18.174  42.018   8.248  1.00  0.00     0.293 HD
ENDBRANCH   2  22
BRANCH   6  24
ATOM     24  O   UNL     1      12.418  40.788   9.194  1.00  0.00    -0.507 OA
ATOM     25  H   UNL     1      11.478  40.471   8.990  1.00  0.00     0.293 HD
ENDBRANCH   6  24
BRANCH   8  26
ATOM     26  O   UNL     1      12.687  37.911  13.077  1.00  0.00    -0.508 OA
ATOM     27  H   UNL     1      12.391  36.979  12.812  1.00  0.00     0.293 HD
ENDBRANCH   8  26
TORSDOF 6
ENDMDL
