MODEL 1
REMARK VINA RESULT:    -5.613      0.000      0.000
REMARK INTER + INTRA:         -11.125
REMARK INTER:                  -9.879
REMARK INTRA:                  -1.246
REMARK UNBOUND:                -1.246
REMARK SMILES CCCCCCCCCCCCCCC(=O)[O-]
REMARK SMILES IDX 9 1 10 2 11 3 12 4 13 5 14 6 15 7 16 8 17 9 8 10 7 11 6 12
REMARK SMILES IDX 5 13 4 14 3 15 2 16 1 17
REMARK H PARENT
REMARK Flexibility Score: inf
ROOT
ATOM      1  C   UNL     1      -5.401 -29.620 -54.239  1.00  0.00     0.000 C 
ENDROOT
BRANCH   1   2
ATOM      2  C   UNL     1      -5.165 -31.134 -54.121  1.00  0.00     0.000 C 
BRANCH   2   3
ATOM      3  C   UNL     1      -5.429 -31.663 -52.700  1.00  0.00     0.000 C 
BRANCH   3   4
ATOM      4  C   UNL     1      -4.166 -32.222 -52.024  1.00  0.00     0.000 C 
BRANCH   4   5
ATOM      5  C   UNL     1      -2.947 -32.408 -52.951  1.00  0.00     0.006 C 
BRANCH   5   6
ATOM      6  C   UNL     1      -1.934 -33.454 -52.454  1.00  0.00     0.053 C 
BRANCH   6   7
ATOM      7  C   UNL     1      -1.364 -33.109 -51.111  1.00  0.00     0.041 C 
ATOM      8  O   UNL     1      -1.514 -33.894 -50.138  1.00  0.00    -0.550 OA
ATOM      9  O   UNL     1      -0.706 -31.900 -50.922  1.00  0.00    -0.550 OA
ENDBRANCH   6   7
ENDBRANCH   5   6
ENDBRANCH   4   5
ENDBRANCH   3   4
ENDBRANCH   2   3
ENDBRANCH   1   2
BRANCH   1  10
ATOM     10  C   UNL     1      -4.408 -28.799 -53.396  1.00  0.00     0.000 C 
BRANCH  10  11
ATOM     11  C   UNL     1      -4.790 -27.313 -53.321  1.00  0.00    -0.000 C 
BRANCH  11  12
ATOM     12  C   UNL     1      -5.856 -27.027 -52.247  1.00  0.00    -0.000 C 
BRANCH  12  13
ATOM     13  C   UNL     1      -5.889 -28.098 -51.140  1.00  0.00    -0.000 C 
BRANCH  13  14
ATOM     14  C   UNL     1      -6.192 -27.559 -49.730  1.00  0.00    -0.000 C 
BRANCH  14  15
ATOM     15  C   UNL     1      -6.414 -28.677 -48.698  1.00  0.00    -0.000 C 
BRANCH  15  16
ATOM     16  C   UNL     1      -7.180 -29.874 -49.283  1.00  0.00    -0.003 C 
ATOM     17  C   UNL     1      -6.411 -31.188 -49.154  1.00  0.00     0.004 C 
ENDBRANCH  15  16
ENDBRANCH  14  15
ENDBRANCH  13  14
ENDBRANCH  12  13
ENDBRANCH  11  12
ENDBRANCH  10  11
ENDBRANCH   1  10
TORSDOF 13
ENDMDL
MODEL 2
REMARK VINA RESULT:    -5.577      2.918      5.481
REMARK INTER + INTRA:         -11.062
REMARK INTER:                  -9.214
REMARK INTRA:                  -1.848
REMARK UNBOUND:                -1.246
REMARK SMILES CCCCCCCCCCCCCCC(=O)[O-]
REMARK SMILES IDX 9 1 10 2 11 3 12 4 13 5 14 6 15 7 16 8 17 9 8 10 7 11 6 12
REMARK SMILES IDX 5 13 4 14 3 15 2 16 1 17
REMARK H PARENT
REMARK Flexibility Score: inf
ROOT
ATOM      1  C   UNL     1       0.107 -31.211 -51.871  1.00  0.00     0.000 C 
ENDROOT
BRANCH   1   2
ATOM      2  C   UNL     1      -0.773 -30.064 -51.349  1.00  0.00     0.000 C 
BRANCH   2   3
ATOM      3  C   UNL     1      -0.717 -28.820 -52.251  1.00  0.00     0.000 C 
BRANCH   3   4
ATOM      4  C   UNL     1      -2.072 -28.486 -52.898  1.00  0.00     0.000 C 
BRANCH   4   5
ATOM      5  C   UNL     1      -3.247 -29.390 -52.474  1.00  0.00     0.006 C 
BRANCH   5   6
ATOM      6  C   UNL     1      -4.635 -28.812 -52.803  1.00  0.00     0.053 C 
BRANCH   6   7
ATOM      7  C   UNL     1      -5.176 -29.326 -54.104  1.00  0.00     0.041 C 
ATOM      8  O   UNL     1      -4.869 -30.478 -54.507  1.00  0.00    -0.550 OA
ATOM      9  O   UNL     1      -5.985 -28.515 -54.891  1.00  0.00    -0.550 OA
ENDBRANCH   6   7
ENDBRANCH   5   6
ENDBRANCH   4   5
ENDBRANCH   3   4
ENDBRANCH   2   3
ENDBRANCH   1   2
BRANCH   1  10
ATOM     10  C   UNL     1      -0.250 -31.623 -53.311  1.00  0.00     0.000 C 
BRANCH  10  11
ATOM     11  C   UNL     1      -0.985 -32.971 -53.371  1.00  0.00    -0.000 C 
BRANCH  11  12
ATOM     12  C   UNL     1      -2.468 -32.857 -52.975  1.00  0.00    -0.000 C 
BRANCH  12  13
ATOM     13  C   UNL     1      -2.754 -33.405 -51.565  1.00  0.00    -0.000 C 
BRANCH  13  14
ATOM     14  C   UNL     1      -3.897 -32.696 -50.817  1.00  0.00    -0.000 C 
BRANCH  14  15
ATOM     15  C   UNL     1      -5.141 -32.477 -51.694  1.00  0.00    -0.000 C 
BRANCH  15  16
ATOM     16  C   UNL     1      -6.205 -31.611 -51.001  1.00  0.00    -0.003 C 
ATOM     17  C   UNL     1      -5.918 -31.401 -49.515  1.00  0.00     0.004 C 
ENDBRANCH  15  16
ENDBRANCH  14  15
ENDBRANCH  13  14
ENDBRANCH  12  13
ENDBRANCH  11  12
ENDBRANCH  10  11
ENDBRANCH   1  10
TORSDOF 13
ENDMDL
MODEL 3
REMARK VINA RESULT:    -5.549      3.169      5.725
REMARK INTER + INTRA:         -11.013
REMARK INTER:                  -9.352
REMARK INTRA:                  -1.661
REMARK UNBOUND:                -1.246
REMARK SMILES CCCCCCCCCCCCCCC(=O)[O-]
REMARK SMILES IDX 9 1 10 2 11 3 12 4 13 5 14 6 15 7 16 8 17 9 8 10 7 11 6 12
REMARK SMILES IDX 5 13 4 14 3 15 2 16 1 17
REMARK H PARENT
REMARK Flexibility Score: inf
ROOT
ATOM      1  C   UNL     1      -5.211 -30.883 -52.340  1.00  0.00     0.000 C 
ENDROOT
BRANCH   1   2
ATOM      2  C   UNL     1      -5.800 -31.924 -51.375  1.00  0.00     0.000 C 
BRANCH   2   3
ATOM      3  C   UNL     1      -5.910 -31.396 -49.934  1.00  0.00     0.000 C 
BRANCH   3   4
ATOM      4  C   UNL     1      -7.361 -31.119 -49.505  1.00  0.00     0.000 C 
BRANCH   4   5
ATOM      5  C   UNL     1      -7.564 -29.864 -48.632  1.00  0.00     0.006 C 
BRANCH   5   6
ATOM      6  C   UNL     1      -6.269 -29.085 -48.341  1.00  0.00     0.053 C 
BRANCH   6   7
ATOM      7  C   UNL     1      -6.476 -27.600 -48.363  1.00  0.00     0.041 C 
ATOM      8  O   UNL     1      -6.531 -26.951 -47.286  1.00  0.00    -0.550 OA
ATOM      9  O   UNL     1      -6.653 -26.938 -49.572  1.00  0.00    -0.550 OA
ENDBRANCH   6   7
ENDBRANCH   5   6
ENDBRANCH   4   5
ENDBRANCH   3   4
ENDBRANCH   2   3
ENDBRANCH   1   2
BRANCH   1  10
ATOM     10  C   UNL     1      -5.235 -29.458 -51.760  1.00  0.00     0.000 C 
BRANCH  10  11
ATOM     11  C   UNL     1      -3.968 -28.661 -52.106  1.00  0.00    -0.000 C 
BRANCH  11  12
ATOM     12  C   UNL     1      -2.891 -29.525 -52.788  1.00  0.00    -0.000 C 
BRANCH  12  13
ATOM     13  C   UNL     1      -1.640 -29.719 -51.913  1.00  0.00    -0.000 C 
BRANCH  13  14
ATOM     14  C   UNL     1      -1.179 -31.180 -51.760  1.00  0.00    -0.000 C 
BRANCH  14  15
ATOM     15  C   UNL     1      -1.816 -32.119 -52.799  1.00  0.00    -0.000 C 
BRANCH  15  16
ATOM     16  C   UNL     1      -2.008 -33.546 -52.263  1.00  0.00    -0.003 C 
ATOM     17  C   UNL     1      -2.542 -33.571 -50.831  1.00  0.00     0.004 C 
ENDBRANCH  15  16
ENDBRANCH  14  15
ENDBRANCH  13  14
ENDBRANCH  12  13
ENDBRANCH  11  12
ENDBRANCH  10  11
ENDBRANCH   1  10
TORSDOF 13
ENDMDL
MODEL 4
REMARK VINA RESULT:    -5.501      3.136      6.087
REMARK INTER + INTRA:         -10.929
REMARK INTER:                  -9.235
REMARK INTRA:                  -1.693
REMARK UNBOUND:                -1.246
REMARK SMILES CCCCCCCCCCCCCCC(=O)[O-]
REMARK SMILES IDX 9 1 10 2 11 3 12 4 13 5 14 6 15 7 16 8 17 9 8 10 7 11 6 12
REMARK SMILES IDX 5 13 4 14 3 15 2 16 1 17
REMARK H PARENT
REMARK Flexibility Score: inf
ROOT
ATOM      1  C   UNL     1      -1.013 -29.055 -52.078  1.00  0.00     0.000 C 
ENDROOT
BRANCH   1   2
ATOM      2  C   UNL     1      -2.418 -29.453 -52.557  1.00  0.00     0.000 C 
BRANCH   2   3
ATOM      3  C   UNL     1      -3.346 -28.240 -52.739  1.00  0.00     0.000 C 
BRANCH   3   4
ATOM      4  C   UNL     1      -4.834 -28.592 -52.576  1.00  0.00     0.000 C 
BRANCH   4   5
ATOM      5  C   UNL     1      -5.471 -28.170 -51.236  1.00  0.00     0.006 C 
BRANCH   5   6
ATOM      6  C   UNL     1      -6.013 -29.344 -50.401  1.00  0.00     0.053 C 
BRANCH   6   7
ATOM      7  C   UNL     1      -6.785 -28.884 -49.200  1.00  0.00     0.041 C 
ATOM      8  O   UNL     1      -6.560 -27.752 -48.697  1.00  0.00    -0.550 OA
ATOM      9  O   UNL     1      -7.723 -29.723 -48.611  1.00  0.00    -0.550 OA
ENDBRANCH   6   7
ENDBRANCH   5   6
ENDBRANCH   4   5
ENDBRANCH   3   4
ENDBRANCH   2   3
ENDBRANCH   1   2
BRANCH   1  10
ATOM     10  C   UNL     1      -0.345 -30.153 -51.230  1.00  0.00     0.000 C 
BRANCH  10  11
ATOM     11  C   UNL     1       0.587 -31.049 -52.059  1.00  0.00    -0.000 C 
BRANCH  11  12
ATOM     12  C   UNL     1       0.035 -32.475 -52.238  1.00  0.00    -0.000 C 
BRANCH  12  13
ATOM     13  C   UNL     1      -0.878 -32.611 -53.470  1.00  0.00    -0.000 C 
BRANCH  13  14
ATOM     14  C   UNL     1      -2.304 -33.106 -53.164  1.00  0.00    -0.000 C 
BRANCH  14  15
ATOM     15  C   UNL     1      -2.536 -33.373 -51.667  1.00  0.00    -0.000 C 
BRANCH  15  16
ATOM     16  C   UNL     1      -3.771 -32.637 -51.124  1.00  0.00    -0.003 C 
ATOM     17  C   UNL     1      -4.789 -32.309 -52.214  1.00  0.00     0.004 C 
ENDBRANCH  15  16
ENDBRANCH  14  15
ENDBRANCH  13  14
ENDBRANCH  12  13
ENDBRANCH  11  12
ENDBRANCH  10  11
ENDBRANCH   1  10
TORSDOF 13
ENDMDL
MODEL 5
REMARK VINA RESULT:    -5.496      1.447      3.058
REMARK INTER + INTRA:         -10.919
REMARK INTER:                  -9.015
REMARK INTRA:                  -1.903
REMARK UNBOUND:                -1.246
REMARK SMILES CCCCCCCCCCCCCCC(=O)[O-]
REMARK SMILES IDX 9 1 10 2 11 3 12 4 13 5 14 6 15 7 16 8 17 9 8 10 7 11 6 12
REMARK SMILES IDX 5 13 4 14 3 15 2 16 1 17
REMARK H PARENT
REMARK Flexibility Score: inf
ROOT
ATOM      1  C   UNL     1      -5.513 -29.542 -53.939  1.00  0.00     0.000 C 
ENDROOT
BRANCH   1   2
ATOM      2  C   UNL     1      -4.388 -28.527 -53.675  1.00  0.00     0.000 C 
BRANCH   2   3
ATOM      3  C   UNL     1      -3.702 -28.747 -52.317  1.00  0.00     0.000 C 
BRANCH   3   4
ATOM      4  C   UNL     1      -2.169 -28.817 -52.423  1.00  0.00     0.000 C 
BRANCH   4   5
ATOM      5  C   UNL     1      -1.588 -30.222 -52.680  1.00  0.00     0.006 C 
BRANCH   5   6
ATOM      6  C   UNL     1      -0.968 -30.883 -51.436  1.00  0.00     0.053 C 
BRANCH   6   7
ATOM      7  C   UNL     1      -0.744 -32.354 -51.619  1.00  0.00     0.041 C 
ATOM      8  O   UNL     1      -1.211 -33.176 -50.788  1.00  0.00    -0.550 OA
ATOM      9  O   UNL     1       0.019 -32.816 -52.685  1.00  0.00    -0.550 OA
ENDBRANCH   6   7
ENDBRANCH   5   6
ENDBRANCH   4   5
ENDBRANCH   3   4
ENDBRANCH   2   3
ENDBRANCH   1   2
BRANCH   1  10
ATOM     10  C   UNL     1      -4.977 -30.947 -54.267  1.00  0.00     0.000 C 
BRANCH  10  11
ATOM     11  C   UNL     1      -5.478 -32.012 -53.280  1.00  0.00    -0.000 C 
BRANCH  11  12
ATOM     12  C   UNL     1      -4.408 -32.416 -52.249  1.00  0.00    -0.000 C 
BRANCH  12  13
ATOM     13  C   UNL     1      -4.808 -32.062 -50.805  1.00  0.00    -0.000 C 
BRANCH  13  14
ATOM     14  C   UNL     1      -6.254 -31.559 -50.640  1.00  0.00    -0.000 C 
BRANCH  14  15
ATOM     15  C   UNL     1      -6.328 -30.092 -50.183  1.00  0.00    -0.000 C 
BRANCH  15  16
ATOM     16  C   UNL     1      -6.886 -29.947 -48.759  1.00  0.00    -0.003 C 
ATOM     17  C   UNL     1      -8.273 -30.570 -48.603  1.00  0.00     0.004 C 
ENDBRANCH  15  16
ENDBRANCH  14  15
ENDBRANCH  13  14
ENDBRANCH  12  13
ENDBRANCH  11  12
ENDBRANCH  10  11
ENDBRANCH   1  10
TORSDOF 13
ENDMDL
MODEL 6
REMARK VINA RESULT:    -5.470      3.315      6.163
REMARK INTER + INTRA:         -10.873
REMARK INTER:                  -9.425
REMARK INTRA:                  -1.448
REMARK UNBOUND:                -1.246
REMARK SMILES CCCCCCCCCCCCCCC(=O)[O-]
REMARK SMILES IDX 9 1 10 2 11 3 12 4 13 5 14 6 15 7 16 8 17 9 8 10 7 11 6 12
REMARK SMILES IDX 5 13 4 14 3 15 2 16 1 17
REMARK H PARENT
REMARK Flexibility Score: inf
ROOT
ATOM      1  C   UNL     1      -2.464 -33.052 -51.109  1.00  0.00     0.000 C 
ENDROOT
BRANCH   1   2
ATOM      2  C   UNL     1      -3.983 -32.911 -50.922  1.00  0.00     0.000 C 
BRANCH   2   3
ATOM      3  C   UNL     1      -4.636 -32.052 -52.018  1.00  0.00     0.000 C 
BRANCH   3   4
ATOM      4  C   UNL     1      -5.803 -31.198 -51.495  1.00  0.00     0.000 C 
BRANCH   4   5
ATOM      5  C   UNL     1      -5.991 -31.202 -49.964  1.00  0.00     0.006 C 
BRANCH   5   6
ATOM      6  C   UNL     1      -7.453 -31.364 -49.511  1.00  0.00     0.053 C 
BRANCH   6   7
ATOM      7  C   UNL     1      -7.973 -30.146 -48.807  1.00  0.00     0.041 C 
ATOM      8  O   UNL     1      -9.100 -30.171 -48.246  1.00  0.00    -0.550 OA
ATOM      9  O   UNL     1      -7.233 -28.970 -48.809  1.00  0.00    -0.550 OA
ENDBRANCH   6   7
ENDBRANCH   5   6
ENDBRANCH   4   5
ENDBRANCH   3   4
ENDBRANCH   2   3
ENDBRANCH   1   2
BRANCH   1  10
ATOM     10  C   UNL     1      -2.090 -33.644 -52.480  1.00  0.00     0.000 C 
BRANCH  10  11
ATOM     11  C   UNL     1      -1.118 -32.747 -53.262  1.00  0.00    -0.000 C 
BRANCH  11  12
ATOM     12  C   UNL     1       0.215 -32.530 -52.522  1.00  0.00    -0.000 C 
BRANCH  12  13
ATOM     13  C   UNL     1       0.611 -31.045 -52.430  1.00  0.00    -0.000 C 
BRANCH  13  14
ATOM     14  C   UNL     1      -0.176 -30.230 -51.387  1.00  0.00    -0.000 C 
BRANCH  14  15
ATOM     15  C   UNL     1      -0.929 -29.040 -52.003  1.00  0.00    -0.000 C 
BRANCH  15  16
ATOM     16  C   UNL     1      -2.299 -29.441 -52.573  1.00  0.00    -0.003 C 
ATOM     17  C   UNL     1      -3.310 -28.297 -52.540  1.00  0.00     0.004 C 
ENDBRANCH  15  16
ENDBRANCH  14  15
ENDBRANCH  13  14
ENDBRANCH  12  13
ENDBRANCH  11  12
ENDBRANCH  10  11
ENDBRANCH   1  10
TORSDOF 13
ENDMDL
MODEL 7
REMARK VINA RESULT:    -5.427      3.277      5.684
REMARK INTER + INTRA:         -10.798
REMARK INTER:                  -9.366
REMARK INTRA:                  -1.432
REMARK UNBOUND:                -1.246
REMARK SMILES CCCCCCCCCCCCCCC(=O)[O-]
REMARK SMILES IDX 9 1 10 2 11 3 12 4 13 5 14 6 15 7 16 8 17 9 8 10 7 11 6 12
REMARK SMILES IDX 5 13 4 14 3 15 2 16 1 17
REMARK H PARENT
REMARK Flexibility Score: inf
ROOT
ATOM      1  C   UNL     1      -4.049 -28.531 -52.027  1.00  0.00     0.000 C 
ENDROOT
BRANCH   1   2
ATOM      2  C   UNL     1      -5.289 -29.414 -51.810  1.00  0.00     0.000 C 
BRANCH   2   3
ATOM      3  C   UNL     1      -5.049 -30.878 -52.219  1.00  0.00     0.000 C 
BRANCH   3   4
ATOM      4  C   UNL     1      -5.696 -31.884 -51.254  1.00  0.00     0.000 C 
BRANCH   4   5
ATOM      5  C   UNL     1      -6.026 -31.336 -49.850  1.00  0.00     0.006 C 
BRANCH   5   6
ATOM      6  C   UNL     1      -7.510 -31.456 -49.461  1.00  0.00     0.053 C 
BRANCH   6   7
ATOM      7  C   UNL     1      -8.026 -30.224 -48.781  1.00  0.00     0.041 C 
ATOM      8  O   UNL     1      -9.200 -30.195 -48.326  1.00  0.00    -0.550 OA
ATOM      9  O   UNL     1      -7.226 -29.092 -48.687  1.00  0.00    -0.550 OA
ENDBRANCH   6   7
ENDBRANCH   5   6
ENDBRANCH   4   5
ENDBRANCH   3   4
ENDBRANCH   2   3
ENDBRANCH   1   2
BRANCH   1  10
ATOM     10  C   UNL     1      -2.925 -29.264 -52.781  1.00  0.00     0.000 C 
BRANCH  10  11
ATOM     11  C   UNL     1      -1.552 -28.607 -52.572  1.00  0.00    -0.000 C 
BRANCH  11  12
ATOM     12  C   UNL     1      -0.708 -29.324 -51.502  1.00  0.00    -0.000 C 
BRANCH  12  13
ATOM     13  C   UNL     1      -1.067 -30.814 -51.358  1.00  0.00    -0.000 C 
BRANCH  13  14
ATOM     14  C   UNL     1      -0.053 -31.785 -51.991  1.00  0.00    -0.000 C 
BRANCH  14  15
ATOM     15  C   UNL     1      -0.702 -33.091 -52.480  1.00  0.00    -0.000 C 
BRANCH  15  16
ATOM     16  C   UNL     1      -2.208 -33.149 -52.177  1.00  0.00    -0.003 C 
ATOM     17  C   UNL     1      -2.524 -33.937 -50.906  1.00  0.00     0.004 C 
ENDBRANCH  15  16
ENDBRANCH  14  15
ENDBRANCH  13  14
ENDBRANCH  12  13
ENDBRANCH  11  12
ENDBRANCH  10  11
ENDBRANCH   1  10
TORSDOF 13
ENDMDL
MODEL 8
REMARK VINA RESULT:    -5.417      3.022      6.045
REMARK INTER + INTRA:         -10.780
REMARK INTER:                  -9.101
REMARK INTRA:                  -1.680
REMARK UNBOUND:                -1.246
REMARK SMILES CCCCCCCCCCCCCCC(=O)[O-]
REMARK SMILES IDX 9 1 10 2 11 3 12 4 13 5 14 6 15 7 16 8 17 9 8 10 7 11 6 12
REMARK SMILES IDX 5 13 4 14 3 15 2 16 1 17
REMARK H PARENT
REMARK Flexibility Score: inf
ROOT
ATOM      1  C   UNL     1      -5.300 -31.429 -53.586  1.00  0.00     0.000 C 
ENDROOT
BRANCH   1   2
ATOM      2  C   UNL     1      -4.419 -30.172 -53.505  1.00  0.00     0.000 C 
BRANCH   2   3
ATOM      3  C   UNL     1      -5.184 -28.890 -53.878  1.00  0.00     0.000 C 
BRANCH   3   4
ATOM      4  C   UNL     1      -5.442 -27.973 -52.671  1.00  0.00     0.000 C 
BRANCH   4   5
ATOM      5  C   UNL     1      -4.974 -28.526 -51.309  1.00  0.00     0.006 C 
BRANCH   5   6
ATOM      6  C   UNL     1      -6.063 -29.289 -50.533  1.00  0.00     0.053 C 
BRANCH   6   7
ATOM      7  C   UNL     1      -6.653 -28.473 -49.422  1.00  0.00     0.041 C 
ATOM      8  O   UNL     1      -7.253 -29.039 -48.470  1.00  0.00    -0.550 OA
ATOM      9  O   UNL     1      -6.578 -27.086 -49.458  1.00  0.00    -0.550 OA
ENDBRANCH   6   7
ENDBRANCH   5   6
ENDBRANCH   4   5
ENDBRANCH   3   4
ENDBRANCH   2   3
ENDBRANCH   1   2
BRANCH   1  10
ATOM     10  C   UNL     1      -5.100 -32.369 -52.384  1.00  0.00     0.000 C 
BRANCH  10  11
ATOM     11  C   UNL     1      -3.795 -32.082 -51.625  1.00  0.00    -0.000 C 
BRANCH  11  12
ATOM     12  C   UNL     1      -2.732 -33.176 -51.836  1.00  0.00    -0.000 C 
BRANCH  12  13
ATOM     13  C   UNL     1      -2.063 -33.098 -53.221  1.00  0.00    -0.000 C 
BRANCH  13  14
ATOM     14  C   UNL     1      -0.766 -32.269 -53.264  1.00  0.00    -0.000 C 
BRANCH  14  15
ATOM     15  C   UNL     1      -0.150 -32.050 -51.872  1.00  0.00    -0.000 C 
BRANCH  15  16
ATOM     16  C   UNL     1       0.206 -30.578 -51.611  1.00  0.00    -0.003 C 
ATOM     17  C   UNL     1      -1.021 -29.668 -51.594  1.00  0.00     0.004 C 
ENDBRANCH  15  16
ENDBRANCH  14  15
ENDBRANCH  13  14
ENDBRANCH  12  13
ENDBRANCH  11  12
ENDBRANCH  10  11
ENDBRANCH   1  10
TORSDOF 13
ENDMDL
MODEL 9
REMARK VINA RESULT:    -5.359      2.873      5.814
REMARK INTER + INTRA:         -10.679
REMARK INTER:                  -9.441
REMARK INTRA:                  -1.238
REMARK UNBOUND:                -1.246
REMARK SMILES CCCCCCCCCCCCCCC(=O)[O-]
REMARK SMILES IDX 9 1 10 2 11 3 12 4 13 5 14 6 15 7 16 8 17 9 8 10 7 11 6 12
REMARK SMILES IDX 5 13 4 14 3 15 2 16 1 17
REMARK H PARENT
REMARK Flexibility Score: inf
ROOT
ATOM      1  C   UNL     1      -4.689 -28.822 -53.375  1.00  0.00     0.000 C 
ENDROOT
BRANCH   1   2
ATOM      2  C   UNL     1      -5.522 -27.530 -53.356  1.00  0.00     0.000 C 
BRANCH   2   3
ATOM      3  C   UNL     1      -5.979 -27.142 -51.939  1.00  0.00     0.000 C 
BRANCH   3   4
ATOM      4  C   UNL     1      -5.675 -28.227 -50.893  1.00  0.00     0.000 C 
BRANCH   4   5
ATOM      5  C   UNL     1      -6.329 -28.015 -49.512  1.00  0.00     0.006 C 
BRANCH   5   6
ATOM      6  C   UNL     1      -6.403 -29.288 -48.650  1.00  0.00     0.053 C 
BRANCH   6   7
ATOM      7  C   UNL     1      -7.530 -30.190 -49.056  1.00  0.00     0.041 C 
ATOM      8  O   UNL     1      -8.680 -30.027 -48.569  1.00  0.00    -0.550 OA
ATOM      9  O   UNL     1      -7.302 -31.238 -49.939  1.00  0.00    -0.550 OA
ENDBRANCH   6   7
ENDBRANCH   5   6
ENDBRANCH   4   5
ENDBRANCH   3   4
ENDBRANCH   2   3
ENDBRANCH   1   2
BRANCH   1  10
ATOM     10  C   UNL     1      -5.340 -29.932 -54.220  1.00  0.00     0.000 C 
BRANCH  10  11
ATOM     11  C   UNL     1      -5.393 -31.278 -53.480  1.00  0.00    -0.000 C 
BRANCH  11  12
ATOM     12  C   UNL     1      -4.268 -31.428 -52.439  1.00  0.00    -0.000 C 
BRANCH  12  13
ATOM     13  C   UNL     1      -3.135 -32.356 -52.915  1.00  0.00    -0.000 C 
BRANCH  13  14
ATOM     14  C   UNL     1      -1.714 -31.805 -52.694  1.00  0.00    -0.000 C 
BRANCH  14  15
ATOM     15  C   UNL     1      -1.708 -30.345 -52.210  1.00  0.00    -0.000 C 
BRANCH  15  16
ATOM     16  C   UNL     1      -0.481 -30.017 -51.344  1.00  0.00    -0.003 C 
ATOM     17  C   UNL     1       0.690 -30.965 -51.598  1.00  0.00     0.004 C 
ENDBRANCH  15  16
ENDBRANCH  14  15
ENDBRANCH  13  14
ENDBRANCH  12  13
ENDBRANCH  11  12
ENDBRANCH  10  11
ENDBRANCH   1  10
TORSDOF 13
ENDMDL
