MODEL 1
REMARK VINA RESULT:    -3.705      0.000      0.000
REMARK INTER + INTRA:          -3.943
REMARK INTER:                  -3.922
REMARK INTRA:                  -0.021
REMARK UNBOUND:                -0.021
REMARK SMILES O=C([O-])c1cccnc1
REMARK SMILES IDX 4 1 5 2 9 3 6 4 8 5 7 6 2 7 1 8 3 9
REMARK H PARENT
REMARK Flexibility Score: inf
ROOT
ATOM      1  C   UNL     1      18.260 -12.521 186.816  1.00  0.00     0.016 A 
ATOM      2  C   UNL     1      19.393 -11.981 187.446  1.00  0.00     0.013 A 
ATOM      3  C   UNL     1      17.410 -11.651 186.109  1.00  0.00     0.120 A 
ATOM      4  C   UNL     1      19.655 -10.612 187.366  1.00  0.00     0.021 A 
ATOM      5  N   UNL     1      17.689 -10.322 186.046  1.00  0.00    -0.264 NA
ATOM      6  C   UNL     1      18.782  -9.790 186.653  1.00  0.00     0.111 A 
ENDROOT
BRANCH   1   7
ATOM      7  C   UNL     1      17.971 -13.969 186.894  1.00  0.00     0.073 C 
ATOM      8  O   UNL     1      16.785 -14.382 186.988  1.00  0.00    -0.545 OA
ATOM      9  O   UNL     1      19.007 -14.895 186.864  1.00  0.00    -0.545 OA
ENDBRANCH   1   7
TORSDOF 1
ENDMDL
MODEL 2
REMARK VINA RESULT:    -3.501      2.522      3.812
REMARK INTER + INTRA:          -3.727
REMARK INTER:                  -3.703
REMARK INTRA:                  -0.024
REMARK UNBOUND:                -0.021
REMARK SMILES O=C([O-])c1cccnc1
REMARK SMILES IDX 4 1 5 2 9 3 6 4 8 5 7 6 2 7 1 8 3 9
REMARK H PARENT
REMARK Flexibility Score: inf
ROOT
ATOM      1  C   UNL     1      18.002 -12.981 186.673  1.00  0.00     0.016 A 
ATOM      2  C   UNL     1      18.632 -14.186 187.023  1.00  0.00     0.013 A 
ATOM      3  C   UNL     1      16.704 -13.037 186.133  1.00  0.00     0.120 A 
ATOM      4  C   UNL     1      17.974 -15.403 186.833  1.00  0.00     0.021 A 
ATOM      5  N   UNL     1      16.086 -14.235 185.959  1.00  0.00    -0.264 NA
ATOM      6  C   UNL     1      16.687 -15.407 186.294  1.00  0.00     0.111 A 
ENDROOT
BRANCH   1   7
ATOM      7  C   UNL     1      18.689 -11.686 186.869  1.00  0.00     0.073 C 
ATOM      8  O   UNL     1      19.728 -11.613 187.577  1.00  0.00    -0.545 OA
ATOM      9  O   UNL     1      18.197 -10.531 186.272  1.00  0.00    -0.545 OA
ENDBRANCH   1   7
TORSDOF 1
ENDMDL
MODEL 3
REMARK VINA RESULT:    -3.432      3.026      3.782
REMARK INTER + INTRA:          -3.653
REMARK INTER:                  -3.636
REMARK INTRA:                  -0.018
REMARK UNBOUND:                -0.021
REMARK SMILES O=C([O-])c1cccnc1
REMARK SMILES IDX 4 1 5 2 9 3 6 4 8 5 7 6 2 7 1 8 3 9
REMARK H PARENT
REMARK Flexibility Score: inf
ROOT
ATOM      1  C   UNL     1      18.790 -10.693 186.925  1.00  0.00     0.016 A 
ATOM      2  C   UNL     1      19.163 -11.993 187.303  1.00  0.00     0.013 A 
ATOM      3  C   UNL     1      17.630 -10.530 186.147  1.00  0.00     0.120 A 
ATOM      4  C   UNL     1      18.391 -13.088 186.907  1.00  0.00     0.021 A 
ATOM      5  N   UNL     1      16.897 -11.612 185.774  1.00  0.00    -0.264 NA
ATOM      6  C   UNL     1      17.249 -12.874 186.135  1.00  0.00     0.111 A 
ENDROOT
BRANCH   1   7
ATOM      7  C   UNL     1      19.600  -9.527 187.339  1.00  0.00     0.073 C 
ATOM      8  O   UNL     1      20.125  -8.773 186.477  1.00  0.00    -0.545 OA
ATOM      9  O   UNL     1      19.791  -9.246 188.687  1.00  0.00    -0.545 OA
ENDBRANCH   1   7
TORSDOF 1
ENDMDL
MODEL 4
REMARK VINA RESULT:    -3.323      0.921      1.601
REMARK INTER + INTRA:          -3.538
REMARK INTER:                  -3.516
REMARK INTRA:                  -0.022
REMARK UNBOUND:                -0.021
REMARK SMILES O=C([O-])c1cccnc1
REMARK SMILES IDX 4 1 5 2 9 3 6 4 8 5 7 6 2 7 1 8 3 9
REMARK H PARENT
REMARK Flexibility Score: inf
ROOT
ATOM      1  C   UNL     1      18.269 -12.536 186.826  1.00  0.00     0.016 A 
ATOM      2  C   UNL     1      17.403 -11.646 186.170  1.00  0.00     0.013 A 
ATOM      3  C   UNL     1      19.424 -12.017 187.437  1.00  0.00     0.120 A 
ATOM      4  C   UNL     1      17.696 -10.281 186.135  1.00  0.00     0.021 A 
ATOM      5  N   UNL     1      19.686 -10.683 187.388  1.00  0.00    -0.264 NA
ATOM      6  C   UNL     1      18.854  -9.814 186.756  1.00  0.00     0.111 A 
ENDROOT
BRANCH   1   7
ATOM      7  C   UNL     1      17.970 -13.984 186.870  1.00  0.00     0.073 C 
ATOM      8  O   UNL     1      16.778 -14.390 186.910  1.00  0.00    -0.545 OA
ATOM      9  O   UNL     1      19.001 -14.915 186.865  1.00  0.00    -0.545 OA
ENDBRANCH   1   7
TORSDOF 1
ENDMDL
MODEL 5
REMARK VINA RESULT:    -3.232     16.273     16.575
REMARK INTER + INTRA:          -3.442
REMARK INTER:                  -3.424
REMARK INTRA:                  -0.018
REMARK UNBOUND:                -0.021
REMARK SMILES O=C([O-])c1cccnc1
REMARK SMILES IDX 4 1 5 2 9 3 6 4 8 5 7 6 2 7 1 8 3 9
REMARK H PARENT
REMARK Flexibility Score: inf
ROOT
ATOM      1  C   UNL     1      17.557 -12.190 203.256  1.00  0.00     0.016 A 
ATOM      2  C   UNL     1      18.960 -12.236 203.219  1.00  0.00     0.013 A 
ATOM      3  C   UNL     1      16.935 -10.964 203.555  1.00  0.00     0.120 A 
ATOM      4  C   UNL     1      19.706 -11.083 203.475  1.00  0.00     0.021 A 
ATOM      5  N   UNL     1      17.685  -9.857 203.800  1.00  0.00    -0.264 NA
ATOM      6  C   UNL     1      19.044  -9.891 203.766  1.00  0.00     0.111 A 
ENDROOT
BRANCH   1   7
ATOM      7  C   UNL     1      16.756 -13.404 202.987  1.00  0.00     0.073 C 
ATOM      8  O   UNL     1      15.924 -13.426 202.041  1.00  0.00    -0.545 OA
ATOM      9  O   UNL     1      16.911 -14.538 203.775  1.00  0.00    -0.545 OA
ENDBRANCH   1   7
TORSDOF 1
ENDMDL
MODEL 6
REMARK VINA RESULT:    -3.193      1.634      2.250
REMARK INTER + INTRA:          -3.400
REMARK INTER:                  -3.379
REMARK INTRA:                  -0.021
REMARK UNBOUND:                -0.021
REMARK SMILES O=C([O-])c1cccnc1
REMARK SMILES IDX 4 1 5 2 9 3 6 4 8 5 7 6 2 7 1 8 3 9
REMARK H PARENT
REMARK Flexibility Score: inf
ROOT
ATOM      1  C   UNL     1      17.736 -11.472 186.142  1.00  0.00     0.016 A 
ATOM      2  C   UNL     1      18.637 -12.215 186.922  1.00  0.00     0.013 A 
ATOM      3  C   UNL     1      17.871 -10.072 186.115  1.00  0.00     0.120 A 
ATOM      4  C   UNL     1      19.637 -11.565 187.649  1.00  0.00     0.021 A 
ATOM      5  N   UNL     1      18.853  -9.465 186.832  1.00  0.00    -0.264 NA
ATOM      6  C   UNL     1      19.730 -10.174 187.590  1.00  0.00     0.111 A 
ENDROOT
BRANCH   1   7
ATOM      7  C   UNL     1      16.673 -12.149 185.368  1.00  0.00     0.073 C 
ATOM      8  O   UNL     1      16.310 -11.700 184.249  1.00  0.00    -0.545 OA
ATOM      9  O   UNL     1      16.060 -13.293 185.867  1.00  0.00    -0.545 OA
ENDBRANCH   1   7
TORSDOF 1
ENDMDL
MODEL 7
REMARK VINA RESULT:    -3.162      3.693      4.378
REMARK INTER + INTRA:          -3.367
REMARK INTER:                  -3.349
REMARK INTRA:                  -0.018
REMARK UNBOUND:                -0.021
REMARK SMILES O=C([O-])c1cccnc1
REMARK SMILES IDX 4 1 5 2 9 3 6 4 8 5 7 6 2 7 1 8 3 9
REMARK H PARENT
REMARK Flexibility Score: inf
ROOT
ATOM      1  C   UNL     1      18.714  -9.861 188.379  1.00  0.00     0.016 A 
ATOM      2  C   UNL     1      19.626 -10.837 187.944  1.00  0.00     0.013 A 
ATOM      3  C   UNL     1      17.355 -10.024 188.058  1.00  0.00     0.120 A 
ATOM      4  C   UNL     1      19.177 -11.937 187.210  1.00  0.00     0.021 A 
ATOM      5  N   UNL     1      16.945 -11.105 187.342  1.00  0.00    -0.264 NA
ATOM      6  C   UNL     1      17.819 -12.055 186.916  1.00  0.00     0.111 A 
ENDROOT
BRANCH   1   7
ATOM      7  C   UNL     1      19.177  -8.691 189.157  1.00  0.00     0.073 C 
ATOM      8  O   UNL     1      19.700  -8.843 190.293  1.00  0.00    -0.545 OA
ATOM      9  O   UNL     1      19.041  -7.407 188.643  1.00  0.00    -0.545 OA
ENDBRANCH   1   7
TORSDOF 1
ENDMDL
MODEL 8
REMARK VINA RESULT:    -3.078     15.941     16.277
REMARK INTER + INTRA:          -3.278
REMARK INTER:                  -3.260
REMARK INTRA:                  -0.019
REMARK UNBOUND:                -0.021
REMARK SMILES O=C([O-])c1cccnc1
REMARK SMILES IDX 4 1 5 2 9 3 6 4 8 5 7 6 2 7 1 8 3 9
REMARK H PARENT
REMARK Flexibility Score: inf
ROOT
ATOM      1  C   UNL     1      17.306 -11.756 202.898  1.00  0.00     0.016 A 
ATOM      2  C   UNL     1      16.496 -12.374 201.932  1.00  0.00     0.013 A 
ATOM      3  C   UNL     1      16.896 -10.516 203.420  1.00  0.00     0.120 A 
ATOM      4  C   UNL     1      15.316 -11.760 201.509  1.00  0.00     0.021 A 
ATOM      5  N   UNL     1      15.742  -9.940 202.992  1.00  0.00    -0.264 NA
ATOM      6  C   UNL     1      14.951 -10.530 202.057  1.00  0.00     0.111 A 
ENDROOT
BRANCH   1   7
ATOM      7  C   UNL     1      18.559 -12.397 203.353  1.00  0.00     0.073 C 
ATOM      8  O   UNL     1      18.555 -13.585 203.773  1.00  0.00    -0.545 OA
ATOM      9  O   UNL     1      19.759 -11.696 203.323  1.00  0.00    -0.545 OA
ENDBRANCH   1   7
TORSDOF 1
ENDMDL
MODEL 9
REMARK VINA RESULT:    -3.056     16.783     17.178
REMARK INTER + INTRA:          -3.255
REMARK INTER:                  -3.232
REMARK INTRA:                  -0.023
REMARK UNBOUND:                -0.021
REMARK SMILES O=C([O-])c1cccnc1
REMARK SMILES IDX 4 1 5 2 9 3 6 4 8 5 7 6 2 7 1 8 3 9
REMARK H PARENT
REMARK Flexibility Score: inf
ROOT
ATOM      1  C   UNL     1      16.958 -10.879 203.498  1.00  0.00     0.016 A 
ATOM      2  C   UNL     1      16.533 -12.183 203.197  1.00  0.00     0.013 A 
ATOM      3  C   UNL     1      18.302 -10.680 203.862  1.00  0.00     0.120 A 
ATOM      4  C   UNL     1      17.435 -13.247 203.262  1.00  0.00     0.021 A 
ATOM      5  N   UNL     1      19.159 -11.734 203.918  1.00  0.00    -0.264 NA
ATOM      6  C   UNL     1      18.759 -13.000 203.628  1.00  0.00     0.111 A 
ENDROOT
BRANCH   1   7
ATOM      7  C   UNL     1      16.011  -9.744 203.433  1.00  0.00     0.073 C 
ATOM      8  O   UNL     1      16.333  -8.615 203.889  1.00  0.00    -0.545 OA
ATOM      9  O   UNL     1      14.753  -9.909 202.865  1.00  0.00    -0.545 OA
ENDBRANCH   1   7
TORSDOF 1
ENDMDL
