MODEL 1
REMARK VINA RESULT:    -6.328      0.000      0.000
REMARK INTER + INTRA:         -10.780
REMARK INTER:                  -9.287
REMARK INTRA:                  -1.493
REMARK UNBOUND:                -1.493
REMARK SMILES O=c1c(O[C@@H]2O[C@@H](CO)[C@@H](O)[C@H](O)[C@H]2O)c(-c2ccc(O)c(O)c2)oc2cc(O)cc(O)c12
REMARK SMILES IDX 4 1 3 2 16 3 25 4 2 5 26 6 1 7 33 8 27 9 31 10 28 11 30 12
REMARK SMILES IDX 17 13 18 14 19 15 20 16 24 17 22 18 21 19 23 21 32 23 29 25
REMARK SMILES IDX 5 27 14 28 6 29 12 30 7 31 10 32 15 33 13 35 8 37 9 38 11 40
REMARK H PARENT 21 20 23 22 32 24 29 26 15 34 13 36 9 39 11 41
REMARK Flexibility Score: inf
ROOT
ATOM      1  O   UNL     1     111.818 118.938 111.549  1.00  0.00    -0.454 OA
ENDROOT
BRANCH   1   2
ATOM      2  C   UNL     1     111.332 119.008 110.238  1.00  0.00     0.214 A 
ATOM      3  C   UNL     1     110.051 119.519 109.948  1.00  0.00     0.180 A 
ATOM      4  O   UNL     1     109.595 119.489 108.698  1.00  0.00    -0.452 OA
ATOM      5  C   UNL     1     112.132 118.549 109.187  1.00  0.00     0.239 A 
ATOM      6  C   UNL     1     110.310 119.033 107.675  1.00  0.00     0.146 A 
ATOM      7  O   UNL     1     113.292 118.123 109.439  1.00  0.00    -0.285 OA
ATOM      8  C   UNL     1     111.625 118.551 107.871  1.00  0.00     0.111 A 
ATOM      9  C   UNL     1     109.748 119.045 106.395  1.00  0.00     0.094 A 
ATOM     10  C   UNL     1     112.364 118.089 106.757  1.00  0.00     0.134 A 
ATOM     11  C   UNL     1     110.480 118.586 105.299  1.00  0.00     0.123 A 
ATOM     12  C   UNL     1     111.784 118.111 105.481  1.00  0.00     0.093 A 
BRANCH   3  13
ATOM     13  C   UNL     1     109.186 120.112 110.991  1.00  0.00     0.025 A 
ATOM     14  C   UNL     1     109.545 121.305 111.634  1.00  0.00     0.016 A 
ATOM     15  C   UNL     1     108.713 121.858 112.608  1.00  0.00     0.051 A 
ATOM     16  C   UNL     1     107.502 121.243 112.946  1.00  0.00     0.157 A 
ATOM     17  C   UNL     1     107.962 119.505 111.308  1.00  0.00     0.062 A 
ATOM     18  C   UNL     1     107.118 120.053 112.283  1.00  0.00     0.158 A 
BRANCH  16  19
ATOM     19  O   UNL     1     106.718 121.843 113.932  1.00  0.00    -0.504 OA
ATOM     20  H   UNL     1     106.821 121.667 114.922  1.00  0.00     0.293 HD
ENDBRANCH  16  19
BRANCH  18  21
ATOM     21  O   UNL     1     105.921 119.390 112.557  1.00  0.00    -0.504 OA
ATOM     22  H   UNL     1     105.646 118.519 112.127  1.00  0.00     0.293 HD
ENDBRANCH  18  21
ENDBRANCH   3  13
BRANCH  10  23
ATOM     23  O   UNL     1     113.666 117.608 106.908  1.00  0.00    -0.507 OA
ATOM     24  H   UNL     1     114.130 117.084 106.174  1.00  0.00     0.293 HD
ENDBRANCH  10  23
BRANCH  11  25
ATOM     25  O   UNL     1     109.903 118.607 104.031  1.00  0.00    -0.508 OA
ATOM     26  H   UNL     1     110.312 118.102 103.254  1.00  0.00     0.293 HD
ENDBRANCH  11  25
ENDBRANCH   1   2
BRANCH   1  27
ATOM     27  C   UNL     1     111.316 118.006 112.514  1.00  0.00     0.339 C 
ATOM     28  C   UNL     1     112.420 117.007 112.925  1.00  0.00     0.214 C 
ATOM     29  O   UNL     1     110.779 118.682 113.640  1.00  0.00    -0.332 OA
ATOM     30  C   UNL     1     113.504 117.701 113.769  1.00  0.00     0.180 C 
ATOM     31  C   UNL     1     111.766 119.456 114.302  1.00  0.00     0.179 C 
ATOM     32  C   UNL     1     112.865 118.543 114.894  1.00  0.00     0.177 C 
BRANCH  28  33
ATOM     33  O   UNL     1     111.857 115.953 113.664  1.00  0.00    -0.384 OA
ATOM     34  H   UNL     1     112.602 115.350 113.921  1.00  0.00     0.211 HD
ENDBRANCH  28  33
BRANCH  30  35
ATOM     35  O   UNL     1     114.290 118.518 112.938  1.00  0.00    -0.387 OA
ATOM     36  H   UNL     1     113.885 119.425 112.958  1.00  0.00     0.211 HD
ENDBRANCH  30  35
BRANCH  31  37
ATOM     37  C   UNL     1     111.077 120.295 115.389  1.00  0.00     0.191 C 
BRANCH  37  38
ATOM     38  O   UNL     1     111.968 120.608 116.425  1.00  0.00    -0.394 OA
ATOM     39  H   UNL     1     111.810 119.946 117.147  1.00  0.00     0.210 HD
ENDBRANCH  37  38
ENDBRANCH  31  37
BRANCH  32  40
ATOM     40  O   UNL     1     112.308 117.700 115.871  1.00  0.00    -0.387 OA
ATOM     41  H   UNL     1     112.608 118.045 116.752  1.00  0.00     0.211 HD
ENDBRANCH  32  40
ENDBRANCH   1  27
TORSDOF 12
ENDMDL
MODEL 2
REMARK VINA RESULT:    -6.309      9.848     12.295
REMARK INTER + INTRA:         -10.753
REMARK INTER:                  -9.079
REMARK INTRA:                  -1.674
REMARK UNBOUND:                -1.493
REMARK SMILES O=c1c(O[C@@H]2O[C@@H](CO)[C@@H](O)[C@H](O)[C@H]2O)c(-c2ccc(O)c(O)c2)oc2cc(O)cc(O)c12
REMARK SMILES IDX 4 1 3 2 16 3 25 4 2 5 26 6 1 7 33 8 27 9 31 10 28 11 30 12
REMARK SMILES IDX 17 13 18 14 19 15 20 16 24 17 22 18 21 19 23 21 32 23 29 25
REMARK SMILES IDX 5 27 14 28 6 29 12 30 7 31 10 32 15 33 13 35 8 37 9 38 11 40
REMARK H PARENT 21 20 23 22 32 24 29 26 15 34 13 36 9 39 11 41
REMARK Flexibility Score: inf
ROOT
ATOM      1  O   UNL     1     103.311 112.038 112.514  1.00  0.00    -0.454 OA
ENDROOT
BRANCH   1   2
ATOM      2  C   UNL     1     102.758 110.819 112.102  1.00  0.00     0.214 A 
ATOM      3  C   UNL     1     103.453 109.601 112.250  1.00  0.00     0.180 A 
ATOM      4  O   UNL     1     102.926 108.479 111.768  1.00  0.00    -0.452 OA
ATOM      5  C   UNL     1     101.488 110.808 111.517  1.00  0.00     0.239 A 
ATOM      6  C   UNL     1     101.737 108.428 111.178  1.00  0.00     0.146 A 
ATOM      7  O   UNL     1     100.849 111.890 111.414  1.00  0.00    -0.285 OA
ATOM      8  C   UNL     1     100.951 109.596 111.036  1.00  0.00     0.111 A 
ATOM      9  C   UNL     1     101.264 107.200 110.706  1.00  0.00     0.094 A 
ATOM     10  C   UNL     1      99.682 109.503 110.418  1.00  0.00     0.134 A 
ATOM     11  C   UNL     1     100.012 107.113 110.095  1.00  0.00     0.123 A 
ATOM     12  C   UNL     1      99.225 108.261 109.953  1.00  0.00     0.093 A 
BRANCH   3  13
ATOM     13  C   UNL     1     104.755 109.519 112.945  1.00  0.00     0.025 A 
ATOM     14  C   UNL     1     104.823 109.410 114.342  1.00  0.00     0.016 A 
ATOM     15  C   UNL     1     106.059 109.321 114.982  1.00  0.00     0.051 A 
ATOM     16  C   UNL     1     107.248 109.322 114.243  1.00  0.00     0.157 A 
ATOM     17  C   UNL     1     105.942 109.494 112.198  1.00  0.00     0.062 A 
ATOM     18  C   UNL     1     107.189 109.405 112.831  1.00  0.00     0.158 A 
BRANCH  16  19
ATOM     19  O   UNL     1     108.452 109.236 114.944  1.00  0.00    -0.504 OA
ATOM     20  H   UNL     1     108.985 110.037 115.252  1.00  0.00     0.293 HD
ENDBRANCH  16  19
BRANCH  18  21
ATOM     21  O   UNL     1     108.330 109.398 112.027  1.00  0.00    -0.504 OA
ATOM     22  H   UNL     1     108.927 110.200 111.888  1.00  0.00     0.293 HD
ENDBRANCH  18  21
ENDBRANCH   3  13
BRANCH  10  23
ATOM     23  O   UNL     1      98.875 110.631 110.262  1.00  0.00    -0.507 OA
ATOM     24  H   UNL     1      97.876 110.600 110.432  1.00  0.00     0.293 HD
ENDBRANCH  10  23
BRANCH  11  25
ATOM     25  O   UNL     1      99.558 105.880 109.633  1.00  0.00    -0.508 OA
ATOM     26  H   UNL     1      99.329 105.731 108.657  1.00  0.00     0.293 HD
ENDBRANCH  11  25
ENDBRANCH   1   2
BRANCH   1  27
ATOM     27  C   UNL     1     103.896 112.972 111.599  1.00  0.00     0.339 C 
ATOM     28  C   UNL     1     103.361 114.396 111.866  1.00  0.00     0.214 C 
ATOM     29  O   UNL     1     105.313 112.927 111.666  1.00  0.00    -0.332 OA
ATOM     30  C   UNL     1     103.907 114.950 113.194  1.00  0.00     0.180 C 
ATOM     31  C   UNL     1     105.785 113.275 112.958  1.00  0.00     0.179 C 
ATOM     32  C   UNL     1     105.435 114.746 113.285  1.00  0.00     0.177 C 
BRANCH  28  33
ATOM     33  O   UNL     1     103.737 115.250 110.816  1.00  0.00    -0.384 OA
ATOM     34  H   UNL     1     104.066 114.674 110.078  1.00  0.00     0.211 HD
ENDBRANCH  28  33
BRANCH  30  35
ATOM     35  O   UNL     1     103.268 114.304 114.267  1.00  0.00    -0.387 OA
ATOM     36  H   UNL     1     102.543 114.908 114.576  1.00  0.00     0.211 HD
ENDBRANCH  30  35
BRANCH  31  37
ATOM     37  C   UNL     1     107.301 113.028 113.005  1.00  0.00     0.191 C 
BRANCH  37  38
ATOM     38  O   UNL     1     107.927 113.513 111.847  1.00  0.00    -0.394 OA
ATOM     39  H   UNL     1     108.816 113.855 112.127  1.00  0.00     0.210 HD
ENDBRANCH  37  38
ENDBRANCH  31  37
BRANCH  32  40
ATOM     40  O   UNL     1     106.090 115.603 112.384  1.00  0.00    -0.387 OA
ATOM     41  H   UNL     1     106.986 115.791 112.768  1.00  0.00     0.211 HD
ENDBRANCH  32  40
ENDBRANCH   1  27
TORSDOF 12
ENDMDL
MODEL 3
REMARK VINA RESULT:    -6.054      9.226     11.171
REMARK INTER + INTRA:         -10.378
REMARK INTER:                  -8.887
REMARK INTRA:                  -1.491
REMARK UNBOUND:                -1.493
REMARK SMILES O=c1c(O[C@@H]2O[C@@H](CO)[C@@H](O)[C@H](O)[C@H]2O)c(-c2ccc(O)c(O)c2)oc2cc(O)cc(O)c12
REMARK SMILES IDX 4 1 3 2 16 3 25 4 2 5 26 6 1 7 33 8 27 9 31 10 28 11 30 12
REMARK SMILES IDX 17 13 18 14 19 15 20 16 24 17 22 18 21 19 23 21 32 23 29 25
REMARK SMILES IDX 5 27 14 28 6 29 12 30 7 31 10 32 15 33 13 35 8 37 9 38 11 40
REMARK H PARENT 21 20 23 22 32 24 29 26 15 34 13 36 9 39 11 41
REMARK Flexibility Score: inf
ROOT
ATOM      1  O   UNL     1     107.063 109.653 113.165  1.00  0.00    -0.454 OA
ENDROOT
BRANCH   1   2
ATOM      2  C   UNL     1     106.604 110.955 112.928  1.00  0.00     0.214 A 
ATOM      3  C   UNL     1     105.239 111.233 112.712  1.00  0.00     0.180 A 
ATOM      4  O   UNL     1     104.858 112.470 112.406  1.00  0.00    -0.452 OA
ATOM      5  C   UNL     1     107.524 112.007 112.892  1.00  0.00     0.239 A 
ATOM      6  C   UNL     1     105.702 113.493 112.330  1.00  0.00     0.146 A 
ATOM      7  O   UNL     1     108.741 111.768 113.119  1.00  0.00    -0.285 OA
ATOM      8  C   UNL     1     107.082 113.311 112.585  1.00  0.00     0.111 A 
ATOM      9  C   UNL     1     105.208 114.760 112.006  1.00  0.00     0.094 A 
ATOM     10  C   UNL     1     107.951 114.426 112.513  1.00  0.00     0.134 A 
ATOM     11  C   UNL     1     106.069 115.857 111.934  1.00  0.00     0.123 A 
ATOM     12  C   UNL     1     107.435 115.688 112.188  1.00  0.00     0.093 A 
BRANCH   3  13
ATOM     13  C   UNL     1     104.197 110.191 112.830  1.00  0.00     0.025 A 
ATOM     14  C   UNL     1     103.255 109.993 111.810  1.00  0.00     0.016 A 
ATOM     15  C   UNL     1     102.285 108.997 111.930  1.00  0.00     0.051 A 
ATOM     16  C   UNL     1     102.245 108.171 113.060  1.00  0.00     0.157 A 
ATOM     17  C   UNL     1     104.178 109.349 113.952  1.00  0.00     0.062 A 
ATOM     18  C   UNL     1     103.208 108.347 114.083  1.00  0.00     0.158 A 
BRANCH  16  19
ATOM     19  O   UNL     1     101.246 107.199 113.123  1.00  0.00    -0.504 OA
ATOM     20  H   UNL     1     100.298 107.381 113.421  1.00  0.00     0.293 HD
ENDBRANCH  16  19
BRANCH  18  21
ATOM     21  O   UNL     1     103.240 107.554 115.231  1.00  0.00    -0.504 OA
ATOM     22  H   UNL     1     104.067 107.401 115.789  1.00  0.00     0.293 HD
ENDBRANCH  18  21
ENDBRANCH   3  13
BRANCH  10  23
ATOM     23  O   UNL     1     109.317 114.287 112.761  1.00  0.00    -0.507 OA
ATOM     24  H   UNL     1     109.863 115.038 113.172  1.00  0.00     0.293 HD
ENDBRANCH  10  23
BRANCH  11  25
ATOM     25  O   UNL     1     105.557 117.111 111.610  1.00  0.00    -0.508 OA
ATOM     26  H   UNL     1     105.972 117.681 110.883  1.00  0.00     0.293 HD
ENDBRANCH  11  25
ENDBRANCH   1   2
BRANCH   1  27
ATOM     27  C   UNL     1     107.212 108.681 112.124  1.00  0.00     0.339 C 
ATOM     28  C   UNL     1     108.665 108.669 111.600  1.00  0.00     0.214 C 
ATOM     29  O   UNL     1     106.806 107.396 112.568  1.00  0.00    -0.332 OA
ATOM     30  C   UNL     1     109.623 108.078 112.651  1.00  0.00     0.180 C 
ATOM     31  C   UNL     1     107.599 106.948 113.656  1.00  0.00     0.179 C 
ATOM     32  C   UNL     1     109.068 106.751 113.213  1.00  0.00     0.177 C 
BRANCH  28  33
ATOM     33  O   UNL     1     108.740 107.908 110.421  1.00  0.00    -0.384 OA
ATOM     34  H   UNL     1     109.591 108.152 109.973  1.00  0.00     0.211 HD
ENDBRANCH  28  33
BRANCH  30  35
ATOM     35  O   UNL     1     109.805 109.007 113.690  1.00  0.00    -0.387 OA
ATOM     36  H   UNL     1     110.432 109.699 113.353  1.00  0.00     0.211 HD
ENDBRANCH  30  35
BRANCH  31  37
ATOM     37  C   UNL     1     106.990 105.644 114.196  1.00  0.00     0.191 C 
BRANCH  37  38
ATOM     38  O   UNL     1     105.621 105.798 114.458  1.00  0.00    -0.394 OA
ATOM     39  H   UNL     1     105.149 105.662 113.595  1.00  0.00     0.210 HD
ENDBRANCH  37  38
ENDBRANCH  31  37
BRANCH  32  40
ATOM     40  O   UNL     1     109.140 105.745 112.234  1.00  0.00    -0.387 OA
ATOM     41  H   UNL     1     109.025 106.193 111.355  1.00  0.00     0.211 HD
ENDBRANCH  32  40
ENDBRANCH   1  27
TORSDOF 12
ENDMDL
MODEL 4
REMARK VINA RESULT:    -6.045      4.498      6.483
REMARK INTER + INTRA:         -10.365
REMARK INTER:                  -8.868
REMARK INTRA:                  -1.497
REMARK UNBOUND:                -1.493
REMARK SMILES O=c1c(O[C@@H]2O[C@@H](CO)[C@@H](O)[C@H](O)[C@H]2O)c(-c2ccc(O)c(O)c2)oc2cc(O)cc(O)c12
REMARK SMILES IDX 4 1 3 2 16 3 25 4 2 5 26 6 1 7 33 8 27 9 31 10 28 11 30 12
REMARK SMILES IDX 17 13 18 14 19 15 20 16 24 17 22 18 21 19 23 21 32 23 29 25
REMARK SMILES IDX 5 27 14 28 6 29 12 30 7 31 10 32 15 33 13 35 8 37 9 38 11 40
REMARK H PARENT 21 20 23 22 32 24 29 26 15 34 13 36 9 39 11 41
REMARK Flexibility Score: inf
ROOT
ATOM      1  O   UNL     1     108.031 115.722 113.120  1.00  0.00    -0.454 OA
ENDROOT
BRANCH   1   2
ATOM      2  C   UNL     1     106.829 115.393 112.480  1.00  0.00     0.214 A 
ATOM      3  C   UNL     1     105.934 116.384 112.029  1.00  0.00     0.180 A 
ATOM      4  O   UNL     1     104.765 116.027 111.504  1.00  0.00    -0.452 OA
ATOM      5  C   UNL     1     106.501 114.047 112.293  1.00  0.00     0.239 A 
ATOM      6  C   UNL     1     104.399 114.761 111.336  1.00  0.00     0.146 A 
ATOM      7  O   UNL     1     107.315 113.158 112.664  1.00  0.00    -0.285 OA
ATOM      8  C   UNL     1     105.262 113.705 111.713  1.00  0.00     0.111 A 
ATOM      9  C   UNL     1     103.151 114.483 110.770  1.00  0.00     0.094 A 
ATOM     10  C   UNL     1     104.848 112.368 111.504  1.00  0.00     0.134 A 
ATOM     11  C   UNL     1     102.747 113.162 110.568  1.00  0.00     0.123 A 
ATOM     12  C   UNL     1     103.593 112.110 110.934  1.00  0.00     0.093 A 
BRANCH   3  13
ATOM     13  C   UNL     1     106.254 117.826 112.103  1.00  0.00     0.025 A 
ATOM     14  C   UNL     1     106.790 118.504 110.999  1.00  0.00     0.016 A 
ATOM     15  C   UNL     1     107.076 119.867 111.081  1.00  0.00     0.051 A 
ATOM     16  C   UNL     1     106.818 120.582 112.257  1.00  0.00     0.157 A 
ATOM     17  C   UNL     1     105.969 118.543 113.275  1.00  0.00     0.062 A 
ATOM     18  C   UNL     1     106.251 119.912 113.367  1.00  0.00     0.158 A 
BRANCH  16  19
ATOM     19  O   UNL     1     107.132 121.942 112.276  1.00  0.00    -0.504 OA
ATOM     20  H   UNL     1     108.042 122.315 112.047  1.00  0.00     0.293 HD
ENDBRANCH  16  19
BRANCH  18  21
ATOM     21  O   UNL     1     105.954 120.560 114.567  1.00  0.00    -0.504 OA
ATOM     22  H   UNL     1     106.485 120.445 115.418  1.00  0.00     0.293 HD
ENDBRANCH  18  21
ENDBRANCH   3  13
BRANCH  10  23
ATOM     23  O   UNL     1     105.671 111.298 111.860  1.00  0.00    -0.507 OA
ATOM     24  H   UNL     1     105.913 111.110 112.827  1.00  0.00     0.293 HD
ENDBRANCH  10  23
BRANCH  11  25
ATOM     25  O   UNL     1     101.500 112.906 110.002  1.00  0.00    -0.508 OA
ATOM     26  H   UNL     1     100.689 112.703 110.575  1.00  0.00     0.293 HD
ENDBRANCH  11  25
ENDBRANCH   1   2
BRANCH   1  27
ATOM     27  C   UNL     1     109.306 115.615 112.476  1.00  0.00     0.339 C 
ATOM     28  C   UNL     1     109.907 117.017 112.233  1.00  0.00     0.214 C 
ATOM     29  O   UNL     1     110.186 114.793 113.227  1.00  0.00    -0.332 OA
ATOM     30  C   UNL     1     110.336 117.669 113.560  1.00  0.00     0.180 C 
ATOM     31  C   UNL     1     110.427 115.332 114.517  1.00  0.00     0.179 C 
ATOM     32  C   UNL     1     111.169 116.685 114.409  1.00  0.00     0.177 C 
BRANCH  28  33
ATOM     33  O   UNL     1     111.021 116.916 111.382  1.00  0.00    -0.384 OA
ATOM     34  H   UNL     1     110.679 116.958 110.451  1.00  0.00     0.211 HD
ENDBRANCH  28  33
BRANCH  30  35
ATOM     35  O   UNL     1     109.193 118.075 114.270  1.00  0.00    -0.387 OA
ATOM     36  H   UNL     1     108.492 117.391 114.106  1.00  0.00     0.211 HD
ENDBRANCH  30  35
BRANCH  31  37
ATOM     37  C   UNL     1     111.233 114.307 115.330  1.00  0.00     0.191 C 
BRANCH  37  38
ATOM     38  O   UNL     1     112.100 113.578 114.504  1.00  0.00    -0.394 OA
ATOM     39  H   UNL     1     112.215 114.109 113.672  1.00  0.00     0.210 HD
ENDBRANCH  37  38
ENDBRANCH  31  37
BRANCH  32  40
ATOM     40  O   UNL     1     112.431 116.491 113.822  1.00  0.00    -0.387 OA
ATOM     41  H   UNL     1     112.910 117.360 113.880  1.00  0.00     0.211 HD
ENDBRANCH  32  40
ENDBRANCH   1  27
TORSDOF 12
ENDMDL
MODEL 5
REMARK VINA RESULT:    -6.037      9.969     12.444
REMARK INTER + INTRA:         -10.353
REMARK INTER:                  -9.137
REMARK INTRA:                  -1.216
REMARK UNBOUND:                -1.493
REMARK SMILES O=c1c(O[C@@H]2O[C@@H](CO)[C@@H](O)[C@H](O)[C@H]2O)c(-c2ccc(O)c(O)c2)oc2cc(O)cc(O)c12
REMARK SMILES IDX 4 1 3 2 16 3 25 4 2 5 26 6 1 7 33 8 27 9 31 10 28 11 30 12
REMARK SMILES IDX 17 13 18 14 19 15 20 16 24 17 22 18 21 19 23 21 32 23 29 25
REMARK SMILES IDX 5 27 14 28 6 29 12 30 7 31 10 32 15 33 13 35 8 37 9 38 11 40
REMARK H PARENT 21 20 23 22 32 24 29 26 15 34 13 36 9 39 11 41
REMARK Flexibility Score: inf
ROOT
ATOM      1  O   UNL     1     103.351 111.312 112.664  1.00  0.00    -0.454 OA
ENDROOT
BRANCH   1   2
ATOM      2  C   UNL     1     104.383 110.387 112.470  1.00  0.00     0.214 A 
ATOM      3  C   UNL     1     104.124 109.061 112.067  1.00  0.00     0.180 A 
ATOM      4  O   UNL     1     105.127 108.191 111.976  1.00  0.00    -0.452 OA
ATOM      5  C   UNL     1     105.705 110.782 112.692  1.00  0.00     0.239 A 
ATOM      6  C   UNL     1     106.394 108.516 112.209  1.00  0.00     0.146 A 
ATOM      7  O   UNL     1     105.944 111.976 113.019  1.00  0.00    -0.285 OA
ATOM      8  C   UNL     1     106.746 109.839 112.566  1.00  0.00     0.111 A 
ATOM      9  C   UNL     1     107.382 107.534 112.084  1.00  0.00     0.094 A 
ATOM     10  C   UNL     1     108.108 110.154 112.790  1.00  0.00     0.134 A 
ATOM     11  C   UNL     1     108.723 107.849 112.308  1.00  0.00     0.123 A 
ATOM     12  C   UNL     1     109.083 109.155 112.658  1.00  0.00     0.093 A 
BRANCH   3  13
ATOM     13  C   UNL     1     102.764 108.596 111.719  1.00  0.00     0.025 A 
ATOM     14  C   UNL     1     102.148 108.994 110.524  1.00  0.00     0.016 A 
ATOM     15  C   UNL     1     100.869 108.537 110.204  1.00  0.00     0.051 A 
ATOM     16  C   UNL     1     100.188 107.663 111.060  1.00  0.00     0.157 A 
ATOM     17  C   UNL     1     102.097 107.699 112.567  1.00  0.00     0.062 A 
ATOM     18  C   UNL     1     100.814 107.234 112.256  1.00  0.00     0.158 A 
BRANCH  16  19
ATOM     19  O   UNL     1      98.910 107.247 110.686  1.00  0.00    -0.504 OA
ATOM     20  H   UNL     1      98.569 107.254 109.735  1.00  0.00     0.293 HD
ENDBRANCH  16  19
BRANCH  18  21
ATOM     21  O   UNL     1     100.203 106.354 113.151  1.00  0.00    -0.504 OA
ATOM     22  H   UNL     1     100.708 105.756 113.788  1.00  0.00     0.293 HD
ENDBRANCH  18  21
ENDBRANCH   3  13
BRANCH  10  23
ATOM     23  O   UNL     1     108.496 111.448 113.141  1.00  0.00    -0.507 OA
ATOM     24  H   UNL     1     109.129 111.990 112.563  1.00  0.00     0.293 HD
ENDBRANCH  10  23
BRANCH  11  25
ATOM     25  O   UNL     1     109.692 106.857 112.178  1.00  0.00    -0.508 OA
ATOM     26  H   UNL     1     109.986 106.296 112.969  1.00  0.00     0.293 HD
ENDBRANCH  11  25
ENDBRANCH   1   2
BRANCH   1  27
ATOM     27  C   UNL     1     102.865 112.163 111.619  1.00  0.00     0.339 C 
ATOM     28  C   UNL     1     101.341 112.371 111.756  1.00  0.00     0.214 C 
ATOM     29  O   UNL     1     103.561 113.400 111.607  1.00  0.00    -0.332 OA
ATOM     30  C   UNL     1     101.013 113.245 112.980  1.00  0.00     0.180 C 
ATOM     31  C   UNL     1     103.382 114.109 112.822  1.00  0.00     0.179 C 
ATOM     32  C   UNL     1     101.899 114.509 113.003  1.00  0.00     0.177 C 
BRANCH  28  33
ATOM     33  O   UNL     1     100.838 112.986 110.596  1.00  0.00    -0.384 OA
ATOM     34  H   UNL     1     100.726 112.272 109.916  1.00  0.00     0.211 HD
ENDBRANCH  28  33
BRANCH  30  35
ATOM     35  O   UNL     1     101.207 112.495 114.153  1.00  0.00    -0.387 OA
ATOM     36  H   UNL     1     100.355 112.528 114.662  1.00  0.00     0.211 HD
ENDBRANCH  30  35
BRANCH  31  37
ATOM     37  C   UNL     1     104.304 115.339 112.808  1.00  0.00     0.191 C 
BRANCH  37  38
ATOM     38  O   UNL     1     104.495 115.810 111.501  1.00  0.00    -0.394 OA
ATOM     39  H   UNL     1     104.930 116.699 111.581  1.00  0.00     0.210 HD
ENDBRANCH  37  38
ENDBRANCH  31  37
BRANCH  32  40
ATOM     40  O   UNL     1     101.513 115.387 111.975  1.00  0.00    -0.387 OA
ATOM     41  H   UNL     1     101.183 114.823 111.227  1.00  0.00     0.211 HD
ENDBRANCH  32  40
ENDBRANCH   1  27
TORSDOF 12
ENDMDL
MODEL 6
REMARK VINA RESULT:    -6.033      1.716      1.959
REMARK INTER + INTRA:         -10.347
REMARK INTER:                  -8.646
REMARK INTRA:                  -1.701
REMARK UNBOUND:                -1.493
REMARK SMILES O=c1c(O[C@@H]2O[C@@H](CO)[C@@H](O)[C@H](O)[C@H]2O)c(-c2ccc(O)c(O)c2)oc2cc(O)cc(O)c12
REMARK SMILES IDX 4 1 3 2 16 3 25 4 2 5 26 6 1 7 33 8 27 9 31 10 28 11 30 12
REMARK SMILES IDX 17 13 18 14 19 15 20 16 24 17 22 18 21 19 23 21 32 23 29 25
REMARK SMILES IDX 5 27 14 28 6 29 12 30 7 31 10 32 15 33 13 35 8 37 9 38 11 40
REMARK H PARENT 21 20 23 22 32 24 29 26 15 34 13 36 9 39 11 41
REMARK Flexibility Score: inf
ROOT
ATOM      1  O   UNL     1     111.270 120.288 111.202  1.00  0.00    -0.454 OA
ENDROOT
BRANCH   1   2
ATOM      2  C   UNL     1     110.821 120.000 109.908  1.00  0.00     0.214 A 
ATOM      3  C   UNL     1     109.518 119.518 109.664  1.00  0.00     0.180 A 
ATOM      4  O   UNL     1     109.161 119.178 108.429  1.00  0.00    -0.452 OA
ATOM      5  C   UNL     1     111.688 120.184 108.827  1.00  0.00     0.239 A 
ATOM      6  C   UNL     1     109.964 119.306 107.378  1.00  0.00     0.146 A 
ATOM      7  O   UNL     1     112.842 120.648 109.037  1.00  0.00    -0.285 OA
ATOM      8  C   UNL     1     111.269 119.832 107.528  1.00  0.00     0.111 A 
ATOM      9  C   UNL     1     109.499 118.925 106.116  1.00  0.00     0.094 A 
ATOM     10  C   UNL     1     112.092 119.972 106.385  1.00  0.00     0.134 A 
ATOM     11  C   UNL     1     110.314 119.063 104.992  1.00  0.00     0.123 A 
ATOM     12  C   UNL     1     111.605 119.585 105.128  1.00  0.00     0.093 A 
BRANCH   3  13
ATOM     13  C   UNL     1     108.513 119.391 110.741  1.00  0.00     0.025 A 
ATOM     14  C   UNL     1     107.668 120.460 111.071  1.00  0.00     0.016 A 
ATOM     15  C   UNL     1     106.716 120.320 112.082  1.00  0.00     0.051 A 
ATOM     16  C   UNL     1     106.578 119.108 112.770  1.00  0.00     0.157 A 
ATOM     17  C   UNL     1     108.361 118.167 111.410  1.00  0.00     0.062 A 
ATOM     18  C   UNL     1     107.409 118.015 112.426  1.00  0.00     0.158 A 
BRANCH  16  19
ATOM     19  O   UNL     1     105.611 119.035 113.774  1.00  0.00    -0.504 OA
ATOM     20  H   UNL     1     104.943 119.766 113.969  1.00  0.00     0.293 HD
ENDBRANCH  16  19
BRANCH  18  21
ATOM     21  O   UNL     1     107.321 116.774 113.058  1.00  0.00    -0.504 OA
ATOM     22  H   UNL     1     108.001 116.426 113.718  1.00  0.00     0.293 HD
ENDBRANCH  18  21
ENDBRANCH   3  13
BRANCH  10  23
ATOM     23  O   UNL     1     113.384 120.489 106.489  1.00  0.00    -0.507 OA
ATOM     24  H   UNL     1     114.183 120.011 106.088  1.00  0.00     0.293 HD
ENDBRANCH  10  23
BRANCH  11  25
ATOM     25  O   UNL     1     109.832 118.678 103.743  1.00  0.00    -0.508 OA
ATOM     26  H   UNL     1     108.880 118.875 103.459  1.00  0.00     0.293 HD
ENDBRANCH  11  25
ENDBRANCH   1   2
BRANCH   1  27
ATOM     27  C   UNL     1     111.716 119.275 112.112  1.00  0.00     0.339 C 
ATOM     28  C   UNL     1     113.245 119.085 112.000  1.00  0.00     0.214 C 
ATOM     29  O   UNL     1     111.324 119.579 113.441  1.00  0.00    -0.332 OA
ATOM     30  C   UNL     1     113.994 120.302 112.573  1.00  0.00     0.180 C 
ATOM     31  C   UNL     1     111.893 120.800 113.885  1.00  0.00     0.179 C 
ATOM     32  C   UNL     1     113.434 120.686 113.960  1.00  0.00     0.177 C 
BRANCH  28  33
ATOM     33  O   UNL     1     113.632 117.928 112.697  1.00  0.00    -0.384 OA
ATOM     34  H   UNL     1     112.815 117.380 112.825  1.00  0.00     0.211 HD
ENDBRANCH  28  33
BRANCH  30  35
ATOM     35  O   UNL     1     113.874 121.384 111.684  1.00  0.00    -0.387 OA
ATOM     36  H   UNL     1     113.869 121.005 110.766  1.00  0.00     0.211 HD
ENDBRANCH  30  35
BRANCH  31  37
ATOM     37  C   UNL     1     111.283 121.152 115.251  1.00  0.00     0.191 C 
BRANCH  37  38
ATOM     38  O   UNL     1     112.148 121.969 115.994  1.00  0.00    -0.394 OA
ATOM     39  H   UNL     1     112.309 121.504 116.856  1.00  0.00     0.210 HD
ENDBRANCH  37  38
ENDBRANCH  31  37
BRANCH  32  40
ATOM     40  O   UNL     1     113.794 119.716 114.911  1.00  0.00    -0.387 OA
ATOM     41  H   UNL     1     113.145 119.794 115.658  1.00  0.00     0.211 HD
ENDBRANCH  32  40
ENDBRANCH   1  27
TORSDOF 12
ENDMDL
MODEL 7
REMARK VINA RESULT:    -5.931      7.473      9.813
REMARK INTER + INTRA:         -10.198
REMARK INTER:                  -8.536
REMARK INTRA:                  -1.661
REMARK UNBOUND:                -1.493
REMARK SMILES O=c1c(O[C@@H]2O[C@@H](CO)[C@@H](O)[C@H](O)[C@H]2O)c(-c2ccc(O)c(O)c2)oc2cc(O)cc(O)c12
REMARK SMILES IDX 4 1 3 2 16 3 25 4 2 5 26 6 1 7 33 8 27 9 31 10 28 11 30 12
REMARK SMILES IDX 17 13 18 14 19 15 20 16 24 17 22 18 21 19 23 21 32 23 29 25
REMARK SMILES IDX 5 27 14 28 6 29 12 30 7 31 10 32 15 33 13 35 8 37 9 38 11 40
REMARK H PARENT 21 20 23 22 32 24 29 26 15 34 13 36 9 39 11 41
REMARK Flexibility Score: inf
ROOT
ATOM      1  O   UNL     1     107.637 112.189 113.731  1.00  0.00    -0.454 OA
ENDROOT
BRANCH   1   2
ATOM      2  C   UNL     1     106.472 112.296 112.962  1.00  0.00     0.214 A 
ATOM      3  C   UNL     1     105.813 111.159 112.451  1.00  0.00     0.180 A 
ATOM      4  O   UNL     1     104.758 111.310 111.655  1.00  0.00    -0.452 OA
ATOM      5  C   UNL     1     105.953 113.564 112.681  1.00  0.00     0.239 A 
ATOM      6  C   UNL     1     104.250 112.496 111.338  1.00  0.00     0.146 A 
ATOM      7  O   UNL     1     106.520 114.581 113.165  1.00  0.00    -0.285 OA
ATOM      8  C   UNL     1     104.820 113.686 111.851  1.00  0.00     0.111 A 
ATOM      9  C   UNL     1     103.136 112.556 110.496  1.00  0.00     0.094 A 
ATOM     10  C   UNL     1     104.244 114.932 111.506  1.00  0.00     0.134 A 
ATOM     11  C   UNL     1     102.572 113.787 110.157  1.00  0.00     0.123 A 
ATOM     12  C   UNL     1     103.125 114.969 110.662  1.00  0.00     0.093 A 
BRANCH   3  13
ATOM     13  C   UNL     1     106.244 109.785 112.785  1.00  0.00     0.025 A 
ATOM     14  C   UNL     1     105.936 109.213 114.028  1.00  0.00     0.016 A 
ATOM     15  C   UNL     1     106.340 107.910 114.323  1.00  0.00     0.051 A 
ATOM     16  C   UNL     1     107.041 107.148 113.380  1.00  0.00     0.157 A 
ATOM     17  C   UNL     1     106.923 109.017 111.827  1.00  0.00     0.062 A 
ATOM     18  C   UNL     1     107.332 107.708 112.113  1.00  0.00     0.158 A 
BRANCH  16  19
ATOM     19  O   UNL     1     107.421 105.854 113.739  1.00  0.00    -0.504 OA
ATOM     20  H   UNL     1     106.816 105.198 114.211  1.00  0.00     0.293 HD
ENDBRANCH  16  19
BRANCH  18  21
ATOM     21  O   UNL     1     108.015 107.006 111.118  1.00  0.00    -0.504 OA
ATOM     22  H   UNL     1     107.965 107.227 110.135  1.00  0.00     0.293 HD
ENDBRANCH  18  21
ENDBRANCH   3  13
BRANCH  10  23
ATOM     23  O   UNL     1     104.774 116.127 111.994  1.00  0.00    -0.507 OA
ATOM     24  H   UNL     1     104.597 117.015 111.536  1.00  0.00     0.293 HD
ENDBRANCH  10  23
BRANCH  11  25
ATOM     25  O   UNL     1     101.461 113.825 109.318  1.00  0.00    -0.508 OA
ATOM     26  H   UNL     1     101.368 113.192 108.532  1.00  0.00     0.293 HD
ENDBRANCH  11  25
ENDBRANCH   1   2
BRANCH   1  27
ATOM     27  C   UNL     1     108.932 111.985 113.154  1.00  0.00     0.339 C 
ATOM     28  C   UNL     1     109.587 113.339 112.805  1.00  0.00     0.214 C 
ATOM     29  O   UNL     1     109.755 111.213 114.014  1.00  0.00    -0.332 OA
ATOM     30  C   UNL     1     109.986 114.102 114.081  1.00  0.00     0.180 C 
ATOM     31  C   UNL     1     109.964 111.865 115.257  1.00  0.00     0.179 C 
ATOM     32  C   UNL     1     110.753 113.180 115.053  1.00  0.00     0.177 C 
BRANCH  28  33
ATOM     33  O   UNL     1     110.729 113.125 112.014  1.00  0.00    -0.384 OA
ATOM     34  H   UNL     1     111.490 113.561 112.480  1.00  0.00     0.211 HD
ENDBRANCH  28  33
BRANCH  30  35
ATOM     35  O   UNL     1     108.830 114.606 114.703  1.00  0.00    -0.387 OA
ATOM     36  H   UNL     1     109.070 115.492 115.083  1.00  0.00     0.211 HD
ENDBRANCH  30  35
BRANCH  31  37
ATOM     37  C   UNL     1     110.704 110.898 116.195  1.00  0.00     0.191 C 
BRANCH  37  38
ATOM     38  O   UNL     1     111.485 111.597 117.125  1.00  0.00    -0.394 OA
ATOM     39  H   UNL     1     111.792 110.933 117.796  1.00  0.00     0.210 HD
ENDBRANCH  37  38
ENDBRANCH  31  37
BRANCH  32  40
ATOM     40  O   UNL     1     112.030 112.894 114.539  1.00  0.00    -0.387 OA
ATOM     41  H   UNL     1     112.537 112.445 115.266  1.00  0.00     0.211 HD
ENDBRANCH  32  40
ENDBRANCH   1  27
TORSDOF 12
ENDMDL
MODEL 8
REMARK VINA RESULT:    -5.902      4.514      6.418
REMARK INTER + INTRA:         -10.155
REMARK INTER:                  -8.499
REMARK INTRA:                  -1.656
REMARK UNBOUND:                -1.493
REMARK SMILES O=c1c(O[C@@H]2O[C@@H](CO)[C@@H](O)[C@H](O)[C@H]2O)c(-c2ccc(O)c(O)c2)oc2cc(O)cc(O)c12
REMARK SMILES IDX 4 1 3 2 16 3 25 4 2 5 26 6 1 7 33 8 27 9 31 10 28 11 30 12
REMARK SMILES IDX 17 13 18 14 19 15 20 16 24 17 22 18 21 19 23 21 32 23 29 25
REMARK SMILES IDX 5 27 14 28 6 29 12 30 7 31 10 32 15 33 13 35 8 37 9 38 11 40
REMARK H PARENT 21 20 23 22 32 24 29 26 15 34 13 36 9 39 11 41
REMARK Flexibility Score: inf
ROOT
ATOM      1  O   UNL     1     108.471 115.706 112.679  1.00  0.00    -0.454 OA
ENDROOT
BRANCH   1   2
ATOM      2  C   UNL     1     107.170 115.335 112.320  1.00  0.00     0.214 A 
ATOM      3  C   UNL     1     106.160 116.293 112.096  1.00  0.00     0.180 A 
ATOM      4  O   UNL     1     104.917 115.894 111.840  1.00  0.00    -0.452 OA
ATOM      5  C   UNL     1     106.857 113.978 112.190  1.00  0.00     0.239 A 
ATOM      6  C   UNL     1     104.570 114.616 111.738  1.00  0.00     0.146 A 
ATOM      7  O   UNL     1     107.766 113.120 112.355  1.00  0.00    -0.285 OA
ATOM      8  C   UNL     1     105.534 113.592 111.896  1.00  0.00     0.111 A 
ATOM      9  C   UNL     1     103.238 114.292 111.461  1.00  0.00     0.094 A 
ATOM     10  C   UNL     1     105.133 112.241 111.765  1.00  0.00     0.134 A 
ATOM     11  C   UNL     1     102.847 112.958 111.334  1.00  0.00     0.123 A 
ATOM     12  C   UNL     1     103.793 111.938 111.485  1.00  0.00     0.093 A 
BRANCH   3  13
ATOM     13  C   UNL     1     106.436 117.745 112.119  1.00  0.00     0.025 A 
ATOM     14  C   UNL     1     106.929 118.405 110.984  1.00  0.00     0.016 A 
ATOM     15  C   UNL     1     107.172 119.779 111.017  1.00  0.00     0.051 A 
ATOM     16  C   UNL     1     106.914 120.522 112.175  1.00  0.00     0.157 A 
ATOM     17  C   UNL     1     106.150 118.490 113.273  1.00  0.00     0.062 A 
ATOM     18  C   UNL     1     106.390 119.869 113.317  1.00  0.00     0.158 A 
BRANCH  16  19
ATOM     19  O   UNL     1     107.185 121.891 112.146  1.00  0.00    -0.504 OA
ATOM     20  H   UNL     1     107.150 122.491 112.957  1.00  0.00     0.293 HD
ENDBRANCH  16  19
BRANCH  18  21
ATOM     21  O   UNL     1     106.095 120.546 114.502  1.00  0.00    -0.504 OA
ATOM     22  H   UNL     1     106.732 120.624 115.281  1.00  0.00     0.293 HD
ENDBRANCH  18  21
ENDBRANCH   3  13
BRANCH  10  23
ATOM     23  O   UNL     1     106.054 111.202 111.910  1.00  0.00    -0.507 OA
ATOM     24  H   UNL     1     105.757 110.245 112.068  1.00  0.00     0.293 HD
ENDBRANCH  10  23
BRANCH  11  25
ATOM     25  O   UNL     1     101.516 112.657 111.058  1.00  0.00    -0.508 OA
ATOM     26  H   UNL     1     100.931 113.285 110.520  1.00  0.00     0.293 HD
ENDBRANCH  11  25
ENDBRANCH   1   2
BRANCH   1  27
ATOM     27  C   UNL     1     108.863 115.945 114.036  1.00  0.00     0.339 C 
ATOM     28  C   UNL     1     109.444 114.660 114.665  1.00  0.00     0.214 C 
ATOM     29  O   UNL     1     109.779 117.026 114.116  1.00  0.00    -0.332 OA
ATOM     30  C   UNL     1     110.814 114.319 114.052  1.00  0.00     0.180 C 
ATOM     31  C   UNL     1     110.969 116.754 113.394  1.00  0.00     0.179 C 
ATOM     32  C   UNL     1     111.728 115.564 114.027  1.00  0.00     0.177 C 
BRANCH  28  33
ATOM     33  O   UNL     1     109.584 114.831 116.053  1.00  0.00    -0.384 OA
ATOM     34  H   UNL     1     110.541 115.030 116.225  1.00  0.00     0.211 HD
ENDBRANCH  28  33
BRANCH  30  35
ATOM     35  O   UNL     1     110.632 113.825 112.749  1.00  0.00    -0.387 OA
ATOM     36  H   UNL     1     111.041 112.920 112.723  1.00  0.00     0.211 HD
ENDBRANCH  30  35
BRANCH  31  37
ATOM     37  C   UNL     1     111.827 118.028 113.374  1.00  0.00     0.191 C 
BRANCH  37  38
ATOM     38  O   UNL     1     113.193 117.715 113.318  1.00  0.00    -0.394 OA
ATOM     39  H   UNL     1     113.257 116.779 112.993  1.00  0.00     0.210 HD
ENDBRANCH  37  38
ENDBRANCH  31  37
BRANCH  32  40
ATOM     40  O   UNL     1     112.128 115.894 115.333  1.00  0.00    -0.387 OA
ATOM     41  H   UNL     1     111.551 116.647 115.627  1.00  0.00     0.211 HD
ENDBRANCH  32  40
ENDBRANCH   1  27
TORSDOF 12
ENDMDL
MODEL 9
REMARK VINA RESULT:    -5.893      8.566     11.153
REMARK INTER + INTRA:         -10.142
REMARK INTER:                  -8.678
REMARK INTRA:                  -1.464
REMARK UNBOUND:                -1.493
REMARK SMILES O=c1c(O[C@@H]2O[C@@H](CO)[C@@H](O)[C@H](O)[C@H]2O)c(-c2ccc(O)c(O)c2)oc2cc(O)cc(O)c12
REMARK SMILES IDX 4 1 3 2 16 3 25 4 2 5 26 6 1 7 33 8 27 9 31 10 28 11 30 12
REMARK SMILES IDX 17 13 18 14 19 15 20 16 24 17 22 18 21 19 23 21 32 23 29 25
REMARK SMILES IDX 5 27 14 28 6 29 12 30 7 31 10 32 15 33 13 35 8 37 9 38 11 40
REMARK H PARENT 21 20 23 22 32 24 29 26 15 34 13 36 9 39 11 41
REMARK Flexibility Score: inf
ROOT
ATOM      1  O   UNL     1     107.536 109.232 112.987  1.00  0.00    -0.454 OA
ENDROOT
BRANCH   1   2
ATOM      2  C   UNL     1     106.516 110.177 112.820  1.00  0.00     0.214 A 
ATOM      3  C   UNL     1     106.718 111.544 113.098  1.00  0.00     0.180 A 
ATOM      4  O   UNL     1     105.698 112.393 113.007  1.00  0.00    -0.452 OA
ATOM      5  C   UNL     1     105.259 109.754 112.377  1.00  0.00     0.239 A 
ATOM      6  C   UNL     1     104.480 112.029 112.620  1.00  0.00     0.146 A 
ATOM      7  O   UNL     1     105.084 108.537 112.094  1.00  0.00    -0.285 OA
ATOM      8  C   UNL     1     104.206 110.685 112.272  1.00  0.00     0.111 A 
ATOM      9  C   UNL     1     103.471 112.994 112.551  1.00  0.00     0.094 A 
ATOM     10  C   UNL     1     102.902 110.335 111.847  1.00  0.00     0.134 A 
ATOM     11  C   UNL     1     102.186 112.644 112.133  1.00  0.00     0.123 A 
ATOM     12  C   UNL     1     101.905 111.318 111.783  1.00  0.00     0.093 A 
BRANCH   3  13
ATOM     13  C   UNL     1     108.042 112.082 113.476  1.00  0.00     0.025 A 
ATOM     14  C   UNL     1     108.513 111.981 114.793  1.00  0.00     0.016 A 
ATOM     15  C   UNL     1     109.771 112.482 115.131  1.00  0.00     0.051 A 
ATOM     16  C   UNL     1     110.587 113.079 114.162  1.00  0.00     0.157 A 
ATOM     17  C   UNL     1     108.866 112.655 112.496  1.00  0.00     0.062 A 
ATOM     18  C   UNL     1     110.130 113.161 112.825  1.00  0.00     0.158 A 
BRANCH  16  19
ATOM     19  O   UNL     1     111.830 113.566 114.567  1.00  0.00    -0.504 OA
ATOM     20  H   UNL     1     112.556 112.994 114.975  1.00  0.00     0.293 HD
ENDBRANCH  16  19
BRANCH  18  21
ATOM     21  O   UNL     1     110.892 113.730 111.803  1.00  0.00    -0.504 OA
ATOM     22  H   UNL     1     111.049 114.721 111.700  1.00  0.00     0.293 HD
ENDBRANCH  18  21
ENDBRANCH   3  13
BRANCH  10  23
ATOM     23  O   UNL     1     102.592 109.021 111.492  1.00  0.00    -0.507 OA
ATOM     24  H   UNL     1     103.296 108.291 111.485  1.00  0.00     0.293 HD
ENDBRANCH  10  23
BRANCH  11  25
ATOM     25  O   UNL     1     101.195 113.620 112.070  1.00  0.00    -0.508 OA
ATOM     26  H   UNL     1     100.211 113.381 112.107  1.00  0.00     0.293 HD
ENDBRANCH  11  25
ENDBRANCH   1   2
BRANCH   1  27
ATOM     27  C   UNL     1     108.288 108.701 111.889  1.00  0.00     0.339 C 
ATOM     28  C   UNL     1     109.758 109.170 111.966  1.00  0.00     0.214 C 
ATOM     29  O   UNL     1     108.194 107.286 111.848  1.00  0.00    -0.332 OA
ATOM     30  C   UNL     1     110.491 108.495 113.139  1.00  0.00     0.180 C 
ATOM     31  C   UNL     1     108.721 106.694 113.024  1.00  0.00     0.179 C 
ATOM     32  C   UNL     1     110.239 106.971 113.137  1.00  0.00     0.177 C 
BRANCH  28  33
ATOM     33  O   UNL     1     110.418 108.862 110.764  1.00  0.00    -0.384 OA
ATOM     34  H   UNL     1     111.251 108.378 111.007  1.00  0.00     0.211 HD
ENDBRANCH  28  33
BRANCH  30  35
ATOM     35  O   UNL     1     110.051 109.058 114.349  1.00  0.00    -0.387 OA
ATOM     36  H   UNL     1     109.723 109.971 114.141  1.00  0.00     0.211 HD
ENDBRANCH  30  35
BRANCH  31  37
ATOM     37  C   UNL     1     108.421 105.188 112.987  1.00  0.00     0.191 C 
BRANCH  37  38
ATOM     38  O   UNL     1     108.634 104.662 111.705  1.00  0.00    -0.394 OA
ATOM     39  H   UNL     1     107.742 104.591 111.275  1.00  0.00     0.210 HD
ENDBRANCH  37  38
ENDBRANCH  31  37
BRANCH  32  40
ATOM     40  O   UNL     1     110.914 106.373 112.059  1.00  0.00    -0.387 OA
ATOM     41  H   UNL     1     110.316 105.662 111.707  1.00  0.00     0.211 HD
ENDBRANCH  32  40
ENDBRANCH   1  27
TORSDOF 12
ENDMDL
