MODEL 1
REMARK VINA RESULT:    -2.704      0.000      0.000
REMARK INTER + INTRA:          -6.852
REMARK INTER:                  -4.917
REMARK INTRA:                  -1.935
REMARK UNBOUND:                -1.935
REMARK SMILES CCCCCCCCCCCCCCCC(=O)[O-]
REMARK SMILES IDX 9 1 10 2 11 3 12 4 13 5 14 6 15 7 16 8 17 9 18 10 8 11 7 12
REMARK SMILES IDX 6 13 5 14 4 15 3 16 2 17 1 18
REMARK H PARENT
REMARK Flexibility Score: inf
ROOT
ATOM      1  C   UNL     1     -18.497  15.189 -20.333  1.00  0.00     0.000 C 
ENDROOT
BRANCH   1   2
ATOM      2  C   UNL     1     -18.051  13.728 -20.528  1.00  0.00     0.000 C 
BRANCH   2   3
ATOM      3  C   UNL     1     -17.886  12.922 -19.226  1.00  0.00     0.000 C 
BRANCH   3   4
ATOM      4  C   UNL     1     -17.905  13.760 -17.930  1.00  0.00     0.000 C 
BRANCH   4   5
ATOM      5  C   UNL     1     -19.129  13.538 -17.026  1.00  0.00     0.000 C 
BRANCH   5   6
ATOM      6  C   UNL     1     -20.230  12.709 -17.704  1.00  0.00     0.006 C 
BRANCH   6   7
ATOM      7  C   UNL     1     -21.562  13.466 -17.708  1.00  0.00     0.053 C 
BRANCH   7   8
ATOM      8  C   UNL     1     -22.493  12.893 -16.688  1.00  0.00     0.041 C 
ATOM      9  O   UNL     1     -22.122  11.938 -15.957  1.00  0.00    -0.550 OA
ATOM     10  O   UNL     1     -23.790  13.379 -16.579  1.00  0.00    -0.550 OA
ENDBRANCH   7   8
ENDBRANCH   6   7
ENDBRANCH   5   6
ENDBRANCH   4   5
ENDBRANCH   3   4
ENDBRANCH   2   3
ENDBRANCH   1   2
BRANCH   1  11
ATOM     11  C   UNL     1     -19.936  15.473 -20.824  1.00  0.00     0.000 C 
BRANCH  11  12
ATOM     12  C   UNL     1     -20.703  14.232 -21.326  1.00  0.00    -0.000 C 
BRANCH  12  13
ATOM     13  C   UNL     1     -21.691  14.483 -22.485  1.00  0.00    -0.000 C 
BRANCH  13  14
ATOM     14  C   UNL     1     -21.597  13.488 -23.654  1.00  0.00    -0.000 C 
BRANCH  14  15
ATOM     15  C   UNL     1     -20.968  14.109 -24.913  1.00  0.00    -0.000 C 
BRANCH  15  16
ATOM     16  C   UNL     1     -19.433  14.110 -24.867  1.00  0.00    -0.000 C 
BRANCH  16  17
ATOM     17  C   UNL     1     -18.858  12.782 -24.351  1.00  0.00    -0.003 C 
ATOM     18  C   UNL     1     -17.363  12.902 -24.071  1.00  0.00     0.004 C 
ENDBRANCH  16  17
ENDBRANCH  15  16
ENDBRANCH  14  15
ENDBRANCH  13  14
ENDBRANCH  12  13
ENDBRANCH  11  12
ENDBRANCH   1  11
TORSDOF 14
ENDMDL
MODEL 2
REMARK VINA RESULT:    -2.692     14.972     16.915
REMARK INTER + INTRA:          -6.830
REMARK INTER:                  -5.044
REMARK INTRA:                  -1.786
REMARK UNBOUND:                -1.935
REMARK SMILES CCCCCCCCCCCCCCCC(=O)[O-]
REMARK SMILES IDX 9 1 10 2 11 3 12 4 13 5 14 6 15 7 16 8 17 9 18 10 8 11 7 12
REMARK SMILES IDX 6 13 5 14 4 15 3 16 2 17 1 18
REMARK H PARENT
REMARK Flexibility Score: inf
ROOT
ATOM      1  C   UNL     1     -21.116  27.420 -20.708  1.00  0.00     0.000 C 
ENDROOT
BRANCH   1   2
ATOM      2  C   UNL     1     -20.101  28.576 -20.783  1.00  0.00     0.000 C 
BRANCH   2   3
ATOM      3  C   UNL     1     -18.869  28.416 -19.872  1.00  0.00     0.000 C 
BRANCH   3   4
ATOM      4  C   UNL     1     -18.650  29.558 -18.859  1.00  0.00     0.000 C 
BRANCH   4   5
ATOM      5  C   UNL     1     -17.385  30.403 -19.091  1.00  0.00     0.000 C 
BRANCH   5   6
ATOM      6  C   UNL     1     -17.330  31.024 -20.494  1.00  0.00     0.006 C 
BRANCH   6   7
ATOM      7  C   UNL     1     -15.937  30.862 -21.111  1.00  0.00     0.053 C 
BRANCH   7   8
ATOM      8  C   UNL     1     -16.040  30.339 -22.508  1.00  0.00     0.041 C 
ATOM      9  O   UNL     1     -17.079  29.735 -22.883  1.00  0.00    -0.550 OA
ATOM     10  O   UNL     1     -14.970  30.474 -23.382  1.00  0.00    -0.550 OA
ENDBRANCH   7   8
ENDBRANCH   6   7
ENDBRANCH   5   6
ENDBRANCH   4   5
ENDBRANCH   3   4
ENDBRANCH   2   3
ENDBRANCH   1   2
BRANCH   1  11
ATOM     11  C   UNL     1     -22.510  27.776 -21.272  1.00  0.00     0.000 C 
BRANCH  11  12
ATOM     12  C   UNL     1     -22.745  29.282 -21.509  1.00  0.00    -0.000 C 
BRANCH  12  13
ATOM     13  C   UNL     1     -24.215  29.748 -21.438  1.00  0.00    -0.000 C 
BRANCH  13  14
ATOM     14  C   UNL     1     -24.975  29.327 -20.168  1.00  0.00    -0.000 C 
BRANCH  14  15
ATOM     15  C   UNL     1     -24.381  29.942 -18.889  1.00  0.00    -0.000 C 
BRANCH  15  16
ATOM     16  C   UNL     1     -23.844  28.879 -17.919  1.00  0.00    -0.000 C 
BRANCH  16  17
ATOM     17  C   UNL     1     -22.361  29.089 -17.579  1.00  0.00    -0.003 C 
ATOM     18  C   UNL     1     -21.707  27.781 -17.141  1.00  0.00     0.004 C 
ENDBRANCH  16  17
ENDBRANCH  15  16
ENDBRANCH  14  15
ENDBRANCH  13  14
ENDBRANCH  12  13
ENDBRANCH  11  12
ENDBRANCH   1  11
TORSDOF 14
ENDMDL
MODEL 3
REMARK VINA RESULT:    -2.540     15.460     17.179
REMARK INTER + INTRA:          -6.554
REMARK INTER:                  -5.288
REMARK INTRA:                  -1.266
REMARK UNBOUND:                -1.935
REMARK SMILES CCCCCCCCCCCCCCCC(=O)[O-]
REMARK SMILES IDX 9 1 10 2 11 3 12 4 13 5 14 6 15 7 16 8 17 9 18 10 8 11 7 12
REMARK SMILES IDX 6 13 5 14 4 15 3 16 2 17 1 18
REMARK H PARENT
REMARK Flexibility Score: inf
ROOT
ATOM      1  C   UNL     1     -19.703  28.455 -19.500  1.00  0.00     0.000 C 
ENDROOT
BRANCH   1   2
ATOM      2  C   UNL     1     -19.077  28.315 -20.900  1.00  0.00     0.000 C 
BRANCH   2   3
ATOM      3  C   UNL     1     -18.353  29.573 -21.414  1.00  0.00     0.000 C 
BRANCH   3   4
ATOM      4  C   UNL     1     -17.528  30.333 -20.355  1.00  0.00     0.000 C 
BRANCH   4   5
ATOM      5  C   UNL     1     -16.035  30.504 -20.689  1.00  0.00     0.000 C 
BRANCH   5   6
ATOM      6  C   UNL     1     -15.787  30.818 -22.171  1.00  0.00     0.006 C 
BRANCH   6   7
ATOM      7  C   UNL     1     -14.767  29.845 -22.773  1.00  0.00     0.053 C 
BRANCH   7   8
ATOM      8  C   UNL     1     -15.236  29.352 -24.105  1.00  0.00     0.041 C 
ATOM      9  O   UNL     1     -16.412  29.585 -24.488  1.00  0.00    -0.550 OA
ATOM     10  O   UNL     1     -14.390  28.592 -24.902  1.00  0.00    -0.550 OA
ENDBRANCH   7   8
ENDBRANCH   6   7
ENDBRANCH   5   6
ENDBRANCH   4   5
ENDBRANCH   3   4
ENDBRANCH   2   3
ENDBRANCH   1   2
BRANCH   1  11
ATOM     11  C   UNL     1     -21.248  28.519 -19.511  1.00  0.00     0.000 C 
BRANCH  11  12
ATOM     12  C   UNL     1     -21.901  28.112 -20.847  1.00  0.00    -0.000 C 
BRANCH  12  13
ATOM     13  C   UNL     1     -22.623  29.244 -21.609  1.00  0.00    -0.000 C 
BRANCH  13  14
ATOM     14  C   UNL     1     -24.150  29.091 -21.719  1.00  0.00    -0.000 C 
BRANCH  14  15
ATOM     15  C   UNL     1     -24.908  29.949 -20.692  1.00  0.00    -0.000 C 
BRANCH  15  16
ATOM     16  C   UNL     1     -24.967  29.292 -19.304  1.00  0.00    -0.000 C 
BRANCH  16  17
ATOM     17  C   UNL     1     -24.372  30.185 -18.205  1.00  0.00    -0.003 C 
ATOM     18  C   UNL     1     -24.004  29.365 -16.971  1.00  0.00     0.004 C 
ENDBRANCH  16  17
ENDBRANCH  15  16
ENDBRANCH  14  15
ENDBRANCH  13  14
ENDBRANCH  12  13
ENDBRANCH  11  12
ENDBRANCH   1  11
TORSDOF 14
ENDMDL
MODEL 4
REMARK VINA RESULT:    -2.500      1.468      2.778
REMARK INTER + INTRA:          -6.481
REMARK INTER:                  -4.907
REMARK INTRA:                  -1.575
REMARK UNBOUND:                -1.935
REMARK SMILES CCCCCCCCCCCCCCCC(=O)[O-]
REMARK SMILES IDX 9 1 10 2 11 3 12 4 13 5 14 6 15 7 16 8 17 9 18 10 8 11 7 12
REMARK SMILES IDX 6 13 5 14 4 15 3 16 2 17 1 18
REMARK H PARENT
REMARK Flexibility Score: inf
ROOT
ATOM      1  C   UNL     1     -21.553  15.233 -22.331  1.00  0.00     0.000 C 
ENDROOT
BRANCH   1   2
ATOM      2  C   UNL     1     -21.016  14.243 -21.280  1.00  0.00     0.000 C 
BRANCH   2   3
ATOM      3  C   UNL     1     -20.238  14.890 -20.119  1.00  0.00     0.000 C 
BRANCH   3   4
ATOM      4  C   UNL     1     -20.877  14.717 -18.726  1.00  0.00     0.000 C 
BRANCH   4   5
ATOM      5  C   UNL     1     -21.448  13.318 -18.438  1.00  0.00     0.000 C 
BRANCH   5   6
ATOM      6  C   UNL     1     -20.515  12.458 -17.573  1.00  0.00     0.006 C 
BRANCH   6   7
ATOM      7  C   UNL     1     -20.492  12.961 -16.126  1.00  0.00     0.053 C 
BRANCH   7   8
ATOM      8  C   UNL     1     -21.298  12.061 -15.245  1.00  0.00     0.041 C 
ATOM      9  O   UNL     1     -20.723  11.270 -14.452  1.00  0.00    -0.550 OA
ATOM     10  O   UNL     1     -22.684  12.059 -15.335  1.00  0.00    -0.550 OA
ENDBRANCH   7   8
ENDBRANCH   6   7
ENDBRANCH   5   6
ENDBRANCH   4   5
ENDBRANCH   3   4
ENDBRANCH   2   3
ENDBRANCH   1   2
BRANCH   1  11
ATOM     11  C   UNL     1     -22.243  14.552 -23.535  1.00  0.00     0.000 C 
BRANCH  11  12
ATOM     12  C   UNL     1     -21.315  14.267 -24.734  1.00  0.00    -0.000 C 
BRANCH  12  13
ATOM     13  C   UNL     1     -20.621  12.888 -24.728  1.00  0.00    -0.000 C 
BRANCH  13  14
ATOM     14  C   UNL     1     -19.123  12.910 -24.379  1.00  0.00    -0.000 C 
BRANCH  14  15
ATOM     15  C   UNL     1     -18.505  14.313 -24.501  1.00  0.00    -0.000 C 
BRANCH  15  16
ATOM     16  C   UNL     1     -17.828  14.774 -23.201  1.00  0.00    -0.000 C 
BRANCH  16  17
ATOM     17  C   UNL     1     -16.871  13.718 -22.630  1.00  0.00    -0.003 C 
ATOM     18  C   UNL     1     -16.987  13.636 -21.110  1.00  0.00     0.004 C 
ENDBRANCH  16  17
ENDBRANCH  15  16
ENDBRANCH  14  15
ENDBRANCH  13  14
ENDBRANCH  12  13
ENDBRANCH  11  12
ENDBRANCH   1  11
TORSDOF 14
ENDMDL
MODEL 5
REMARK VINA RESULT:    -2.495     15.022     16.731
REMARK INTER + INTRA:          -6.472
REMARK INTER:                  -4.923
REMARK INTRA:                  -1.549
REMARK UNBOUND:                -1.935
REMARK SMILES CCCCCCCCCCCCCCCC(=O)[O-]
REMARK SMILES IDX 9 1 10 2 11 3 12 4 13 5 14 6 15 7 16 8 17 9 18 10 8 11 7 12
REMARK SMILES IDX 6 13 5 14 4 15 3 16 2 17 1 18
REMARK H PARENT
REMARK Flexibility Score: inf
ROOT
ATOM      1  C   UNL     1     -19.220  28.324 -20.010  1.00  0.00     0.000 C 
ENDROOT
BRANCH   1   2
ATOM      2  C   UNL     1     -18.673  29.266 -21.100  1.00  0.00     0.000 C 
BRANCH   2   3
ATOM      3  C   UNL     1     -17.530  28.678 -21.949  1.00  0.00     0.000 C 
BRANCH   3   4
ATOM      4  C   UNL     1     -16.720  29.709 -22.762  1.00  0.00     0.000 C 
BRANCH   4   5
ATOM      5  C   UNL     1     -16.118  30.861 -21.939  1.00  0.00     0.000 C 
BRANCH   5   6
ATOM      6  C   UNL     1     -14.853  30.450 -21.172  1.00  0.00     0.006 C 
BRANCH   6   7
ATOM      7  C   UNL     1     -14.927  30.903 -19.711  1.00  0.00     0.053 C 
BRANCH   7   8
ATOM      8  C   UNL     1     -15.771  29.963 -18.912  1.00  0.00     0.041 C 
ATOM      9  O   UNL     1     -16.668  30.409 -18.150  1.00  0.00    -0.550 OA
ATOM     10  O   UNL     1     -15.536  28.595 -18.972  1.00  0.00    -0.550 OA
ENDBRANCH   7   8
ENDBRANCH   6   7
ENDBRANCH   5   6
ENDBRANCH   4   5
ENDBRANCH   3   4
ENDBRANCH   2   3
ENDBRANCH   1   2
BRANCH   1  11
ATOM     11  C   UNL     1     -20.738  28.472 -19.762  1.00  0.00     0.000 C 
BRANCH  11  12
ATOM     12  C   UNL     1     -21.634  27.870 -20.864  1.00  0.00    -0.000 C 
BRANCH  12  13
ATOM     13  C   UNL     1     -22.507  28.880 -21.640  1.00  0.00    -0.000 C 
BRANCH  13  14
ATOM     14  C   UNL     1     -23.943  28.413 -21.936  1.00  0.00    -0.000 C 
BRANCH  14  15
ATOM     15  C   UNL     1     -24.908  28.685 -20.770  1.00  0.00    -0.000 C 
BRANCH  15  16
ATOM     16  C   UNL     1     -24.635  30.030 -20.079  1.00  0.00    -0.000 C 
BRANCH  16  17
ATOM     17  C   UNL     1     -24.385  29.877 -18.572  1.00  0.00    -0.003 C 
ATOM     18  C   UNL     1     -24.250  28.407 -18.183  1.00  0.00     0.004 C 
ENDBRANCH  16  17
ENDBRANCH  15  16
ENDBRANCH  14  15
ENDBRANCH  13  14
ENDBRANCH  12  13
ENDBRANCH  11  12
ENDBRANCH   1  11
TORSDOF 14
ENDMDL
MODEL 6
REMARK VINA RESULT:    -2.490     14.426     16.203
REMARK INTER + INTRA:          -6.463
REMARK INTER:                  -4.349
REMARK INTRA:                  -2.114
REMARK UNBOUND:                -1.935
REMARK SMILES CCCCCCCCCCCCCCCC(=O)[O-]
REMARK SMILES IDX 9 1 10 2 11 3 12 4 13 5 14 6 15 7 16 8 17 9 18 10 8 11 7 12
REMARK SMILES IDX 6 13 5 14 4 15 3 16 2 17 1 18
REMARK H PARENT
REMARK Flexibility Score: inf
ROOT
ATOM      1  C   UNL     1     -21.548  27.618 -20.826  1.00  0.00     0.000 C 
ENDROOT
BRANCH   1   2
ATOM      2  C   UNL     1     -22.314  28.828 -21.394  1.00  0.00     0.000 C 
BRANCH   2   3
ATOM      3  C   UNL     1     -23.675  28.490 -22.032  1.00  0.00     0.000 C 
BRANCH   3   4
ATOM      4  C   UNL     1     -24.906  28.817 -21.162  1.00  0.00     0.000 C 
BRANCH   4   5
ATOM      5  C   UNL     1     -24.663  29.847 -20.046  1.00  0.00     0.000 C 
BRANCH   5   6
ATOM      6  C   UNL     1     -24.800  29.247 -18.639  1.00  0.00     0.006 C 
BRANCH   6   7
ATOM      7  C   UNL     1     -24.397  30.265 -17.567  1.00  0.00     0.053 C 
BRANCH   7   8
ATOM      8  C   UNL     1     -23.965  29.567 -16.318  1.00  0.00     0.041 C 
ATOM      9  O   UNL     1     -23.698  30.230 -15.282  1.00  0.00    -0.550 OA
ATOM     10  O   UNL     1     -23.807  28.187 -16.311  1.00  0.00    -0.550 OA
ENDBRANCH   7   8
ENDBRANCH   6   7
ENDBRANCH   5   6
ENDBRANCH   4   5
ENDBRANCH   3   4
ENDBRANCH   2   3
ENDBRANCH   1   2
BRANCH   1  11
ATOM     11  C   UNL     1     -21.513  27.571 -19.281  1.00  0.00     0.000 C 
BRANCH  11  12
ATOM     12  C   UNL     1     -21.100  28.893 -18.604  1.00  0.00    -0.000 C 
BRANCH  12  13
ATOM     13  C   UNL     1     -20.294  28.749 -17.295  1.00  0.00    -0.000 C 
BRANCH  13  14
ATOM     14  C   UNL     1     -18.911  28.091 -17.445  1.00  0.00    -0.000 C 
BRANCH  14  15
ATOM     15  C   UNL     1     -17.791  29.114 -17.698  1.00  0.00    -0.000 C 
BRANCH  15  16
ATOM     16  C   UNL     1     -17.227  29.029 -19.125  1.00  0.00    -0.000 C 
BRANCH  16  17
ATOM     17  C   UNL     1     -17.806  30.108 -20.052  1.00  0.00    -0.003 C 
ATOM     18  C   UNL     1     -18.401  29.488 -21.313  1.00  0.00     0.004 C 
ENDBRANCH  16  17
ENDBRANCH  15  16
ENDBRANCH  14  15
ENDBRANCH  13  14
ENDBRANCH  12  13
ENDBRANCH  11  12
ENDBRANCH   1  11
TORSDOF 14
ENDMDL
MODEL 7
REMARK VINA RESULT:    -2.482      4.162      5.622
REMARK INTER + INTRA:          -6.448
REMARK INTER:                  -4.244
REMARK INTRA:                  -2.203
REMARK UNBOUND:                -1.935
REMARK SMILES CCCCCCCCCCCCCCCC(=O)[O-]
REMARK SMILES IDX 9 1 10 2 11 3 12 4 13 5 14 6 15 7 16 8 17 9 18 10 8 11 7 12
REMARK SMILES IDX 6 13 5 14 4 15 3 16 2 17 1 18
REMARK H PARENT
REMARK Flexibility Score: inf
ROOT
ATOM      1  C   UNL     1     -20.845  14.392 -21.381  1.00  0.00     0.000 C 
ENDROOT
BRANCH   1   2
ATOM      2  C   UNL     1     -19.367  14.822 -21.428  1.00  0.00     0.000 C 
BRANCH   2   3
ATOM      3  C   UNL     1     -19.103  16.151 -22.160  1.00  0.00     0.000 C 
BRANCH   3   4
ATOM      4  C   UNL     1     -17.624  16.587 -22.215  1.00  0.00     0.000 C 
BRANCH   4   5
ATOM      5  C   UNL     1     -16.890  16.244 -23.523  1.00  0.00     0.000 C 
BRANCH   5   6
ATOM      6  C   UNL     1     -15.499  15.638 -23.287  1.00  0.00     0.006 C 
BRANCH   6   7
ATOM      7  C   UNL     1     -15.541  14.588 -22.172  1.00  0.00     0.053 C 
BRANCH   7   8
ATOM      8  C   UNL     1     -14.420  14.805 -21.206  1.00  0.00     0.041 C 
ATOM      9  O   UNL     1     -14.116  13.907 -20.377  1.00  0.00    -0.550 OA
ATOM     10  O   UNL     1     -13.742  16.016 -21.188  1.00  0.00    -0.550 OA
ENDBRANCH   7   8
ENDBRANCH   6   7
ENDBRANCH   5   6
ENDBRANCH   4   5
ENDBRANCH   3   4
ENDBRANCH   2   3
ENDBRANCH   1   2
BRANCH   1  11
ATOM     11  C   UNL     1     -21.774  15.253 -22.267  1.00  0.00     0.000 C 
BRANCH  11  12
ATOM     12  C   UNL     1     -22.302  14.542 -23.530  1.00  0.00    -0.000 C 
BRANCH  12  13
ATOM     13  C   UNL     1     -21.711  13.143 -23.805  1.00  0.00    -0.000 C 
BRANCH  13  14
ATOM     14  C   UNL     1     -20.884  13.022 -25.096  1.00  0.00    -0.000 C 
BRANCH  14  15
ATOM     15  C   UNL     1     -19.508  13.700 -24.986  1.00  0.00    -0.000 C 
BRANCH  15  16
ATOM     16  C   UNL     1     -18.476  12.825 -24.258  1.00  0.00    -0.000 C 
BRANCH  16  17
ATOM     17  C   UNL     1     -17.123  12.782 -24.984  1.00  0.00    -0.003 C 
ATOM     18  C   UNL     1     -16.267  11.622 -24.484  1.00  0.00     0.004 C 
ENDBRANCH  16  17
ENDBRANCH  15  16
ENDBRANCH  14  15
ENDBRANCH  13  14
ENDBRANCH  12  13
ENDBRANCH  11  12
ENDBRANCH   1  11
TORSDOF 14
ENDMDL
MODEL 8
REMARK VINA RESULT:    -2.481     14.218     16.105
REMARK INTER + INTRA:          -6.446
REMARK INTER:                  -4.801
REMARK INTRA:                  -1.645
REMARK UNBOUND:                -1.935
REMARK SMILES CCCCCCCCCCCCCCCC(=O)[O-]
REMARK SMILES IDX 9 1 10 2 11 3 12 4 13 5 14 6 15 7 16 8 17 9 18 10 8 11 7 12
REMARK SMILES IDX 6 13 5 14 4 15 3 16 2 17 1 18
REMARK H PARENT
REMARK Flexibility Score: inf
ROOT
ATOM      1  C   UNL     1     -22.101  25.658 -18.383  1.00  0.00     0.000 C 
ENDROOT
BRANCH   1   2
ATOM      2  C   UNL     1     -21.191  26.032 -19.568  1.00  0.00     0.000 C 
BRANCH   2   3
ATOM      3  C   UNL     1     -19.681  25.947 -19.277  1.00  0.00     0.000 C 
BRANCH   3   4
ATOM      4  C   UNL     1     -18.838  27.109 -19.840  1.00  0.00     0.000 C 
BRANCH   4   5
ATOM      5  C   UNL     1     -19.492  27.891 -20.993  1.00  0.00     0.000 C 
BRANCH   5   6
ATOM      6  C   UNL     1     -18.991  29.340 -21.091  1.00  0.00     0.006 C 
BRANCH   6   7
ATOM      7  C   UNL     1     -17.678  29.414 -21.876  1.00  0.00     0.053 C 
BRANCH   7   8
ATOM      8  C   UNL     1     -16.809  30.507 -21.342  1.00  0.00     0.041 C 
ATOM      9  O   UNL     1     -17.011  30.971 -20.189  1.00  0.00    -0.550 OA
ATOM     10  O   UNL     1     -15.806  31.049 -22.135  1.00  0.00    -0.550 OA
ENDBRANCH   7   8
ENDBRANCH   6   7
ENDBRANCH   5   6
ENDBRANCH   4   5
ENDBRANCH   3   4
ENDBRANCH   2   3
ENDBRANCH   1   2
BRANCH   1  11
ATOM     11  C   UNL     1     -22.582  26.874 -17.557  1.00  0.00     0.000 C 
BRANCH  11  12
ATOM     12  C   UNL     1     -22.506  28.226 -18.295  1.00  0.00    -0.000 C 
BRANCH  12  13
ATOM     13  C   UNL     1     -23.282  29.389 -17.640  1.00  0.00    -0.000 C 
BRANCH  13  14
ATOM     14  C   UNL     1     -24.360  30.038 -18.524  1.00  0.00    -0.000 C 
BRANCH  14  15
ATOM     15  C   UNL     1     -24.787  29.139 -19.697  1.00  0.00    -0.000 C 
BRANCH  15  16
ATOM     16  C   UNL     1     -24.694  29.855 -21.053  1.00  0.00    -0.000 C 
BRANCH  16  17
ATOM     17  C   UNL     1     -23.353  29.607 -21.759  1.00  0.00    -0.003 C 
ATOM     18  C   UNL     1     -23.122  28.117 -21.993  1.00  0.00     0.004 C 
ENDBRANCH  16  17
ENDBRANCH  15  16
ENDBRANCH  14  15
ENDBRANCH  13  14
ENDBRANCH  12  13
ENDBRANCH  11  12
ENDBRANCH   1  11
TORSDOF 14
ENDMDL
MODEL 9
REMARK VINA RESULT:    -2.459     14.664     16.042
REMARK INTER + INTRA:          -6.406
REMARK INTER:                  -4.291
REMARK INTRA:                  -2.116
REMARK UNBOUND:                -1.935
REMARK SMILES CCCCCCCCCCCCCCCC(=O)[O-]
REMARK SMILES IDX 9 1 10 2 11 3 12 4 13 5 14 6 15 7 16 8 17 9 18 10 8 11 7 12
REMARK SMILES IDX 6 13 5 14 4 15 3 16 2 17 1 18
REMARK H PARENT
REMARK Flexibility Score: inf
ROOT
ATOM      1  C   UNL     1     -24.392  29.979 -18.691  1.00  0.00     0.000 C 
ENDROOT
BRANCH   1   2
ATOM      2  C   UNL     1     -24.428  28.519 -18.198  1.00  0.00     0.000 C 
BRANCH   2   3
ATOM      3  C   UNL     1     -23.074  27.966 -17.716  1.00  0.00     0.000 C 
BRANCH   3   4
ATOM      4  C   UNL     1     -22.007  29.032 -17.396  1.00  0.00     0.000 C 
BRANCH   4   5
ATOM      5  C   UNL     1     -20.554  28.527 -17.411  1.00  0.00     0.000 C 
BRANCH   5   6
ATOM      6  C   UNL     1     -19.536  29.641 -17.694  1.00  0.00     0.006 C 
BRANCH   6   7
ATOM      7  C   UNL     1     -18.111  29.082 -17.746  1.00  0.00     0.053 C 
BRANCH   7   8
ATOM      8  C   UNL     1     -17.264  29.889 -18.677  1.00  0.00     0.041 C 
ATOM      9  O   UNL     1     -17.803  30.650 -19.524  1.00  0.00    -0.550 OA
ATOM     10  O   UNL     1     -15.881  29.765 -18.646  1.00  0.00    -0.550 OA
ENDBRANCH   7   8
ENDBRANCH   6   7
ENDBRANCH   5   6
ENDBRANCH   4   5
ENDBRANCH   3   4
ENDBRANCH   2   3
ENDBRANCH   1   2
BRANCH   1  11
ATOM     11  C   UNL     1     -24.753  30.142 -20.185  1.00  0.00     0.000 C 
BRANCH  11  12
ATOM     12  C   UNL     1     -25.072  28.824 -20.920  1.00  0.00    -0.000 C 
BRANCH  12  13
ATOM     13  C   UNL     1     -23.997  28.338 -21.917  1.00  0.00    -0.000 C 
BRANCH  13  14
ATOM     14  C   UNL     1     -22.601  28.954 -21.727  1.00  0.00    -0.000 C 
BRANCH  14  15
ATOM     15  C   UNL     1     -21.604  27.978 -21.078  1.00  0.00    -0.000 C 
BRANCH  15  16
ATOM     16  C   UNL     1     -20.172  28.533 -21.044  1.00  0.00    -0.000 C 
BRANCH  16  17
ATOM     17  C   UNL     1     -19.110  27.425 -21.082  1.00  0.00    -0.003 C 
ATOM     18  C   UNL     1     -17.846  27.899 -21.793  1.00  0.00     0.004 C 
ENDBRANCH  16  17
ENDBRANCH  15  16
ENDBRANCH  14  15
ENDBRANCH  13  14
ENDBRANCH  12  13
ENDBRANCH  11  12
ENDBRANCH   1  11
TORSDOF 14
ENDMDL
