MODEL 1
REMARK VINA RESULT:    -5.152      0.000      0.000
REMARK INTER + INTRA:          -5.302
REMARK INTER:                  -5.302
REMARK INTRA:                   0.000
REMARK UNBOUND:                 0.000
REMARK SMILES Oc1ccc2[nH]ccc2c1
REMARK SMILES IDX 3 1 4 2 5 3 9 4 8 5 7 6 6 7 10 8 2 9 1 11
REMARK H PARENT 6 10 1 12
REMARK Flexibility Score: inf
ROOT
ATOM      1  C   UNL     1      10.218   9.196  80.502  1.00  0.00     0.048 A 
ATOM      2  C   UNL     1      11.602   8.949  80.526  1.00  0.00     0.030 A 
ATOM      3  C   UNL     1      12.362   9.589  81.503  1.00  0.00     0.046 A 
ATOM      4  C   UNL     1      11.793  10.436  82.416  1.00  0.00     0.003 A 
ATOM      5  C   UNL     1      12.801  10.900  83.232  1.00  0.00     0.028 A 
ATOM      6  C   UNL     1      13.960  10.293  82.758  1.00  0.00     0.083 A 
ATOM      7  N   UNL     1      13.686   9.494  81.701  1.00  0.00    -0.361 N 
ATOM      8  C   UNL     1      10.425  10.703  82.421  1.00  0.00     0.056 A 
ATOM      9  C   UNL     1       9.627  10.070  81.445  1.00  0.00     0.116 A 
ATOM     10  H   UNL     1      14.368   8.922  81.155  1.00  0.00     0.166 HD
ENDROOT
BRANCH   9  11
ATOM     11  O   UNL     1       8.254  10.299  81.399  1.00  0.00    -0.508 OA
ATOM     12  H   UNL     1       7.872  11.140  80.984  1.00  0.00     0.293 HD
ENDBRANCH   9  11
TORSDOF 1
ENDMDL
MODEL 2
REMARK VINA RESULT:    -5.143      3.038      3.848
REMARK INTER + INTRA:          -5.293
REMARK INTER:                  -5.293
REMARK INTRA:                   0.000
REMARK UNBOUND:                 0.000
REMARK SMILES Oc1ccc2[nH]ccc2c1
REMARK SMILES IDX 3 1 4 2 5 3 9 4 8 5 7 6 6 7 10 8 2 9 1 11
REMARK H PARENT 6 10 1 12
REMARK Flexibility Score: inf
ROOT
ATOM      1  C   UNL     1      11.517   9.882  82.094  1.00  0.00     0.048 A 
ATOM      2  C   UNL     1      10.317  10.338  82.670  1.00  0.00     0.030 A 
ATOM      3  C   UNL     1      10.344  11.551  83.357  1.00  0.00     0.046 A 
ATOM      4  C   UNL     1      11.494  12.284  83.476  1.00  0.00     0.003 A 
ATOM      5  C   UNL     1      11.189  13.414  84.203  1.00  0.00     0.028 A 
ATOM      6  C   UNL     1       9.833  13.303  84.495  1.00  0.00     0.083 A 
ATOM      7  N   UNL     1       9.322  12.162  83.976  1.00  0.00    -0.361 N 
ATOM      8  C   UNL     1      12.699  11.862  82.918  1.00  0.00     0.056 A 
ATOM      9  C   UNL     1      12.706  10.638  82.216  1.00  0.00     0.116 A 
ATOM     10  H   UNL     1       8.334  11.830  84.044  1.00  0.00     0.166 HD
ENDROOT
BRANCH   9  11
ATOM     11  O   UNL     1      13.881  10.165  81.637  1.00  0.00    -0.508 OA
ATOM     12  H   UNL     1      14.186   9.207  81.769  1.00  0.00     0.293 HD
ENDBRANCH   9  11
TORSDOF 1
ENDMDL
MODEL 3
REMARK VINA RESULT:    -5.100      0.920      2.044
REMARK INTER + INTRA:          -5.249
REMARK INTER:                  -5.249
REMARK INTRA:                   0.000
REMARK UNBOUND:                 0.000
REMARK SMILES Oc1ccc2[nH]ccc2c1
REMARK SMILES IDX 3 1 4 2 5 3 9 4 8 5 7 6 6 7 10 8 2 9 1 11
REMARK H PARENT 6 10 1 12
REMARK Flexibility Score: inf
ROOT
ATOM      1  C   UNL     1      10.364  10.982  82.858  1.00  0.00     0.048 A 
ATOM      2  C   UNL     1      11.742  11.007  83.139  1.00  0.00     0.030 A 
ATOM      3  C   UNL     1      12.587  10.256  82.325  1.00  0.00     0.046 A 
ATOM      4  C   UNL     1      12.105   9.511  81.281  1.00  0.00     0.003 A 
ATOM      5  C   UNL     1      13.183   8.895  80.683  1.00  0.00     0.028 A 
ATOM      6  C   UNL     1      14.290   9.309  81.415  1.00  0.00     0.083 A 
ATOM      7  N   UNL     1      13.921  10.140  82.417  1.00  0.00    -0.361 N 
ATOM      8  C   UNL     1      10.747   9.464  80.975  1.00  0.00     0.056 A 
ATOM      9  C   UNL     1       9.864  10.214  81.780  1.00  0.00     0.116 A 
ATOM     10  H   UNL     1      14.548  10.597  83.117  1.00  0.00     0.166 HD
ENDROOT
BRANCH   9  11
ATOM     11  O   UNL     1       8.495  10.205  81.522  1.00  0.00    -0.508 OA
ATOM     12  H   UNL     1       8.059   9.451  81.005  1.00  0.00     0.293 HD
ENDBRANCH   9  11
TORSDOF 1
ENDMDL
MODEL 4
REMARK VINA RESULT:    -5.078      2.570      3.617
REMARK INTER + INTRA:          -5.226
REMARK INTER:                  -5.226
REMARK INTRA:                   0.000
REMARK UNBOUND:                 0.000
REMARK SMILES Oc1ccc2[nH]ccc2c1
REMARK SMILES IDX 3 1 4 2 5 3 9 4 8 5 7 6 6 7 10 8 2 9 1 11
REMARK H PARENT 6 10 1 12
REMARK Flexibility Score: inf
ROOT
ATOM      1  C   UNL     1      13.519   8.650  81.501  1.00  0.00     0.048 A 
ATOM      2  C   UNL     1      12.451   8.503  80.597  1.00  0.00     0.030 A 
ATOM      3  C   UNL     1      11.247   9.134  80.901  1.00  0.00     0.046 A 
ATOM      4  C   UNL     1      11.093   9.877  82.041  1.00  0.00     0.003 A 
ATOM      5  C   UNL     1       9.803  10.360  82.047  1.00  0.00     0.028 A 
ATOM      6  C   UNL     1       9.227   9.872  80.879  1.00  0.00     0.083 A 
ATOM      7  N   UNL     1      10.114   9.123  80.182  1.00  0.00    -0.361 N 
ATOM      8  C   UNL     1      12.129  10.043  82.958  1.00  0.00     0.056 A 
ATOM      9  C   UNL     1      13.362   9.417  82.680  1.00  0.00     0.116 A 
ATOM     10  H   UNL     1       9.947   8.639  79.272  1.00  0.00     0.166 HD
ENDROOT
BRANCH   9  11
ATOM     11  O   UNL     1      14.434   9.546  83.559  1.00  0.00    -0.508 OA
ATOM     12  H   UNL     1      14.312   9.446  84.560  1.00  0.00     0.293 HD
ENDBRANCH   9  11
TORSDOF 1
ENDMDL
MODEL 5
REMARK VINA RESULT:    -5.012      5.438      6.098
REMARK INTER + INTRA:          -5.159
REMARK INTER:                  -5.159
REMARK INTRA:                   0.000
REMARK UNBOUND:                 0.000
REMARK SMILES Oc1ccc2[nH]ccc2c1
REMARK SMILES IDX 3 1 4 2 5 3 9 4 8 5 7 6 6 7 10 8 2 9 1 11
REMARK H PARENT 6 10 1 12
REMARK Flexibility Score: inf
ROOT
ATOM      1  C   UNL     1      17.745   9.855  78.792  1.00  0.00     0.048 A 
ATOM      2  C   UNL     1      18.138   9.317  80.031  1.00  0.00     0.030 A 
ATOM      3  C   UNL     1      17.510   9.798  81.179  1.00  0.00     0.046 A 
ATOM      4  C   UNL     1      16.542  10.764  81.118  1.00  0.00     0.003 A 
ATOM      5  C   UNL     1      16.130  11.016  82.408  1.00  0.00     0.028 A 
ATOM      6  C   UNL     1      16.890  10.167  83.205  1.00  0.00     0.083 A 
ATOM      7  N   UNL     1      17.733   9.425  82.449  1.00  0.00    -0.361 N 
ATOM      8  C   UNL     1      16.129  11.318  79.908  1.00  0.00     0.056 A 
ATOM      9  C   UNL     1      16.744  10.853  78.726  1.00  0.00     0.116 A 
ATOM     10  H   UNL     1      18.414   8.710  82.788  1.00  0.00     0.166 HD
ENDROOT
BRANCH   9  11
ATOM     11  O   UNL     1      16.374  11.369  77.487  1.00  0.00    -0.508 OA
ATOM     12  H   UNL     1      17.047  11.823  76.881  1.00  0.00     0.293 HD
ENDBRANCH   9  11
TORSDOF 1
ENDMDL
MODEL 6
REMARK VINA RESULT:    -4.969     11.841     12.782
REMARK INTER + INTRA:          -5.114
REMARK INTER:                  -5.114
REMARK INTRA:                   0.000
REMARK UNBOUND:                 0.000
REMARK SMILES Oc1ccc2[nH]ccc2c1
REMARK SMILES IDX 3 1 4 2 5 3 9 4 8 5 7 6 6 7 10 8 2 9 1 11
REMARK H PARENT 6 10 1 12
REMARK Flexibility Score: inf
ROOT
ATOM      1  C   UNL     1      20.108   3.207  74.783  1.00  0.00     0.048 A 
ATOM      2  C   UNL     1      19.188   4.271  74.763  1.00  0.00     0.030 A 
ATOM      3  C   UNL     1      19.682   5.564  74.922  1.00  0.00     0.046 A 
ATOM      4  C   UNL     1      21.019   5.806  75.094  1.00  0.00     0.003 A 
ATOM      5  C   UNL     1      21.177   7.169  75.222  1.00  0.00     0.028 A 
ATOM      6  C   UNL     1      19.894   7.695  75.117  1.00  0.00     0.083 A 
ATOM      7  N   UNL     1      18.984   6.710  74.934  1.00  0.00    -0.361 N 
ATOM      8  C   UNL     1      21.957   4.777  75.119  1.00  0.00     0.056 A 
ATOM      9  C   UNL     1      21.490   3.455  74.961  1.00  0.00     0.116 A 
ATOM     10  H   UNL     1      17.951   6.823  74.825  1.00  0.00     0.166 HD
ENDROOT
BRANCH   9  11
ATOM     11  O   UNL     1      22.380   2.385  74.977  1.00  0.00    -0.508 OA
ATOM     12  H   UNL     1      22.541   1.818  74.153  1.00  0.00     0.293 HD
ENDBRANCH   9  11
TORSDOF 1
ENDMDL
MODEL 7
REMARK VINA RESULT:    -4.926      2.609      4.074
REMARK INTER + INTRA:          -5.070
REMARK INTER:                  -5.070
REMARK INTRA:                   0.000
REMARK UNBOUND:                 0.000
REMARK SMILES Oc1ccc2[nH]ccc2c1
REMARK SMILES IDX 3 1 4 2 5 3 9 4 8 5 7 6 6 7 10 8 2 9 1 11
REMARK H PARENT 6 10 1 12
REMARK Flexibility Score: inf
ROOT
ATOM      1  C   UNL     1      13.064  10.552  83.133  1.00  0.00     0.048 A 
ATOM      2  C   UNL     1      11.716  10.954  83.150  1.00  0.00     0.030 A 
ATOM      3  C   UNL     1      10.868  10.431  82.176  1.00  0.00     0.046 A 
ATOM      4  C   UNL     1      11.318   9.555  81.226  1.00  0.00     0.003 A 
ATOM      5  C   UNL     1      10.246   9.232  80.422  1.00  0.00     0.028 A 
ATOM      6  C   UNL     1       9.174   9.949  80.942  1.00  0.00     0.083 A 
ATOM      7  N   UNL     1       9.558  10.680  82.014  1.00  0.00    -0.361 N 
ATOM      8  C   UNL     1      12.646   9.136  81.179  1.00  0.00     0.056 A 
ATOM      9  C   UNL     1      13.532   9.646  82.152  1.00  0.00     0.116 A 
ATOM     10  H   UNL     1       8.958  11.308  82.593  1.00  0.00     0.166 HD
ENDROOT
BRANCH   9  11
ATOM     11  O   UNL     1      14.871   9.264  82.156  1.00  0.00    -0.508 OA
ATOM     12  H   UNL     1      15.441   9.325  81.320  1.00  0.00     0.293 HD
ENDBRANCH   9  11
TORSDOF 1
ENDMDL
MODEL 8
REMARK VINA RESULT:    -4.916      4.871      6.035
REMARK INTER + INTRA:          -5.060
REMARK INTER:                  -5.060
REMARK INTRA:                   0.000
REMARK UNBOUND:                 0.000
REMARK SMILES Oc1ccc2[nH]ccc2c1
REMARK SMILES IDX 3 1 4 2 5 3 9 4 8 5 7 6 6 7 10 8 2 9 1 11
REMARK H PARENT 6 10 1 12
REMARK Flexibility Score: inf
ROOT
ATOM      1  C   UNL     1      16.407   9.093  84.250  1.00  0.00     0.048 A 
ATOM      2  C   UNL     1      15.250   9.126  83.451  1.00  0.00     0.030 A 
ATOM      3  C   UNL     1      15.236   9.993  82.360  1.00  0.00     0.046 A 
ATOM      4  C   UNL     1      16.307  10.793  82.063  1.00  0.00     0.003 A 
ATOM      5  C   UNL     1      15.978  11.521  80.940  1.00  0.00     0.028 A 
ATOM      6  C   UNL     1      14.691  11.113  80.606  1.00  0.00     0.083 A 
ATOM      7  N   UNL     1      14.241  10.179  81.477  1.00  0.00    -0.361 N 
ATOM      8  C   UNL     1      17.468  10.785  82.832  1.00  0.00     0.056 A 
ATOM      9  C   UNL     1      17.515   9.918  83.945  1.00  0.00     0.116 A 
ATOM     10  H   UNL     1      13.312   9.704  81.462  1.00  0.00     0.166 HD
ENDROOT
BRANCH   9  11
ATOM     11  O   UNL     1      18.649   9.867  84.751  1.00  0.00    -0.508 OA
ATOM     12  H   UNL     1      18.679   9.292  85.585  1.00  0.00     0.293 HD
ENDBRANCH   9  11
TORSDOF 1
ENDMDL
MODEL 9
REMARK VINA RESULT:    -4.873      9.732     10.791
REMARK INTER + INTRA:          -5.015
REMARK INTER:                  -5.015
REMARK INTRA:                   0.000
REMARK UNBOUND:                 0.000
REMARK SMILES Oc1ccc2[nH]ccc2c1
REMARK SMILES IDX 3 1 4 2 5 3 9 4 8 5 7 6 6 7 10 8 2 9 1 11
REMARK H PARENT 6 10 1 12
REMARK Flexibility Score: inf
ROOT
ATOM      1  C   UNL     1      18.248   4.392  78.827  1.00  0.00     0.048 A 
ATOM      2  C   UNL     1      18.623   5.589  78.190  1.00  0.00     0.030 A 
ATOM      3  C   UNL     1      18.994   5.524  76.849  1.00  0.00     0.046 A 
ATOM      4  C   UNL     1      19.000   4.340  76.160  1.00  0.00     0.003 A 
ATOM      5  C   UNL     1      19.410   4.614  74.874  1.00  0.00     0.028 A 
ATOM      6  C   UNL     1      19.638   5.986  74.849  1.00  0.00     0.083 A 
ATOM      7  N   UNL     1      19.383   6.538  76.058  1.00  0.00    -0.361 N 
ATOM      8  C   UNL     1      18.635   3.137  76.760  1.00  0.00     0.056 A 
ATOM      9  C   UNL     1      18.253   3.168  78.118  1.00  0.00     0.116 A 
ATOM     10  H   UNL     1      19.471   7.545  76.319  1.00  0.00     0.166 HD
ENDROOT
BRANCH   9  11
ATOM     11  O   UNL     1      17.878   1.997  78.772  1.00  0.00    -0.508 OA
ATOM     12  H   UNL     1      18.400   1.645  79.566  1.00  0.00     0.293 HD
ENDBRANCH   9  11
TORSDOF 1
ENDMDL
