MODEL 1
REMARK VINA RESULT:    -3.401      0.000      0.000
REMARK INTER + INTRA:          -4.364
REMARK INTER:                  -4.197
REMARK INTRA:                  -0.167
REMARK UNBOUND:                -0.167
REMARK SMILES CCCCCC=O
REMARK SMILES IDX 4 1 3 2 2 3 1 4 5 5 6 6 7 7
REMARK H PARENT
REMARK Flexibility Score: inf
ROOT
ATOM      1  C   UNL     1      17.927  -5.181 -14.666  1.00  0.00     0.008 C 
ENDROOT
BRANCH   1   2
ATOM      2  C   UNL     1      16.850  -4.436 -13.859  1.00  0.00     0.000 C 
BRANCH   2   3
ATOM      3  C   UNL     1      15.483  -4.435 -14.561  1.00  0.00    -0.003 C 
ATOM      4  C   UNL     1      14.408  -5.171 -13.763  1.00  0.00     0.004 C 
ENDBRANCH   2   3
ENDBRANCH   1   2
BRANCH   1   5
ATOM      5  C   UNL     1      17.913  -6.691 -14.390  1.00  0.00     0.072 C 
BRANCH   5   6
ATOM      6  C   UNL     1      17.687  -7.004 -12.938  1.00  0.00     0.224 C 
ATOM      7  O   UNL     1      18.468  -7.730 -12.344  1.00  0.00    -0.303 OA
ENDBRANCH   5   6
ENDBRANCH   1   5
TORSDOF 4
ENDMDL
MODEL 2
REMARK VINA RESULT:    -3.400      2.720      3.580
REMARK INTER + INTRA:          -4.363
REMARK INTER:                  -4.202
REMARK INTRA:                  -0.161
REMARK UNBOUND:                -0.167
REMARK SMILES CCCCCC=O
REMARK SMILES IDX 4 1 3 2 2 3 1 4 5 5 6 6 7 7
REMARK H PARENT
REMARK Flexibility Score: inf
ROOT
ATOM      1  C   UNL     1      17.776  -5.657 -14.991  1.00  0.00     0.008 C 
ENDROOT
BRANCH   1   2
ATOM      2  C   UNL     1      16.808  -6.603 -14.261  1.00  0.00     0.000 C 
BRANCH   2   3
ATOM      3  C   UNL     1      17.110  -6.713 -12.758  1.00  0.00    -0.003 C 
ATOM      4  C   UNL     1      16.109  -5.948 -11.895  1.00  0.00     0.004 C 
ENDBRANCH   2   3
ENDBRANCH   1   2
BRANCH   1   5
ATOM      5  C   UNL     1      17.300  -4.198 -14.944  1.00  0.00     0.072 C 
BRANCH   5   6
ATOM      6  C   UNL     1      15.821  -4.072 -15.170  1.00  0.00     0.224 C 
ATOM      7  O   UNL     1      15.399  -3.319 -16.034  1.00  0.00    -0.303 OA
ENDBRANCH   5   6
ENDBRANCH   1   5
TORSDOF 4
ENDMDL
MODEL 3
REMARK VINA RESULT:    -3.398      1.069      2.113
REMARK INTER + INTRA:          -4.360
REMARK INTER:                  -4.215
REMARK INTRA:                  -0.145
REMARK UNBOUND:                -0.167
REMARK SMILES CCCCCC=O
REMARK SMILES IDX 4 1 3 2 2 3 1 4 5 5 6 6 7 7
REMARK H PARENT
REMARK Flexibility Score: inf
ROOT
ATOM      1  C   UNL     1      16.393  -4.545 -13.112  1.00  0.00     0.008 C 
ENDROOT
BRANCH   1   2
ATOM      2  C   UNL     1      15.498  -4.567 -14.363  1.00  0.00     0.000 C 
BRANCH   2   3
ATOM      3  C   UNL     1      16.262  -4.189 -15.641  1.00  0.00    -0.003 C 
ATOM      4  C   UNL     1      17.745  -3.924 -15.387  1.00  0.00     0.004 C 
ENDBRANCH   2   3
ENDBRANCH   1   2
BRANCH   1   5
ATOM      5  C   UNL     1      16.464  -5.919 -12.430  1.00  0.00     0.072 C 
BRANCH   5   6
ATOM      6  C   UNL     1      17.412  -6.853 -13.126  1.00  0.00     0.224 C 
ATOM      7  O   UNL     1      18.214  -7.503 -12.473  1.00  0.00    -0.303 OA
ENDBRANCH   5   6
ENDBRANCH   1   5
TORSDOF 4
ENDMDL
MODEL 4
REMARK VINA RESULT:    -3.376      1.919      2.402
REMARK INTER + INTRA:          -4.332
REMARK INTER:                  -4.114
REMARK INTRA:                  -0.218
REMARK UNBOUND:                -0.167
REMARK SMILES CCCCCC=O
REMARK SMILES IDX 4 1 3 2 2 3 1 4 5 5 6 6 7 7
REMARK H PARENT
REMARK Flexibility Score: inf
ROOT
ATOM      1  C   UNL     1      16.672  -6.650 -14.212  1.00  0.00     0.008 C 
ENDROOT
BRANCH   1   2
ATOM      2  C   UNL     1      17.590  -5.766 -15.074  1.00  0.00     0.000 C 
BRANCH   2   3
ATOM      3  C   UNL     1      17.223  -4.277 -14.991  1.00  0.00    -0.003 C 
ATOM      4  C   UNL     1      15.727  -4.025 -15.174  1.00  0.00     0.004 C 
ENDBRANCH   2   3
ENDBRANCH   1   2
BRANCH   1   5
ATOM      5  C   UNL     1      17.086  -6.642 -12.734  1.00  0.00     0.072 C 
BRANCH   5   6
ATOM      6  C   UNL     1      16.094  -5.920 -11.868  1.00  0.00     0.224 C 
ATOM      7  O   UNL     1      14.922  -5.862 -12.204  1.00  0.00    -0.303 OA
ENDBRANCH   5   6
ENDBRANCH   1   5
TORSDOF 4
ENDMDL
MODEL 5
REMARK VINA RESULT:    -3.361      1.802      3.360
REMARK INTER + INTRA:          -4.315
REMARK INTER:                  -4.109
REMARK INTRA:                  -0.206
REMARK UNBOUND:                -0.167
REMARK SMILES CCCCCC=O
REMARK SMILES IDX 4 1 3 2 2 3 1 4 5 5 6 6 7 7
REMARK H PARENT
REMARK Flexibility Score: inf
ROOT
ATOM      1  C   UNL     1      16.862  -4.433 -13.912  1.00  0.00     0.008 C 
ENDROOT
BRANCH   1   2
ATOM      2  C   UNL     1      17.864  -5.295 -14.699  1.00  0.00     0.000 C 
BRANCH   2   3
ATOM      3  C   UNL     1      17.754  -6.788 -14.356  1.00  0.00    -0.003 C 
ATOM      4  C   UNL     1      17.689  -7.047 -12.852  1.00  0.00     0.004 C 
ENDBRANCH   2   3
ENDBRANCH   1   2
BRANCH   1   5
ATOM      5  C   UNL     1      15.477  -4.411 -14.573  1.00  0.00     0.072 C 
BRANCH   5   6
ATOM      6  C   UNL     1      14.450  -5.160 -13.773  1.00  0.00     0.224 C 
ATOM      7  O   UNL     1      14.487  -5.126 -12.553  1.00  0.00    -0.303 OA
ENDBRANCH   5   6
ENDBRANCH   1   5
TORSDOF 4
ENDMDL
MODEL 6
REMARK VINA RESULT:    -3.351      2.542      3.988
REMARK INTER + INTRA:          -4.302
REMARK INTER:                  -4.161
REMARK INTRA:                  -0.142
REMARK UNBOUND:                -0.167
REMARK SMILES CCCCCC=O
REMARK SMILES IDX 4 1 3 2 2 3 1 4 5 5 6 6 7 7
REMARK H PARENT
REMARK Flexibility Score: inf
ROOT
ATOM      1  C   UNL     1      15.525  -6.377 -13.659  1.00  0.00     0.008 C 
ENDROOT
BRANCH   1   2
ATOM      2  C   UNL     1      16.729  -6.165 -12.726  1.00  0.00     0.000 C 
BRANCH   2   3
ATOM      3  C   UNL     1      17.967  -6.959 -13.171  1.00  0.00    -0.003 C 
ATOM      4  C   UNL     1      18.138  -6.988 -14.689  1.00  0.00     0.004 C 
ENDBRANCH   2   3
ENDBRANCH   1   2
BRANCH   1   5
ATOM      5  C   UNL     1      14.860  -5.051 -14.053  1.00  0.00     0.072 C 
BRANCH   5   6
ATOM      6  C   UNL     1      15.791  -4.148 -14.810  1.00  0.00     0.224 C 
ATOM      7  O   UNL     1      15.387  -3.537 -15.786  1.00  0.00    -0.303 OA
ENDBRANCH   5   6
ENDBRANCH   1   5
TORSDOF 4
ENDMDL
MODEL 7
REMARK VINA RESULT:    -3.317      2.408      2.949
REMARK INTER + INTRA:          -4.259
REMARK INTER:                  -4.052
REMARK INTRA:                  -0.207
REMARK UNBOUND:                -0.167
REMARK SMILES CCCCCC=O
REMARK SMILES IDX 4 1 3 2 2 3 1 4 5 5 6 6 7 7
REMARK H PARENT
REMARK Flexibility Score: inf
ROOT
ATOM      1  C   UNL     1      16.526  -6.692 -14.116  1.00  0.00     0.008 C 
ENDROOT
BRANCH   1   2
ATOM      2  C   UNL     1      16.874  -6.384 -12.649  1.00  0.00     0.000 C 
BRANCH   2   3
ATOM      3  C   UNL     1      15.671  -5.849 -11.857  1.00  0.00    -0.003 C 
ATOM      4  C   UNL     1      14.607  -5.215 -12.753  1.00  0.00     0.004 C 
ENDBRANCH   2   3
ENDBRANCH   1   2
BRANCH   1   5
ATOM      5  C   UNL     1      17.522  -6.050 -15.092  1.00  0.00     0.072 C 
BRANCH   5   6
ATOM      6  C   UNL     1      17.418  -4.552 -15.110  1.00  0.00     0.224 C 
ATOM      7  O   UNL     1      16.469  -4.015 -15.659  1.00  0.00    -0.303 OA
ENDBRANCH   5   6
ENDBRANCH   1   5
TORSDOF 4
ENDMDL
MODEL 8
REMARK VINA RESULT:    -3.307      1.819      2.187
REMARK INTER + INTRA:          -4.247
REMARK INTER:                  -4.022
REMARK INTRA:                  -0.225
REMARK UNBOUND:                -0.167
REMARK SMILES CCCCCC=O
REMARK SMILES IDX 4 1 3 2 2 3 1 4 5 5 6 6 7 7
REMARK H PARENT
REMARK Flexibility Score: inf
ROOT
ATOM      1  C   UNL     1      16.856  -5.887 -13.006  1.00  0.00     0.008 C 
ENDROOT
BRANCH   1   2
ATOM      2  C   UNL     1      16.495  -4.457 -13.442  1.00  0.00     0.000 C 
BRANCH   2   3
ATOM      3  C   UNL     1      15.363  -4.425 -14.480  1.00  0.00    -0.003 C 
ATOM      4  C   UNL     1      15.757  -3.698 -15.764  1.00  0.00     0.004 C 
ENDBRANCH   2   3
ENDBRANCH   1   2
BRANCH   1   5
ATOM      5  C   UNL     1      16.797  -6.879 -14.176  1.00  0.00     0.072 C 
BRANCH   5   6
ATOM      6  C   UNL     1      18.095  -6.954 -14.927  1.00  0.00     0.224 C 
ATOM      7  O   UNL     1      18.199  -6.414 -16.017  1.00  0.00    -0.303 OA
ENDBRANCH   5   6
ENDBRANCH   1   5
TORSDOF 4
ENDMDL
MODEL 9
REMARK VINA RESULT:    -3.298      1.211      1.455
REMARK INTER + INTRA:          -4.236
REMARK INTER:                  -4.079
REMARK INTRA:                  -0.157
REMARK UNBOUND:                -0.167
REMARK SMILES CCCCCC=O
REMARK SMILES IDX 4 1 3 2 2 3 1 4 5 5 6 6 7 7
REMARK H PARENT
REMARK Flexibility Score: inf
ROOT
ATOM      1  C   UNL     1      17.506  -6.127 -14.589  1.00  0.00     0.008 C 
ENDROOT
BRANCH   1   2
ATOM      2  C   UNL     1      16.191  -6.759 -14.102  1.00  0.00     0.000 C 
BRANCH   2   3
ATOM      3  C   UNL     1      15.140  -5.708 -13.712  1.00  0.00    -0.003 C 
ATOM      4  C   UNL     1      14.912  -5.631 -12.203  1.00  0.00     0.004 C 
ENDBRANCH   2   3
ENDBRANCH   1   2
BRANCH   1   5
ATOM      5  C   UNL     1      18.729  -6.720 -13.876  1.00  0.00     0.072 C 
BRANCH   5   6
ATOM      6  C   UNL     1      18.355  -7.473 -12.631  1.00  0.00     0.224 C 
ATOM      7  O   UNL     1      19.014  -8.441 -12.285  1.00  0.00    -0.303 OA
ENDBRANCH   5   6
ENDBRANCH   1   5
TORSDOF 4
ENDMDL
