MODEL 1
REMARK VINA RESULT:    -3.521      0.000      0.000
REMARK INTER + INTRA:          -5.177
REMARK INTER:                  -4.756
REMARK INTRA:                  -0.421
REMARK UNBOUND:                -0.421
REMARK SMILES CCCCCCCC(=O)[O-]
REMARK SMILES IDX 5 1 6 2 7 3 8 4 9 5 10 6 4 7 3 8 2 9 1 10
REMARK H PARENT
REMARK Flexibility Score: inf
ROOT
ATOM      1  C   UNL     1      65.190 -15.937  13.036  1.00  0.00     0.000 C 
ENDROOT
BRANCH   1   2
ATOM      2  C   UNL     1      65.603 -14.521  12.620  1.00  0.00     0.006 C 
BRANCH   2   3
ATOM      3  C   UNL     1      65.925 -14.459  11.125  1.00  0.00     0.053 C 
BRANCH   3   4
ATOM      4  C   UNL     1      67.259 -15.077  10.850  1.00  0.00     0.041 C 
ATOM      5  O   UNL     1      68.255 -14.782  11.563  1.00  0.00    -0.550 OA
ATOM      6  O   UNL     1      67.394 -16.018   9.837  1.00  0.00    -0.550 OA
ENDBRANCH   3   4
ENDBRANCH   2   3
ENDBRANCH   1   2
BRANCH   1   7
ATOM      7  C   UNL     1      65.960 -16.393  14.282  1.00  0.00     0.000 C 
BRANCH   7   8
ATOM      8  C   UNL     1      66.937 -15.305  14.752  1.00  0.00    -0.000 C 
BRANCH   8   9
ATOM      9  C   UNL     1      68.245 -15.888  15.311  1.00  0.00    -0.003 C 
ATOM     10  C   UNL     1      68.042 -16.646  16.622  1.00  0.00     0.004 C 
ENDBRANCH   8   9
ENDBRANCH   7   8
ENDBRANCH   1   7
TORSDOF 6
ENDMDL
MODEL 2
REMARK VINA RESULT:    -3.449      1.310      1.548
REMARK INTER + INTRA:          -5.080
REMARK INTER:                  -4.718
REMARK INTRA:                  -0.362
REMARK UNBOUND:                -0.421
REMARK SMILES CCCCCCCC(=O)[O-]
REMARK SMILES IDX 5 1 6 2 7 3 8 4 9 5 10 6 4 7 3 8 2 9 1 10
REMARK H PARENT
REMARK Flexibility Score: inf
ROOT
ATOM      1  C   UNL     1      65.195 -16.239  13.754  1.00  0.00     0.000 C 
ENDROOT
BRANCH   1   2
ATOM      2  C   UNL     1      66.027 -16.687  12.547  1.00  0.00     0.006 C 
BRANCH   2   3
ATOM      3  C   UNL     1      65.501 -16.061  11.253  1.00  0.00     0.053 C 
BRANCH   3   4
ATOM      4  C   UNL     1      66.189 -14.760  10.983  1.00  0.00     0.041 C 
ATOM      5  O   UNL     1      67.355 -14.746  10.508  1.00  0.00    -0.550 OA
ATOM      6  O   UNL     1      65.523 -13.561  11.208  1.00  0.00    -0.550 OA
ENDBRANCH   3   4
ENDBRANCH   2   3
ENDBRANCH   1   2
BRANCH   1   7
ATOM      7  C   UNL     1      66.065 -16.122  15.012  1.00  0.00     0.000 C 
BRANCH   7   8
ATOM      8  C   UNL     1      67.405 -15.444  14.692  1.00  0.00    -0.000 C 
BRANCH   8   9
ATOM      9  C   UNL     1      68.542 -15.920  15.611  1.00  0.00    -0.003 C 
ATOM     10  C   UNL     1      68.061 -16.879  16.699  1.00  0.00     0.004 C 
ENDBRANCH   8   9
ENDBRANCH   7   8
ENDBRANCH   1   7
TORSDOF 6
ENDMDL
MODEL 3
REMARK VINA RESULT:    -3.427      2.291      4.313
REMARK INTER + INTRA:          -5.050
REMARK INTER:                  -4.587
REMARK INTRA:                  -0.464
REMARK UNBOUND:                -0.421
REMARK SMILES CCCCCCCC(=O)[O-]
REMARK SMILES IDX 5 1 6 2 7 3 8 4 9 5 10 6 4 7 3 8 2 9 1 10
REMARK H PARENT
REMARK Flexibility Score: inf
ROOT
ATOM      1  C   UNL     1      65.246 -15.604  13.147  1.00  0.00     0.000 C 
ENDROOT
BRANCH   1   2
ATOM      2  C   UNL     1      65.947 -15.990  14.454  1.00  0.00     0.006 C 
BRANCH   2   3
ATOM      3  C   UNL     1      67.252 -15.208  14.630  1.00  0.00     0.053 C 
BRANCH   3   4
ATOM      4  C   UNL     1      68.198 -15.957  15.513  1.00  0.00     0.041 C 
ATOM      5  O   UNL     1      69.431 -15.971  15.256  1.00  0.00    -0.550 OA
ATOM      6  O   UNL     1      67.726 -16.603  16.649  1.00  0.00    -0.550 OA
ENDBRANCH   3   4
ENDBRANCH   2   3
ENDBRANCH   1   2
BRANCH   1   7
ATOM      7  C   UNL     1      65.838 -14.315  12.563  1.00  0.00     0.000 C 
BRANCH   7   8
ATOM      8  C   UNL     1      66.026 -14.435  11.044  1.00  0.00    -0.000 C 
BRANCH   8   9
ATOM      9  C   UNL     1      67.108 -15.458  10.662  1.00  0.00    -0.003 C 
ATOM     10  C   UNL     1      68.507 -15.033  11.108  1.00  0.00     0.004 C 
ENDBRANCH   8   9
ENDBRANCH   7   8
ENDBRANCH   1   7
TORSDOF 6
ENDMDL
MODEL 4
REMARK VINA RESULT:    -3.250      2.440      4.409
REMARK INTER + INTRA:          -4.811
REMARK INTER:                  -4.394
REMARK INTRA:                  -0.417
REMARK UNBOUND:                -0.421
REMARK SMILES CCCCCCCC(=O)[O-]
REMARK SMILES IDX 5 1 6 2 7 3 8 4 9 5 10 6 4 7 3 8 2 9 1 10
REMARK H PARENT
REMARK Flexibility Score: inf
ROOT
ATOM      1  C   UNL     1      65.918 -14.667  11.146  1.00  0.00     0.000 C 
ENDROOT
BRANCH   1   2
ATOM      2  C   UNL     1      65.836 -14.199  12.603  1.00  0.00     0.006 C 
BRANCH   2   3
ATOM      3  C   UNL     1      67.189 -14.347  13.305  1.00  0.00     0.053 C 
BRANCH   3   4
ATOM      4  C   UNL     1      67.071 -15.260  14.483  1.00  0.00     0.041 C 
ATOM      5  O   UNL     1      68.078 -15.511  15.196  1.00  0.00    -0.550 OA
ATOM      6  O   UNL     1      65.836 -15.798  14.826  1.00  0.00    -0.550 OA
ENDBRANCH   3   4
ENDBRANCH   2   3
ENDBRANCH   1   2
BRANCH   1   7
ATOM      7  C   UNL     1      65.776 -16.191  11.047  1.00  0.00     0.000 C 
BRANCH   7   8
ATOM      8  C   UNL     1      67.063 -16.830  10.506  1.00  0.00    -0.000 C 
BRANCH   8   9
ATOM      9  C   UNL     1      67.953 -15.823   9.760  1.00  0.00    -0.003 C 
ATOM     10  C   UNL     1      68.621 -16.424   8.524  1.00  0.00     0.004 C 
ENDBRANCH   8   9
ENDBRANCH   7   8
ENDBRANCH   1   7
TORSDOF 6
ENDMDL
MODEL 5
REMARK VINA RESULT:    -3.172      8.887     10.027
REMARK INTER + INTRA:          -4.706
REMARK INTER:                  -4.386
REMARK INTRA:                  -0.320
REMARK UNBOUND:                -0.421
REMARK SMILES CCCCCCCC(=O)[O-]
REMARK SMILES IDX 5 1 6 2 7 3 8 4 9 5 10 6 4 7 3 8 2 9 1 10
REMARK H PARENT
REMARK Flexibility Score: inf
ROOT
ATOM      1  C   UNL     1      55.670 -16.370  11.410  1.00  0.00     0.000 C 
ENDROOT
BRANCH   1   2
ATOM      2  C   UNL     1      55.939 -16.238   9.907  1.00  0.00     0.006 C 
BRANCH   2   3
ATOM      3  C   UNL     1      57.373 -15.772   9.645  1.00  0.00     0.053 C 
BRANCH   3   4
ATOM      4  C   UNL     1      57.375 -14.467   8.914  1.00  0.00     0.041 C 
ATOM      5  O   UNL     1      58.043 -14.333   7.854  1.00  0.00    -0.550 OA
ATOM      6  O   UNL     1      56.600 -13.410   9.375  1.00  0.00    -0.550 OA
ENDBRANCH   3   4
ENDBRANCH   2   3
ENDBRANCH   1   2
BRANCH   1   7
ATOM      7  C   UNL     1      56.915 -16.873  12.151  1.00  0.00     0.000 C 
BRANCH   7   8
ATOM      8  C   UNL     1      56.722 -16.787  13.673  1.00  0.00    -0.000 C 
BRANCH   8   9
ATOM      9  C   UNL     1      58.007 -16.376  14.408  1.00  0.00    -0.003 C 
ATOM     10  C   UNL     1      59.237 -16.384  13.501  1.00  0.00     0.004 C 
ENDBRANCH   8   9
ENDBRANCH   7   8
ENDBRANCH   1   7
TORSDOF 6
ENDMDL
MODEL 6
REMARK VINA RESULT:    -3.167     19.891     20.922
REMARK INTER + INTRA:          -4.699
REMARK INTER:                  -4.266
REMARK INTRA:                  -0.433
REMARK UNBOUND:                -0.421
REMARK SMILES CCCCCCCC(=O)[O-]
REMARK SMILES IDX 5 1 6 2 7 3 8 4 9 5 10 6 4 7 3 8 2 9 1 10
REMARK H PARENT
REMARK Flexibility Score: inf
ROOT
ATOM      1  C   UNL     1      57.326  -0.108  21.342  1.00  0.00     0.000 C 
ENDROOT
BRANCH   1   2
ATOM      2  C   UNL     1      57.232  -1.410  22.144  1.00  0.00     0.006 C 
BRANCH   2   3
ATOM      3  C   UNL     1      58.618  -1.882  22.590  1.00  0.00     0.053 C 
BRANCH   3   4
ATOM      4  C   UNL     1      58.755  -1.775  24.076  1.00  0.00     0.041 C 
ATOM      5  O   UNL     1      57.784  -1.385  24.777  1.00  0.00    -0.550 OA
ATOM      6  O   UNL     1      59.940  -2.154  24.695  1.00  0.00    -0.550 OA
ENDBRANCH   3   4
ENDBRANCH   2   3
ENDBRANCH   1   2
BRANCH   1   7
ATOM      7  C   UNL     1      56.574   1.029  22.046  1.00  0.00     0.000 C 
BRANCH   7   8
ATOM      8  C   UNL     1      55.378   0.487  22.842  1.00  0.00    -0.000 C 
BRANCH   8   9
ATOM      9  C   UNL     1      54.042   1.094  22.386  1.00  0.00    -0.003 C 
ATOM     10  C   UNL     1      53.458   0.387  21.164  1.00  0.00     0.004 C 
ENDBRANCH   8   9
ENDBRANCH   7   8
ENDBRANCH   1   7
TORSDOF 6
ENDMDL
MODEL 7
REMARK VINA RESULT:    -3.143      9.065     10.774
REMARK INTER + INTRA:          -4.666
REMARK INTER:                  -4.266
REMARK INTRA:                  -0.400
REMARK UNBOUND:                -0.421
REMARK SMILES CCCCCCCC(=O)[O-]
REMARK SMILES IDX 5 1 6 2 7 3 8 4 9 5 10 6 4 7 3 8 2 9 1 10
REMARK H PARENT
REMARK Flexibility Score: inf
ROOT
ATOM      1  C   UNL     1      55.840 -16.070  11.099  1.00  0.00     0.000 C 
ENDROOT
BRANCH   1   2
ATOM      2  C   UNL     1      56.601 -17.064  11.984  1.00  0.00     0.006 C 
BRANCH   2   3
ATOM      3  C   UNL     1      58.110 -16.811  11.923  1.00  0.00     0.053 C 
BRANCH   3   4
ATOM      4  C   UNL     1      58.656 -16.569  13.294  1.00  0.00     0.041 C 
ATOM      5  O   UNL     1      59.898 -16.613  13.500  1.00  0.00    -0.550 OA
ATOM      6  O   UNL     1      57.798 -16.244  14.338  1.00  0.00    -0.550 OA
ENDBRANCH   3   4
ENDBRANCH   2   3
ENDBRANCH   1   2
BRANCH   1   7
ATOM      7  C   UNL     1      55.699 -16.602   9.667  1.00  0.00     0.000 C 
BRANCH   7   8
ATOM      8  C   UNL     1      55.789 -15.459   8.645  1.00  0.00    -0.000 C 
BRANCH   8   9
ATOM      9  C   UNL     1      56.358 -14.167   9.253  1.00  0.00    -0.003 C 
ATOM     10  C   UNL     1      57.794 -13.887   8.812  1.00  0.00     0.004 C 
ENDBRANCH   8   9
ENDBRANCH   7   8
ENDBRANCH   1   7
TORSDOF 6
ENDMDL
MODEL 8
REMARK VINA RESULT:    -3.088      1.730      2.647
REMARK INTER + INTRA:          -4.592
REMARK INTER:                  -4.316
REMARK INTRA:                  -0.276
REMARK UNBOUND:                -0.421
REMARK SMILES CCCCCCCC(=O)[O-]
REMARK SMILES IDX 5 1 6 2 7 3 8 4 9 5 10 6 4 7 3 8 2 9 1 10
REMARK H PARENT
REMARK Flexibility Score: inf
ROOT
ATOM      1  C   UNL     1      68.680 -16.904  13.424  1.00  0.00     0.000 C 
ENDROOT
BRANCH   1   2
ATOM      2  C   UNL     1      67.667 -16.529  12.338  1.00  0.00     0.006 C 
BRANCH   2   3
ATOM      3  C   UNL     1      67.515 -15.009  12.228  1.00  0.00     0.053 C 
BRANCH   3   4
ATOM      4  C   UNL     1      66.215 -14.658  11.578  1.00  0.00     0.041 C 
ATOM      5  O   UNL     1      65.681 -15.449  10.756  1.00  0.00    -0.550 OA
ATOM      6  O   UNL     1      65.565 -13.476  11.915  1.00  0.00    -0.550 OA
ENDBRANCH   3   4
ENDBRANCH   2   3
ENDBRANCH   1   2
BRANCH   1   7
ATOM      7  C   UNL     1      68.583 -15.951  14.622  1.00  0.00     0.000 C 
BRANCH   7   8
ATOM      8  C   UNL     1      69.141 -16.608  15.894  1.00  0.00    -0.000 C 
BRANCH   8   9
ATOM      9  C   UNL     1      68.081 -16.753  16.997  1.00  0.00    -0.003 C 
ATOM     10  C   UNL     1      66.704 -17.125  16.449  1.00  0.00     0.004 C 
ENDBRANCH   8   9
ENDBRANCH   7   8
ENDBRANCH   1   7
TORSDOF 6
ENDMDL
MODEL 9
REMARK VINA RESULT:    -3.009      2.194      4.187
REMARK INTER + INTRA:          -4.485
REMARK INTER:                  -3.891
REMARK INTRA:                  -0.595
REMARK UNBOUND:                -0.421
REMARK SMILES CCCCCCCC(=O)[O-]
REMARK SMILES IDX 5 1 6 2 7 3 8 4 9 5 10 6 4 7 3 8 2 9 1 10
REMARK H PARENT
REMARK Flexibility Score: inf
ROOT
ATOM      1  C   UNL     1      68.133 -17.005  13.168  1.00  0.00     0.000 C 
ENDROOT
BRANCH   1   2
ATOM      2  C   UNL     1      68.117 -15.575  13.720  1.00  0.00     0.006 C 
BRANCH   2   3
ATOM      3  C   UNL     1      66.736 -15.218  14.278  1.00  0.00     0.053 C 
BRANCH   3   4
ATOM      4  C   UNL     1      65.751 -15.042  13.166  1.00  0.00     0.041 C 
ATOM      5  O   UNL     1      64.817 -15.872  13.008  1.00  0.00    -0.550 OA
ATOM      6  O   UNL     1      65.834 -13.933  12.332  1.00  0.00    -0.550 OA
ENDBRANCH   3   4
ENDBRANCH   2   3
ENDBRANCH   1   2
BRANCH   1   7
ATOM      7  C   UNL     1      68.805 -17.056  11.790  1.00  0.00     0.000 C 
BRANCH   7   8
ATOM      8  C   UNL     1      67.769 -16.898  10.667  1.00  0.00    -0.000 C 
BRANCH   8   9
ATOM      9  C   UNL     1      67.883 -15.546   9.946  1.00  0.00    -0.003 C 
ATOM     10  C   UNL     1      69.233 -14.867  10.170  1.00  0.00     0.004 C 
ENDBRANCH   8   9
ENDBRANCH   7   8
ENDBRANCH   1   7
TORSDOF 6
ENDMDL
