MODEL 1
REMARK VINA RESULT:    -3.292      0.000      0.000
REMARK INTER + INTRA:          -5.399
REMARK INTER:                  -5.023
REMARK INTRA:                  -0.375
REMARK UNBOUND:                -0.375
REMARK SMILES CC1=CCC[C@@H](C)C(=O)C[C@@H](C(C)C)C(=O)C1
REMARK SMILES IDX 8 1 9 2 6 3 7 4 5 5 4 6 3 7 2 8 1 9 10 11 11 12 15 13 16 14
REMARK SMILES IDX 17 15 12 17 13 18 14 19
REMARK H PARENT
REMARK Flexibility Score: 70.00
ROOT
ATOM      1  C   UNL     1      83.705  36.173  30.183  1.00  0.00     0.136 C 
ATOM      2  O   UNL     1      82.908  36.102  29.260  1.00  0.00    -0.299 OA
ENDROOT
BRANCH   1   3
ATOM      3  C   UNL     1      84.667  37.349  30.227  1.00  0.00     0.053 C 
ATOM      4  C   UNL     1      83.945  38.603  30.738  1.00  0.00     0.016 C 
BRANCH   3   5
ATOM      5  C   UNL     1      85.338  37.613  28.857  1.00  0.00     0.015 C 
BRANCH   5   6
ATOM      6  C   UNL     1      86.338  36.526  28.406  1.00  0.00     0.028 C 
BRANCH   6   7
ATOM      7  C   UNL     1      85.764  35.441  27.524  1.00  0.00    -0.028 C 
ATOM      8  C   UNL     1      85.727  34.119  27.811  1.00  0.00    -0.070 CG0
ATOM      9  C   UNL     1      85.067  33.197  26.815  1.00  0.00     0.039 C 
ATOM     10  G   UNL     1      86.295  33.528  29.086  1.00  0.00     0.000 G0
ENDBRANCH   6   7
ENDBRANCH   5   6
ENDBRANCH   3   5
ENDBRANCH   1   3
BRANCH   1  11
ATOM     11  C   UNL     1      83.739  35.049  31.198  1.00  0.00     0.087 C 
BRANCH  11  12
ATOM     12  C   UNL     1      85.144  34.392  31.297  1.00  0.00     0.066 C 
BRANCH  12  13
ATOM     13  C   UNL     1      85.283  33.359  30.188  1.00  0.00     0.140 C 
ATOM     14  O   UNL     1      84.605  32.341  30.235  1.00  0.00    -0.299 OA
BRANCH  13  15
ATOM     15  C   UNL     1      86.295  33.495  29.078  1.00  0.00     0.106 CG0
ATOM     16  G   UNL     1      85.722  34.131  27.826  1.00  0.00     0.000 G0
ENDBRANCH  13  15
ENDBRANCH  12  13
BRANCH  12  17
ATOM     17  C   UNL     1      85.409  33.738  32.693  1.00  0.00    -0.006 C 
ATOM     18  C   UNL     1      84.658  34.459  33.830  1.00  0.00     0.008 C 
ATOM     19  C   UNL     1      86.914  33.731  33.028  1.00  0.00     0.008 C 
ENDBRANCH  12  17
ENDBRANCH  11  12
ENDBRANCH   1  11
TORSDOF 1
ENDMDL
MODEL 2
REMARK VINA RESULT:    -3.156      4.790      7.885
REMARK INTER + INTRA:          -5.192
REMARK INTER:                  -4.784
REMARK INTRA:                  -0.408
REMARK UNBOUND:                -0.375
REMARK SMILES CC1=CCC[C@@H](C)C(=O)C[C@@H](C(C)C)C(=O)C1
REMARK SMILES IDX 8 1 9 2 6 3 7 4 5 5 4 6 3 7 2 8 1 9 10 11 11 12 15 13 16 14
REMARK SMILES IDX 17 15 12 17 13 18 14 19
REMARK H PARENT
REMARK Flexibility Score: 70.00
ROOT
ATOM      1  C   UNL     1      84.869  34.272  23.574  1.00  0.00     0.136 C 
ATOM      2  O   UNL     1      84.652  33.465  24.465  1.00  0.00    -0.299 OA
ENDROOT
BRANCH   1   3
ATOM      3  C   UNL     1      86.262  34.866  23.452  1.00  0.00     0.053 C 
ATOM      4  C   UNL     1      87.239  33.814  22.908  1.00  0.00     0.016 C 
BRANCH   3   5
ATOM      5  C   UNL     1      86.770  35.457  24.789  1.00  0.00     0.015 C 
BRANCH   5   6
ATOM      6  C   UNL     1      86.056  36.751  25.238  1.00  0.00     0.028 C 
BRANCH   6   7
ATOM      7  C   UNL     1      85.011  36.575  26.316  1.00  0.00    -0.028 C 
ATOM      8  C   UNL     1      83.702  36.904  26.216  1.00  0.00    -0.070 CG0
ATOM      9  C   UNL     1      82.807  36.607  27.393  1.00  0.00     0.039 C 
ATOM     10  G   UNL     1      83.094  37.532  24.977  1.00  0.00     0.000 G0
ENDBRANCH   6   7
ENDBRANCH   5   6
ENDBRANCH   3   5
ENDBRANCH   1   3
BRANCH   1  11
ATOM     11  C   UNL     1      83.719  34.690  22.680  1.00  0.00     0.087 C 
BRANCH  11  12
ATOM     12  C   UNL     1      83.484  36.226  22.710  1.00  0.00     0.066 C 
BRANCH  12  13
ATOM     13  C   UNL     1      82.639  36.570  23.929  1.00  0.00     0.140 C 
ATOM     14  O   UNL     1      81.516  36.094  24.027  1.00  0.00    -0.299 OA
BRANCH  13  15
ATOM     15  C   UNL     1      83.096  37.553  24.979  1.00  0.00     0.106 CG0
ATOM     16  G   UNL     1      83.695  36.882  26.199  1.00  0.00     0.000 G0
ENDBRANCH  13  15
ENDBRANCH  12  13
BRANCH  12  17
ATOM     17  C   UNL     1      82.808  36.760  21.405  1.00  0.00    -0.006 C 
ATOM     18  C   UNL     1      83.330  36.049  20.142  1.00  0.00     0.008 C 
ATOM     19  C   UNL     1      83.034  38.277  21.241  1.00  0.00     0.008 C 
ENDBRANCH  12  17
ENDBRANCH  11  12
ENDBRANCH   1  11
TORSDOF 1
ENDMDL
MODEL 3
REMARK VINA RESULT:    -3.118      3.652      5.939
REMARK INTER + INTRA:          -5.134
REMARK INTER:                  -4.809
REMARK INTRA:                  -0.324
REMARK UNBOUND:                -0.375
REMARK SMILES CC1=CCC[C@@H](C)C(=O)C[C@@H](C(C)C)C(=O)C1
REMARK SMILES IDX 8 1 9 2 6 3 7 4 5 5 4 6 3 7 2 8 1 9 10 11 11 12 15 13 16 14
REMARK SMILES IDX 17 15 12 17 13 18 14 19
REMARK H PARENT
REMARK Flexibility Score: 70.00
ROOT
ATOM      1  C   UNL     1      85.873  35.247  23.818  1.00  0.00     0.136 C 
ATOM      2  O   UNL     1      84.802  35.018  23.278  1.00  0.00    -0.299 OA
ENDROOT
BRANCH   1   3
ATOM      3  C   UNL     1      86.942  34.166  23.805  1.00  0.00     0.053 C 
ATOM      4  C   UNL     1      87.583  34.074  22.413  1.00  0.00     0.016 C 
BRANCH   3   5
ATOM      5  C   UNL     1      86.396  32.791  24.258  1.00  0.00     0.015 C 
BRANCH   5   6
ATOM      6  C   UNL     1      85.920  32.734  25.726  1.00  0.00     0.028 C 
BRANCH   6   7
ATOM      7  C   UNL     1      84.426  32.846  25.930  1.00  0.00    -0.028 C 
ATOM      8  C   UNL     1      83.794  33.774  26.684  1.00  0.00    -0.070 CG0
ATOM      9  C   UNL     1      82.286  33.745  26.724  1.00  0.00     0.039 C 
ATOM     10  G   UNL     1      84.523  34.847  27.469  1.00  0.00     0.000 G0
ENDBRANCH   6   7
ENDBRANCH   5   6
ENDBRANCH   3   5
ENDBRANCH   1   3
BRANCH   1  11
ATOM     11  C   UNL     1      86.055  36.570  24.533  1.00  0.00     0.087 C 
BRANCH  11  12
ATOM     12  C   UNL     1      86.193  36.390  26.070  1.00  0.00     0.066 C 
BRANCH  12  13
ATOM     13  C   UNL     1      84.818  36.099  26.656  1.00  0.00     0.140 C 
ATOM     14  O   UNL     1      83.928  36.929  26.525  1.00  0.00    -0.299 OA
BRANCH  13  15
ATOM     15  C   UNL     1      84.533  34.866  27.477  1.00  0.00     0.106 CG0
ATOM     16  G   UNL     1      83.795  33.793  26.701  1.00  0.00     0.000 G0
ENDBRANCH  13  15
ENDBRANCH  12  13
BRANCH  12  17
ATOM     17  C   UNL     1      86.836  37.632  26.770  1.00  0.00    -0.006 C 
ATOM     18  C   UNL     1      88.189  38.021  26.143  1.00  0.00     0.008 C 
ATOM     19  C   UNL     1      87.049  37.376  28.275  1.00  0.00     0.008 C 
ENDBRANCH  12  17
ENDBRANCH  11  12
ENDBRANCH   1  11
TORSDOF 1
ENDMDL
MODEL 4
REMARK VINA RESULT:    -3.063      3.188      5.905
REMARK INTER + INTRA:          -5.050
REMARK INTER:                  -4.955
REMARK INTRA:                  -0.096
REMARK UNBOUND:                -0.375
REMARK SMILES CC1=CCC[C@@H](C)C(=O)C[C@@H](C(C)C)C(=O)C1
REMARK SMILES IDX 8 1 9 2 6 3 7 4 5 5 4 6 3 7 2 8 1 9 10 11 11 12 15 13 16 14
REMARK SMILES IDX 17 15 12 17 13 18 14 19
REMARK H PARENT
REMARK Flexibility Score: 70.00
ROOT
ATOM      1  C   UNL     1      87.596  37.564  25.612  1.00  0.00     0.136 C 
ATOM      2  O   UNL     1      87.885  37.947  24.489  1.00  0.00    -0.299 OA
ENDROOT
BRANCH   1   3
ATOM      3  C   UNL     1      88.032  38.403  26.802  1.00  0.00     0.053 C 
ATOM      4  C   UNL     1      89.512  38.786  26.665  1.00  0.00     0.016 C 
BRANCH   3   5
ATOM      5  C   UNL     1      87.764  37.695  28.153  1.00  0.00     0.015 C 
BRANCH   5   6
ATOM      6  C   UNL     1      86.518  38.201  28.913  1.00  0.00     0.028 C 
BRANCH   6   7
ATOM      7  C   UNL     1      85.699  37.133  29.601  1.00  0.00    -0.028 C 
ATOM      8  C   UNL     1      84.619  36.502  29.084  1.00  0.00    -0.070 CG0
ATOM      9  C   UNL     1      83.962  35.428  29.915  1.00  0.00     0.039 C 
ATOM     10  G   UNL     1      84.055  36.809  27.711  1.00  0.00     0.000 G0
ENDBRANCH   6   7
ENDBRANCH   5   6
ENDBRANCH   3   5
ENDBRANCH   1   3
BRANCH   1  11
ATOM     11  C   UNL     1      86.878  36.239  25.763  1.00  0.00     0.087 C 
BRANCH  11  12
ATOM     12  C   UNL     1      85.364  36.354  25.433  1.00  0.00     0.066 C 
BRANCH  12  13
ATOM     13  C   UNL     1      84.561  35.866  26.632  1.00  0.00     0.140 C 
ATOM     14  O   UNL     1      84.243  34.686  26.694  1.00  0.00    -0.299 OA
BRANCH  13  15
ATOM     15  C   UNL     1      84.059  36.802  27.704  1.00  0.00     0.106 CG0
ATOM     16  G   UNL     1      84.632  36.497  29.074  1.00  0.00     0.000 G0
ENDBRANCH  13  15
ENDBRANCH  12  13
BRANCH  12  17
ATOM     17  C   UNL     1      84.963  35.561  24.146  1.00  0.00    -0.006 C 
ATOM     18  C   UNL     1      86.189  35.019  23.386  1.00  0.00     0.008 C 
ATOM     19  C   UNL     1      84.141  36.442  23.183  1.00  0.00     0.008 C 
ENDBRANCH  12  17
ENDBRANCH  11  12
ENDBRANCH   1  11
TORSDOF 1
ENDMDL
MODEL 5
REMARK VINA RESULT:    -3.047      8.371     10.388
REMARK INTER + INTRA:          -5.025
REMARK INTER:                  -4.873
REMARK INTRA:                  -0.152
REMARK UNBOUND:                -0.375
REMARK SMILES CC1=CCC[C@@H](C)C(=O)C[C@@H](C(C)C)C(=O)C1
REMARK SMILES IDX 8 1 9 2 6 3 7 4 5 5 4 6 3 7 2 8 1 9 10 11 11 12 15 13 16 14
REMARK SMILES IDX 17 15 12 17 13 18 14 19
REMARK H PARENT
REMARK Flexibility Score: 70.00
ROOT
ATOM      1  C   UNL     1      79.904  43.078  24.865  1.00  0.00     0.136 C 
ATOM      2  O   UNL     1      78.890  42.619  24.361  1.00  0.00    -0.299 OA
ENDROOT
BRANCH   1   3
ATOM      3  C   UNL     1      81.226  42.372  24.612  1.00  0.00     0.053 C 
ATOM      4  C   UNL     1      81.783  42.768  23.239  1.00  0.00     0.016 C 
BRANCH   3   5
ATOM      5  C   UNL     1      81.108  40.834  24.742  1.00  0.00     0.015 C 
BRANCH   5   6
ATOM      6  C   UNL     1      81.412  40.276  26.149  1.00  0.00     0.028 C 
BRANCH   6   7
ATOM      7  C   UNL     1      80.224  39.711  26.895  1.00  0.00    -0.028 C 
ATOM      8  C   UNL     1      79.568  40.309  27.916  1.00  0.00    -0.070 CG0
ATOM      9  C   UNL     1      78.373  39.598  28.500  1.00  0.00     0.039 C 
ATOM     10  G   UNL     1      79.962  41.659  28.481  1.00  0.00     0.000 G0
ENDBRANCH   6   7
ENDBRANCH   5   6
ENDBRANCH   3   5
ENDBRANCH   1   3
BRANCH   1  11
ATOM     11  C   UNL     1      79.780  44.286  25.770  1.00  0.00     0.087 C 
BRANCH  11  12
ATOM     12  C   UNL     1      80.230  43.975  27.225  1.00  0.00     0.066 C 
BRANCH  12  13
ATOM     13  C   UNL     1      79.368  42.847  27.776  1.00  0.00     0.140 C 
ATOM     14  O   UNL     1      78.150  42.931  27.684  1.00  0.00    -0.299 OA
BRANCH  13  15
ATOM     15  C   UNL     1      79.952  41.671  28.518  1.00  0.00     0.106 CG0
ATOM     16  G   UNL     1      79.564  40.336  27.913  1.00  0.00     0.000 G0
ENDBRANCH  13  15
ENDBRANCH  12  13
BRANCH  12  17
ATOM     17  C   UNL     1      80.160  45.226  28.161  1.00  0.00    -0.006 C 
ATOM     18  C   UNL     1      79.366  46.386  27.529  1.00  0.00     0.008 C 
ATOM     19  C   UNL     1      81.572  45.736  28.516  1.00  0.00     0.008 C 
ENDBRANCH  12  17
ENDBRANCH  11  12
ENDBRANCH   1  11
TORSDOF 1
ENDMDL
MODEL 6
REMARK VINA RESULT:    -2.974      3.183      4.279
REMARK INTER + INTRA:          -4.914
REMARK INTER:                  -4.386
REMARK INTRA:                  -0.528
REMARK UNBOUND:                -0.375
REMARK SMILES CC1=CCC[C@@H](C)C(=O)C[C@@H](C(C)C)C(=O)C1
REMARK SMILES IDX 8 1 9 2 6 3 7 4 5 5 4 6 3 7 2 8 1 9 10 11 11 12 15 13 16 14
REMARK SMILES IDX 17 15 12 17 13 18 14 19
REMARK H PARENT
REMARK Flexibility Score: 70.00
ROOT
ATOM      1  C   UNL     1      81.223  38.242  28.586  1.00  0.00     0.136 C 
ATOM      2  O   UNL     1      80.023  38.032  28.672  1.00  0.00    -0.299 OA
ENDROOT
BRANCH   1   3
ATOM      3  C   UNL     1      81.711  39.293  27.602  1.00  0.00     0.053 C 
ATOM      4  C   UNL     1      81.212  40.682  28.023  1.00  0.00     0.016 C 
BRANCH   3   5
ATOM      5  C   UNL     1      81.300  38.972  26.145  1.00  0.00     0.015 C 
BRANCH   5   6
ATOM      6  C   UNL     1      82.325  38.129  25.354  1.00  0.00     0.028 C 
BRANCH   6   7
ATOM      7  C   UNL     1      82.006  36.656  25.243  1.00  0.00    -0.028 C 
ATOM      8  C   UNL     1      82.721  35.644  25.786  1.00  0.00    -0.070 CG0
ATOM      9  C   UNL     1      82.211  34.237  25.599  1.00  0.00     0.039 C 
ATOM     10  G   UNL     1      83.992  35.858  26.585  1.00  0.00     0.000 G0
ENDBRANCH   6   7
ENDBRANCH   5   6
ENDBRANCH   3   5
ENDBRANCH   1   3
BRANCH   1  11
ATOM     11  C   UNL     1      82.167  37.396  29.414  1.00  0.00     0.087 C 
BRANCH  11  12
ATOM     12  C   UNL     1      83.584  37.310  28.782  1.00  0.00     0.066 C 
BRANCH  12  13
ATOM     13  C   UNL     1      83.734  35.961  28.092  1.00  0.00     0.140 C 
ATOM     14  O   UNL     1      83.728  34.942  28.770  1.00  0.00    -0.299 OA
BRANCH  13  15
ATOM     15  C   UNL     1      83.984  35.835  26.610  1.00  0.00     0.106 CG0
ATOM     16  G   UNL     1      82.714  35.633  25.807  1.00  0.00     0.000 G0
ENDBRANCH  13  15
ENDBRANCH  12  13
BRANCH  12  17
ATOM     17  C   UNL     1      84.728  37.521  29.829  1.00  0.00    -0.006 C 
ATOM     18  C   UNL     1      84.456  38.719  30.758  1.00  0.00     0.008 C 
ATOM     19  C   UNL     1      86.086  37.738  29.133  1.00  0.00     0.008 C 
ENDBRANCH  12  17
ENDBRANCH  11  12
ENDBRANCH   1  11
TORSDOF 1
ENDMDL
MODEL 7
REMARK VINA RESULT:    -2.955      1.758      3.865
REMARK INTER + INTRA:          -4.885
REMARK INTER:                  -4.605
REMARK INTRA:                  -0.280
REMARK UNBOUND:                -0.375
REMARK SMILES CC1=CCC[C@@H](C)C(=O)C[C@@H](C(C)C)C(=O)C1
REMARK SMILES IDX 8 1 9 2 6 3 7 4 5 5 4 6 3 7 2 8 1 9 10 11 11 12 15 13 16 14
REMARK SMILES IDX 17 15 12 17 13 18 14 19
REMARK H PARENT
REMARK Flexibility Score: 70.00
ROOT
ATOM      1  C   UNL     1      84.238  36.603  26.982  1.00  0.00     0.136 C 
ATOM      2  O   UNL     1      83.673  37.042  25.992  1.00  0.00    -0.299 OA
ENDROOT
BRANCH   1   3
ATOM      3  C   UNL     1      85.605  35.958  26.815  1.00  0.00     0.053 C 
ATOM      4  C   UNL     1      86.247  36.416  25.499  1.00  0.00     0.016 C 
BRANCH   3   5
ATOM      5  C   UNL     1      85.542  34.414  26.896  1.00  0.00     0.015 C 
BRANCH   5   6
ATOM      6  C   UNL     1      86.409  33.787  28.010  1.00  0.00     0.028 C 
BRANCH   6   7
ATOM      7  C   UNL     1      85.684  32.849  28.948  1.00  0.00    -0.028 C 
ATOM      8  C   UNL     1      85.196  33.165  30.170  1.00  0.00    -0.070 CG0
ATOM      9  C   UNL     1      84.460  32.094  30.936  1.00  0.00     0.039 C 
ATOM     10  G   UNL     1      85.336  34.540  30.791  1.00  0.00     0.000 G0
ENDBRANCH   6   7
ENDBRANCH   5   6
ENDBRANCH   3   5
ENDBRANCH   1   3
BRANCH   1  11
ATOM     11  C   UNL     1      83.518  36.663  28.313  1.00  0.00     0.087 C 
BRANCH  11  12
ATOM     12  C   UNL     1      84.507  36.710  29.512  1.00  0.00     0.066 C 
BRANCH  12  13
ATOM     13  C   UNL     1      84.245  35.511  30.413  1.00  0.00     0.140 C 
ATOM     14  O   UNL     1      83.129  35.360  30.892  1.00  0.00    -0.299 OA
BRANCH  13  15
ATOM     15  C   UNL     1      85.334  34.549  30.816  1.00  0.00     0.106 CG0
ATOM     16  G   UNL     1      85.188  33.183  30.175  1.00  0.00     0.000 G0
ENDBRANCH  13  15
ENDBRANCH  12  13
BRANCH  12  17
ATOM     17  C   UNL     1      84.407  38.041  30.327  1.00  0.00    -0.006 C 
ATOM     18  C   UNL     1      83.105  38.811  30.033  1.00  0.00     0.008 C 
ATOM     19  C   UNL     1      85.602  38.969  30.028  1.00  0.00     0.008 C 
ENDBRANCH  12  17
ENDBRANCH  11  12
ENDBRANCH   1  11
TORSDOF 1
ENDMDL
MODEL 8
REMARK VINA RESULT:    -2.824      1.196      1.604
REMARK INTER + INTRA:          -4.686
REMARK INTER:                  -4.547
REMARK INTRA:                  -0.138
REMARK UNBOUND:                -0.375
REMARK SMILES CC1=CCC[C@@H](C)C(=O)C[C@@H](C(C)C)C(=O)C1
REMARK SMILES IDX 8 1 9 2 6 3 7 4 5 5 4 6 3 7 2 8 1 9 10 11 11 12 15 13 16 14
REMARK SMILES IDX 17 15 12 17 13 18 14 19
REMARK H PARENT
REMARK Flexibility Score: 70.00
ROOT
ATOM      1  C   UNL     1      84.564  36.604  30.359  1.00  0.00     0.136 C 
ATOM      2  O   UNL     1      83.941  37.654  30.394  1.00  0.00    -0.299 OA
ENDROOT
BRANCH   1   3
ATOM      3  C   UNL     1      85.767  36.501  29.435  1.00  0.00     0.053 C 
ATOM      4  C   UNL     1      86.413  37.881  29.253  1.00  0.00     0.016 C 
BRANCH   3   5
ATOM      5  C   UNL     1      85.407  35.871  28.068  1.00  0.00     0.015 C 
BRANCH   5   6
ATOM      6  C   UNL     1      86.238  34.625  27.690  1.00  0.00     0.028 C 
BRANCH   6   7
ATOM      7  C   UNL     1      85.439  33.422  27.243  1.00  0.00    -0.028 C 
ATOM      8  C   UNL     1      85.053  32.388  28.025  1.00  0.00    -0.070 CG0
ATOM      9  C   UNL     1      84.217  31.300  27.398  1.00  0.00     0.039 C 
ATOM     10  G   UNL     1      85.401  32.282  29.497  1.00  0.00     0.000 G0
ENDBRANCH   6   7
ENDBRANCH   5   6
ENDBRANCH   3   5
ENDBRANCH   1   3
BRANCH   1  11
ATOM     11  C   UNL     1      84.065  35.438  31.187  1.00  0.00     0.087 C 
BRANCH  11  12
ATOM     12  C   UNL     1      85.087  34.268  31.225  1.00  0.00     0.066 C 
BRANCH  12  13
ATOM     13  C   UNL     1      84.537  33.109  30.404  1.00  0.00     0.140 C 
ATOM     14  O   UNL     1      83.362  32.793  30.536  1.00  0.00    -0.299 OA
BRANCH  13  15
ATOM     15  C   UNL     1      85.409  32.270  29.503  1.00  0.00     0.106 CG0
ATOM     16  G   UNL     1      85.040  32.392  28.038  1.00  0.00     0.000 G0
ENDBRANCH  13  15
ENDBRANCH  12  13
BRANCH  12  17
ATOM     17  C   UNL     1      85.420  33.801  32.680  1.00  0.00    -0.006 C 
ATOM     18  C   UNL     1      84.948  34.814  33.741  1.00  0.00     0.008 C 
ATOM     19  C   UNL     1      86.935  33.574  32.859  1.00  0.00     0.008 C 
ENDBRANCH  12  17
ENDBRANCH  11  12
ENDBRANCH   1  11
TORSDOF 1
ENDMDL
MODEL 9
REMARK VINA RESULT:    -2.814      2.085      4.418
REMARK INTER + INTRA:          -4.670
REMARK INTER:                  -4.303
REMARK INTRA:                  -0.367
REMARK UNBOUND:                -0.375
REMARK SMILES CC1=CCC[C@@H](C)C(=O)C[C@@H](C(C)C)C(=O)C1
REMARK SMILES IDX 8 1 9 2 6 3 7 4 5 5 4 6 3 7 2 8 1 9 10 11 11 12 15 13 16 14
REMARK SMILES IDX 17 15 12 17 13 18 14 19
REMARK H PARENT
REMARK Flexibility Score: 70.00
ROOT
ATOM      1  C   UNL     1      85.886  37.130  28.924  1.00  0.00     0.136 C 
ATOM      2  O   UNL     1      86.826  37.817  29.294  1.00  0.00    -0.299 OA
ENDROOT
BRANCH   1   3
ATOM      3  C   UNL     1      84.587  37.186  29.712  1.00  0.00     0.053 C 
ATOM      4  C   UNL     1      84.328  38.616  30.203  1.00  0.00     0.016 C 
BRANCH   3   5
ATOM      5  C   UNL     1      84.568  36.182  30.889  1.00  0.00     0.015 C 
BRANCH   5   6
ATOM      6  C   UNL     1      83.619  34.978  30.700  1.00  0.00     0.028 C 
BRANCH   6   7
ATOM      7  C   UNL     1      84.284  33.621  30.696  1.00  0.00    -0.028 C 
ATOM      8  C   UNL     1      84.448  32.819  29.619  1.00  0.00    -0.070 CG0
ATOM      9  C   UNL     1      85.182  31.515  29.814  1.00  0.00     0.039 C 
ATOM     10  G   UNL     1      83.952  33.176  28.232  1.00  0.00     0.000 G0
ENDBRANCH   6   7
ENDBRANCH   5   6
ENDBRANCH   3   5
ENDBRANCH   1   3
BRANCH   1  11
ATOM     11  C   UNL     1      86.087  36.208  27.740  1.00  0.00     0.087 C 
BRANCH  11  12
ATOM     12  C   UNL     1      84.762  35.523  27.300  1.00  0.00     0.066 C 
BRANCH  12  13
ATOM     13  C   UNL     1      84.923  34.015  27.426  1.00  0.00     0.140 C 
ATOM     14  O   UNL     1      85.819  33.459  26.804  1.00  0.00    -0.299 OA
BRANCH  13  15
ATOM     15  C   UNL     1      83.961  33.161  28.214  1.00  0.00     0.106 CG0
ATOM     16  G   UNL     1      84.468  32.823  29.603  1.00  0.00     0.000 G0
ENDBRANCH  13  15
ENDBRANCH  12  13
BRANCH  12  17
ATOM     17  C   UNL     1      84.334  35.910  25.846  1.00  0.00    -0.006 C 
ATOM     18  C   UNL     1      85.523  36.398  24.996  1.00  0.00     0.008 C 
ATOM     19  C   UNL     1      83.256  37.013  25.858  1.00  0.00     0.008 C 
ENDBRANCH  12  17
ENDBRANCH  11  12
ENDBRANCH   1  11
TORSDOF 1
ENDMDL
