MODEL 1
REMARK VINA RESULT:    -6.600      0.000      0.000
REMARK INTER + INTRA:          -7.179
REMARK INTER:                  -7.179
REMARK INTRA:                   0.000
REMARK UNBOUND:                 0.000
REMARK SMILES Cc1cc(O)c2c(c1)C(=O)c1cc(O)cc(O)c1C2=O
REMARK SMILES IDX 1 1 2 2 8 3 7 4 6 5 4 6 3 7 19 8 20 9 18 10 11 11 9 12 10 13
REMARK SMILES IDX 12 14 13 15 15 16 16 17 5 18 17 20 14 22
REMARK H PARENT 5 19 17 21 14 23
REMARK Flexibility Score: inf
ROOT
ATOM      1  C   UNL     1      18.231 -10.239  35.119  1.00  0.00     0.044 C 
ATOM      2  C   UNL     1      19.092 -11.206  34.361  1.00  0.00    -0.047 A 
ATOM      3  C   UNL     1      18.962 -11.328  32.972  1.00  0.00     0.016 A 
ATOM      4  C   UNL     1      19.793 -12.200  32.249  1.00  0.00     0.038 A 
ATOM      5  C   UNL     1      20.790 -12.942  32.921  1.00  0.00     0.076 A 
ATOM      6  C   UNL     1      20.887 -12.849  34.333  1.00  0.00     0.127 A 
ATOM      7  C   UNL     1      20.061 -11.960  35.030  1.00  0.00     0.050 A 
ATOM      8  C   UNL     1      21.743 -13.738  32.104  1.00  0.00     0.201 C 
ATOM      9  O   UNL     1      22.917 -13.929  32.520  1.00  0.00    -0.288 OA
ATOM     10  C   UNL     1      21.373 -14.142  30.723  1.00  0.00     0.076 A 
ATOM     11  C   UNL     1      20.376 -13.395  30.054  1.00  0.00     0.041 A 
ATOM     12  C   UNL     1      19.627 -12.345  30.782  1.00  0.00     0.194 C 
ATOM     13  O   UNL     1      18.830 -11.591  30.160  1.00  0.00    -0.289 OA
ATOM     14  C   UNL     1      20.096 -13.657  28.702  1.00  0.00     0.059 A 
ATOM     15  C   UNL     1      20.786 -14.661  28.017  1.00  0.00     0.120 A 
ATOM     16  C   UNL     1      21.742 -15.426  28.684  1.00  0.00     0.093 A 
ATOM     17  C   UNL     1      22.024 -15.199  30.035  1.00  0.00     0.131 A 
ENDROOT
BRANCH   6  18
ATOM     18  O   UNL     1      21.759 -13.640  35.084  1.00  0.00    -0.507 OA
ATOM     19  H   UNL     1      21.844 -13.578  36.090  1.00  0.00     0.293 HD
ENDBRANCH   6  18
BRANCH  17  20
ATOM     20  O   UNL     1      22.926 -16.063  30.659  1.00  0.00    -0.507 OA
ATOM     21  H   UNL     1      22.939 -17.063  30.507  1.00  0.00     0.293 HD
ENDBRANCH  17  20
BRANCH  15  22
ATOM     22  O   UNL     1      20.520 -14.916  26.673  1.00  0.00    -0.508 OA
ATOM     23  H   UNL     1      19.815 -15.587  26.390  1.00  0.00     0.293 HD
ENDBRANCH  15  22
TORSDOF 3
ENDMDL
MODEL 2
REMARK VINA RESULT:    -6.320      7.307     10.022
REMARK INTER + INTRA:          -6.875
REMARK INTER:                  -6.875
REMARK INTRA:                   0.000
REMARK UNBOUND:                 0.000
REMARK SMILES Cc1cc(O)c2c(c1)C(=O)c1cc(O)cc(O)c1C2=O
REMARK SMILES IDX 1 1 2 2 8 3 7 4 6 5 4 6 3 7 19 8 20 9 18 10 11 11 9 12 10 13
REMARK SMILES IDX 12 14 13 15 15 16 16 17 5 18 17 20 14 22
REMARK H PARENT 5 19 17 21 14 23
REMARK Flexibility Score: inf
ROOT
ATOM      1  C   UNL     1      24.400 -14.528  26.728  1.00  0.00     0.044 C 
ATOM      2  C   UNL     1      23.831 -14.577  25.340  1.00  0.00    -0.047 A 
ATOM      3  C   UNL     1      22.549 -14.074  25.087  1.00  0.00     0.016 A 
ATOM      4  C   UNL     1      22.024 -14.076  23.783  1.00  0.00     0.038 A 
ATOM      5  C   UNL     1      22.805 -14.565  22.711  1.00  0.00     0.076 A 
ATOM      6  C   UNL     1      24.084 -15.115  22.981  1.00  0.00     0.127 A 
ATOM      7  C   UNL     1      24.593 -15.084  24.283  1.00  0.00     0.050 A 
ATOM      8  C   UNL     1      22.274 -14.414  21.331  1.00  0.00     0.201 C 
ATOM      9  O   UNL     1      23.070 -14.278  20.365  1.00  0.00    -0.288 OA
ATOM     10  C   UNL     1      20.815 -14.233  21.117  1.00  0.00     0.076 A 
ATOM     11  C   UNL     1      20.038 -13.743  22.192  1.00  0.00     0.041 A 
ATOM     12  C   UNL     1      20.654 -13.570  23.529  1.00  0.00     0.194 C 
ATOM     13  O   UNL     1      20.004 -13.014  24.456  1.00  0.00    -0.289 OA
ATOM     14  C   UNL     1      18.684 -13.429  21.990  1.00  0.00     0.059 A 
ATOM     15  C   UNL     1      18.094 -13.610  20.736  1.00  0.00     0.120 A 
ATOM     16  C   UNL     1      18.846 -14.130  19.684  1.00  0.00     0.093 A 
ATOM     17  C   UNL     1      20.190 -14.471  19.865  1.00  0.00     0.131 A 
ENDROOT
BRANCH   6  18
ATOM     18  O   UNL     1      24.865 -15.729  21.999  1.00  0.00    -0.507 OA
ATOM     19  H   UNL     1      24.823 -16.717  21.788  1.00  0.00     0.293 HD
ENDBRANCH   6  18
BRANCH  17  20
ATOM     20  O   UNL     1      20.853 -15.071  18.792  1.00  0.00    -0.507 OA
ATOM     21  H   UNL     1      20.963 -16.071  18.692  1.00  0.00     0.293 HD
ENDBRANCH  17  20
BRANCH  15  22
ATOM     22  O   UNL     1      16.754 -13.287  20.528  1.00  0.00    -0.508 OA
ATOM     23  H   UNL     1      16.204 -12.822  21.241  1.00  0.00     0.293 HD
ENDBRANCH  15  22
TORSDOF 3
ENDMDL
MODEL 3
REMARK VINA RESULT:    -6.233      7.679     10.808
REMARK INTER + INTRA:          -6.779
REMARK INTER:                  -6.779
REMARK INTRA:                   0.000
REMARK UNBOUND:                 0.000
REMARK SMILES Cc1cc(O)c2c(c1)C(=O)c1cc(O)cc(O)c1C2=O
REMARK SMILES IDX 1 1 2 2 8 3 7 4 6 5 4 6 3 7 19 8 20 9 18 10 11 11 9 12 10 13
REMARK SMILES IDX 12 14 13 15 15 16 16 17 5 18 17 20 14 22
REMARK H PARENT 5 19 17 21 14 23
REMARK Flexibility Score: inf
ROOT
ATOM      1  C   UNL     1      24.464 -15.162  24.357  1.00  0.00     0.044 C 
ATOM      2  C   UNL     1      23.127 -14.718  23.839  1.00  0.00    -0.047 A 
ATOM      3  C   UNL     1      22.824 -14.838  22.478  1.00  0.00     0.016 A 
ATOM      4  C   UNL     1      21.559 -14.465  21.991  1.00  0.00     0.038 A 
ATOM      5  C   UNL     1      20.573 -13.990  22.884  1.00  0.00     0.076 A 
ATOM      6  C   UNL     1      20.901 -13.828  24.255  1.00  0.00     0.127 A 
ATOM      7  C   UNL     1      22.160 -14.224  24.720  1.00  0.00     0.050 A 
ATOM      8  C   UNL     1      19.206 -13.747  22.355  1.00  0.00     0.201 C 
ATOM      9  O   UNL     1      18.207 -13.890  23.109  1.00  0.00    -0.288 OA
ATOM     10  C   UNL     1      19.006 -13.524  20.900  1.00  0.00     0.076 A 
ATOM     11  C   UNL     1      19.995 -14.001  20.010  1.00  0.00     0.041 A 
ATOM     12  C   UNL     1      21.257 -14.566  20.543  1.00  0.00     0.194 C 
ATOM     13  O   UNL     1      22.085 -15.109  19.761  1.00  0.00    -0.289 OA
ATOM     14  C   UNL     1      19.779 -13.933  18.623  1.00  0.00     0.059 A 
ATOM     15  C   UNL     1      18.599 -13.383  18.116  1.00  0.00     0.120 A 
ATOM     16  C   UNL     1      17.639 -12.875  18.989  1.00  0.00     0.093 A 
ATOM     17  C   UNL     1      17.839 -12.911  20.373  1.00  0.00     0.131 A 
ENDROOT
BRANCH   6  18
ATOM     18  O   UNL     1      20.027 -13.251  25.178  1.00  0.00    -0.507 OA
ATOM     19  H   UNL     1      19.383 -12.506  24.948  1.00  0.00     0.293 HD
ENDBRANCH   6  18
BRANCH  17  20
ATOM     20  O   UNL     1      16.876 -12.302  21.180  1.00  0.00    -0.507 OA
ATOM     21  H   UNL     1      16.924 -12.282  22.190  1.00  0.00     0.293 HD
ENDBRANCH  17  20
BRANCH  15  22
ATOM     22  O   UNL     1      18.375 -13.325  16.741  1.00  0.00    -0.508 OA
ATOM     23  H   UNL     1      17.944 -12.516  16.308  1.00  0.00     0.293 HD
ENDBRANCH  15  22
TORSDOF 3
ENDMDL
MODEL 4
REMARK VINA RESULT:    -6.193      7.610      9.526
REMARK INTER + INTRA:          -6.736
REMARK INTER:                  -6.736
REMARK INTRA:                   0.000
REMARK UNBOUND:                 0.000
REMARK SMILES Cc1cc(O)c2c(c1)C(=O)c1cc(O)cc(O)c1C2=O
REMARK SMILES IDX 1 1 2 2 8 3 7 4 6 5 4 6 3 7 19 8 20 9 18 10 11 11 9 12 10 13
REMARK SMILES IDX 12 14 13 15 15 16 16 17 5 18 17 20 14 22
REMARK H PARENT 5 19 17 21 14 23
REMARK Flexibility Score: inf
ROOT
ATOM      1  C   UNL     1      17.220  -9.492  23.045  1.00  0.00     0.044 C 
ATOM      2  C   UNL     1      17.995 -10.772  23.152  1.00  0.00    -0.047 A 
ATOM      3  C   UNL     1      18.400 -11.449  21.995  1.00  0.00     0.016 A 
ATOM      4  C   UNL     1      19.163 -12.626  22.085  1.00  0.00     0.038 A 
ATOM      5  C   UNL     1      19.552 -13.119  23.351  1.00  0.00     0.076 A 
ATOM      6  C   UNL     1      19.100 -12.454  24.520  1.00  0.00     0.127 A 
ATOM      7  C   UNL     1      18.358 -11.274  24.406  1.00  0.00     0.050 A 
ATOM      8  C   UNL     1      20.480 -14.278  23.398  1.00  0.00     0.201 C 
ATOM      9  O   UNL     1      21.283 -14.399  24.361  1.00  0.00    -0.288 OA
ATOM     10  C   UNL     1      20.593 -15.182  22.224  1.00  0.00     0.076 A 
ATOM     11  C   UNL     1      20.204 -14.684  20.960  1.00  0.00     0.041 A 
ATOM     12  C   UNL     1      19.561 -13.353  20.855  1.00  0.00     0.194 C 
ATOM     13  O   UNL     1      19.330 -12.851  19.722  1.00  0.00    -0.289 OA
ATOM     14  C   UNL     1      20.424 -15.458  19.807  1.00  0.00     0.059 A 
ATOM     15  C   UNL     1      21.011 -16.722  19.903  1.00  0.00     0.120 A 
ATOM     16  C   UNL     1      21.359 -17.232  21.152  1.00  0.00     0.093 A 
ATOM     17  C   UNL     1      21.132 -16.492  22.317  1.00  0.00     0.131 A 
ENDROOT
BRANCH   6  18
ATOM     18  O   UNL     1      19.335 -12.944  25.806  1.00  0.00    -0.507 OA
ATOM     19  H   UNL     1      18.872 -13.758  26.188  1.00  0.00     0.293 HD
ENDBRANCH   6  18
BRANCH  17  20
ATOM     20  O   UNL     1      21.422 -17.104  23.538  1.00  0.00    -0.507 OA
ATOM     21  H   UNL     1      22.355 -17.369  23.823  1.00  0.00     0.293 HD
ENDBRANCH  17  20
BRANCH  15  22
ATOM     22  O   UNL     1      21.242 -17.487  18.761  1.00  0.00    -0.508 OA
ATOM     23  H   UNL     1      20.489 -17.976  18.289  1.00  0.00     0.293 HD
ENDBRANCH  15  22
TORSDOF 3
ENDMDL
MODEL 5
REMARK VINA RESULT:    -6.171      6.206      9.593
REMARK INTER + INTRA:          -6.713
REMARK INTER:                  -6.713
REMARK INTRA:                   0.000
REMARK UNBOUND:                 0.000
REMARK SMILES Cc1cc(O)c2c(c1)C(=O)c1cc(O)cc(O)c1C2=O
REMARK SMILES IDX 1 1 2 2 8 3 7 4 6 5 4 6 3 7 19 8 20 9 18 10 11 11 9 12 10 13
REMARK SMILES IDX 12 14 13 15 15 16 16 17 5 18 17 20 14 22
REMARK H PARENT 5 19 17 21 14 23
REMARK Flexibility Score: inf
ROOT
ATOM      1  C   UNL     1      20.071 -14.356  27.643  1.00  0.00     0.044 C 
ATOM      2  C   UNL     1      20.299 -14.472  26.164  1.00  0.00    -0.047 A 
ATOM      3  C   UNL     1      19.530 -13.716  25.271  1.00  0.00     0.016 A 
ATOM      4  C   UNL     1      19.765 -13.786  23.887  1.00  0.00     0.038 A 
ATOM      5  C   UNL     1      20.804 -14.605  23.390  1.00  0.00     0.076 A 
ATOM      6  C   UNL     1      21.549 -15.403  24.295  1.00  0.00     0.127 A 
ATOM      7  C   UNL     1      21.310 -15.302  25.670  1.00  0.00     0.050 A 
ATOM      8  C   UNL     1      21.116 -14.538  21.938  1.00  0.00     0.201 C 
ATOM      9  O   UNL     1      22.293 -14.746  21.540  1.00  0.00    -0.288 OA
ATOM     10  C   UNL     1      20.091 -14.042  20.985  1.00  0.00     0.076 A 
ATOM     11  C   UNL     1      19.054 -13.222  21.486  1.00  0.00     0.041 A 
ATOM     12  C   UNL     1      18.925 -13.005  22.947  1.00  0.00     0.194 C 
ATOM     13  O   UNL     1      18.085 -12.176  23.390  1.00  0.00    -0.289 OA
ATOM     14  C   UNL     1      18.146 -12.621  20.598  1.00  0.00     0.059 A 
ATOM     15  C   UNL     1      18.251 -12.840  19.222  1.00  0.00     0.120 A 
ATOM     16  C   UNL     1      19.248 -13.679  18.727  1.00  0.00     0.093 A 
ATOM     17  C   UNL     1      20.151 -14.306  19.591  1.00  0.00     0.131 A 
ENDROOT
BRANCH   6  18
ATOM     18  O   UNL     1      22.507 -16.329  23.875  1.00  0.00    -0.507 OA
ATOM     19  H   UNL     1      22.280 -17.259  23.550  1.00  0.00     0.293 HD
ENDBRANCH   6  18
BRANCH  17  20
ATOM     20  O   UNL     1      21.063 -15.202  19.032  1.00  0.00    -0.507 OA
ATOM     21  H   UNL     1      20.894 -16.196  18.953  1.00  0.00     0.293 HD
ENDBRANCH  17  20
BRANCH  15  22
ATOM     22  O   UNL     1      17.361 -12.236  18.336  1.00  0.00    -0.508 OA
ATOM     23  H   UNL     1      17.661 -11.511  17.694  1.00  0.00     0.293 HD
ENDBRANCH  15  22
TORSDOF 3
ENDMDL
MODEL 6
REMARK VINA RESULT:    -6.155      7.800     10.651
REMARK INTER + INTRA:          -6.695
REMARK INTER:                  -6.695
REMARK INTRA:                   0.000
REMARK UNBOUND:                 0.000
REMARK SMILES Cc1cc(O)c2c(c1)C(=O)c1cc(O)cc(O)c1C2=O
REMARK SMILES IDX 1 1 2 2 8 3 7 4 6 5 4 6 3 7 19 8 20 9 18 10 11 11 9 12 10 13
REMARK SMILES IDX 12 14 13 15 15 16 16 17 5 18 17 20 14 22
REMARK H PARENT 5 19 17 21 14 23
REMARK Flexibility Score: inf
ROOT
ATOM      1  C   UNL     1      21.365 -17.676  19.390  1.00  0.00     0.044 C 
ATOM      2  C   UNL     1      20.917 -16.771  20.500  1.00  0.00    -0.047 A 
ATOM      3  C   UNL     1      20.239 -15.581  20.208  1.00  0.00     0.016 A 
ATOM      4  C   UNL     1      19.778 -14.748  21.242  1.00  0.00     0.038 A 
ATOM      5  C   UNL     1      19.973 -15.125  22.590  1.00  0.00     0.076 A 
ATOM      6  C   UNL     1      20.701 -16.309  22.879  1.00  0.00     0.127 A 
ATOM      7  C   UNL     1      21.133 -17.131  21.833  1.00  0.00     0.050 A 
ATOM      8  C   UNL     1      19.343 -14.295  23.649  1.00  0.00     0.201 C 
ATOM      9  O   UNL     1      18.984 -14.829  24.733  1.00  0.00    -0.288 OA
ATOM     10  C   UNL     1      18.965 -12.889  23.357  1.00  0.00     0.076 A 
ATOM     11  C   UNL     1      18.769 -12.516  22.008  1.00  0.00     0.041 A 
ATOM     12  C   UNL     1      19.088 -13.475  20.924  1.00  0.00     0.194 C 
ATOM     13  O   UNL     1      18.796 -13.197  19.729  1.00  0.00    -0.289 OA
ATOM     14  C   UNL     1      18.278 -11.236  21.700  1.00  0.00     0.059 A 
ATOM     15  C   UNL     1      17.996 -10.322  22.718  1.00  0.00     0.120 A 
ATOM     16  C   UNL     1      18.225 -10.671  24.048  1.00  0.00     0.093 A 
ATOM     17  C   UNL     1      18.733 -11.931  24.380  1.00  0.00     0.131 A 
ENDROOT
BRANCH   6  18
ATOM     18  O   UNL     1      21.043 -16.687  24.179  1.00  0.00    -0.507 OA
ATOM     19  H   UNL     1      21.841 -17.267  24.400  1.00  0.00     0.293 HD
ENDBRANCH   6  18
BRANCH  17  20
ATOM     20  O   UNL     1      19.022 -12.177  25.723  1.00  0.00    -0.507 OA
ATOM     21  H   UNL     1      18.360 -12.578  26.374  1.00  0.00     0.293 HD
ENDBRANCH  17  20
BRANCH  15  22
ATOM     22  O   UNL     1      17.497  -9.055  22.418  1.00  0.00    -0.508 OA
ATOM     23  H   UNL     1      16.724  -8.929  21.774  1.00  0.00     0.293 HD
ENDBRANCH  15  22
TORSDOF 3
ENDMDL
MODEL 7
REMARK VINA RESULT:    -6.029      7.989     10.116
REMARK INTER + INTRA:          -6.558
REMARK INTER:                  -6.558
REMARK INTRA:                   0.000
REMARK UNBOUND:                 0.000
REMARK SMILES Cc1cc(O)c2c(c1)C(=O)c1cc(O)cc(O)c1C2=O
REMARK SMILES IDX 1 1 2 2 8 3 7 4 6 5 4 6 3 7 19 8 20 9 18 10 11 11 9 12 10 13
REMARK SMILES IDX 12 14 13 15 15 16 16 17 5 18 17 20 14 22
REMARK H PARENT 5 19 17 21 14 23
REMARK Flexibility Score: inf
ROOT
ATOM      1  C   UNL     1      17.542 -10.332  23.870  1.00  0.00     0.044 C 
ATOM      2  C   UNL     1      18.365 -11.329  23.108  1.00  0.00    -0.047 A 
ATOM      3  C   UNL     1      19.146 -12.268  23.792  1.00  0.00     0.016 A 
ATOM      4  C   UNL     1      19.886 -13.233  23.087  1.00  0.00     0.038 A 
ATOM      5  C   UNL     1      19.823 -13.277  21.676  1.00  0.00     0.076 A 
ATOM      6  C   UNL     1      19.066 -12.295  20.987  1.00  0.00     0.127 A 
ATOM      7  C   UNL     1      18.322 -11.356  21.710  1.00  0.00     0.050 A 
ATOM      8  C   UNL     1      20.500 -14.401  20.979  1.00  0.00     0.201 C 
ATOM      9  O   UNL     1      20.042 -14.826  19.884  1.00  0.00    -0.288 OA
ATOM     10  C   UNL     1      21.593 -15.141  21.659  1.00  0.00     0.076 A 
ATOM     11  C   UNL     1      21.652 -15.095  23.071  1.00  0.00     0.041 A 
ATOM     12  C   UNL     1      20.735 -14.204  23.819  1.00  0.00     0.194 C 
ATOM     13  O   UNL     1      20.695 -14.254  25.079  1.00  0.00    -0.289 OA
ATOM     14  C   UNL     1      22.585 -15.891  23.757  1.00  0.00     0.059 A 
ATOM     15  C   UNL     1      23.466 -16.717  23.054  1.00  0.00     0.120 A 
ATOM     16  C   UNL     1      23.437 -16.735  21.661  1.00  0.00     0.093 A 
ATOM     17  C   UNL     1      22.533 -15.937  20.953  1.00  0.00     0.131 A 
ENDROOT
BRANCH   6  18
ATOM     18  O   UNL     1      19.050 -12.193  19.595  1.00  0.00    -0.507 OA
ATOM     19  H   UNL     1      18.446 -12.744  19.000  1.00  0.00     0.293 HD
ENDBRANCH   6  18
BRANCH  17  20
ATOM     20  O   UNL     1      22.624 -15.939  19.560  1.00  0.00    -0.507 OA
ATOM     21  H   UNL     1      23.489 -15.794  19.056  1.00  0.00     0.293 HD
ENDBRANCH  17  20
BRANCH  15  22
ATOM     22  O   UNL     1      24.384 -17.517  23.732  1.00  0.00    -0.508 OA
ATOM     23  H   UNL     1      24.942 -17.152  24.496  1.00  0.00     0.293 HD
ENDBRANCH  15  22
TORSDOF 3
ENDMDL
MODEL 8
REMARK VINA RESULT:    -5.884      8.585     11.464
REMARK INTER + INTRA:          -6.400
REMARK INTER:                  -6.400
REMARK INTRA:                   0.000
REMARK UNBOUND:                 0.000
REMARK SMILES Cc1cc(O)c2c(c1)C(=O)c1cc(O)cc(O)c1C2=O
REMARK SMILES IDX 1 1 2 2 8 3 7 4 6 5 4 6 3 7 19 8 20 9 18 10 11 11 9 12 10 13
REMARK SMILES IDX 12 14 13 15 15 16 16 17 5 18 17 20 14 22
REMARK H PARENT 5 19 17 21 14 23
REMARK Flexibility Score: inf
ROOT
ATOM      1  C   UNL     1      24.515 -17.901  22.594  1.00  0.00     0.044 C 
ATOM      2  C   UNL     1      23.392 -17.080  22.032  1.00  0.00    -0.047 A 
ATOM      3  C   UNL     1      22.870 -16.007  22.763  1.00  0.00     0.016 A 
ATOM      4  C   UNL     1      21.848 -15.205  22.227  1.00  0.00     0.038 A 
ATOM      5  C   UNL     1      21.359 -15.464  20.926  1.00  0.00     0.076 A 
ATOM      6  C   UNL     1      21.861 -16.580  20.208  1.00  0.00     0.127 A 
ATOM      7  C   UNL     1      22.891 -17.352  20.755  1.00  0.00     0.050 A 
ATOM      8  C   UNL     1      20.386 -14.506  20.339  1.00  0.00     0.201 C 
ATOM      9  O   UNL     1      20.355 -14.331  19.091  1.00  0.00    -0.288 OA
ATOM     10  C   UNL     1      19.589 -13.624  21.229  1.00  0.00     0.076 A 
ATOM     11  C   UNL     1      20.082 -13.367  22.529  1.00  0.00     0.041 A 
ATOM     12  C   UNL     1      21.279 -14.089  23.021  1.00  0.00     0.194 C 
ATOM     13  O   UNL     1      21.798 -13.772  24.126  1.00  0.00    -0.289 OA
ATOM     14  C   UNL     1      19.432 -12.431  23.351  1.00  0.00     0.059 A 
ATOM     15  C   UNL     1      18.291 -11.763  22.898  1.00  0.00     0.120 A 
ATOM     16  C   UNL     1      17.779 -12.043  21.633  1.00  0.00     0.093 A 
ATOM     17  C   UNL     1      18.395 -12.985  20.803  1.00  0.00     0.131 A 
ENDROOT
BRANCH   6  18
ATOM     18  O   UNL     1      21.345 -16.977  18.973  1.00  0.00    -0.507 OA
ATOM     19  H   UNL     1      20.714 -16.411  18.422  1.00  0.00     0.293 HD
ENDBRANCH   6  18
BRANCH  17  20
ATOM     20  O   UNL     1      17.774 -13.279  19.588  1.00  0.00    -0.507 OA
ATOM     21  H   UNL     1      17.005 -12.743  19.209  1.00  0.00     0.293 HD
ENDBRANCH  17  20
BRANCH  15  22
ATOM     22  O   UNL     1      17.650 -10.825  23.706  1.00  0.00    -0.508 OA
ATOM     23  H   UNL     1      16.932 -11.097  24.367  1.00  0.00     0.293 HD
ENDBRANCH  15  22
TORSDOF 3
ENDMDL
MODEL 9
REMARK VINA RESULT:    -5.853      6.814      9.415
REMARK INTER + INTRA:          -6.366
REMARK INTER:                  -6.366
REMARK INTRA:                   0.000
REMARK UNBOUND:                 0.000
REMARK SMILES Cc1cc(O)c2c(c1)C(=O)c1cc(O)cc(O)c1C2=O
REMARK SMILES IDX 1 1 2 2 8 3 7 4 6 5 4 6 3 7 19 8 20 9 18 10 11 11 9 12 10 13
REMARK SMILES IDX 12 14 13 15 15 16 16 17 5 18 17 20 14 22
REMARK H PARENT 5 19 17 21 14 23
REMARK Flexibility Score: inf
ROOT
ATOM      1  C   UNL     1      19.958 -17.904  26.827  1.00  0.00     0.044 C 
ATOM      2  C   UNL     1      19.729 -16.947  25.694  1.00  0.00    -0.047 A 
ATOM      3  C   UNL     1      19.533 -15.585  25.951  1.00  0.00     0.016 A 
ATOM      4  C   UNL     1      19.361 -14.674  24.895  1.00  0.00     0.038 A 
ATOM      5  C   UNL     1      19.411 -15.129  23.558  1.00  0.00     0.076 A 
ATOM      6  C   UNL     1      19.564 -16.517  23.305  1.00  0.00     0.127 A 
ATOM      7  C   UNL     1      19.753 -17.402  24.372  1.00  0.00     0.050 A 
ATOM      8  C   UNL     1      19.373 -14.118  22.470  1.00  0.00     0.201 C 
ATOM      9  O   UNL     1      19.961 -14.347  21.380  1.00  0.00    -0.288 OA
ATOM     10  C   UNL     1      18.808 -12.770  22.735  1.00  0.00     0.076 A 
ATOM     11  C   UNL     1      18.760 -12.318  24.074  1.00  0.00     0.041 A 
ATOM     12  C   UNL     1      19.124 -13.238  25.177  1.00  0.00     0.194 C 
ATOM     13  O   UNL     1      19.207 -12.805  26.359  1.00  0.00    -0.289 OA
ATOM     14  C   UNL     1      18.362 -10.999  24.353  1.00  0.00     0.059 A 
ATOM     15  C   UNL     1      17.999 -10.135  23.317  1.00  0.00     0.120 A 
ATOM     16  C   UNL     1      18.007 -10.589  22.000  1.00  0.00     0.093 A 
ATOM     17  C   UNL     1      18.378 -11.903  21.697  1.00  0.00     0.131 A 
ENDROOT
BRANCH   6  18
ATOM     18  O   UNL     1      19.500 -17.063  22.021  1.00  0.00    -0.507 OA
ATOM     19  H   UNL     1      20.036 -17.869  21.729  1.00  0.00     0.293 HD
ENDBRANCH   6  18
BRANCH  17  20
ATOM     20  O   UNL     1      18.274 -12.312  20.366  1.00  0.00    -0.507 OA
ATOM     21  H   UNL     1      17.397 -12.549  19.921  1.00  0.00     0.293 HD
ENDBRANCH  17  20
BRANCH  15  22
ATOM     22  O   UNL     1      17.616  -8.822  23.589  1.00  0.00    -0.508 OA
ATOM     23  H   UNL     1      17.389  -8.172  22.845  1.00  0.00     0.293 HD
ENDBRANCH  15  22
TORSDOF 3
ENDMDL
