MODEL 1
REMARK VINA RESULT:    -3.391      0.000      0.000
REMARK INTER + INTRA:          -4.297
REMARK INTER:                  -4.184
REMARK INTRA:                  -0.113
REMARK UNBOUND:                -0.113
REMARK SMILES CCCCCC(=O)[O-]
REMARK SMILES IDX 4 1 5 2 6 3 7 4 8 5 3 6 2 7 1 8
REMARK H PARENT
REMARK Flexibility Score: inf
ROOT
ATOM      1  C   UNL     1      19.700  12.248 -13.841  1.00  0.00     0.006 C 
ENDROOT
BRANCH   1   2
ATOM      2  C   UNL     1      18.390  11.519 -13.508  1.00  0.00     0.053 C 
BRANCH   2   3
ATOM      3  C   UNL     1      18.365  10.129 -14.068  1.00  0.00     0.041 C 
ATOM      4  O   UNL     1      17.307   9.449 -14.031  1.00  0.00    -0.550 OA
ATOM      5  O   UNL     1      19.520   9.575 -14.603  1.00  0.00    -0.550 OA
ENDBRANCH   2   3
ENDBRANCH   1   2
BRANCH   1   6
ATOM      6  C   UNL     1      19.646  13.092 -15.128  1.00  0.00     0.000 C 
BRANCH   6   7
ATOM      7  C   UNL     1      20.733  14.176 -15.174  1.00  0.00    -0.003 C 
ATOM      8  C   UNL     1      21.747  13.986 -14.049  1.00  0.00     0.004 C 
ENDBRANCH   6   7
ENDBRANCH   1   6
TORSDOF 4
ENDMDL
MODEL 2
REMARK VINA RESULT:    -3.140      2.863      4.473
REMARK INTER + INTRA:          -3.986
REMARK INTER:                  -3.887
REMARK INTRA:                  -0.099
REMARK UNBOUND:                -0.113
REMARK SMILES CCCCCC(=O)[O-]
REMARK SMILES IDX 4 1 5 2 6 3 7 4 8 5 3 6 2 7 1 8
REMARK H PARENT
REMARK Flexibility Score: inf
ROOT
ATOM      1  C   UNL     1      19.089  12.300 -14.424  1.00  0.00     0.006 C 
ENDROOT
BRANCH   1   2
ATOM      2  C   UNL     1      20.486  12.700 -13.926  1.00  0.00     0.053 C 
BRANCH   2   3
ATOM      3  C   UNL     1      20.978  13.953 -14.584  1.00  0.00     0.041 C 
ATOM      4  O   UNL     1      20.375  14.422 -15.584  1.00  0.00    -0.550 OA
ATOM      5  O   UNL     1      22.119  14.586 -14.110  1.00  0.00    -0.550 OA
ENDBRANCH   2   3
ENDBRANCH   1   2
BRANCH   1   6
ATOM      6  C   UNL     1      18.287  11.434 -13.435  1.00  0.00     0.000 C 
BRANCH   6   7
ATOM      7  C   UNL     1      17.786  10.125 -14.063  1.00  0.00    -0.003 C 
ATOM      8  C   UNL     1      18.732   9.643 -15.158  1.00  0.00     0.004 C 
ENDBRANCH   6   7
ENDBRANCH   1   6
TORSDOF 4
ENDMDL
MODEL 3
REMARK VINA RESULT:    -3.119     13.558     14.509
REMARK INTER + INTRA:          -3.962
REMARK INTER:                  -3.691
REMARK INTRA:                  -0.271
REMARK UNBOUND:                -0.113
REMARK SMILES CCCCCC(=O)[O-]
REMARK SMILES IDX 4 1 5 2 6 3 7 4 8 5 3 6 2 7 1 8
REMARK H PARENT
REMARK Flexibility Score: inf
ROOT
ATOM      1  C   UNL     1       6.920   8.866 -12.556  1.00  0.00     0.006 C 
ENDROOT
BRANCH   1   2
ATOM      2  C   UNL     1       5.651   8.080 -12.191  1.00  0.00     0.053 C 
BRANCH   2   3
ATOM      3  C   UNL     1       4.892   8.730 -11.075  1.00  0.00     0.041 C 
ATOM      4  O   UNL     1       3.759   9.235 -11.289  1.00  0.00    -0.550 OA
ATOM      5  O   UNL     1       5.450   8.805  -9.806  1.00  0.00    -0.550 OA
ENDBRANCH   2   3
ENDBRANCH   1   2
BRANCH   1   6
ATOM      6  C   UNL     1       6.651  10.251 -13.176  1.00  0.00     0.000 C 
BRANCH   6   7
ATOM      7  C   UNL     1       5.739  10.182 -14.410  1.00  0.00    -0.003 C 
ATOM      8  C   UNL     1       4.535  11.107 -14.255  1.00  0.00     0.004 C 
ENDBRANCH   6   7
ENDBRANCH   1   6
TORSDOF 4
ENDMDL
MODEL 4
REMARK VINA RESULT:    -2.842      3.046      4.683
REMARK INTER + INTRA:          -3.619
REMARK INTER:                  -3.510
REMARK INTRA:                  -0.109
REMARK UNBOUND:                -0.113
REMARK SMILES CCCCCC(=O)[O-]
REMARK SMILES IDX 4 1 5 2 6 3 7 4 8 5 3 6 2 7 1 8
REMARK H PARENT
REMARK Flexibility Score: inf
ROOT
ATOM      1  C   UNL     1      20.198  12.674 -13.919  1.00  0.00     0.006 C 
ENDROOT
BRANCH   1   2
ATOM      2  C   UNL     1      21.418  13.559 -14.217  1.00  0.00     0.053 C 
BRANCH   2   3
ATOM      3  C   UNL     1      21.107  14.619 -15.229  1.00  0.00     0.041 C 
ATOM      4  O   UNL     1      21.852  15.628 -15.340  1.00  0.00    -0.550 OA
ATOM      5  O   UNL     1      19.976  14.508 -16.027  1.00  0.00    -0.550 OA
ENDBRANCH   2   3
ENDBRANCH   1   2
BRANCH   1   6
ATOM      6  C   UNL     1      20.248  11.282 -14.576  1.00  0.00     0.000 C 
BRANCH   6   7
ATOM      7  C   UNL     1      18.874  10.813 -15.078  1.00  0.00    -0.003 C 
ATOM      8  C   UNL     1      17.917  10.572 -13.914  1.00  0.00     0.004 C 
ENDBRANCH   6   7
ENDBRANCH   1   6
TORSDOF 4
ENDMDL
MODEL 5
REMARK VINA RESULT:    -2.792      2.324      4.889
REMARK INTER + INTRA:          -3.558
REMARK INTER:                  -3.511
REMARK INTRA:                  -0.047
REMARK UNBOUND:                -0.113
REMARK SMILES CCCCCC(=O)[O-]
REMARK SMILES IDX 4 1 5 2 6 3 7 4 8 5 3 6 2 7 1 8
REMARK H PARENT
REMARK Flexibility Score: inf
ROOT
ATOM      1  C   UNL     1      18.708  10.180 -14.211  1.00  0.00     0.006 C 
ENDROOT
BRANCH   1   2
ATOM      2  C   UNL     1      18.912  11.696 -14.067  1.00  0.00     0.053 C 
BRANCH   2   3
ATOM      3  C   UNL     1      20.358  12.078 -14.166  1.00  0.00     0.041 C 
ATOM      4  O   UNL     1      21.239  11.191 -14.315  1.00  0.00    -0.550 OA
ATOM      5  O   UNL     1      20.733  13.411 -14.065  1.00  0.00    -0.550 OA
ENDBRANCH   2   3
ENDBRANCH   1   2
BRANCH   1   6
ATOM      6  C   UNL     1      17.289   9.695 -13.862  1.00  0.00     0.000 C 
BRANCH   6   7
ATOM      7  C   UNL     1      16.908   8.398 -14.591  1.00  0.00    -0.003 C 
ATOM      8  C   UNL     1      15.469   7.996 -14.281  1.00  0.00     0.004 C 
ENDBRANCH   6   7
ENDBRANCH   1   6
TORSDOF 4
ENDMDL
MODEL 6
REMARK VINA RESULT:    -2.790      1.840      2.690
REMARK INTER + INTRA:          -3.555
REMARK INTER:                  -3.319
REMARK INTRA:                  -0.236
REMARK UNBOUND:                -0.113
REMARK SMILES CCCCCC(=O)[O-]
REMARK SMILES IDX 4 1 5 2 6 3 7 4 8 5 3 6 2 7 1 8
REMARK H PARENT
REMARK Flexibility Score: inf
ROOT
ATOM      1  C   UNL     1      18.326  10.036 -14.546  1.00  0.00     0.006 C 
ENDROOT
BRANCH   1   2
ATOM      2  C   UNL     1      19.010   9.920 -15.917  1.00  0.00     0.053 C 
BRANCH   2   3
ATOM      3  C   UNL     1      20.279   9.127 -15.845  1.00  0.00     0.041 C 
ATOM      4  O   UNL     1      20.258   7.880 -16.014  1.00  0.00    -0.550 OA
ATOM      5  O   UNL     1      21.480   9.762 -15.559  1.00  0.00    -0.550 OA
ENDBRANCH   2   3
ENDBRANCH   1   2
BRANCH   1   6
ATOM      6  C   UNL     1      18.726  11.287 -13.742  1.00  0.00     0.000 C 
BRANCH   6   7
ATOM      7  C   UNL     1      19.196  12.443 -14.638  1.00  0.00    -0.003 C 
ATOM      8  C   UNL     1      20.561  12.962 -14.196  1.00  0.00     0.004 C 
ENDBRANCH   6   7
ENDBRANCH   1   6
TORSDOF 4
ENDMDL
MODEL 7
REMARK VINA RESULT:    -2.752     13.845     14.819
REMARK INTER + INTRA:          -3.508
REMARK INTER:                  -3.337
REMARK INTRA:                  -0.171
REMARK UNBOUND:                -0.113
REMARK SMILES CCCCCC(=O)[O-]
REMARK SMILES IDX 4 1 5 2 6 3 7 4 8 5 3 6 2 7 1 8
REMARK H PARENT
REMARK Flexibility Score: inf
ROOT
ATOM      1  C   UNL     1       6.514  10.254 -13.143  1.00  0.00     0.006 C 
ENDROOT
BRANCH   1   2
ATOM      2  C   UNL     1       5.613  10.141 -14.382  1.00  0.00     0.053 C 
BRANCH   2   3
ATOM      3  C   UNL     1       4.370  10.968 -14.248  1.00  0.00     0.041 C 
ATOM      4  O   UNL     1       3.463  10.623 -13.446  1.00  0.00    -0.550 OA
ATOM      5  O   UNL     1       4.202  12.102 -15.030  1.00  0.00    -0.550 OA
ENDBRANCH   2   3
ENDBRANCH   1   2
BRANCH   1   6
ATOM      6  C   UNL     1       6.779   8.915 -12.429  1.00  0.00     0.000 C 
BRANCH   6   7
ATOM      7  C   UNL     1       5.498   8.270 -11.880  1.00  0.00    -0.003 C 
ATOM      8  C   UNL     1       5.263   8.665 -10.425  1.00  0.00     0.004 C 
ENDBRANCH   6   7
ENDBRANCH   1   6
TORSDOF 4
ENDMDL
MODEL 8
REMARK VINA RESULT:    -2.612      2.188      4.054
REMARK INTER + INTRA:          -3.336
REMARK INTER:                  -3.209
REMARK INTRA:                  -0.127
REMARK UNBOUND:                -0.113
REMARK SMILES CCCCCC(=O)[O-]
REMARK SMILES IDX 4 1 5 2 6 3 7 4 8 5 3 6 2 7 1 8
REMARK H PARENT
REMARK Flexibility Score: inf
ROOT
ATOM      1  C   UNL     1      19.319  12.654 -14.347  1.00  0.00     0.006 C 
ENDROOT
BRANCH   1   2
ATOM      2  C   UNL     1      20.806  12.679 -13.962  1.00  0.00     0.053 C 
BRANCH   2   3
ATOM      3  C   UNL     1      21.642  11.869 -14.906  1.00  0.00     0.041 C 
ATOM      4  O   UNL     1      21.933  10.676 -14.631  1.00  0.00    -0.550 OA
ATOM      5  O   UNL     1      22.125  12.443 -16.075  1.00  0.00    -0.550 OA
ENDBRANCH   2   3
ENDBRANCH   1   2
BRANCH   1   6
ATOM      6  C   UNL     1      18.497  11.568 -13.628  1.00  0.00     0.000 C 
BRANCH   6   7
ATOM      7  C   UNL     1      18.357  10.282 -14.457  1.00  0.00    -0.003 C 
ATOM      8  C   UNL     1      17.252   9.388 -13.903  1.00  0.00     0.004 C 
ENDBRANCH   6   7
ENDBRANCH   1   6
TORSDOF 4
ENDMDL
MODEL 9
REMARK VINA RESULT:    -2.562     13.490     14.843
REMARK INTER + INTRA:          -3.274
REMARK INTER:                  -3.144
REMARK INTRA:                  -0.130
REMARK UNBOUND:                -0.113
REMARK SMILES CCCCCC(=O)[O-]
REMARK SMILES IDX 4 1 5 2 6 3 7 4 8 5 3 6 2 7 1 8
REMARK H PARENT
REMARK Flexibility Score: inf
ROOT
ATOM      1  C   UNL     1       6.166   8.954 -11.688  1.00  0.00     0.006 C 
ENDROOT
BRANCH   1   2
ATOM      2  C   UNL     1       6.739   9.006 -13.112  1.00  0.00     0.053 C 
BRANCH   2   3
ATOM      3  C   UNL     1       5.834   9.743 -14.052  1.00  0.00     0.041 C 
ATOM      4  O   UNL     1       5.610   9.289 -15.204  1.00  0.00    -0.550 OA
ATOM      5  O   UNL     1       5.263  10.949 -13.666  1.00  0.00    -0.550 OA
ENDBRANCH   2   3
ENDBRANCH   1   2
BRANCH   1   6
ATOM      6  C   UNL     1       4.896   8.094 -11.546  1.00  0.00     0.000 C 
BRANCH   6   7
ATOM      7  C   UNL     1       4.142   8.359 -10.235  1.00  0.00    -0.003 C 
ATOM      8  C   UNL     1       5.112   8.533  -9.069  1.00  0.00     0.004 C 
ENDBRANCH   6   7
ENDBRANCH   1   6
TORSDOF 4
ENDMDL
