MODEL 1
REMARK VINA RESULT:    -4.896      0.000      0.000
REMARK INTER + INTRA:          -9.458
REMARK INTER:                  -7.471
REMARK INTRA:                  -1.986
REMARK UNBOUND:                -1.986
REMARK SMILES CC(=O)CCC=C(C)CCC=C(C)CCC=C(C)C
REMARK SMILES IDX 10 1 11 2 12 3 13 4 14 5 15 6 16 7 18 8 17 9 19 10 9 11 7 12
REMARK SMILES IDX 6 13 8 14 5 15 4 16 2 17 3 18 1 19
REMARK H PARENT
REMARK Flexibility Score: inf
ROOT
ATOM      1  C   UNL     1      -3.009   4.549  63.489  1.00  0.00     0.032 C 
ENDROOT
BRANCH   1   2
ATOM      2  C   UNL     1      -1.515   4.426  63.324  1.00  0.00    -0.028 C 
ATOM      3  C   UNL     1      -0.626   5.404  63.614  1.00  0.00    -0.077 C 
ATOM      4  C   UNL     1      -1.053   6.732  64.192  1.00  0.00     0.039 C 
BRANCH   3   5
ATOM      5  C   UNL     1       0.854   5.140  63.422  1.00  0.00     0.034 C 
BRANCH   5   6
ATOM      6  C   UNL     1       1.211   4.966  61.939  1.00  0.00     0.032 C 
BRANCH   6   7
ATOM      7  C   UNL     1       2.580   5.519  61.617  1.00  0.00    -0.028 C 
ATOM      8  C   UNL     1       3.760   3.375  62.154  1.00  0.00     0.039 C 
ATOM      9  C   UNL     1       3.736   4.828  61.749  1.00  0.00    -0.080 C 
ATOM     10  C   UNL     1       5.047   5.496  61.427  1.00  0.00     0.039 C 
ENDBRANCH   6   7
ENDBRANCH   5   6
ENDBRANCH   3   5
ENDBRANCH   1   2
BRANCH   1  11
ATOM     11  C   UNL     1      -3.455   4.043  64.865  1.00  0.00     0.034 C 
BRANCH  11  12
ATOM     12  C   UNL     1      -4.003   5.180  65.704  1.00  0.00    -0.077 C 
ATOM     13  C   UNL     1      -3.698   5.346  67.012  1.00  0.00    -0.028 C 
ATOM     14  C   UNL     1      -4.976   6.142  65.071  1.00  0.00     0.039 C 
BRANCH  13  15
ATOM     15  C   UNL     1      -2.736   4.483  67.788  1.00  0.00     0.035 C 
BRANCH  15  16
ATOM     16  C   UNL     1      -1.408   5.213  68.016  1.00  0.00     0.079 C 
BRANCH  16  17
ATOM     17  C   UNL     1      -0.310   4.589  67.196  1.00  0.00     0.130 C 
ATOM     18  O   UNL     1       0.702   5.231  66.958  1.00  0.00    -0.300 OA
ATOM     19  C   UNL     1      -0.426   3.187  66.673  1.00  0.00     0.087 C 
ENDBRANCH  16  17
ENDBRANCH  15  16
ENDBRANCH  13  15
ENDBRANCH  11  12
ENDBRANCH   1  11
TORSDOF 9
ENDMDL
MODEL 2
REMARK VINA RESULT:    -4.882      3.219      6.246
REMARK INTER + INTRA:          -9.437
REMARK INTER:                  -7.582
REMARK INTRA:                  -1.855
REMARK UNBOUND:                -1.986
REMARK SMILES CC(=O)CCC=C(C)CCC=C(C)CCC=C(C)C
REMARK SMILES IDX 10 1 11 2 12 3 13 4 14 5 15 6 16 7 18 8 17 9 19 10 9 11 7 12
REMARK SMILES IDX 6 13 8 14 5 15 4 16 2 17 3 18 1 19
REMARK H PARENT
REMARK Flexibility Score: inf
ROOT
ATOM      1  C   UNL     1      -0.573   5.057  66.390  1.00  0.00     0.032 C 
ENDROOT
BRANCH   1   2
ATOM      2  C   UNL     1       0.807   5.509  66.795  1.00  0.00    -0.028 C 
ATOM      3  C   UNL     1       1.368   6.685  66.434  1.00  0.00    -0.077 C 
ATOM      4  C   UNL     1       0.626   7.708  65.607  1.00  0.00     0.039 C 
BRANCH   3   5
ATOM      5  C   UNL     1       2.759   7.026  66.930  1.00  0.00     0.034 C 
BRANCH   5   6
ATOM      6  C   UNL     1       2.805   7.136  68.460  1.00  0.00     0.032 C 
BRANCH   6   7
ATOM      7  C   UNL     1       2.476   8.530  68.940  1.00  0.00    -0.028 C 
ATOM      8  C   UNL     1       0.091   7.973  69.465  1.00  0.00     0.039 C 
ATOM      9  C   UNL     1       1.252   8.929  69.354  1.00  0.00    -0.080 C 
ATOM     10  C   UNL     1       1.037  10.358  69.781  1.00  0.00     0.039 C 
ENDBRANCH   6   7
ENDBRANCH   5   6
ENDBRANCH   3   5
ENDBRANCH   1   2
BRANCH   1  11
ATOM     11  C   UNL     1      -0.505   3.995  65.287  1.00  0.00     0.034 C 
BRANCH  11  12
ATOM     12  C   UNL     1      -0.917   4.580  63.952  1.00  0.00    -0.077 C 
ATOM     13  C   UNL     1      -0.026   5.000  63.023  1.00  0.00    -0.028 C 
ATOM     14  C   UNL     1      -2.386   4.757  63.661  1.00  0.00     0.039 C 
BRANCH  13  15
ATOM     15  C   UNL     1       1.472   4.883  63.152  1.00  0.00     0.035 C 
BRANCH  15  16
ATOM     16  C   UNL     1       2.150   5.022  61.785  1.00  0.00     0.079 C 
BRANCH  16  17
ATOM     17  C   UNL     1       3.567   4.515  61.839  1.00  0.00     0.130 C 
ATOM     18  O   UNL     1       4.480   5.238  61.471  1.00  0.00    -0.300 OA
ATOM     19  C   UNL     1       3.885   3.139  62.348  1.00  0.00     0.087 C 
ENDBRANCH  16  17
ENDBRANCH  15  16
ENDBRANCH  13  15
ENDBRANCH  11  12
ENDBRANCH   1  11
TORSDOF 9
ENDMDL
MODEL 3
REMARK VINA RESULT:    -4.838      2.411      6.922
REMARK INTER + INTRA:          -9.370
REMARK INTER:                  -7.500
REMARK INTRA:                  -1.870
REMARK UNBOUND:                -1.986
REMARK SMILES CC(=O)CCC=C(C)CCC=C(C)CCC=C(C)C
REMARK SMILES IDX 10 1 11 2 12 3 13 4 14 5 15 6 16 7 18 8 17 9 19 10 9 11 7 12
REMARK SMILES IDX 6 13 8 14 5 15 4 16 2 17 3 18 1 19
REMARK H PARENT
REMARK Flexibility Score: inf
ROOT
ATOM      1  C   UNL     1       0.599   5.046  63.064  1.00  0.00     0.032 C 
ENDROOT
BRANCH   1   2
ATOM      2  C   UNL     1      -0.902   4.904  63.015  1.00  0.00    -0.028 C 
ATOM      3  C   UNL     1      -1.659   4.394  64.013  1.00  0.00    -0.077 C 
ATOM      4  C   UNL     1      -1.063   3.950  65.327  1.00  0.00     0.039 C 
BRANCH   3   5
ATOM      5  C   UNL     1      -3.163   4.329  63.842  1.00  0.00     0.034 C 
BRANCH   5   6
ATOM      6  C   UNL     1      -3.894   5.137  64.923  1.00  0.00     0.032 C 
BRANCH   6   7
ATOM      7  C   UNL     1      -4.071   6.584  64.527  1.00  0.00    -0.028 C 
ATOM      8  C   UNL     1      -2.236   7.397  66.026  1.00  0.00     0.039 C 
ATOM      9  C   UNL     1      -3.362   7.612  65.045  1.00  0.00    -0.080 C 
ATOM     10  C   UNL     1      -3.649   9.021  64.595  1.00  0.00     0.039 C 
ENDBRANCH   6   7
ENDBRANCH   5   6
ENDBRANCH   3   5
ENDBRANCH   1   2
BRANCH   1  11
ATOM     11  C   UNL     1       1.203   5.008  61.656  1.00  0.00     0.034 C 
BRANCH  11  12
ATOM     12  C   UNL     1       2.715   5.093  61.719  1.00  0.00    -0.077 C 
ATOM     13  C   UNL     1       3.406   6.204  61.372  1.00  0.00    -0.028 C 
ATOM     14  C   UNL     1       3.493   3.870  62.131  1.00  0.00     0.039 C 
BRANCH  13  15
ATOM     15  C   UNL     1       2.782   7.511  60.952  1.00  0.00     0.035 C 
BRANCH  15  16
ATOM     16  C   UNL     1       2.396   8.351  62.174  1.00  0.00     0.079 C 
BRANCH  16  17
ATOM     17  C   UNL     1       0.954   8.776  62.094  1.00  0.00     0.130 C 
ATOM     18  O   UNL     1       0.522   9.246  61.052  1.00  0.00    -0.300 OA
ATOM     19  C   UNL     1       0.029   8.625  63.265  1.00  0.00     0.087 C 
ENDBRANCH  16  17
ENDBRANCH  15  16
ENDBRANCH  13  15
ENDBRANCH  11  12
ENDBRANCH   1  11
TORSDOF 9
ENDMDL
MODEL 4
REMARK VINA RESULT:    -4.832      3.346      5.804
REMARK INTER + INTRA:          -9.360
REMARK INTER:                  -8.186
REMARK INTRA:                  -1.174
REMARK UNBOUND:                -1.986
REMARK SMILES CC(=O)CCC=C(C)CCC=C(C)CCC=C(C)C
REMARK SMILES IDX 10 1 11 2 12 3 13 4 14 5 15 6 16 7 18 8 17 9 19 10 9 11 7 12
REMARK SMILES IDX 6 13 8 14 5 15 4 16 2 17 3 18 1 19
REMARK H PARENT
REMARK Flexibility Score: inf
ROOT
ATOM      1  C   UNL     1      -1.686   5.285  66.325  1.00  0.00     0.032 C 
ENDROOT
BRANCH   1   2
ATOM      2  C   UNL     1      -0.852   5.175  67.577  1.00  0.00    -0.028 C 
ATOM      3  C   UNL     1       0.339   5.788  67.764  1.00  0.00    -0.077 C 
ATOM      4  C   UNL     1       0.941   6.706  66.728  1.00  0.00     0.039 C 
BRANCH   3   5
ATOM      5  C   UNL     1       1.064   5.610  69.083  1.00  0.00     0.034 C 
BRANCH   5   6
ATOM      6  C   UNL     1       1.817   6.883  69.493  1.00  0.00     0.032 C 
BRANCH   6   7
ATOM      7  C   UNL     1       3.313   6.671  69.529  1.00  0.00    -0.028 C 
ATOM      8  C   UNL     1       3.836   9.054  68.963  1.00  0.00     0.039 C 
ATOM      9  C   UNL     1       4.229   7.627  69.252  1.00  0.00    -0.080 C 
ATOM     10  C   UNL     1       5.696   7.289  69.289  1.00  0.00     0.039 C 
ENDBRANCH   6   7
ENDBRANCH   5   6
ENDBRANCH   3   5
ENDBRANCH   1   2
BRANCH   1  11
ATOM     11  C   UNL     1      -1.474   4.072  65.413  1.00  0.00     0.034 C 
BRANCH  11  12
ATOM     12  C   UNL     1      -1.753   4.433  63.967  1.00  0.00    -0.077 C 
ATOM     13  C   UNL     1      -0.784   4.805  63.099  1.00  0.00    -0.028 C 
ATOM     14  C   UNL     1      -3.181   4.432  63.483  1.00  0.00     0.039 C 
BRANCH  13  15
ATOM     15  C   UNL     1       0.689   4.846  63.419  1.00  0.00     0.035 C 
BRANCH  15  16
ATOM     16  C   UNL     1       1.513   5.146  62.162  1.00  0.00     0.079 C 
BRANCH  16  17
ATOM     17  C   UNL     1       2.969   4.841  62.394  1.00  0.00     0.130 C 
ATOM     18  O   UNL     1       3.747   5.754  62.623  1.00  0.00    -0.300 OA
ATOM     19  C   UNL     1       3.487   3.433  62.359  1.00  0.00     0.087 C 
ENDBRANCH  16  17
ENDBRANCH  15  16
ENDBRANCH  13  15
ENDBRANCH  11  12
ENDBRANCH   1  11
TORSDOF 9
ENDMDL
MODEL 5
REMARK VINA RESULT:    -4.750      2.228      4.194
REMARK INTER + INTRA:          -9.235
REMARK INTER:                  -6.844
REMARK INTRA:                  -2.391
REMARK UNBOUND:                -1.986
REMARK SMILES CC(=O)CCC=C(C)CCC=C(C)CCC=C(C)C
REMARK SMILES IDX 10 1 11 2 12 3 13 4 14 5 15 6 16 7 18 8 17 9 19 10 9 11 7 12
REMARK SMILES IDX 6 13 8 14 5 15 4 16 2 17 3 18 1 19
REMARK H PARENT
REMARK Flexibility Score: inf
ROOT
ATOM      1  C   UNL     1       0.980   5.047  61.712  1.00  0.00     0.032 C 
ENDROOT
BRANCH   1   2
ATOM      2  C   UNL     1       2.429   5.352  61.426  1.00  0.00    -0.028 C 
ATOM      3  C   UNL     1       3.476   4.674  61.948  1.00  0.00    -0.077 C 
ATOM      4  C   UNL     1       3.287   3.482  62.856  1.00  0.00     0.039 C 
BRANCH   3   5
ATOM      5  C   UNL     1       4.885   5.072  61.558  1.00  0.00     0.034 C 
BRANCH   5   6
ATOM      6  C   UNL     1       5.225   6.492  62.031  1.00  0.00     0.032 C 
BRANCH   6   7
ATOM      7  C   UNL     1       5.300   6.586  63.537  1.00  0.00    -0.028 C 
ATOM      8  C   UNL     1       3.329   8.122  63.711  1.00  0.00     0.039 C 
ATOM      9  C   UNL     1       4.481   7.346  64.299  1.00  0.00    -0.080 C 
ATOM     10  C   UNL     1       4.673   7.384  65.793  1.00  0.00     0.039 C 
ENDBRANCH   6   7
ENDBRANCH   5   6
ENDBRANCH   3   5
ENDBRANCH   1   2
BRANCH   1  11
ATOM     11  C   UNL     1       0.438   5.943  62.831  1.00  0.00     0.034 C 
BRANCH  11  12
ATOM     12  C   UNL     1      -0.337   5.126  63.845  1.00  0.00    -0.077 C 
ATOM     13  C   UNL     1       0.109   4.893  65.101  1.00  0.00    -0.028 C 
ATOM     14  C   UNL     1      -1.639   4.495  63.423  1.00  0.00     0.039 C 
BRANCH  13  15
ATOM     15  C   UNL     1       1.380   5.459  65.683  1.00  0.00     0.035 C 
BRANCH  15  16
ATOM     16  C   UNL     1       1.072   6.581  66.681  1.00  0.00     0.079 C 
BRANCH  16  17
ATOM     17  C   UNL     1       1.470   6.177  68.076  1.00  0.00     0.130 C 
ATOM     18  O   UNL     1       2.567   6.501  68.506  1.00  0.00    -0.300 OA
ATOM     19  C   UNL     1       0.544   5.392  68.957  1.00  0.00     0.087 C 
ENDBRANCH  16  17
ENDBRANCH  15  16
ENDBRANCH  13  15
ENDBRANCH  11  12
ENDBRANCH   1  11
TORSDOF 9
ENDMDL
MODEL 6
REMARK VINA RESULT:    -4.711      2.473      5.409
REMARK INTER + INTRA:          -9.176
REMARK INTER:                  -7.037
REMARK INTRA:                  -2.139
REMARK UNBOUND:                -1.986
REMARK SMILES CC(=O)CCC=C(C)CCC=C(C)CCC=C(C)C
REMARK SMILES IDX 10 1 11 2 12 3 13 4 14 5 15 6 16 7 18 8 17 9 19 10 9 11 7 12
REMARK SMILES IDX 6 13 8 14 5 15 4 16 2 17 3 18 1 19
REMARK H PARENT
REMARK Flexibility Score: inf
ROOT
ATOM      1  C   UNL     1      -2.985   5.980  66.077  1.00  0.00     0.032 C 
ENDROOT
BRANCH   1   2
ATOM      2  C   UNL     1      -1.842   5.704  67.022  1.00  0.00    -0.028 C 
ATOM      3  C   UNL     1      -1.486   4.476  67.460  1.00  0.00    -0.077 C 
ATOM      4  C   UNL     1      -2.188   3.222  66.995  1.00  0.00     0.039 C 
BRANCH   3   5
ATOM      5  C   UNL     1      -0.300   4.337  68.393  1.00  0.00     0.034 C 
BRANCH   5   6
ATOM      6  C   UNL     1       0.047   5.669  69.073  1.00  0.00     0.032 C 
BRANCH   6   7
ATOM      7  C   UNL     1       1.539   5.874  69.192  1.00  0.00    -0.028 C 
ATOM      8  C   UNL     1       1.330   8.294  69.805  1.00  0.00     0.039 C 
ATOM      9  C   UNL     1       2.129   7.057  69.479  1.00  0.00    -0.080 C 
ATOM     10  C   UNL     1       3.631   7.147  69.541  1.00  0.00     0.039 C 
ENDBRANCH   6   7
ENDBRANCH   5   6
ENDBRANCH   3   5
ENDBRANCH   1   2
BRANCH   1  11
ATOM     11  C   UNL     1      -2.477   6.225  64.653  1.00  0.00     0.034 C 
BRANCH  11  12
ATOM     12  C   UNL     1      -2.526   4.947  63.838  1.00  0.00    -0.077 C 
ATOM     13  C   UNL     1      -1.470   4.482  63.131  1.00  0.00    -0.028 C 
ATOM     14  C   UNL     1      -3.824   4.185  63.765  1.00  0.00     0.039 C 
BRANCH  13  15
ATOM     15  C   UNL     1      -0.102   5.115  63.108  1.00  0.00     0.035 C 
BRANCH  15  16
ATOM     16  C   UNL     1       0.691   4.750  64.368  1.00  0.00     0.079 C 
BRANCH  16  17
ATOM     17  C   UNL     1       1.729   5.798  64.666  1.00  0.00     0.130 C 
ATOM     18  O   UNL     1       2.735   5.864  63.975  1.00  0.00    -0.300 OA
ATOM     19  C   UNL     1       1.552   6.776  65.791  1.00  0.00     0.087 C 
ENDBRANCH  16  17
ENDBRANCH  15  16
ENDBRANCH  13  15
ENDBRANCH  11  12
ENDBRANCH   1  11
TORSDOF 9
ENDMDL
MODEL 7
REMARK VINA RESULT:    -4.708      1.740      2.804
REMARK INTER + INTRA:          -9.172
REMARK INTER:                  -6.856
REMARK INTRA:                  -2.316
REMARK UNBOUND:                -1.986
REMARK SMILES CC(=O)CCC=C(C)CCC=C(C)CCC=C(C)C
REMARK SMILES IDX 10 1 11 2 12 3 13 4 14 5 15 6 16 7 18 8 17 9 19 10 9 11 7 12
REMARK SMILES IDX 6 13 8 14 5 15 4 16 2 17 3 18 1 19
REMARK H PARENT
REMARK Flexibility Score: inf
ROOT
ATOM      1  C   UNL     1      -0.148   3.587  65.827  1.00  0.00     0.032 C 
ENDROOT
BRANCH   1   2
ATOM      2  C   UNL     1       0.467   4.489  64.787  1.00  0.00    -0.028 C 
ATOM      3  C   UNL     1      -0.195   5.004  63.726  1.00  0.00    -0.077 C 
ATOM      4  C   UNL     1      -1.668   4.756  63.502  1.00  0.00     0.039 C 
BRANCH   3   5
ATOM      5  C   UNL     1       0.540   5.917  62.766  1.00  0.00     0.034 C 
BRANCH   5   6
ATOM      6  C   UNL     1       1.281   5.123  61.682  1.00  0.00     0.032 C 
BRANCH   6   7
ATOM      7  C   UNL     1       2.748   5.479  61.621  1.00  0.00    -0.028 C 
ATOM      8  C   UNL     1       3.499   3.259  62.506  1.00  0.00     0.039 C 
ATOM      9  C   UNL     1       3.751   4.666  62.027  1.00  0.00    -0.080 C 
ATOM     10  C   UNL     1       5.177   5.143  61.947  1.00  0.00     0.039 C 
ENDBRANCH   6   7
ENDBRANCH   5   6
ENDBRANCH   3   5
ENDBRANCH   1   2
BRANCH   1  11
ATOM     11  C   UNL     1      -0.235   4.290  67.186  1.00  0.00     0.034 C 
BRANCH  11  12
ATOM     12  C   UNL     1      -1.398   5.261  67.214  1.00  0.00    -0.077 C 
ATOM     13  C   UNL     1      -1.260   6.569  67.535  1.00  0.00    -0.028 C 
ATOM     14  C   UNL     1      -2.783   4.741  66.926  1.00  0.00     0.039 C 
BRANCH  13  15
ATOM     15  C   UNL     1       0.052   7.248  67.835  1.00  0.00     0.035 C 
BRANCH  15  16
ATOM     16  C   UNL     1       0.734   7.715  66.545  1.00  0.00     0.079 C 
BRANCH  16  17
ATOM     17  C   UNL     1       2.148   7.200  66.473  1.00  0.00     0.130 C 
ATOM     18  O   UNL     1       2.632   6.635  67.442  1.00  0.00    -0.300 OA
ATOM     19  C   UNL     1       2.974   7.357  65.231  1.00  0.00     0.087 C 
ENDBRANCH  16  17
ENDBRANCH  15  16
ENDBRANCH  13  15
ENDBRANCH  11  12
ENDBRANCH   1  11
TORSDOF 9
ENDMDL
MODEL 8
REMARK VINA RESULT:    -4.672      1.830      2.535
REMARK INTER + INTRA:          -9.117
REMARK INTER:                  -7.125
REMARK INTRA:                  -1.992
REMARK UNBOUND:                -1.986
REMARK SMILES CC(=O)CCC=C(C)CCC=C(C)CCC=C(C)C
REMARK SMILES IDX 10 1 11 2 12 3 13 4 14 5 15 6 16 7 18 8 17 9 19 10 9 11 7 12
REMARK SMILES IDX 6 13 8 14 5 15 4 16 2 17 3 18 1 19
REMARK H PARENT
REMARK Flexibility Score: inf
ROOT
ATOM      1  C   UNL     1      -2.230   4.042  64.428  1.00  0.00     0.032 C 
ENDROOT
BRANCH   1   2
ATOM      2  C   UNL     1      -1.387   4.839  63.464  1.00  0.00    -0.028 C 
ATOM      3  C   UNL     1      -0.054   5.028  63.583  1.00  0.00    -0.077 C 
ATOM      4  C   UNL     1       0.750   4.402  64.698  1.00  0.00     0.039 C 
BRANCH   3   5
ATOM      5  C   UNL     1       0.677   5.835  62.529  1.00  0.00     0.034 C 
BRANCH   5   6
ATOM      6  C   UNL     1       1.499   4.937  61.595  1.00  0.00     0.032 C 
BRANCH   6   7
ATOM      7  C   UNL     1       2.955   5.342  61.556  1.00  0.00    -0.028 C 
ATOM      8  C   UNL     1       3.773   3.109  62.345  1.00  0.00     0.039 C 
ATOM      9  C   UNL     1       3.981   4.544  61.929  1.00  0.00    -0.080 C 
ATOM     10  C   UNL     1       5.392   5.069  61.876  1.00  0.00     0.039 C 
ENDBRANCH   6   7
ENDBRANCH   5   6
ENDBRANCH   3   5
ENDBRANCH   1   2
BRANCH   1  11
ATOM     11  C   UNL     1      -2.932   4.957  65.436  1.00  0.00     0.034 C 
BRANCH  11  12
ATOM     12  C   UNL     1      -3.980   5.810  64.749  1.00  0.00    -0.077 C 
ATOM     13  C   UNL     1      -3.994   7.162  64.819  1.00  0.00    -0.028 C 
ATOM     14  C   UNL     1      -5.091   5.124  63.996  1.00  0.00     0.039 C 
BRANCH  13  15
ATOM     15  C   UNL     1      -2.952   7.999  65.518  1.00  0.00     0.035 C 
BRANCH  15  16
ATOM     16  C   UNL     1      -1.760   8.271  64.594  1.00  0.00     0.079 C 
BRANCH  16  17
ATOM     17  C   UNL     1      -0.490   8.407  65.391  1.00  0.00     0.130 C 
ATOM     18  O   UNL     1       0.282   9.321  65.142  1.00  0.00    -0.300 OA
ATOM     19  C   UNL     1      -0.153   7.448  66.495  1.00  0.00     0.087 C 
ENDBRANCH  16  17
ENDBRANCH  15  16
ENDBRANCH  13  15
ENDBRANCH  11  12
ENDBRANCH   1  11
TORSDOF 9
ENDMDL
MODEL 9
REMARK VINA RESULT:    -4.652      2.398      4.036
REMARK INTER + INTRA:          -9.086
REMARK INTER:                  -6.608
REMARK INTRA:                  -2.478
REMARK UNBOUND:                -1.986
REMARK SMILES CC(=O)CCC=C(C)CCC=C(C)CCC=C(C)C
REMARK SMILES IDX 10 1 11 2 12 3 13 4 14 5 15 6 16 7 18 8 17 9 19 10 9 11 7 12
REMARK SMILES IDX 6 13 8 14 5 15 4 16 2 17 3 18 1 19
REMARK H PARENT
REMARK Flexibility Score: inf
ROOT
ATOM      1  C   UNL     1      -1.940   4.644  64.230  1.00  0.00     0.032 C 
ENDROOT
BRANCH   1   2
ATOM      2  C   UNL     1      -0.970   4.792  63.085  1.00  0.00    -0.028 C 
ATOM      3  C   UNL     1       0.374   4.851  63.217  1.00  0.00    -0.077 C 
ATOM      4  C   UNL     1       1.055   4.723  64.559  1.00  0.00     0.039 C 
BRANCH   3   5
ATOM      5  C   UNL     1       1.236   4.979  61.978  1.00  0.00     0.034 C 
BRANCH   5   6
ATOM      6  C   UNL     1       2.661   4.463  62.221  1.00  0.00     0.032 C 
BRANCH   6   7
ATOM      7  C   UNL     1       3.699   5.315  61.530  1.00  0.00    -0.028 C 
ATOM      8  C   UNL     1       3.981   6.858  63.483  1.00  0.00     0.039 C 
ATOM      9  C   UNL     1       4.269   6.417  62.070  1.00  0.00    -0.080 C 
ATOM     10  C   UNL     1       5.272   7.207  61.271  1.00  0.00     0.039 C 
ENDBRANCH   6   7
ENDBRANCH   5   6
ENDBRANCH   3   5
ENDBRANCH   1   2
BRANCH   1  11
ATOM     11  C   UNL     1      -2.593   5.986  64.577  1.00  0.00     0.034 C 
BRANCH  11  12
ATOM     12  C   UNL     1      -1.781   6.724  65.622  1.00  0.00    -0.077 C 
ATOM     13  C   UNL     1      -1.028   7.813  65.338  1.00  0.00    -0.028 C 
ATOM     14  C   UNL     1      -1.762   6.193  67.033  1.00  0.00     0.039 C 
BRANCH  13  15
ATOM     15  C   UNL     1      -0.947   8.476  63.987  1.00  0.00     0.035 C 
BRANCH  15  16
ATOM     16  C   UNL     1       0.478   8.407  63.429  1.00  0.00     0.079 C 
BRANCH  16  17
ATOM     17  C   UNL     1       0.548   9.042  62.065  1.00  0.00     0.130 C 
ATOM     18  O   UNL     1      -0.118  10.039  61.830  1.00  0.00    -0.300 OA
ATOM     19  C   UNL     1       1.428   8.482  60.986  1.00  0.00     0.087 C 
ENDBRANCH  16  17
ENDBRANCH  15  16
ENDBRANCH  13  15
ENDBRANCH  11  12
ENDBRANCH   1  11
TORSDOF 9
ENDMDL
