MODEL 1
REMARK VINA RESULT:    -6.862      0.000      0.000
REMARK INTER + INTRA:          -8.596
REMARK INTER:                  -8.266
REMARK INTRA:                  -0.329
REMARK UNBOUND:                -0.329
REMARK SMILES O=c1c(O)c(-c2ccc(O)c(O)c2)oc2cc(O)cc(O)c12
REMARK SMILES IDX 5 1 3 2 2 3 1 4 22 5 20 6 19 7 17 8 16 9 15 10 14 11 6 12
REMARK SMILES IDX 7 13 8 14 9 15 13 16 11 17 10 18 12 20 4 22 21 24 18 26
REMARK H PARENT 10 19 12 21 4 23 21 25 18 27
REMARK Flexibility Score: inf
ROOT
ATOM      1  C   UNL     1       9.773  11.610 -16.012  1.00  0.00     0.180 A 
ATOM      2  C   UNL     1      10.490  10.436 -16.300  1.00  0.00     0.208 A 
ATOM      3  C   UNL     1      10.177   9.258 -15.601  1.00  0.00     0.238 A 
ATOM      4  O   UNL     1      10.873   8.231 -15.810  1.00  0.00    -0.285 OA
ATOM      5  C   UNL     1       9.115   9.256 -14.664  1.00  0.00     0.111 A 
ATOM      6  C   UNL     1       8.682   8.109 -13.930  1.00  0.00     0.134 A 
ATOM      7  C   UNL     1       7.691   8.250 -12.952  1.00  0.00     0.093 A 
ATOM      8  C   UNL     1       7.072   9.481 -12.724  1.00  0.00     0.123 A 
ATOM      9  C   UNL     1       7.449  10.593 -13.473  1.00  0.00     0.094 A 
ATOM     10  C   UNL     1       8.462  10.494 -14.429  1.00  0.00     0.146 A 
ATOM     11  O   UNL     1       8.805  11.584 -15.105  1.00  0.00    -0.452 OA
ENDROOT
BRANCH   1  12
ATOM     12  C   UNL     1      10.054  12.893 -16.696  1.00  0.00     0.025 A 
ATOM     13  C   UNL     1      10.960  13.823 -16.163  1.00  0.00     0.016 A 
ATOM     14  C   UNL     1      11.190  15.036 -16.815  1.00  0.00     0.051 A 
ATOM     15  C   UNL     1      10.514  15.351 -17.999  1.00  0.00     0.157 A 
ATOM     16  C   UNL     1       9.359  13.215 -17.872  1.00  0.00     0.062 A 
ATOM     17  C   UNL     1       9.583  14.429 -18.533  1.00  0.00     0.158 A 
BRANCH  15  18
ATOM     18  O   UNL     1      10.794  16.578 -18.602  1.00  0.00    -0.504 OA
ATOM     19  H   UNL     1      11.404  17.277 -18.204  1.00  0.00     0.293 HD
ENDBRANCH  15  18
BRANCH  17  20
ATOM     20  O   UNL     1       8.865  14.677 -19.704  1.00  0.00    -0.504 OA
ATOM     21  H   UNL     1       8.266  15.480 -19.841  1.00  0.00     0.293 HD
ENDBRANCH  17  20
ENDBRANCH   1  12
BRANCH   2  22
ATOM     22  O   UNL     1      11.483  10.441 -17.283  1.00  0.00    -0.502 OA
ATOM     23  H   UNL     1      11.648   9.649 -17.893  1.00  0.00     0.293 HD
ENDBRANCH   2  22
BRANCH   6  24
ATOM     24  O   UNL     1       9.170   6.816 -14.140  1.00  0.00    -0.507 OA
ATOM     25  H   UNL     1      10.008   6.590 -14.652  1.00  0.00     0.293 HD
ENDBRANCH   6  24
BRANCH   8  26
ATOM     26  O   UNL     1       6.074   9.608 -11.760  1.00  0.00    -0.508 OA
ATOM     27  H   UNL     1       5.281  10.225 -11.896  1.00  0.00     0.293 HD
ENDBRANCH   8  26
TORSDOF 6
ENDMDL
MODEL 2
REMARK VINA RESULT:    -6.732      1.657      7.243
REMARK INTER + INTRA:          -8.439
REMARK INTER:                  -8.112
REMARK INTRA:                  -0.327
REMARK UNBOUND:                -0.329
REMARK SMILES O=c1c(O)c(-c2ccc(O)c(O)c2)oc2cc(O)cc(O)c12
REMARK SMILES IDX 5 1 3 2 2 3 1 4 22 5 20 6 19 7 17 8 16 9 15 10 14 11 6 12
REMARK SMILES IDX 7 13 8 14 9 15 13 16 11 17 10 18 12 20 4 22 21 24 18 26
REMARK H PARENT 10 19 12 21 4 23 21 25 18 27
REMARK Flexibility Score: inf
ROOT
ATOM      1  C   UNL     1       9.896  12.488 -16.948  1.00  0.00     0.180 A 
ATOM      2  C   UNL     1      10.651  13.583 -16.494  1.00  0.00     0.208 A 
ATOM      3  C   UNL     1      10.672  14.759 -17.261  1.00  0.00     0.238 A 
ATOM      4  O   UNL     1      11.410  15.708 -16.888  1.00  0.00    -0.285 OA
ATOM      5  C   UNL     1       9.894  14.847 -18.440  1.00  0.00     0.111 A 
ATOM      6  C   UNL     1       9.805  16.005 -19.271  1.00  0.00     0.134 A 
ATOM      7  C   UNL     1       9.087  15.940 -20.471  1.00  0.00     0.093 A 
ATOM      8  C   UNL     1       8.402  14.780 -20.841  1.00  0.00     0.123 A 
ATOM      9  C   UNL     1       8.439  13.662 -20.010  1.00  0.00     0.094 A 
ATOM     10  C   UNL     1       9.178  13.683 -18.826  1.00  0.00     0.146 A 
ATOM     11  O   UNL     1       9.202  12.588 -18.075  1.00  0.00    -0.452 OA
ENDROOT
BRANCH   1  12
ATOM     12  C   UNL     1       9.836  11.209 -16.203  1.00  0.00     0.025 A 
ATOM     13  C   UNL     1      10.712  10.152 -16.492  1.00  0.00     0.016 A 
ATOM     14  C   UNL     1      10.619   8.948 -15.792  1.00  0.00     0.051 A 
ATOM     15  C   UNL     1       9.646   8.769 -14.803  1.00  0.00     0.157 A 
ATOM     16  C   UNL     1       8.844  11.025 -15.227  1.00  0.00     0.062 A 
ATOM     17  C   UNL     1       8.744   9.821 -14.518  1.00  0.00     0.158 A 
BRANCH  15  18
ATOM     18  O   UNL     1       9.610   7.542 -14.137  1.00  0.00    -0.504 OA
ATOM     19  H   UNL     1      10.298   6.813 -14.261  1.00  0.00     0.293 HD
ENDBRANCH  15  18
BRANCH  17  20
ATOM     20  O   UNL     1       7.741   9.714 -13.554  1.00  0.00    -0.504 OA
ATOM     21  H   UNL     1       7.917   9.575 -12.568  1.00  0.00     0.293 HD
ENDBRANCH  17  20
ENDBRANCH   1  12
BRANCH   2  22
ATOM     22  O   UNL     1      11.352  13.503 -15.288  1.00  0.00    -0.502 OA
ATOM     23  H   UNL     1      11.226  12.737 -14.636  1.00  0.00     0.293 HD
ENDBRANCH   2  22
BRANCH   6  24
ATOM     24  O   UNL     1      10.375  17.242 -18.954  1.00  0.00    -0.507 OA
ATOM     25  H   UNL     1      10.684  17.926 -19.627  1.00  0.00     0.293 HD
ENDBRANCH   6  24
BRANCH   8  26
ATOM     26  O   UNL     1       7.676  14.730 -22.029  1.00  0.00    -0.508 OA
ATOM     27  H   UNL     1       6.842  14.161 -22.116  1.00  0.00     0.293 HD
ENDBRANCH   8  26
TORSDOF 6
ENDMDL
MODEL 3
REMARK VINA RESULT:    -6.503      2.937      7.486
REMARK INTER + INTRA:          -8.163
REMARK INTER:                  -8.047
REMARK INTRA:                  -0.116
REMARK UNBOUND:                -0.329
REMARK SMILES O=c1c(O)c(-c2ccc(O)c(O)c2)oc2cc(O)cc(O)c12
REMARK SMILES IDX 5 1 3 2 2 3 1 4 22 5 20 6 19 7 17 8 16 9 15 10 14 11 6 12
REMARK SMILES IDX 7 13 8 14 9 15 13 16 11 17 10 18 12 20 4 22 21 24 18 26
REMARK H PARENT 10 19 12 21 4 23 21 25 18 27
REMARK Flexibility Score: inf
ROOT
ATOM      1  C   UNL     1       7.405   8.245 -14.988  1.00  0.00     0.180 A 
ATOM      2  C   UNL     1       7.047   8.592 -13.674  1.00  0.00     0.208 A 
ATOM      3  C   UNL     1       7.421   9.851 -13.177  1.00  0.00     0.238 A 
ATOM      4  O   UNL     1       7.162  10.124 -11.976  1.00  0.00    -0.285 OA
ATOM      5  C   UNL     1       8.096  10.769 -14.017  1.00  0.00     0.111 A 
ATOM      6  C   UNL     1       8.484  12.089 -13.632  1.00  0.00     0.134 A 
ATOM      7  C   UNL     1       9.242  12.870 -14.512  1.00  0.00     0.093 A 
ATOM      8  C   UNL     1       9.574  12.404 -15.787  1.00  0.00     0.123 A 
ATOM      9  C   UNL     1       9.154  11.139 -16.191  1.00  0.00     0.094 A 
ATOM     10  C   UNL     1       8.429  10.321 -15.322  1.00  0.00     0.146 A 
ATOM     11  O   UNL     1       8.068   9.114 -15.741  1.00  0.00    -0.452 OA
ENDROOT
BRANCH   1  12
ATOM     12  C   UNL     1       7.060   6.931 -15.578  1.00  0.00     0.025 A 
ATOM     13  C   UNL     1       6.204   6.829 -16.686  1.00  0.00     0.016 A 
ATOM     14  C   UNL     1       5.875   5.576 -17.209  1.00  0.00     0.051 A 
ATOM     15  C   UNL     1       6.380   4.406 -16.633  1.00  0.00     0.157 A 
ATOM     16  C   UNL     1       7.551   5.758 -14.985  1.00  0.00     0.062 A 
ATOM     17  C   UNL     1       7.227   4.497 -15.503  1.00  0.00     0.158 A 
BRANCH  15  18
ATOM     18  O   UNL     1       6.016   3.187 -17.207  1.00  0.00    -0.504 OA
ATOM     19  H   UNL     1       6.263   2.286 -16.824  1.00  0.00     0.293 HD
ENDBRANCH  15  18
BRANCH  17  20
ATOM     20  O   UNL     1       7.761   3.375 -14.868  1.00  0.00    -0.504 OA
ATOM     21  H   UNL     1       8.353   2.695 -15.326  1.00  0.00     0.293 HD
ENDBRANCH  17  20
ENDBRANCH   1  12
BRANCH   2  22
ATOM     22  O   UNL     1       6.313   7.701 -12.887  1.00  0.00    -0.502 OA
ATOM     23  H   UNL     1       6.484   7.584 -11.895  1.00  0.00     0.293 HD
ENDBRANCH   2  22
BRANCH   6  24
ATOM     24  O   UNL     1       8.130  12.686 -12.418  1.00  0.00    -0.507 OA
ATOM     25  H   UNL     1       7.196  12.719 -12.041  1.00  0.00     0.293 HD
ENDBRANCH   6  24
BRANCH   8  26
ATOM     26  O   UNL     1      10.315  13.195 -16.662  1.00  0.00    -0.508 OA
ATOM     27  H   UNL     1      10.964  12.786 -17.325  1.00  0.00     0.293 HD
ENDBRANCH   8  26
TORSDOF 6
ENDMDL
MODEL 4
REMARK VINA RESULT:    -6.447      1.968      7.224
REMARK INTER + INTRA:          -8.095
REMARK INTER:                  -7.772
REMARK INTRA:                  -0.323
REMARK UNBOUND:                -0.329
REMARK SMILES O=c1c(O)c(-c2ccc(O)c(O)c2)oc2cc(O)cc(O)c12
REMARK SMILES IDX 5 1 3 2 2 3 1 4 22 5 20 6 19 7 17 8 16 9 15 10 14 11 6 12
REMARK SMILES IDX 7 13 8 14 9 15 13 16 11 17 10 18 12 20 4 22 21 24 18 26
REMARK H PARENT 10 19 12 21 4 23 21 25 18 27
REMARK Flexibility Score: inf
ROOT
ATOM      1  C   UNL     1       8.958  11.853 -17.752  1.00  0.00     0.180 A 
ATOM      2  C   UNL     1       8.139  11.596 -18.865  1.00  0.00     0.208 A 
ATOM      3  C   UNL     1       7.913  12.624 -19.796  1.00  0.00     0.238 A 
ATOM      4  O   UNL     1       7.120  12.409 -20.748  1.00  0.00    -0.285 OA
ATOM      5  C   UNL     1       8.554  13.875 -19.633  1.00  0.00     0.111 A 
ATOM      6  C   UNL     1       8.433  14.974 -20.537  1.00  0.00     0.134 A 
ATOM      7  C   UNL     1       9.028  16.200 -20.218  1.00  0.00     0.093 A 
ATOM      8  C   UNL     1       9.792  16.351 -19.058  1.00  0.00     0.123 A 
ATOM      9  C   UNL     1       9.961  15.269 -18.197  1.00  0.00     0.094 A 
ATOM     10  C   UNL     1       9.348  14.045 -18.468  1.00  0.00     0.146 A 
ATOM     11  O   UNL     1       9.519  13.047 -17.609  1.00  0.00    -0.452 OA
ENDROOT
BRANCH   1  12
ATOM     12  C   UNL     1       9.231  10.825 -16.721  1.00  0.00     0.025 A 
ATOM     13  C   UNL     1      10.302   9.927 -16.848  1.00  0.00     0.016 A 
ATOM     14  C   UNL     1      10.524   8.952 -15.874  1.00  0.00     0.051 A 
ATOM     15  C   UNL     1       9.678   8.844 -14.765  1.00  0.00     0.157 A 
ATOM     16  C   UNL     1       8.368  10.705 -15.620  1.00  0.00     0.062 A 
ATOM     17  C   UNL     1       8.583   9.731 -14.638  1.00  0.00     0.158 A 
BRANCH  15  18
ATOM     18  O   UNL     1       9.959   7.851 -13.825  1.00  0.00    -0.504 OA
ATOM     19  H   UNL     1      10.890   7.612 -13.516  1.00  0.00     0.293 HD
ENDBRANCH  15  18
BRANCH  17  20
ATOM     20  O   UNL     1       7.691   9.679 -13.565  1.00  0.00    -0.504 OA
ATOM     21  H   UNL     1       6.770   9.265 -13.616  1.00  0.00     0.293 HD
ENDBRANCH  17  20
ENDBRANCH   1  12
BRANCH   2  22
ATOM     22  O   UNL     1       7.577  10.329 -19.048  1.00  0.00    -0.502 OA
ATOM     23  H   UNL     1       7.804   9.744 -19.844  1.00  0.00     0.293 HD
ENDBRANCH   2  22
BRANCH   6  24
ATOM     24  O   UNL     1       7.768  14.907 -21.766  1.00  0.00    -0.507 OA
ATOM     25  H   UNL     1       6.820  15.211 -21.927  1.00  0.00     0.293 HD
ENDBRANCH   6  24
BRANCH   8  26
ATOM     26  O   UNL     1      10.394  17.571 -18.757  1.00  0.00    -0.508 OA
ATOM     27  H   UNL     1      11.061  17.659 -17.998  1.00  0.00     0.293 HD
ENDBRANCH   8  26
TORSDOF 6
ENDMDL
MODEL 5
REMARK VINA RESULT:    -6.422      1.190      2.955
REMARK INTER + INTRA:          -8.066
REMARK INTER:                  -7.743
REMARK INTRA:                  -0.323
REMARK UNBOUND:                -0.329
REMARK SMILES O=c1c(O)c(-c2ccc(O)c(O)c2)oc2cc(O)cc(O)c12
REMARK SMILES IDX 5 1 3 2 2 3 1 4 22 5 20 6 19 7 17 8 16 9 15 10 14 11 6 12
REMARK SMILES IDX 7 13 8 14 9 15 13 16 11 17 10 18 12 20 4 22 21 24 18 26
REMARK H PARENT 10 19 12 21 4 23 21 25 18 27
REMARK Flexibility Score: inf
ROOT
ATOM      1  C   UNL     1       8.734  12.286 -15.447  1.00  0.00     0.180 A 
ATOM      2  C   UNL     1       7.675  12.642 -14.595  1.00  0.00     0.208 A 
ATOM      3  C   UNL     1       7.085  11.652 -13.791  1.00  0.00     0.238 A 
ATOM      4  O   UNL     1       6.089  11.963 -13.088  1.00  0.00    -0.285 OA
ATOM      5  C   UNL     1       7.599  10.334 -13.807  1.00  0.00     0.111 A 
ATOM      6  C   UNL     1       7.108   9.260 -13.002  1.00  0.00     0.134 A 
ATOM      7  C   UNL     1       7.625   7.971 -13.180  1.00  0.00     0.093 A 
ATOM      8  C   UNL     1       8.657   7.727 -14.089  1.00  0.00     0.123 A 
ATOM      9  C   UNL     1       9.179   8.777 -14.840  1.00  0.00     0.094 A 
ATOM     10  C   UNL     1       8.659  10.067 -14.713  1.00  0.00     0.146 A 
ATOM     11  O   UNL     1       9.173  11.034 -15.464  1.00  0.00    -0.452 OA
ENDROOT
BRANCH   1  12
ATOM     12  C   UNL     1       9.397  13.270 -16.334  1.00  0.00     0.025 A 
ATOM     13  C   UNL     1      10.481  14.042 -15.890  1.00  0.00     0.016 A 
ATOM     14  C   UNL     1      11.073  14.980 -16.738  1.00  0.00     0.051 A 
ATOM     15  C   UNL     1      10.589  15.176 -18.036  1.00  0.00     0.157 A 
ATOM     16  C   UNL     1       8.895  13.480 -17.628  1.00  0.00     0.062 A 
ATOM     17  C   UNL     1       9.483  14.418 -18.486  1.00  0.00     0.158 A 
BRANCH  15  18
ATOM     18  O   UNL     1      11.229  16.126 -18.834  1.00  0.00    -0.504 OA
ATOM     19  H   UNL     1      12.136  16.519 -18.627  1.00  0.00     0.293 HD
ENDBRANCH  15  18
BRANCH  17  20
ATOM     20  O   UNL     1       8.938  14.564 -19.763  1.00  0.00    -0.504 OA
ATOM     21  H   UNL     1       9.425  14.991 -20.540  1.00  0.00     0.293 HD
ENDBRANCH  17  20
ENDBRANCH   1  12
BRANCH   2  22
ATOM     22  O   UNL     1       7.233  13.967 -14.538  1.00  0.00    -0.502 OA
ATOM     23  H   UNL     1       6.502  14.322 -15.143  1.00  0.00     0.293 HD
ENDBRANCH   2  22
BRANCH   6  24
ATOM     24  O   UNL     1       6.142   9.411 -12.002  1.00  0.00    -0.507 OA
ATOM     25  H   UNL     1       5.587   8.662 -11.618  1.00  0.00     0.293 HD
ENDBRANCH   6  24
BRANCH   8  26
ATOM     26  O   UNL     1       9.176   6.444 -14.248  1.00  0.00    -0.508 OA
ATOM     27  H   UNL     1      10.009   6.274 -14.800  1.00  0.00     0.293 HD
ENDBRANCH   8  26
TORSDOF 6
ENDMDL
MODEL 6
REMARK VINA RESULT:    -6.385      2.017      7.139
REMARK INTER + INTRA:          -8.021
REMARK INTER:                  -8.474
REMARK INTRA:                   0.453
REMARK UNBOUND:                -0.329
REMARK SMILES O=c1c(O)c(-c2ccc(O)c(O)c2)oc2cc(O)cc(O)c12
REMARK SMILES IDX 5 1 3 2 2 3 1 4 22 5 20 6 19 7 17 8 16 9 15 10 14 11 6 12
REMARK SMILES IDX 7 13 8 14 9 15 13 16 11 17 10 18 12 20 4 22 21 24 18 26
REMARK H PARENT 10 19 12 21 4 23 21 25 18 27
REMARK Flexibility Score: inf
ROOT
ATOM      1  C   UNL     1       8.185  11.121 -14.777  1.00  0.00     0.180 A 
ATOM      2  C   UNL     1       8.661  12.345 -14.279  1.00  0.00     0.208 A 
ATOM      3  C   UNL     1       9.212  13.277 -15.174  1.00  0.00     0.238 A 
ATOM      4  O   UNL     1       9.704  14.338 -14.711  1.00  0.00    -0.285 OA
ATOM      5  C   UNL     1       9.226  12.997 -16.562  1.00  0.00     0.111 A 
ATOM      6  C   UNL     1       9.720  13.886 -17.565  1.00  0.00     0.134 A 
ATOM      7  C   UNL     1       9.782  13.459 -18.896  1.00  0.00     0.093 A 
ATOM      8  C   UNL     1       9.313  12.198 -19.272  1.00  0.00     0.123 A 
ATOM      9  C   UNL     1       8.780  11.344 -18.309  1.00  0.00     0.094 A 
ATOM     10  C   UNL     1       8.739  11.726 -16.967  1.00  0.00     0.146 A 
ATOM     11  O   UNL     1       8.242  10.873 -16.080  1.00  0.00    -0.452 OA
ENDROOT
BRANCH   1  12
ATOM     12  C   UNL     1       7.605  10.082 -13.894  1.00  0.00     0.025 A 
ATOM     13  C   UNL     1       7.326  10.343 -12.544  1.00  0.00     0.016 A 
ATOM     14  C   UNL     1       6.801   9.339 -11.726  1.00  0.00     0.051 A 
ATOM     15  C   UNL     1       6.558   8.059 -12.233  1.00  0.00     0.157 A 
ATOM     16  C   UNL     1       7.382   8.792 -14.400  1.00  0.00     0.062 A 
ATOM     17  C   UNL     1       6.856   7.780 -13.588  1.00  0.00     0.158 A 
BRANCH  15  18
ATOM     18  O   UNL     1       6.029   7.103 -11.364  1.00  0.00    -0.504 OA
ATOM     19  H   UNL     1       5.041   6.919 -11.261  1.00  0.00     0.293 HD
ENDBRANCH  15  18
BRANCH  17  20
ATOM     20  O   UNL     1       6.650   6.524 -14.162  1.00  0.00    -0.504 OA
ATOM     21  H   UNL     1       6.159   6.375 -15.033  1.00  0.00     0.293 HD
ENDBRANCH  17  20
ENDBRANCH   1  12
BRANCH   2  22
ATOM     22  O   UNL     1       8.567  12.634 -12.915  1.00  0.00    -0.502 OA
ATOM     23  H   UNL     1       7.964  12.112 -12.289  1.00  0.00     0.293 HD
ENDBRANCH   2  22
BRANCH   6  24
ATOM     24  O   UNL     1      10.131  15.199 -17.313  1.00  0.00    -0.507 OA
ATOM     25  H   UNL     1      10.878  15.673 -17.797  1.00  0.00     0.293 HD
ENDBRANCH   6  24
BRANCH   8  26
ATOM     26  O   UNL     1       9.363  11.787 -20.602  1.00  0.00    -0.508 OA
ATOM     27  H   UNL     1       9.762  10.893 -20.866  1.00  0.00     0.293 HD
ENDBRANCH   8  26
TORSDOF 6
ENDMDL
MODEL 7
REMARK VINA RESULT:    -6.293      1.968      2.899
REMARK INTER + INTRA:          -7.910
REMARK INTER:                  -7.838
REMARK INTRA:                  -0.073
REMARK UNBOUND:                -0.329
REMARK SMILES O=c1c(O)c(-c2ccc(O)c(O)c2)oc2cc(O)cc(O)c12
REMARK SMILES IDX 5 1 3 2 2 3 1 4 22 5 20 6 19 7 17 8 16 9 15 10 14 11 6 12
REMARK SMILES IDX 7 13 8 14 9 15 13 16 11 17 10 18 12 20 4 22 21 24 18 26
REMARK H PARENT 10 19 12 21 4 23 21 25 18 27
REMARK Flexibility Score: inf
ROOT
ATOM      1  C   UNL     1       8.930  12.599 -18.227  1.00  0.00     0.180 A 
ATOM      2  C   UNL     1       9.486  11.360 -18.588  1.00  0.00     0.208 A 
ATOM      3  C   UNL     1       9.546  10.335 -17.629  1.00  0.00     0.238 A 
ATOM      4  O   UNL     1      10.113   9.255 -17.937  1.00  0.00    -0.285 OA
ATOM      5  C   UNL     1       8.997  10.543 -16.341  1.00  0.00     0.111 A 
ATOM      6  C   UNL     1       8.962   9.560 -15.304  1.00  0.00     0.134 A 
ATOM      7  C   UNL     1       8.490   9.913 -14.034  1.00  0.00     0.093 A 
ATOM      8  C   UNL     1       7.994  11.193 -13.779  1.00  0.00     0.123 A 
ATOM      9  C   UNL     1       7.974  12.142 -14.798  1.00  0.00     0.094 A 
ATOM     10  C   UNL     1       8.473  11.833 -16.065  1.00  0.00     0.146 A 
ATOM     11  O   UNL     1       8.454  12.775 -17.001  1.00  0.00    -0.452 OA
ENDROOT
BRANCH   1  12
ATOM     12  C   UNL     1       8.846  13.732 -19.177  1.00  0.00     0.025 A 
ATOM     13  C   UNL     1       8.194  13.603 -20.413  1.00  0.00     0.016 A 
ATOM     14  C   UNL     1       8.149  14.679 -21.302  1.00  0.00     0.051 A 
ATOM     15  C   UNL     1       8.763  15.895 -20.984  1.00  0.00     0.157 A 
ATOM     16  C   UNL     1       9.482  14.944 -18.865  1.00  0.00     0.062 A 
ATOM     17  C   UNL     1       9.442  16.029 -19.750  1.00  0.00     0.158 A 
BRANCH  15  18
ATOM     18  O   UNL     1       8.677  16.932 -21.915  1.00  0.00    -0.504 OA
ATOM     19  H   UNL     1       7.826  17.433 -22.125  1.00  0.00     0.293 HD
ENDBRANCH  15  18
BRANCH  17  20
ATOM     20  O   UNL     1      10.086  17.206 -19.367  1.00  0.00    -0.504 OA
ATOM     21  H   UNL     1       9.879  18.116 -19.756  1.00  0.00     0.293 HD
ENDBRANCH  17  20
ENDBRANCH   1  12
BRANCH   2  22
ATOM     22  O   UNL     1       9.953  11.150 -19.888  1.00  0.00    -0.502 OA
ATOM     23  H   UNL     1       9.719  11.769 -20.656  1.00  0.00     0.293 HD
ENDBRANCH   2  22
BRANCH   6  24
ATOM     24  O   UNL     1       9.350   8.228 -15.476  1.00  0.00    -0.507 OA
ATOM     25  H   UNL     1       8.736   7.432 -15.397  1.00  0.00     0.293 HD
ENDBRANCH   6  24
BRANCH   8  26
ATOM     26  O   UNL     1       7.511  11.530 -12.516  1.00  0.00    -0.508 OA
ATOM     27  H   UNL     1       7.493  12.491 -12.195  1.00  0.00     0.293 HD
ENDBRANCH   8  26
TORSDOF 6
ENDMDL
MODEL 8
REMARK VINA RESULT:    -6.062      1.766      2.962
REMARK INTER + INTRA:          -7.632
REMARK INTER:                  -7.328
REMARK INTRA:                  -0.304
REMARK UNBOUND:                -0.329
REMARK SMILES O=c1c(O)c(-c2ccc(O)c(O)c2)oc2cc(O)cc(O)c12
REMARK SMILES IDX 5 1 3 2 2 3 1 4 22 5 20 6 19 7 17 8 16 9 15 10 14 11 6 12
REMARK SMILES IDX 7 13 8 14 9 15 13 16 11 17 10 18 12 20 4 22 21 24 18 26
REMARK H PARENT 10 19 12 21 4 23 21 25 18 27
REMARK Flexibility Score: inf
ROOT
ATOM      1  C   UNL     1       8.632  11.420 -15.239  1.00  0.00     0.180 A 
ATOM      2  C   UNL     1       8.305  11.504 -13.875  1.00  0.00     0.208 A 
ATOM      3  C   UNL     1       7.750  10.382 -13.237  1.00  0.00     0.238 A 
ATOM      4  O   UNL     1       7.391  10.489 -12.036  1.00  0.00    -0.285 OA
ATOM      5  C   UNL     1       7.583   9.174 -13.956  1.00  0.00     0.111 A 
ATOM      6  C   UNL     1       7.071   7.962 -13.399  1.00  0.00     0.134 A 
ATOM      7  C   UNL     1       6.850   6.859 -14.233  1.00  0.00     0.093 A 
ATOM      8  C   UNL     1       7.179   6.903 -15.590  1.00  0.00     0.123 A 
ATOM      9  C   UNL     1       7.728   8.063 -16.130  1.00  0.00     0.094 A 
ATOM     10  C   UNL     1       7.926   9.192 -15.333  1.00  0.00     0.146 A 
ATOM     11  O   UNL     1       8.432  10.283 -15.895  1.00  0.00    -0.452 OA
ENDROOT
BRANCH   1  12
ATOM     12  C   UNL     1       9.206  12.564 -15.984  1.00  0.00     0.025 A 
ATOM     13  C   UNL     1      10.573  12.871 -15.913  1.00  0.00     0.016 A 
ATOM     14  C   UNL     1      11.086  13.970 -16.606  1.00  0.00     0.051 A 
ATOM     15  C   UNL     1      10.247  14.788 -17.369  1.00  0.00     0.157 A 
ATOM     16  C   UNL     1       8.358  13.397 -16.731  1.00  0.00     0.062 A 
ATOM     17  C   UNL     1       8.864  14.500 -17.430  1.00  0.00     0.158 A 
BRANCH  15  18
ATOM     18  O   UNL     1      10.825  15.867 -18.041  1.00  0.00    -0.504 OA
ATOM     19  H   UNL     1      10.573  16.149 -18.977  1.00  0.00     0.293 HD
ENDBRANCH  15  18
BRANCH  17  20
ATOM     20  O   UNL     1       7.963  15.276 -18.162  1.00  0.00    -0.504 OA
ATOM     21  H   UNL     1       7.085  14.931 -18.525  1.00  0.00     0.293 HD
ENDBRANCH  17  20
ENDBRANCH   1  12
BRANCH   2  22
ATOM     22  O   UNL     1       8.549  12.682 -13.164  1.00  0.00    -0.502 OA
ATOM     23  H   UNL     1       8.332  13.598 -13.540  1.00  0.00     0.293 HD
ENDBRANCH   2  22
BRANCH   6  24
ATOM     24  O   UNL     1       6.793   7.781 -12.041  1.00  0.00    -0.507 OA
ATOM     25  H   UNL     1       6.225   7.039 -11.661  1.00  0.00     0.293 HD
ENDBRANCH   6  24
BRANCH   8  26
ATOM     26  O   UNL     1       6.970   5.795 -16.408  1.00  0.00    -0.508 OA
ATOM     27  H   UNL     1       7.745   5.283 -16.814  1.00  0.00     0.293 HD
ENDBRANCH   8  26
TORSDOF 6
ENDMDL
MODEL 9
REMARK VINA RESULT:    -5.953      1.972      7.099
REMARK INTER + INTRA:          -7.501
REMARK INTER:                  -7.177
REMARK INTRA:                  -0.323
REMARK UNBOUND:                -0.329
REMARK SMILES O=c1c(O)c(-c2ccc(O)c(O)c2)oc2cc(O)cc(O)c12
REMARK SMILES IDX 5 1 3 2 2 3 1 4 22 5 20 6 19 7 17 8 16 9 15 10 14 11 6 12
REMARK SMILES IDX 7 13 8 14 9 15 13 16 11 17 10 18 12 20 4 22 21 24 18 26
REMARK H PARENT 10 19 12 21 4 23 21 25 18 27
REMARK Flexibility Score: inf
ROOT
ATOM      1  C   UNL     1       7.955  11.836 -15.808  1.00  0.00     0.180 A 
ATOM      2  C   UNL     1       8.880  12.879 -15.634  1.00  0.00     0.208 A 
ATOM      3  C   UNL     1       9.041  13.825 -16.660  1.00  0.00     0.238 A 
ATOM      4  O   UNL     1       9.924  14.712 -16.528  1.00  0.00    -0.285 OA
ATOM      5  C   UNL     1       8.234  13.750 -17.821  1.00  0.00     0.111 A 
ATOM      6  C   UNL     1       8.281  14.680 -18.904  1.00  0.00     0.134 A 
ATOM      7  C   UNL     1       7.511  14.444 -20.049  1.00  0.00     0.093 A 
ATOM      8  C   UNL     1       6.650  13.347 -20.127  1.00  0.00     0.123 A 
ATOM      9  C   UNL     1       6.558  12.464 -19.053  1.00  0.00     0.094 A 
ATOM     10  C   UNL     1       7.341  12.651 -17.913  1.00  0.00     0.146 A 
ATOM     11  O   UNL     1       7.237  11.772 -16.922  1.00  0.00    -0.452 OA
ENDROOT
BRANCH   1  12
ATOM     12  C   UNL     1       7.740  10.793 -14.779  1.00  0.00     0.025 A 
ATOM     13  C   UNL     1       6.796  10.960 -13.754  1.00  0.00     0.016 A 
ATOM     14  C   UNL     1       6.629   9.971 -12.782  1.00  0.00     0.051 A 
ATOM     15  C   UNL     1       7.407   8.809 -12.803  1.00  0.00     0.157 A 
ATOM     16  C   UNL     1       8.538   9.638 -14.790  1.00  0.00     0.062 A 
ATOM     17  C   UNL     1       8.377   8.641 -13.819  1.00  0.00     0.158 A 
BRANCH  15  18
ATOM     18  O   UNL     1       7.187   7.859 -11.804  1.00  0.00    -0.504 OA
ATOM     19  H   UNL     1       6.494   7.955 -11.076  1.00  0.00     0.293 HD
ENDBRANCH  15  18
BRANCH  17  20
ATOM     20  O   UNL     1       9.196   7.514 -13.901  1.00  0.00    -0.504 OA
ATOM     21  H   UNL     1       9.672   7.220 -14.743  1.00  0.00     0.293 HD
ENDBRANCH  17  20
ENDBRANCH   1  12
BRANCH   2  22
ATOM     22  O   UNL     1       9.612  12.980 -14.448  1.00  0.00    -0.502 OA
ATOM     23  H   UNL     1       9.569  13.797 -13.850  1.00  0.00     0.293 HD
ENDBRANCH   2  22
BRANCH   6  24
ATOM     24  O   UNL     1       9.038  15.855 -18.895  1.00  0.00    -0.507 OA
ATOM     25  H   UNL     1       9.700  16.110 -18.179  1.00  0.00     0.293 HD
ENDBRANCH   6  24
BRANCH   8  26
ATOM     26  O   UNL     1       5.875  13.130 -21.264  1.00  0.00    -0.508 OA
ATOM     27  H   UNL     1       6.295  13.050 -22.183  1.00  0.00     0.293 HD
ENDBRANCH   8  26
TORSDOF 6
ENDMDL
