MODEL 1
REMARK VINA RESULT:     4.010      0.000      0.000
REMARK INTER + INTRA:           6.313
REMARK INTER:                   7.292
REMARK INTRA:                  -0.979
REMARK UNBOUND:                -0.979
REMARK SMILES CCCCCCCCCCCCCC[C@H](C)C(=O)[O-]
REMARK SMILES IDX 9 1 10 2 11 3 12 4 13 5 14 6 15 7 16 8 17 9 18 10 19 11 8 12
REMARK SMILES IDX 7 13 6 14 5 15 4 16 3 17 2 18 1 19
REMARK H PARENT
REMARK Flexibility Score: inf
ROOT
ATOM      1  C   UNL     1     -16.163   6.334 -16.024  1.00  0.00     0.000 C 
ENDROOT
BRANCH   1   2
ATOM      2  C   UNL     1     -15.891   5.177 -15.043  1.00  0.00     0.000 C 
BRANCH   2   3
ATOM      3  C   UNL     1     -14.931   5.549 -13.893  1.00  0.00     0.000 C 
BRANCH   3   4
ATOM      4  C   UNL     1     -14.451   7.008 -13.976  1.00  0.00     0.000 C 
BRANCH   4   5
ATOM      5  C   UNL     1     -12.922   7.125 -14.067  1.00  0.00     0.001 C 
BRANCH   5   6
ATOM      6  C   UNL     1     -12.306   6.078 -15.018  1.00  0.00     0.009 C 
BRANCH   6   7
ATOM      7  C   UNL     1     -10.761   6.090 -15.059  1.00  0.00     0.032 C 
ATOM      8  C   UNL     1     -10.148   6.979 -13.966  1.00  0.00     0.014 C 
BRANCH   7   9
ATOM      9  C   UNL     1     -10.242   6.440 -16.430  1.00  0.00     0.044 C 
ATOM     10  O   UNL     1     -11.025   6.551 -17.412  1.00  0.00    -0.550 OA
ATOM     11  O   UNL     1      -8.876   6.593 -16.628  1.00  0.00    -0.550 OA
ENDBRANCH   7   9
ENDBRANCH   6   7
ENDBRANCH   5   6
ENDBRANCH   4   5
ENDBRANCH   3   4
ENDBRANCH   2   3
ENDBRANCH   1   2
BRANCH   1  12
ATOM     12  C   UNL     1     -17.570   6.954 -15.930  1.00  0.00     0.000 C 
BRANCH  12  13
ATOM     13  C   UNL     1     -18.519   6.268 -14.928  1.00  0.00    -0.000 C 
BRANCH  13  14
ATOM     14  C   UNL     1     -19.773   5.684 -15.600  1.00  0.00    -0.000 C 
BRANCH  14  15
ATOM     15  C   UNL     1     -19.674   4.167 -15.829  1.00  0.00    -0.000 C 
BRANCH  15  16
ATOM     16  C   UNL     1     -20.093   3.295 -14.630  1.00  0.00    -0.000 C 
BRANCH  16  17
ATOM     17  C   UNL     1     -18.971   2.377 -14.101  1.00  0.00    -0.000 C 
BRANCH  17  18
ATOM     18  C   UNL     1     -19.083   0.947 -14.648  1.00  0.00    -0.003 C 
ATOM     19  C   UNL     1     -19.902   0.911 -15.935  1.00  0.00     0.004 C 
ENDBRANCH  17  18
ENDBRANCH  16  17
ENDBRANCH  15  16
ENDBRANCH  14  15
ENDBRANCH  13  14
ENDBRANCH  12  13
ENDBRANCH   1  12
TORSDOF 14
ENDMDL
