MODEL 1
REMARK VINA RESULT:     7.352      0.000      0.000
REMARK INTER + INTRA:           7.567
REMARK INTER:                   7.567
REMARK INTRA:                   0.000
REMARK UNBOUND:                 0.000
REMARK SMILES Nc1ncnc2nc[nH]c12
REMARK SMILES IDX 8 1 7 2 6 3 5 4 4 5 3 6 2 7 10 8 9 9 1 11
REMARK H PARENT 9 10 1 12 1 13
REMARK Flexibility Score: inf
ROOT
ATOM      1  C   UNL     1     -26.990  -3.081 -19.582  1.00  0.00     0.199 A 
ATOM      2  N   UNL     1     -28.044  -3.903 -19.326  1.00  0.00    -0.217 NA
ATOM      3  C   UNL     1     -29.087  -3.169 -19.747  1.00  0.00     0.182 A 
ATOM      4  N   UNL     1     -30.393  -3.529 -19.718  1.00  0.00    -0.215 NA
ATOM      5  C   UNL     1     -31.318  -2.640 -20.194  1.00  0.00     0.226 A 
ATOM      6  N   UNL     1     -30.924  -1.422 -20.685  1.00  0.00    -0.217 NA
ATOM      7  C   UNL     1     -29.607  -1.058 -20.715  1.00  0.00     0.152 A 
ATOM      8  C   UNL     1     -28.679  -1.972 -20.228  1.00  0.00     0.127 A 
ATOM      9  N   UNL     1     -27.346  -1.893 -20.132  1.00  0.00    -0.340 N 
ATOM     10  H   UNL     1     -26.717  -1.108 -20.412  1.00  0.00     0.168 HD
ENDROOT
BRANCH   7  11
ATOM     11  N   UNL     1     -29.221   0.217 -21.232  1.00  0.00    -0.382 N 
ATOM     12  H   UNL     1     -28.431   0.313 -21.906  1.00  0.00     0.158 HD
ATOM     13  H   UNL     1     -29.733   1.077 -20.935  1.00  0.00     0.158 HD
ENDBRANCH   7  11
TORSDOF 1
ENDMDL
MODEL 2
REMARK VINA RESULT:     7.358     12.194     13.534
REMARK INTER + INTRA:           7.573
REMARK INTER:                   7.573
REMARK INTRA:                   0.000
REMARK UNBOUND:                 0.000
REMARK SMILES Nc1ncnc2nc[nH]c12
REMARK SMILES IDX 8 1 7 2 6 3 5 4 4 5 3 6 2 7 10 8 9 9 1 11
REMARK H PARENT 9 10 1 12 1 13
REMARK Flexibility Score: inf
ROOT
ATOM      1  C   UNL     1     -21.069  -3.476 -11.457  1.00  0.00     0.199 A 
ATOM      2  N   UNL     1     -21.091  -2.510 -10.498  1.00  0.00    -0.217 NA
ATOM      3  C   UNL     1     -19.967  -1.823 -10.759  1.00  0.00     0.182 A 
ATOM      4  N   UNL     1     -19.507  -0.740 -10.086  1.00  0.00    -0.215 NA
ATOM      5  C   UNL     1     -18.335  -0.172 -10.503  1.00  0.00     0.226 A 
ATOM      6  N   UNL     1     -17.652  -0.692 -11.573  1.00  0.00    -0.217 NA
ATOM      7  C   UNL     1     -18.114  -1.783 -12.253  1.00  0.00     0.152 A 
ATOM      8  C   UNL     1     -19.308  -2.349 -11.817  1.00  0.00     0.127 A 
ATOM      9  N   UNL     1     -19.992  -3.404 -12.278  1.00  0.00    -0.340 N 
ATOM     10  H   UNL     1     -19.760  -4.031 -13.081  1.00  0.00     0.168 HD
ENDROOT
BRANCH   7  11
ATOM     11  N   UNL     1     -17.386  -2.305 -13.365  1.00  0.00    -0.382 N 
ATOM     12  H   UNL     1     -17.755  -3.099 -13.931  1.00  0.00     0.158 HD
ATOM     13  H   UNL     1     -16.463  -1.891 -13.625  1.00  0.00     0.158 HD
ENDBRANCH   7  11
TORSDOF 1
ENDMDL
MODEL 3
REMARK VINA RESULT:     7.429     12.326     13.663
REMARK INTER + INTRA:           7.646
REMARK INTER:                   7.646
REMARK INTRA:                   0.000
REMARK UNBOUND:                 0.000
REMARK SMILES Nc1ncnc2nc[nH]c12
REMARK SMILES IDX 8 1 7 2 6 3 5 4 4 5 3 6 2 7 10 8 9 9 1 11
REMARK H PARENT 9 10 1 12 1 13
REMARK Flexibility Score: inf
ROOT
ATOM      1  C   UNL     1     -21.108  -3.024 -11.114  1.00  0.00     0.199 A 
ATOM      2  N   UNL     1     -20.183  -3.535 -11.972  1.00  0.00    -0.217 NA
ATOM      3  C   UNL     1     -19.204  -2.617 -11.915  1.00  0.00     0.182 A 
ATOM      4  N   UNL     1     -18.030  -2.644 -12.591  1.00  0.00    -0.215 NA
ATOM      5  C   UNL     1     -17.153  -1.611 -12.402  1.00  0.00     0.226 A 
ATOM      6  N   UNL     1     -17.463  -0.583 -11.549  1.00  0.00    -0.217 NA
ATOM      7  C   UNL     1     -18.646  -0.554 -10.866  1.00  0.00     0.152 A 
ATOM      8  C   UNL     1     -19.527  -1.611 -11.069  1.00  0.00     0.127 A 
ATOM      9  N   UNL     1     -20.737  -1.850 -10.547  1.00  0.00    -0.340 N 
ATOM     10  H   UNL     1     -21.277  -1.274  -9.864  1.00  0.00     0.168 HD
ENDROOT
BRANCH   7  11
ATOM     11  N   UNL     1     -18.945   0.528  -9.983  1.00  0.00    -0.382 N 
ATOM     12  H   UNL     1     -19.509   0.382  -9.117  1.00  0.00     0.158 HD
ATOM     13  H   UNL     1     -18.598   1.489 -10.198  1.00  0.00     0.158 HD
ENDBRANCH   7  11
TORSDOF 1
ENDMDL
MODEL 4
REMARK VINA RESULT:     7.845     12.725     13.833
REMARK INTER + INTRA:           8.075
REMARK INTER:                   8.075
REMARK INTRA:                   0.000
REMARK UNBOUND:                 0.000
REMARK SMILES Nc1ncnc2nc[nH]c12
REMARK SMILES IDX 8 1 7 2 6 3 5 4 4 5 3 6 2 7 10 8 9 9 1 11
REMARK H PARENT 9 10 1 12 1 13
REMARK Flexibility Score: inf
ROOT
ATOM      1  C   UNL     1     -17.770   0.387 -10.746  1.00  0.00     0.199 A 
ATOM      2  N   UNL     1     -17.394  -0.367 -11.816  1.00  0.00    -0.217 NA
ATOM      3  C   UNL     1     -18.275  -1.380 -11.774  1.00  0.00     0.182 A 
ATOM      4  N   UNL     1     -18.342  -2.427 -12.631  1.00  0.00    -0.215 NA
ATOM      5  C   UNL     1     -19.315  -3.367 -12.425  1.00  0.00     0.226 A 
ATOM      6  N   UNL     1     -20.191  -3.244 -11.377  1.00  0.00    -0.217 NA
ATOM      7  C   UNL     1     -20.124  -2.188 -10.512  1.00  0.00     0.152 A 
ATOM      8  C   UNL     1     -19.130  -1.241 -10.735  1.00  0.00     0.127 A 
ATOM      9  N   UNL     1     -18.827  -0.122 -10.065  1.00  0.00    -0.340 N 
ATOM     10  H   UNL     1     -19.289   0.277  -9.218  1.00  0.00     0.168 HD
ENDROOT
BRANCH   7  11
ATOM     11  N   UNL     1     -21.048  -2.081  -9.429  1.00  0.00    -0.382 N 
ATOM     12  H   UNL     1     -20.817  -1.536  -8.570  1.00  0.00     0.158 HD
ATOM     13  H   UNL     1     -21.978  -2.554  -9.486  1.00  0.00     0.158 HD
ENDBRANCH   7  11
TORSDOF 1
ENDMDL
MODEL 5
REMARK VINA RESULT:     7.858      1.095      2.465
REMARK INTER + INTRA:           8.088
REMARK INTER:                   8.088
REMARK INTRA:                   0.000
REMARK UNBOUND:                 0.000
REMARK SMILES Nc1ncnc2nc[nH]c12
REMARK SMILES IDX 8 1 7 2 6 3 5 4 4 5 3 6 2 7 10 8 9 9 1 11
REMARK H PARENT 9 10 1 12 1 13
REMARK Flexibility Score: inf
ROOT
ATOM      1  C   UNL     1     -28.085  -3.692 -19.347  1.00  0.00     0.199 A 
ATOM      2  N   UNL     1     -27.657  -2.671 -20.139  1.00  0.00    -0.217 NA
ATOM      3  C   UNL     1     -28.801  -2.020 -20.407  1.00  0.00     0.182 A 
ATOM      4  N   UNL     1     -28.937  -0.907 -21.168  1.00  0.00    -0.215 NA
ATOM      5  C   UNL     1     -30.191  -0.385 -21.327  1.00  0.00     0.226 A 
ATOM      6  N   UNL     1     -31.274  -0.978 -20.729  1.00  0.00    -0.217 NA
ATOM      7  C   UNL     1     -31.137  -2.100 -19.961  1.00  0.00     0.152 A 
ATOM      8  C   UNL     1     -29.855  -2.619 -19.808  1.00  0.00     0.127 A 
ATOM      9  N   UNL     1     -29.424  -3.688 -19.127  1.00  0.00    -0.340 N 
ATOM     10  H   UNL     1     -29.977  -4.365 -18.557  1.00  0.00     0.168 HD
ENDROOT
BRANCH   7  11
ATOM     11  N   UNL     1     -32.279  -2.699 -19.347  1.00  0.00    -0.382 N 
ATOM     12  H   UNL     1     -33.239  -2.318 -19.497  1.00  0.00     0.158 HD
ATOM     13  H   UNL     1     -32.163  -3.537 -18.735  1.00  0.00     0.158 HD
ENDBRANCH   7  11
TORSDOF 1
ENDMDL
MODEL 6
REMARK VINA RESULT:     8.048      1.064      3.142
REMARK INTER + INTRA:           8.283
REMARK INTER:                   8.283
REMARK INTRA:                   0.000
REMARK UNBOUND:                 0.000
REMARK SMILES Nc1ncnc2nc[nH]c12
REMARK SMILES IDX 8 1 7 2 6 3 5 4 4 5 3 6 2 7 10 8 9 9 1 11
REMARK H PARENT 9 10 1 12 1 13
REMARK Flexibility Score: inf
ROOT
ATOM      1  C   UNL     1     -29.648   1.008 -21.234  1.00  0.00     0.199 A 
ATOM      2  N   UNL     1     -30.869   0.408 -21.267  1.00  0.00    -0.217 NA
ATOM      3  C   UNL     1     -30.580  -0.850 -20.899  1.00  0.00     0.182 A 
ATOM      4  N   UNL     1     -31.455  -1.876 -20.768  1.00  0.00    -0.215 NA
ATOM      5  C   UNL     1     -30.968  -3.094 -20.381  1.00  0.00     0.226 A 
ATOM      6  N   UNL     1     -29.629  -3.262 -20.134  1.00  0.00    -0.217 NA
ATOM      7  C   UNL     1     -28.745  -2.229 -20.265  1.00  0.00     0.152 A 
ATOM      8  C   UNL     1     -29.256  -0.996 -20.659  1.00  0.00     0.127 A 
ATOM      9  N   UNL     1     -28.642   0.176 -20.867  1.00  0.00    -0.340 N 
ATOM     10  H   UNL     1     -27.628   0.407 -20.772  1.00  0.00     0.168 HD
ENDROOT
BRANCH   7  11
ATOM     11  N   UNL     1     -27.356  -2.428 -20.002  1.00  0.00    -0.382 N 
ATOM     12  H   UNL     1     -27.024  -3.209 -19.396  1.00  0.00     0.158 HD
ATOM     13  H   UNL     1     -26.648  -1.783 -20.420  1.00  0.00     0.158 HD
ENDBRANCH   7  11
TORSDOF 1
ENDMDL
MODEL 7
REMARK VINA RESULT:     8.157     15.682     17.237
REMARK INTER + INTRA:           8.395
REMARK INTER:                   8.395
REMARK INTRA:                   0.000
REMARK UNBOUND:                 0.000
REMARK SMILES Nc1ncnc2nc[nH]c12
REMARK SMILES IDX 8 1 7 2 6 3 5 4 4 5 3 6 2 7 10 8 9 9 1 11
REMARK H PARENT 9 10 1 12 1 13
REMARK Flexibility Score: inf
ROOT
ATOM      1  C   UNL     1     -18.837   5.019  -8.900  1.00  0.00     0.199 A 
ATOM      2  N   UNL     1     -17.534   5.415  -8.909  1.00  0.00    -0.217 NA
ATOM      3  C   UNL     1     -16.908   4.323  -9.376  1.00  0.00     0.182 A 
ATOM      4  N   UNL     1     -15.576   4.182  -9.584  1.00  0.00    -0.215 NA
ATOM      5  C   UNL     1     -15.122   2.986 -10.068  1.00  0.00     0.226 A 
ATOM      6  N   UNL     1     -15.998   1.964 -10.334  1.00  0.00    -0.217 NA
ATOM      7  C   UNL     1     -17.341   2.105 -10.125  1.00  0.00     0.152 A 
ATOM      8  C   UNL     1     -17.787   3.328  -9.632  1.00  0.00     0.127 A 
ATOM      9  N   UNL     1     -19.024   3.748  -9.335  1.00  0.00    -0.340 N 
ATOM     10  H   UNL     1     -19.926   3.230  -9.417  1.00  0.00     0.168 HD
ENDROOT
BRANCH   7  11
ATOM     11  N   UNL     1     -18.234   1.028 -10.409  1.00  0.00    -0.382 N 
ATOM     12  H   UNL     1     -19.185   1.199 -10.803  1.00  0.00     0.158 HD
ATOM     13  H   UNL     1     -17.940   0.043 -10.224  1.00  0.00     0.158 HD
ENDBRANCH   7  11
TORSDOF 1
ENDMDL
MODEL 8
REMARK VINA RESULT:     8.407     12.457     13.624
REMARK INTER + INTRA:           8.653
REMARK INTER:                   8.653
REMARK INTRA:                   0.000
REMARK UNBOUND:                 0.000
REMARK SMILES Nc1ncnc2nc[nH]c12
REMARK SMILES IDX 8 1 7 2 6 3 5 4 4 5 3 6 2 7 10 8 9 9 1 11
REMARK H PARENT 9 10 1 12 1 13
REMARK Flexibility Score: inf
ROOT
ATOM      1  C   UNL     1     -17.288  -0.385 -11.870  1.00  0.00     0.199 A 
ATOM      2  N   UNL     1     -17.954  -0.055 -10.730  1.00  0.00    -0.217 NA
ATOM      3  C   UNL     1     -18.910  -0.996 -10.675  1.00  0.00     0.182 A 
ATOM      4  N   UNL     1     -19.860  -1.127  -9.718  1.00  0.00    -0.215 NA
ATOM      5  C   UNL     1     -20.754  -2.157  -9.834  1.00  0.00     0.226 A 
ATOM      6  N   UNL     1     -20.680  -3.027 -10.892  1.00  0.00    -0.217 NA
ATOM      7  C   UNL     1     -19.722  -2.896 -11.857  1.00  0.00     0.152 A 
ATOM      8  C   UNL     1     -18.821  -1.844 -11.725  1.00  0.00     0.127 A 
ATOM      9  N   UNL     1     -17.795  -1.473 -12.502  1.00  0.00    -0.340 N 
ATOM     10  H   UNL     1     -17.455  -1.911 -13.386  1.00  0.00     0.168 HD
ENDROOT
BRANCH   7  11
ATOM     11  N   UNL     1     -19.666  -3.814 -12.950  1.00  0.00    -0.382 N 
ATOM     12  H   UNL     1     -20.161  -3.621 -13.847  1.00  0.00     0.158 HD
ATOM     13  H   UNL     1     -19.120  -4.700 -12.859  1.00  0.00     0.158 HD
ENDBRANCH   7  11
TORSDOF 1
ENDMDL
