MODEL 1
REMARK VINA RESULT:    -4.926      0.000      0.000
REMARK INTER + INTRA:          -5.807
REMARK INTER:                  -5.646
REMARK INTRA:                  -0.161
REMARK UNBOUND:                -0.161
REMARK SMILES CC=Cc1ccc(O)c(OC)c1
REMARK SMILES IDX 4 1 12 2 9 3 7 4 6 5 5 6 3 7 1 8 2 9 10 10 11 11 8 12
REMARK H PARENT 8 13
REMARK Flexibility Score: inf
ROOT
ATOM      1  C   UNL     1      16.526 -45.224  29.418  1.00  0.00    -0.022 A 
ATOM      2  C   UNL     1      17.363 -45.164  30.545  1.00  0.00     0.058 A 
ATOM      3  C   UNL     1      16.824 -45.047  31.842  1.00  0.00     0.161 A 
ATOM      4  C   UNL     1      15.428 -45.002  32.003  1.00  0.00     0.157 A 
ATOM      5  C   UNL     1      14.592 -45.078  30.887  1.00  0.00     0.051 A 
ATOM      6  C   UNL     1      15.131 -45.192  29.605  1.00  0.00     0.012 A 
ENDROOT
BRANCH   1   7
ATOM      7  C   UNL     1      17.148 -45.358  28.078  1.00  0.00     0.003 C 
ATOM      8  C   UNL     1      17.584 -44.723  25.737  1.00  0.00     0.035 C 
ATOM      9  C   UNL     1      16.903 -44.530  27.055  1.00  0.00    -0.030 C 
ENDBRANCH   1   7
BRANCH   3  10
ATOM     10  O   UNL     1      17.639 -44.975  32.983  1.00  0.00    -0.493 OA
ATOM     11  C   UNL     1      18.696 -45.882  33.280  1.00  0.00     0.278 C 
ENDBRANCH   3  10
BRANCH   4  12
ATOM     12  O   UNL     1      14.851 -44.886  33.269  1.00  0.00    -0.504 OA
ATOM     13  H   UNL     1      14.165 -45.547  33.613  1.00  0.00     0.293 HD
ENDBRANCH   4  12
TORSDOF 3
ENDMDL
MODEL 2
REMARK VINA RESULT:    -4.807      3.222      4.890
REMARK INTER + INTRA:          -5.671
REMARK INTER:                  -5.499
REMARK INTRA:                  -0.172
REMARK UNBOUND:                -0.161
REMARK SMILES CC=Cc1ccc(O)c(OC)c1
REMARK SMILES IDX 4 1 12 2 9 3 7 4 6 5 5 6 3 7 1 8 2 9 10 10 11 11 8 12
REMARK H PARENT 8 13
REMARK Flexibility Score: inf
ROOT
ATOM      1  C   UNL     1      18.067 -42.646  25.968  1.00  0.00    -0.022 A 
ATOM      2  C   UNL     1      17.846 -42.451  27.342  1.00  0.00     0.058 A 
ATOM      3  C   UNL     1      17.414 -43.512  28.163  1.00  0.00     0.161 A 
ATOM      4  C   UNL     1      17.216 -44.783  27.595  1.00  0.00     0.157 A 
ATOM      5  C   UNL     1      17.449 -44.984  26.233  1.00  0.00     0.051 A 
ATOM      6  C   UNL     1      17.875 -43.929  25.423  1.00  0.00     0.012 A 
ENDROOT
BRANCH   1   7
ATOM      7  C   UNL     1      18.530 -41.495  25.154  1.00  0.00     0.003 C 
ATOM      8  C   UNL     1      18.699 -39.118  24.527  1.00  0.00     0.035 C 
ATOM      9  C   UNL     1      18.176 -40.225  25.386  1.00  0.00    -0.030 C 
ENDBRANCH   1   7
BRANCH   3  10
ATOM     10  O   UNL     1      17.177 -43.341  29.537  1.00  0.00    -0.493 OA
ATOM     11  C   UNL     1      15.967 -42.833  30.091  1.00  0.00     0.278 C 
ENDBRANCH   3  10
BRANCH   4  12
ATOM     12  O   UNL     1      16.789 -45.861  28.370  1.00  0.00    -0.504 OA
ATOM     13  H   UNL     1      17.185 -46.063  29.280  1.00  0.00     0.293 HD
ENDBRANCH   4  12
TORSDOF 3
ENDMDL
MODEL 3
REMARK VINA RESULT:    -4.589      2.553      4.556
REMARK INTER + INTRA:          -5.421
REMARK INTER:                  -5.249
REMARK INTRA:                  -0.172
REMARK UNBOUND:                -0.161
REMARK SMILES CC=Cc1ccc(O)c(OC)c1
REMARK SMILES IDX 4 1 12 2 9 3 7 4 6 5 5 6 3 7 1 8 2 9 10 10 11 11 8 12
REMARK H PARENT 8 13
REMARK Flexibility Score: inf
ROOT
ATOM      1  C   UNL     1      14.555 -45.113  29.825  1.00  0.00    -0.022 A 
ATOM      2  C   UNL     1      15.241 -45.356  28.623  1.00  0.00     0.058 A 
ATOM      3  C   UNL     1      16.649 -45.339  28.577  1.00  0.00     0.161 A 
ATOM      4  C   UNL     1      17.371 -45.086  29.756  1.00  0.00     0.157 A 
ATOM      5  C   UNL     1      16.694 -44.858  30.956  1.00  0.00     0.051 A 
ATOM      6  C   UNL     1      15.299 -44.875  30.996  1.00  0.00     0.012 A 
ENDROOT
BRANCH   1   7
ATOM      7  C   UNL     1      13.072 -45.153  29.817  1.00  0.00     0.003 C 
ATOM      8  C   UNL     1      10.842 -45.357  28.788  1.00  0.00     0.035 C 
ATOM      9  C   UNL     1      12.335 -45.311  28.710  1.00  0.00    -0.030 C 
ENDBRANCH   1   7
BRANCH   3  10
ATOM     10  O   UNL     1      17.357 -45.570  27.386  1.00  0.00    -0.493 OA
ATOM     11  C   UNL     1      17.401 -44.668  26.285  1.00  0.00     0.278 C 
ENDBRANCH   3  10
BRANCH   4  12
ATOM     12  O   UNL     1      18.766 -45.059  29.756  1.00  0.00    -0.504 OA
ATOM     13  H   UNL     1      19.322 -45.830  29.406  1.00  0.00     0.293 HD
ENDBRANCH   4  12
TORSDOF 3
ENDMDL
MODEL 4
REMARK VINA RESULT:    -4.589      1.942      3.557
REMARK INTER + INTRA:          -5.421
REMARK INTER:                  -5.239
REMARK INTRA:                  -0.181
REMARK UNBOUND:                -0.161
REMARK SMILES CC=Cc1ccc(O)c(OC)c1
REMARK SMILES IDX 4 1 12 2 9 3 7 4 6 5 5 6 3 7 1 8 2 9 10 10 11 11 8 12
REMARK H PARENT 8 13
REMARK Flexibility Score: inf
ROOT
ATOM      1  C   UNL     1      14.912 -45.079  29.858  1.00  0.00    -0.022 A 
ATOM      2  C   UNL     1      15.533 -44.805  31.088  1.00  0.00     0.058 A 
ATOM      3  C   UNL     1      16.937 -44.768  31.198  1.00  0.00     0.161 A 
ATOM      4  C   UNL     1      17.721 -44.999  30.054  1.00  0.00     0.157 A 
ATOM      5  C   UNL     1      17.108 -45.256  28.826  1.00  0.00     0.051 A 
ATOM      6  C   UNL     1      15.716 -45.293  28.722  1.00  0.00     0.012 A 
ENDROOT
BRANCH   1   7
ATOM      7  C   UNL     1      13.429 -45.095  29.799  1.00  0.00     0.003 C 
ATOM      8  C   UNL     1      11.233 -45.336  28.707  1.00  0.00     0.035 C 
ATOM      9  C   UNL     1      12.729 -45.321  28.680  1.00  0.00    -0.030 C 
ENDBRANCH   1   7
BRANCH   3  10
ATOM     10  O   UNL     1      17.582 -44.506  32.418  1.00  0.00    -0.493 OA
ATOM     11  C   UNL     1      17.707 -43.214  33.003  1.00  0.00     0.278 C 
ENDBRANCH   3  10
BRANCH   4  12
ATOM     12  O   UNL     1      19.115 -44.973  30.117  1.00  0.00    -0.504 OA
ATOM     13  H   UNL     1      19.671 -44.363  29.530  1.00  0.00     0.293 HD
ENDBRANCH   4  12
TORSDOF 3
ENDMDL
MODEL 5
REMARK VINA RESULT:    -4.503      2.661      3.609
REMARK INTER + INTRA:          -5.323
REMARK INTER:                  -5.150
REMARK INTRA:                  -0.173
REMARK UNBOUND:                -0.161
REMARK SMILES CC=Cc1ccc(O)c(OC)c1
REMARK SMILES IDX 4 1 12 2 9 3 7 4 6 5 5 6 3 7 1 8 2 9 10 10 11 11 8 12
REMARK H PARENT 8 13
REMARK Flexibility Score: inf
ROOT
ATOM      1  C   UNL     1      13.250 -44.597  30.105  1.00  0.00    -0.022 A 
ATOM      2  C   UNL     1      14.439 -45.191  30.562  1.00  0.00     0.058 A 
ATOM      3  C   UNL     1      15.026 -44.791  31.779  1.00  0.00     0.161 A 
ATOM      4  C   UNL     1      14.402 -43.792  32.547  1.00  0.00     0.157 A 
ATOM      5  C   UNL     1      13.212 -43.211  32.104  1.00  0.00     0.051 A 
ATOM      6  C   UNL     1      12.635 -43.610  30.897  1.00  0.00     0.012 A 
ENDROOT
BRANCH   1   7
ATOM      7  C   UNL     1      12.672 -45.064  28.821  1.00  0.00     0.003 C 
ATOM      8  C   UNL     1      10.884 -45.882  27.335  1.00  0.00     0.035 C 
ATOM      9  C   UNL     1      11.395 -45.438  28.668  1.00  0.00    -0.030 C 
ENDBRANCH   1   7
BRANCH   3  10
ATOM     10  O   UNL     1      16.219 -45.361  32.253  1.00  0.00    -0.493 OA
ATOM     11  C   UNL     1      17.523 -44.971  31.835  1.00  0.00     0.278 C 
ENDBRANCH   3  10
BRANCH   4  12
ATOM     12  O   UNL     1      14.948 -43.366  33.758  1.00  0.00    -0.504 OA
ATOM     13  H   UNL     1      15.933 -43.469  33.972  1.00  0.00     0.293 HD
ENDBRANCH   4  12
TORSDOF 3
ENDMDL
MODEL 6
REMARK VINA RESULT:    -4.442      1.544      1.776
REMARK INTER + INTRA:          -5.252
REMARK INTER:                  -5.075
REMARK INTRA:                  -0.178
REMARK UNBOUND:                -0.161
REMARK SMILES CC=Cc1ccc(O)c(OC)c1
REMARK SMILES IDX 4 1 12 2 9 3 7 4 6 5 5 6 3 7 1 8 2 9 10 10 11 11 8 12
REMARK H PARENT 8 13
REMARK Flexibility Score: inf
ROOT
ATOM      1  C   UNL     1      16.405 -44.209  29.499  1.00  0.00    -0.022 A 
ATOM      2  C   UNL     1      16.929 -43.473  30.576  1.00  0.00     0.058 A 
ATOM      3  C   UNL     1      16.367 -43.576  31.864  1.00  0.00     0.161 A 
ATOM      4  C   UNL     1      15.275 -44.438  32.070  1.00  0.00     0.157 A 
ATOM      5  C   UNL     1      14.762 -45.183  31.006  1.00  0.00     0.051 A 
ATOM      6  C   UNL     1      15.321 -45.076  29.731  1.00  0.00     0.012 A 
ENDROOT
BRANCH   1   7
ATOM      7  C   UNL     1      17.042 -44.068  28.166  1.00  0.00     0.003 C 
ATOM      8  C   UNL     1      17.619 -44.765  25.874  1.00  0.00     0.035 C 
ATOM      9  C   UNL     1      16.959 -44.989  27.198  1.00  0.00    -0.030 C 
ENDBRANCH   1   7
BRANCH   3  10
ATOM     10  O   UNL     1      16.866 -42.845  32.954  1.00  0.00    -0.493 OA
ATOM     11  C   UNL     1      16.717 -41.438  33.119  1.00  0.00     0.278 C 
ENDBRANCH   3  10
BRANCH   4  12
ATOM     12  O   UNL     1      14.688 -44.570  33.329  1.00  0.00    -0.504 OA
ATOM     13  H   UNL     1      13.970 -43.937  33.660  1.00  0.00     0.293 HD
ENDBRANCH   4  12
TORSDOF 3
ENDMDL
MODEL 7
REMARK VINA RESULT:    -4.432      3.613      5.686
REMARK INTER + INTRA:          -5.242
REMARK INTER:                  -5.059
REMARK INTRA:                  -0.183
REMARK UNBOUND:                -0.161
REMARK SMILES CC=Cc1ccc(O)c(OC)c1
REMARK SMILES IDX 4 1 12 2 9 3 7 4 6 5 5 6 3 7 1 8 2 9 10 10 11 11 8 12
REMARK H PARENT 8 13
REMARK Flexibility Score: inf
ROOT
ATOM      1  C   UNL     1      19.459 -45.310  33.409  1.00  0.00    -0.022 A 
ATOM      2  C   UNL     1      18.147 -45.234  32.909  1.00  0.00     0.058 A 
ATOM      3  C   UNL     1      17.513 -43.988  32.729  1.00  0.00     0.161 A 
ATOM      4  C   UNL     1      18.212 -42.810  33.044  1.00  0.00     0.157 A 
ATOM      5  C   UNL     1      19.521 -42.881  33.526  1.00  0.00     0.051 A 
ATOM      6  C   UNL     1      20.144 -44.117  33.705  1.00  0.00     0.012 A 
ENDROOT
BRANCH   1   7
ATOM      7  C   UNL     1      20.080 -46.648  33.569  1.00  0.00     0.003 C 
ATOM      8  C   UNL     1      21.704 -48.271  34.464  1.00  0.00     0.035 C 
ATOM      9  C   UNL     1      21.146 -46.889  34.343  1.00  0.00    -0.030 C 
ENDBRANCH   1   7
BRANCH   3  10
ATOM     10  O   UNL     1      16.200 -43.886  32.240  1.00  0.00    -0.493 OA
ATOM     11  C   UNL     1      15.030 -44.145  33.008  1.00  0.00     0.278 C 
ENDBRANCH   3  10
BRANCH   4  12
ATOM     12  O   UNL     1      17.623 -41.556  32.882  1.00  0.00    -0.504 OA
ATOM     13  H   UNL     1      17.500 -41.130  31.970  1.00  0.00     0.293 HD
ENDBRANCH   4  12
TORSDOF 3
ENDMDL
MODEL 8
REMARK VINA RESULT:    -4.422      3.652      4.754
REMARK INTER + INTRA:          -5.230
REMARK INTER:                  -5.059
REMARK INTRA:                  -0.172
REMARK UNBOUND:                -0.161
REMARK SMILES CC=Cc1ccc(O)c(OC)c1
REMARK SMILES IDX 4 1 12 2 9 3 7 4 6 5 5 6 3 7 1 8 2 9 10 10 11 11 8 12
REMARK H PARENT 8 13
REMARK Flexibility Score: inf
ROOT
ATOM      1  C   UNL     1      17.825 -45.057  32.935  1.00  0.00    -0.022 A 
ATOM      2  C   UNL     1      17.842 -43.663  32.753  1.00  0.00     0.058 A 
ATOM      3  C   UNL     1      16.643 -42.924  32.713  1.00  0.00     0.161 A 
ATOM      4  C   UNL     1      15.417 -43.596  32.870  1.00  0.00     0.157 A 
ATOM      5  C   UNL     1      15.397 -44.978  33.067  1.00  0.00     0.051 A 
ATOM      6  C   UNL     1      16.588 -45.706  33.104  1.00  0.00     0.012 A 
ENDROOT
BRANCH   1   7
ATOM      7  C   UNL     1      19.119 -45.782  32.979  1.00  0.00     0.003 C 
ATOM      8  C   UNL     1      20.840 -47.235  33.979  1.00  0.00     0.035 C 
ATOM      9  C   UNL     1      19.527 -46.520  34.019  1.00  0.00    -0.030 C 
ENDBRANCH   1   7
BRANCH   3  10
ATOM     10  O   UNL     1      16.632 -41.533  32.523  1.00  0.00    -0.493 OA
ATOM     11  C   UNL     1      16.980 -40.882  31.305  1.00  0.00     0.278 C 
ENDBRANCH   3  10
BRANCH   4  12
ATOM     12  O   UNL     1      14.206 -42.903  32.837  1.00  0.00    -0.504 OA
ATOM     13  H   UNL     1      14.149 -41.927  32.572  1.00  0.00     0.293 HD
ENDBRANCH   4  12
TORSDOF 3
ENDMDL
MODEL 9
REMARK VINA RESULT:    -4.390      1.515      3.022
REMARK INTER + INTRA:          -5.194
REMARK INTER:                  -5.025
REMARK INTRA:                  -0.169
REMARK UNBOUND:                -0.161
REMARK SMILES CC=Cc1ccc(O)c(OC)c1
REMARK SMILES IDX 4 1 12 2 9 3 7 4 6 5 5 6 3 7 1 8 2 9 10 10 11 11 8 12
REMARK H PARENT 8 13
REMARK Flexibility Score: inf
ROOT
ATOM      1  C   UNL     1      16.301 -44.812  29.940  1.00  0.00    -0.022 A 
ATOM      2  C   UNL     1      14.971 -44.391  30.104  1.00  0.00     0.058 A 
ATOM      3  C   UNL     1      14.496 -43.967  31.362  1.00  0.00     0.161 A 
ATOM      4  C   UNL     1      15.374 -43.956  32.459  1.00  0.00     0.157 A 
ATOM      5  C   UNL     1      16.702 -44.358  32.297  1.00  0.00     0.051 A 
ATOM      6  C   UNL     1      17.167 -44.779  31.049  1.00  0.00     0.012 A 
ENDROOT
BRANCH   1   7
ATOM      7  C   UNL     1      16.750 -45.238  28.591  1.00  0.00     0.003 C 
ATOM      8  C   UNL     1      17.425 -44.904  26.246  1.00  0.00     0.035 C 
ATOM      9  C   UNL     1      16.958 -44.396  27.572  1.00  0.00    -0.030 C 
ENDBRANCH   1   7
BRANCH   3  10
ATOM     10  O   UNL     1      13.168 -43.552  31.554  1.00  0.00    -0.493 OA
ATOM     11  C   UNL     1      12.649 -42.290  31.146  1.00  0.00     0.278 C 
ENDBRANCH   3  10
BRANCH   4  12
ATOM     12  O   UNL     1      14.946 -43.545  33.722  1.00  0.00    -0.504 OA
ATOM     13  H   UNL     1      15.305 -42.709  34.168  1.00  0.00     0.293 HD
ENDBRANCH   4  12
TORSDOF 3
ENDMDL
