MODEL 1
REMARK VINA RESULT:    -3.522      0.000      0.000
REMARK INTER + INTRA:         -12.337
REMARK INTER:                  -8.051
REMARK INTRA:                  -4.286
REMARK UNBOUND:                -4.286
REMARK SMILES CCCCCCCCCCCCCCCCCCCCCCCC(=O)[O-]
REMARK SMILES IDX 13 1 14 2 15 3 16 4 17 5 18 6 19 7 20 8 21 9 22 10 23 11
REMARK SMILES IDX 24 12 25 13 26 14 12 15 11 16 10 17 9 18 8 19 7 20 6 21 5 22
REMARK SMILES IDX 4 23 3 24 2 25 1 26
REMARK H PARENT
REMARK Flexibility Score: inf
ROOT
ATOM      1  C   UNL     1       2.246  -4.139   1.980  1.00  0.00     0.000 C 
ENDROOT
BRANCH   1   2
ATOM      2  C   UNL     1       1.140  -4.934   2.700  1.00  0.00     0.000 C 
BRANCH   2   3
ATOM      3  C   UNL     1       0.981  -6.365   2.157  1.00  0.00     0.000 C 
BRANCH   3   4
ATOM      4  C   UNL     1       1.363  -7.444   3.186  1.00  0.00     0.000 C 
BRANCH   4   5
ATOM      5  C   UNL     1       2.340  -8.519   2.675  1.00  0.00     0.000 C 
BRANCH   5   6
ATOM      6  C   UNL     1       2.714  -8.332   1.194  1.00  0.00     0.000 C 
BRANCH   6   7
ATOM      7  C   UNL     1       4.128  -7.760   1.008  1.00  0.00     0.000 C 
BRANCH   7   8
ATOM      8  C   UNL     1       4.918  -7.690   2.324  1.00  0.00     0.000 C 
BRANCH   8   9
ATOM      9  C   UNL     1       5.865  -6.481   2.330  1.00  0.00     0.000 C 
BRANCH   9  10
ATOM     10  C   UNL     1       5.798  -5.675   3.640  1.00  0.00     0.006 C 
BRANCH  10  11
ATOM     11  C   UNL     1       4.422  -5.697   4.327  1.00  0.00     0.053 C 
BRANCH  11  12
ATOM     12  C   UNL     1       4.516  -6.124   5.760  1.00  0.00     0.041 C 
ATOM     13  O   UNL     1       4.848  -5.296   6.648  1.00  0.00    -0.550 OA
ATOM     14  O   UNL     1       4.276  -7.448   6.108  1.00  0.00    -0.550 OA
ENDBRANCH  11  12
ENDBRANCH  10  11
ENDBRANCH   9  10
ENDBRANCH   8   9
ENDBRANCH   7   8
ENDBRANCH   6   7
ENDBRANCH   5   6
ENDBRANCH   4   5
ENDBRANCH   3   4
ENDBRANCH   2   3
ENDBRANCH   1   2
BRANCH   1  15
ATOM     15  C   UNL     1       2.552  -4.599   0.542  1.00  0.00     0.000 C 
BRANCH  15  16
ATOM     16  C   UNL     1       3.932  -4.136   0.046  1.00  0.00     0.000 C 
BRANCH  16  17
ATOM     17  C   UNL     1       4.526  -3.011   0.908  1.00  0.00     0.000 C 
BRANCH  17  18
ATOM     18  C   UNL     1       6.063  -3.073   0.974  1.00  0.00    -0.000 C 
BRANCH  18  19
ATOM     19  C   UNL     1       6.678  -3.817  -0.223  1.00  0.00    -0.000 C 
BRANCH  19  20
ATOM     20  C   UNL     1       7.150  -2.860  -1.330  1.00  0.00    -0.000 C 
BRANCH  20  21
ATOM     21  C   UNL     1       6.188  -2.815  -2.532  1.00  0.00    -0.000 C 
BRANCH  21  22
ATOM     22  C   UNL     1       5.234  -1.603  -2.567  1.00  0.00    -0.000 C 
BRANCH  22  23
ATOM     23  C   UNL     1       5.559  -0.480  -1.565  1.00  0.00    -0.000 C 
BRANCH  23  24
ATOM     24  C   UNL     1       6.297   0.702  -2.215  1.00  0.00    -0.000 C 
BRANCH  24  25
ATOM     25  C   UNL     1       7.758   0.811  -1.751  1.00  0.00    -0.003 C 
ATOM     26  C   UNL     1       7.935   0.499  -0.265  1.00  0.00     0.004 C 
ENDBRANCH  24  25
ENDBRANCH  23  24
ENDBRANCH  22  23
ENDBRANCH  21  22
ENDBRANCH  20  21
ENDBRANCH  19  20
ENDBRANCH  18  19
ENDBRANCH  17  18
ENDBRANCH  16  17
ENDBRANCH  15  16
ENDBRANCH   1  15
TORSDOF 22
ENDMDL
MODEL 2
REMARK VINA RESULT:    -3.508      1.800      4.713
REMARK INTER + INTRA:         -12.306
REMARK INTER:                  -8.569
REMARK INTRA:                  -3.737
REMARK UNBOUND:                -4.286
REMARK SMILES CCCCCCCCCCCCCCCCCCCCCCCC(=O)[O-]
REMARK SMILES IDX 13 1 14 2 15 3 16 4 17 5 18 6 19 7 20 8 21 9 22 10 23 11
REMARK SMILES IDX 24 12 25 13 26 14 12 15 11 16 10 17 9 18 8 19 7 20 6 21 5 22
REMARK SMILES IDX 4 23 3 24 2 25 1 26
REMARK H PARENT
REMARK Flexibility Score: inf
ROOT
ATOM      1  C   UNL     1       5.798  -0.278  -2.001  1.00  0.00     0.000 C 
ENDROOT
BRANCH   1   2
ATOM      2  C   UNL     1       5.238  -1.566  -1.366  1.00  0.00     0.000 C 
BRANCH   2   3
ATOM      3  C   UNL     1       5.202  -1.511   0.170  1.00  0.00     0.000 C 
BRANCH   3   4
ATOM      4  C   UNL     1       4.723  -2.827   0.808  1.00  0.00     0.000 C 
BRANCH   4   5
ATOM      5  C   UNL     1       4.111  -3.844  -0.172  1.00  0.00     0.000 C 
BRANCH   5   6
ATOM      6  C   UNL     1       2.926  -4.618   0.431  1.00  0.00     0.000 C 
BRANCH   6   7
ATOM      7  C   UNL     1       2.495  -4.069   1.800  1.00  0.00     0.000 C 
BRANCH   7   8
ATOM      8  C   UNL     1       1.437  -4.947   2.486  1.00  0.00     0.000 C 
BRANCH   8   9
ATOM      9  C   UNL     1       2.100  -6.067   3.301  1.00  0.00     0.000 C 
BRANCH   9  10
ATOM     10  C   UNL     1       3.340  -5.587   4.078  1.00  0.00     0.006 C 
BRANCH  10  11
ATOM     11  C   UNL     1       4.538  -6.549   4.016  1.00  0.00     0.053 C 
BRANCH  11  12
ATOM     12  C   UNL     1       5.799  -5.908   4.511  1.00  0.00     0.041 C 
ATOM     13  O   UNL     1       6.636  -5.443   3.693  1.00  0.00    -0.550 OA
ATOM     14  O   UNL     1       6.068  -5.862   5.873  1.00  0.00    -0.550 OA
ENDBRANCH  11  12
ENDBRANCH  10  11
ENDBRANCH   9  10
ENDBRANCH   8   9
ENDBRANCH   7   8
ENDBRANCH   6   7
ENDBRANCH   5   6
ENDBRANCH   4   5
ENDBRANCH   3   4
ENDBRANCH   2   3
ENDBRANCH   1   2
BRANCH   1  15
ATOM     15  C   UNL     1       6.995   0.348  -1.261  1.00  0.00     0.000 C 
BRANCH  15  16
ATOM     16  C   UNL     1       8.314   0.221  -2.042  1.00  0.00     0.000 C 
BRANCH  16  17
ATOM     17  C   UNL     1       9.159  -0.980  -1.589  1.00  0.00     0.000 C 
BRANCH  17  18
ATOM     18  C   UNL     1       8.810  -2.266  -2.361  1.00  0.00    -0.000 C 
BRANCH  18  19
ATOM     19  C   UNL     1       9.091  -3.540  -1.546  1.00  0.00    -0.000 C 
BRANCH  19  20
ATOM     20  C   UNL     1       7.810  -4.162  -0.966  1.00  0.00    -0.000 C 
BRANCH  20  21
ATOM     21  C   UNL     1       7.934  -4.500   0.531  1.00  0.00    -0.000 C 
BRANCH  21  22
ATOM     22  C   UNL     1       8.843  -3.556   1.346  1.00  0.00    -0.000 C 
BRANCH  22  23
ATOM     23  C   UNL     1       8.106  -2.556   2.256  1.00  0.00    -0.000 C 
BRANCH  23  24
ATOM     24  C   UNL     1       8.622  -1.116   2.100  1.00  0.00    -0.000 C 
BRANCH  24  25
ATOM     25  C   UNL     1       7.528  -0.068   2.358  1.00  0.00    -0.003 C 
ATOM     26  C   UNL     1       8.094   1.301   2.735  1.00  0.00     0.004 C 
ENDBRANCH  24  25
ENDBRANCH  23  24
ENDBRANCH  22  23
ENDBRANCH  21  22
ENDBRANCH  20  21
ENDBRANCH  19  20
ENDBRANCH  18  19
ENDBRANCH  17  18
ENDBRANCH  16  17
ENDBRANCH  15  16
ENDBRANCH   1  15
TORSDOF 22
ENDMDL
MODEL 3
REMARK VINA RESULT:    -3.461      3.135      7.713
REMARK INTER + INTRA:         -12.198
REMARK INTER:                  -8.663
REMARK INTRA:                  -3.536
REMARK UNBOUND:                -4.286
REMARK SMILES CCCCCCCCCCCCCCCCCCCCCCCC(=O)[O-]
REMARK SMILES IDX 13 1 14 2 15 3 16 4 17 5 18 6 19 7 20 8 21 9 22 10 23 11
REMARK SMILES IDX 24 12 25 13 26 14 12 15 11 16 10 17 9 18 8 19 7 20 6 21 5 22
REMARK SMILES IDX 4 23 3 24 2 25 1 26
REMARK H PARENT
REMARK Flexibility Score: inf
ROOT
ATOM      1  C   UNL     1       5.871  -3.752   1.521  1.00  0.00     0.000 C 
ENDROOT
BRANCH   1   2
ATOM      2  C   UNL     1       7.232  -3.142   1.135  1.00  0.00     0.000 C 
BRANCH   2   3
ATOM      3  C   UNL     1       7.612  -1.928   2.000  1.00  0.00     0.000 C 
BRANCH   3   4
ATOM      4  C   UNL     1       7.132  -0.592   1.405  1.00  0.00     0.000 C 
BRANCH   4   5
ATOM      5  C   UNL     1       8.040   0.002   0.313  1.00  0.00     0.000 C 
BRANCH   5   6
ATOM      6  C   UNL     1       7.293   0.276  -1.003  1.00  0.00     0.000 C 
BRANCH   6   7
ATOM      7  C   UNL     1       5.914  -0.400  -1.054  1.00  0.00     0.000 C 
BRANCH   7   8
ATOM      8  C   UNL     1       5.579  -0.962  -2.444  1.00  0.00     0.000 C 
BRANCH   8   9
ATOM      9  C   UNL     1       5.715  -2.491  -2.463  1.00  0.00     0.000 C 
BRANCH   9  10
ATOM     10  C   UNL     1       7.181  -2.961  -2.490  1.00  0.00     0.006 C 
BRANCH  10  11
ATOM     11  C   UNL     1       7.377  -4.446  -2.144  1.00  0.00     0.053 C 
BRANCH  11  12
ATOM     12  C   UNL     1       6.903  -5.347  -3.242  1.00  0.00     0.041 C 
ATOM     13  O   UNL     1       7.204  -5.099  -4.440  1.00  0.00    -0.550 OA
ATOM     14  O   UNL     1       6.096  -6.439  -2.948  1.00  0.00    -0.550 OA
ENDBRANCH  11  12
ENDBRANCH  10  11
ENDBRANCH   9  10
ENDBRANCH   8   9
ENDBRANCH   7   8
ENDBRANCH   6   7
ENDBRANCH   5   6
ENDBRANCH   4   5
ENDBRANCH   3   4
ENDBRANCH   2   3
ENDBRANCH   1   2
BRANCH   1  15
ATOM     15  C   UNL     1       4.647  -3.092   0.860  1.00  0.00     0.000 C 
BRANCH  15  16
ATOM     16  C   UNL     1       3.841  -4.067  -0.016  1.00  0.00     0.000 C 
BRANCH  16  17
ATOM     17  C   UNL     1       4.355  -5.512   0.076  1.00  0.00     0.000 C 
BRANCH  17  18
ATOM     18  C   UNL     1       3.336  -6.532  -0.462  1.00  0.00    -0.000 C 
BRANCH  18  19
ATOM     19  C   UNL     1       1.916  -6.292   0.079  1.00  0.00    -0.000 C 
BRANCH  19  20
ATOM     20  C   UNL     1       1.613  -7.135   1.329  1.00  0.00    -0.000 C 
BRANCH  20  21
ATOM     21  C   UNL     1       0.887  -6.337   2.427  1.00  0.00    -0.000 C 
BRANCH  21  22
ATOM     22  C   UNL     1       1.312  -4.859   2.557  1.00  0.00    -0.000 C 
BRANCH  22  23
ATOM     23  C   UNL     1       2.628  -4.617   3.318  1.00  0.00    -0.000 C 
BRANCH  23  24
ATOM     24  C   UNL     1       3.111  -5.860   4.084  1.00  0.00    -0.000 C 
BRANCH  24  25
ATOM     25  C   UNL     1       4.036  -5.505   5.259  1.00  0.00    -0.003 C 
ATOM     26  C   UNL     1       5.416  -6.152   5.146  1.00  0.00     0.004 C 
ENDBRANCH  24  25
ENDBRANCH  23  24
ENDBRANCH  22  23
ENDBRANCH  21  22
ENDBRANCH  20  21
ENDBRANCH  19  20
ENDBRANCH  18  19
ENDBRANCH  17  18
ENDBRANCH  16  17
ENDBRANCH  15  16
ENDBRANCH   1  15
TORSDOF 22
ENDMDL
MODEL 4
REMARK VINA RESULT:    -3.448      3.169      7.265
REMARK INTER + INTRA:         -12.169
REMARK INTER:                  -8.118
REMARK INTRA:                  -4.052
REMARK UNBOUND:                -4.286
REMARK SMILES CCCCCCCCCCCCCCCCCCCCCCCC(=O)[O-]
REMARK SMILES IDX 13 1 14 2 15 3 16 4 17 5 18 6 19 7 20 8 21 9 22 10 23 11
REMARK SMILES IDX 24 12 25 13 26 14 12 15 11 16 10 17 9 18 8 19 7 20 6 21 5 22
REMARK SMILES IDX 4 23 3 24 2 25 1 26
REMARK H PARENT
REMARK Flexibility Score: inf
ROOT
ATOM      1  C   UNL     1       5.868  -6.197   2.439  1.00  0.00     0.000 C 
ENDROOT
BRANCH   1   2
ATOM      2  C   UNL     1       6.566  -4.844   2.677  1.00  0.00     0.000 C 
BRANCH   2   3
ATOM      3  C   UNL     1       6.463  -3.897   1.470  1.00  0.00     0.000 C 
BRANCH   3   4
ATOM      4  C   UNL     1       7.274  -2.602   1.651  1.00  0.00     0.000 C 
BRANCH   4   5
ATOM      5  C   UNL     1       6.556  -1.313   1.212  1.00  0.00     0.000 C 
BRANCH   5   6
ATOM      6  C   UNL     1       5.245  -1.587   0.454  1.00  0.00     0.000 C 
BRANCH   6   7
ATOM      7  C   UNL     1       5.290  -1.098  -1.002  1.00  0.00     0.000 C 
BRANCH   7   8
ATOM      8  C   UNL     1       5.753  -2.189  -1.980  1.00  0.00     0.000 C 
BRANCH   8   9
ATOM      9  C   UNL     1       7.281  -2.174  -2.132  1.00  0.00     0.000 C 
BRANCH   9  10
ATOM     10  C   UNL     1       7.883  -3.586  -2.261  1.00  0.00     0.006 C 
BRANCH  10  11
ATOM     11  C   UNL     1       6.852  -4.724  -2.172  1.00  0.00     0.053 C 
BRANCH  11  12
ATOM     12  C   UNL     1       7.118  -5.803  -3.177  1.00  0.00     0.041 C 
ATOM     13  O   UNL     1       6.378  -5.921  -4.190  1.00  0.00    -0.550 OA
ATOM     14  O   UNL     1       8.157  -6.702  -2.975  1.00  0.00    -0.550 OA
ENDBRANCH  11  12
ENDBRANCH  10  11
ENDBRANCH   9  10
ENDBRANCH   8   9
ENDBRANCH   7   8
ENDBRANCH   6   7
ENDBRANCH   5   6
ENDBRANCH   4   5
ENDBRANCH   3   4
ENDBRANCH   2   3
ENDBRANCH   1   2
BRANCH   1  15
ATOM     15  C   UNL     1       5.379  -6.914   3.711  1.00  0.00     0.000 C 
BRANCH  15  16
ATOM     16  C   UNL     1       4.451  -6.040   4.572  1.00  0.00     0.000 C 
BRANCH  16  17
ATOM     17  C   UNL     1       3.111  -6.724   4.881  1.00  0.00     0.000 C 
BRANCH  17  18
ATOM     18  C   UNL     1       2.482  -7.372   3.635  1.00  0.00    -0.000 C 
BRANCH  18  19
ATOM     19  C   UNL     1       1.038  -6.903   3.388  1.00  0.00    -0.000 C 
BRANCH  19  20
ATOM     20  C   UNL     1       0.944  -5.854   2.267  1.00  0.00    -0.000 C 
BRANCH  20  21
ATOM     21  C   UNL     1       1.669  -4.541   2.614  1.00  0.00    -0.000 C 
BRANCH  21  22
ATOM     22  C   UNL     1       2.826  -4.158   1.668  1.00  0.00    -0.000 C 
BRANCH  22  23
ATOM     23  C   UNL     1       2.643  -4.580   0.199  1.00  0.00    -0.000 C 
BRANCH  23  24
ATOM     24  C   UNL     1       3.777  -5.487  -0.307  1.00  0.00    -0.000 C 
BRANCH  24  25
ATOM     25  C   UNL     1       3.384  -6.973  -0.311  1.00  0.00    -0.003 C 
ATOM     26  C   UNL     1       2.023  -7.226  -0.958  1.00  0.00     0.004 C 
ENDBRANCH  24  25
ENDBRANCH  23  24
ENDBRANCH  22  23
ENDBRANCH  21  22
ENDBRANCH  20  21
ENDBRANCH  19  20
ENDBRANCH  18  19
ENDBRANCH  17  18
ENDBRANCH  16  17
ENDBRANCH  15  16
ENDBRANCH   1  15
TORSDOF 22
ENDMDL
MODEL 5
REMARK VINA RESULT:    -3.438      2.752      4.920
REMARK INTER + INTRA:         -12.146
REMARK INTER:                  -8.978
REMARK INTRA:                  -3.168
REMARK UNBOUND:                -4.286
REMARK SMILES CCCCCCCCCCCCCCCCCCCCCCCC(=O)[O-]
REMARK SMILES IDX 13 1 14 2 15 3 16 4 17 5 18 6 19 7 20 8 21 9 22 10 23 11
REMARK SMILES IDX 24 12 25 13 26 14 12 15 11 16 10 17 9 18 8 19 7 20 6 21 5 22
REMARK SMILES IDX 4 23 3 24 2 25 1 26
REMARK H PARENT
REMARK Flexibility Score: inf
ROOT
ATOM      1  C   UNL     1       4.594  -3.041   0.747  1.00  0.00     0.000 C 
ENDROOT
BRANCH   1   2
ATOM      2  C   UNL     1       5.303  -4.204   0.026  1.00  0.00     0.000 C 
BRANCH   2   3
ATOM      3  C   UNL     1       6.587  -4.658   0.740  1.00  0.00     0.000 C 
BRANCH   3   4
ATOM      4  C   UNL     1       6.459  -4.645   2.274  1.00  0.00     0.000 C 
BRANCH   4   5
ATOM      5  C   UNL     1       5.826  -5.908   2.887  1.00  0.00     0.000 C 
BRANCH   5   6
ATOM      6  C   UNL     1       5.693  -5.827   4.418  1.00  0.00     0.000 C 
BRANCH   6   7
ATOM      7  C   UNL     1       4.237  -5.661   4.878  1.00  0.00     0.000 C 
BRANCH   7   8
ATOM      8  C   UNL     1       3.224  -5.951   3.759  1.00  0.00     0.000 C 
BRANCH   8   9
ATOM      9  C   UNL     1       2.636  -4.646   3.203  1.00  0.00     0.000 C 
BRANCH   9  10
ATOM     10  C   UNL     1       1.250  -4.842   2.562  1.00  0.00     0.006 C 
BRANCH  10  11
ATOM     11  C   UNL     1       1.173  -6.005   1.559  1.00  0.00     0.053 C 
BRANCH  11  12
ATOM     12  C   UNL     1       1.828  -5.666   0.255  1.00  0.00     0.041 C 
ATOM     13  O   UNL     1       1.513  -4.612  -0.358  1.00  0.00    -0.550 OA
ATOM     14  O   UNL     1       2.758  -6.535  -0.303  1.00  0.00    -0.550 OA
ENDBRANCH  11  12
ENDBRANCH  10  11
ENDBRANCH   9  10
ENDBRANCH   8   9
ENDBRANCH   7   8
ENDBRANCH   6   7
ENDBRANCH   5   6
ENDBRANCH   4   5
ENDBRANCH   3   4
ENDBRANCH   2   3
ENDBRANCH   1   2
BRANCH   1  15
ATOM     15  C   UNL     1       4.982  -1.635   0.256  1.00  0.00     0.000 C 
BRANCH  15  16
ATOM     16  C   UNL     1       5.326  -1.596  -1.243  1.00  0.00     0.000 C 
BRANCH  16  17
ATOM     17  C   UNL     1       5.756  -0.200  -1.717  1.00  0.00     0.000 C 
BRANCH  17  18
ATOM     18  C   UNL     1       7.284  -0.076  -1.866  1.00  0.00    -0.000 C 
BRANCH  18  19
ATOM     19  C   UNL     1       7.956   0.495  -0.606  1.00  0.00    -0.000 C 
BRANCH  19  20
ATOM     20  C   UNL     1       9.046  -0.436  -0.048  1.00  0.00    -0.000 C 
BRANCH  20  21
ATOM     21  C   UNL     1       8.473  -1.579   0.810  1.00  0.00    -0.000 C 
BRANCH  21  22
ATOM     22  C   UNL     1       8.011  -1.173   2.225  1.00  0.00    -0.000 C 
BRANCH  22  23
ATOM     23  C   UNL     1       9.128  -0.698   3.172  1.00  0.00    -0.000 C 
BRANCH  23  24
ATOM     24  C   UNL     1       8.916   0.742   3.669  1.00  0.00    -0.000 C 
BRANCH  24  25
ATOM     25  C   UNL     1       7.753   1.447   2.953  1.00  0.00    -0.003 C 
ATOM     26  C   UNL     1       7.924   2.965   2.896  1.00  0.00     0.004 C 
ENDBRANCH  24  25
ENDBRANCH  23  24
ENDBRANCH  22  23
ENDBRANCH  21  22
ENDBRANCH  20  21
ENDBRANCH  19  20
ENDBRANCH  18  19
ENDBRANCH  17  18
ENDBRANCH  16  17
ENDBRANCH  15  16
ENDBRANCH   1  15
TORSDOF 22
ENDMDL
MODEL 6
REMARK VINA RESULT:    -3.409      3.461      7.603
REMARK INTER + INTRA:         -12.080
REMARK INTER:                  -8.380
REMARK INTRA:                  -3.699
REMARK UNBOUND:                -4.286
REMARK SMILES CCCCCCCCCCCCCCCCCCCCCCCC(=O)[O-]
REMARK SMILES IDX 13 1 14 2 15 3 16 4 17 5 18 6 19 7 20 8 21 9 22 10 23 11
REMARK SMILES IDX 24 12 25 13 26 14 12 15 11 16 10 17 9 18 8 19 7 20 6 21 5 22
REMARK SMILES IDX 4 23 3 24 2 25 1 26
REMARK H PARENT
REMARK Flexibility Score: inf
ROOT
ATOM      1  C   UNL     1       5.194  -1.239  -1.217  1.00  0.00     0.000 C 
ENDROOT
BRANCH   1   2
ATOM      2  C   UNL     1       6.469  -1.496  -2.043  1.00  0.00     0.000 C 
BRANCH   2   3
ATOM      3  C   UNL     1       7.738  -0.941  -1.374  1.00  0.00     0.000 C 
BRANCH   3   4
ATOM      4  C   UNL     1       8.855  -1.991  -1.241  1.00  0.00     0.000 C 
BRANCH   4   5
ATOM      5  C   UNL     1       9.419  -2.170   0.181  1.00  0.00     0.000 C 
BRANCH   5   6
ATOM      6  C   UNL     1       8.605  -3.166   1.026  1.00  0.00     0.000 C 
BRANCH   6   7
ATOM      7  C   UNL     1       8.200  -2.590   2.392  1.00  0.00     0.000 C 
BRANCH   7   8
ATOM      8  C   UNL     1       8.162  -1.054   2.401  1.00  0.00     0.000 C 
BRANCH   8   9
ATOM      9  C   UNL     1       9.183  -0.488   3.400  1.00  0.00     0.000 C 
BRANCH   9  10
ATOM     10  C   UNL     1       8.922   0.988   3.748  1.00  0.00     0.006 C 
BRANCH  10  11
ATOM     11  C   UNL     1       7.779   1.636   2.949  1.00  0.00     0.053 C 
BRANCH  11  12
ATOM     12  C   UNL     1       7.452   3.010   3.448  1.00  0.00     0.041 C 
ATOM     13  O   UNL     1       6.255   3.344   3.650  1.00  0.00    -0.550 OA
ATOM     14  O   UNL     1       8.468   3.936   3.652  1.00  0.00    -0.550 OA
ENDBRANCH  11  12
ENDBRANCH  10  11
ENDBRANCH   9  10
ENDBRANCH   8   9
ENDBRANCH   7   8
ENDBRANCH   6   7
ENDBRANCH   5   6
ENDBRANCH   4   5
ENDBRANCH   3   4
ENDBRANCH   2   3
ENDBRANCH   1   2
BRANCH   1  15
ATOM     15  C   UNL     1       5.337  -1.477   0.298  1.00  0.00     0.000 C 
BRANCH  15  16
ATOM     16  C   UNL     1       4.607  -2.743   0.778  1.00  0.00     0.000 C 
BRANCH  16  17
ATOM     17  C   UNL     1       5.121  -4.020   0.095  1.00  0.00     0.000 C 
BRANCH  17  18
ATOM     18  C   UNL     1       3.987  -5.011  -0.223  1.00  0.00    -0.000 C 
BRANCH  18  19
ATOM     19  C   UNL     1       2.604  -4.481   0.191  1.00  0.00    -0.000 C 
BRANCH  19  20
ATOM     20  C   UNL     1       1.761  -5.543   0.917  1.00  0.00    -0.000 C 
BRANCH  20  21
ATOM     21  C   UNL     1       1.384  -5.129   2.351  1.00  0.00    -0.000 C 
BRANCH  21  22
ATOM     22  C   UNL     1       2.531  -4.517   3.183  1.00  0.00    -0.000 C 
BRANCH  22  23
ATOM     23  C   UNL     1       3.351  -5.522   4.012  1.00  0.00    -0.000 C 
BRANCH  23  24
ATOM     24  C   UNL     1       4.474  -6.189   3.200  1.00  0.00    -0.000 C 
BRANCH  24  25
ATOM     25  C   UNL     1       5.822  -5.469   3.358  1.00  0.00    -0.003 C 
ATOM     26  C   UNL     1       6.967  -6.190   2.648  1.00  0.00     0.004 C 
ENDBRANCH  24  25
ENDBRANCH  23  24
ENDBRANCH  22  23
ENDBRANCH  21  22
ENDBRANCH  20  21
ENDBRANCH  19  20
ENDBRANCH  18  19
ENDBRANCH  17  18
ENDBRANCH  16  17
ENDBRANCH  15  16
ENDBRANCH   1  15
TORSDOF 22
ENDMDL
MODEL 7
REMARK VINA RESULT:    -3.396      1.727      3.459
REMARK INTER + INTRA:         -12.050
REMARK INTER:                  -7.787
REMARK INTRA:                  -4.263
REMARK UNBOUND:                -4.286
REMARK SMILES CCCCCCCCCCCCCCCCCCCCCCCC(=O)[O-]
REMARK SMILES IDX 13 1 14 2 15 3 16 4 17 5 18 6 19 7 20 8 21 9 22 10 23 11
REMARK SMILES IDX 24 12 25 13 26 14 12 15 11 16 10 17 9 18 8 19 7 20 6 21 5 22
REMARK SMILES IDX 4 23 3 24 2 25 1 26
REMARK H PARENT
REMARK Flexibility Score: inf
ROOT
ATOM      1  C   UNL     1       5.841  -5.133   0.358  1.00  0.00     0.000 C 
ENDROOT
BRANCH   1   2
ATOM      2  C   UNL     1       4.992  -6.401   0.570  1.00  0.00     0.000 C 
BRANCH   2   3
ATOM      3  C   UNL     1       3.911  -6.586  -0.509  1.00  0.00     0.000 C 
BRANCH   3   4
ATOM      4  C   UNL     1       2.483  -6.394   0.031  1.00  0.00     0.000 C 
BRANCH   4   5
ATOM      5  C   UNL     1       1.949  -4.951  -0.032  1.00  0.00     0.000 C 
BRANCH   5   6
ATOM      6  C   UNL     1       1.513  -4.414   1.342  1.00  0.00     0.000 C 
BRANCH   6   7
ATOM      7  C   UNL     1       1.815  -5.396   2.485  1.00  0.00     0.000 C 
BRANCH   7   8
ATOM      8  C   UNL     1       2.845  -4.846   3.484  1.00  0.00     0.000 C 
BRANCH   8   9
ATOM      9  C   UNL     1       3.445  -5.979   4.330  1.00  0.00     0.000 C 
BRANCH   9  10
ATOM     10  C   UNL     1       4.156  -5.467   5.595  1.00  0.00     0.006 C 
BRANCH  10  11
ATOM     11  C   UNL     1       5.526  -6.115   5.858  1.00  0.00     0.053 C 
BRANCH  11  12
ATOM     12  C   UNL     1       5.467  -7.126   6.962  1.00  0.00     0.041 C 
ATOM     13  O   UNL     1       5.967  -8.271   6.801  1.00  0.00    -0.550 OA
ATOM     14  O   UNL     1       4.824  -6.818   8.154  1.00  0.00    -0.550 OA
ENDBRANCH  11  12
ENDBRANCH  10  11
ENDBRANCH   9  10
ENDBRANCH   8   9
ENDBRANCH   7   8
ENDBRANCH   6   7
ENDBRANCH   5   6
ENDBRANCH   4   5
ENDBRANCH   3   4
ENDBRANCH   2   3
ENDBRANCH   1   2
BRANCH   1  15
ATOM     15  C   UNL     1       5.618  -4.016   1.394  1.00  0.00     0.000 C 
BRANCH  15  16
ATOM     16  C   UNL     1       4.836  -2.820   0.826  1.00  0.00     0.000 C 
BRANCH  16  17
ATOM     17  C   UNL     1       4.997  -2.673  -0.695  1.00  0.00     0.000 C 
BRANCH  17  18
ATOM     18  C   UNL     1       5.201  -1.209  -1.124  1.00  0.00    -0.000 C 
BRANCH  18  19
ATOM     19  C   UNL     1       6.622  -0.940  -1.649  1.00  0.00    -0.000 C 
BRANCH  19  20
ATOM     20  C   UNL     1       7.420  -2.235  -1.876  1.00  0.00    -0.000 C 
BRANCH  20  21
ATOM     21  C   UNL     1       8.808  -2.206  -1.211  1.00  0.00    -0.000 C 
BRANCH  21  22
ATOM     22  C   UNL     1       8.886  -2.870   0.180  1.00  0.00    -0.000 C 
BRANCH  22  23
ATOM     23  C   UNL     1       9.358  -1.952   1.322  1.00  0.00    -0.000 C 
BRANCH  23  24
ATOM     24  C   UNL     1       8.266  -1.696   2.373  1.00  0.00    -0.000 C 
BRANCH  24  25
ATOM     25  C   UNL     1       7.377  -0.494   2.018  1.00  0.00    -0.003 C 
ATOM     26  C   UNL     1       8.166   0.678   1.436  1.00  0.00     0.004 C 
ENDBRANCH  24  25
ENDBRANCH  23  24
ENDBRANCH  22  23
ENDBRANCH  21  22
ENDBRANCH  20  21
ENDBRANCH  19  20
ENDBRANCH  18  19
ENDBRANCH  17  18
ENDBRANCH  16  17
ENDBRANCH  15  16
ENDBRANCH   1  15
TORSDOF 22
ENDMDL
MODEL 8
REMARK VINA RESULT:    -3.392      3.636      8.082
REMARK INTER + INTRA:         -12.041
REMARK INTER:                  -8.233
REMARK INTRA:                  -3.809
REMARK UNBOUND:                -4.286
REMARK SMILES CCCCCCCCCCCCCCCCCCCCCCCC(=O)[O-]
REMARK SMILES IDX 13 1 14 2 15 3 16 4 17 5 18 6 19 7 20 8 21 9 22 10 23 11
REMARK SMILES IDX 24 12 25 13 26 14 12 15 11 16 10 17 9 18 8 19 7 20 6 21 5 22
REMARK SMILES IDX 4 23 3 24 2 25 1 26
REMARK H PARENT
REMARK Flexibility Score: inf
ROOT
ATOM      1  C   UNL     1       5.283  -1.621  -1.575  1.00  0.00     0.000 C 
ENDROOT
BRANCH   1   2
ATOM      2  C   UNL     1       5.272  -0.370  -2.475  1.00  0.00     0.000 C 
BRANCH   2   3
ATOM      3  C   UNL     1       6.321   0.676  -2.060  1.00  0.00     0.000 C 
BRANCH   3   4
ATOM      4  C   UNL     1       7.720   0.071  -1.845  1.00  0.00     0.000 C 
BRANCH   4   5
ATOM      5  C   UNL     1       8.370   0.394  -0.487  1.00  0.00     0.000 C 
BRANCH   5   6
ATOM      6  C   UNL     1       8.893  -0.858   0.239  1.00  0.00     0.000 C 
BRANCH   6   7
ATOM      7  C   UNL     1       8.962  -2.089  -0.678  1.00  0.00     0.000 C 
BRANCH   7   8
ATOM      8  C   UNL     1       8.303  -3.329  -0.057  1.00  0.00     0.000 C 
BRANCH   8   9
ATOM      9  C   UNL     1       8.050  -4.406  -1.123  1.00  0.00     0.000 C 
BRANCH   9  10
ATOM     10  C   UNL     1       7.895  -3.820  -2.538  1.00  0.00     0.006 C 
BRANCH  10  11
ATOM     11  C   UNL     1       6.750  -4.439  -3.359  1.00  0.00     0.053 C 
BRANCH  11  12
ATOM     12  C   UNL     1       7.259  -5.232  -4.523  1.00  0.00     0.041 C 
ATOM     13  O   UNL     1       8.356  -5.846  -4.442  1.00  0.00    -0.550 OA
ATOM     14  O   UNL     1       6.541  -5.261  -5.713  1.00  0.00    -0.550 OA
ENDBRANCH  11  12
ENDBRANCH  10  11
ENDBRANCH   9  10
ENDBRANCH   8   9
ENDBRANCH   7   8
ENDBRANCH   6   7
ENDBRANCH   5   6
ENDBRANCH   4   5
ENDBRANCH   3   4
ENDBRANCH   2   3
ENDBRANCH   1   2
BRANCH   1  15
ATOM     15  C   UNL     1       5.155  -1.342  -0.066  1.00  0.00     0.000 C 
BRANCH  15  16
ATOM     16  C   UNL     1       4.720  -2.579   0.738  1.00  0.00     0.000 C 
BRANCH  16  17
ATOM     17  C   UNL     1       4.526  -3.822  -0.145  1.00  0.00     0.000 C 
BRANCH  17  18
ATOM     18  C   UNL     1       4.711  -5.133   0.640  1.00  0.00    -0.000 C 
BRANCH  18  19
ATOM     19  C   UNL     1       4.927  -4.896   2.144  1.00  0.00    -0.000 C 
BRANCH  19  20
ATOM     20  C   UNL     1       3.730  -5.362   2.990  1.00  0.00    -0.000 C 
BRANCH  20  21
ATOM     21  C   UNL     1       2.503  -4.442   2.849  1.00  0.00    -0.000 C 
BRANCH  21  22
ATOM     22  C   UNL     1       1.185  -5.153   2.481  1.00  0.00    -0.000 C 
BRANCH  22  23
ATOM     23  C   UNL     1       1.262  -6.689   2.411  1.00  0.00    -0.000 C 
BRANCH  23  24
ATOM     24  C   UNL     1       1.308  -7.219   0.969  1.00  0.00    -0.000 C 
BRANCH  24  25
ATOM     25  C   UNL     1       1.314  -6.091  -0.074  1.00  0.00    -0.003 C 
ATOM     26  C   UNL     1       0.816  -6.546  -1.445  1.00  0.00     0.004 C 
ENDBRANCH  24  25
ENDBRANCH  23  24
ENDBRANCH  22  23
ENDBRANCH  21  22
ENDBRANCH  20  21
ENDBRANCH  19  20
ENDBRANCH  18  19
ENDBRANCH  17  18
ENDBRANCH  16  17
ENDBRANCH  15  16
ENDBRANCH   1  15
TORSDOF 22
ENDMDL
MODEL 9
REMARK VINA RESULT:    -3.339      1.515      4.353
REMARK INTER + INTRA:         -11.919
REMARK INTER:                  -8.409
REMARK INTRA:                  -3.510
REMARK UNBOUND:                -4.286
REMARK SMILES CCCCCCCCCCCCCCCCCCCCCCCC(=O)[O-]
REMARK SMILES IDX 13 1 14 2 15 3 16 4 17 5 18 6 19 7 20 8 21 9 22 10 23 11
REMARK SMILES IDX 24 12 25 13 26 14 12 15 11 16 10 17 9 18 8 19 7 20 6 21 5 22
REMARK SMILES IDX 4 23 3 24 2 25 1 26
REMARK H PARENT
REMARK Flexibility Score: inf
ROOT
ATOM      1  C   UNL     1       4.878  -2.375  -0.416  1.00  0.00     0.000 C 
ENDROOT
BRANCH   1   2
ATOM      2  C   UNL     1       4.537  -3.860  -0.184  1.00  0.00     0.000 C 
BRANCH   2   3
ATOM      3  C   UNL     1       4.392  -4.215   1.306  1.00  0.00     0.000 C 
BRANCH   3   4
ATOM      4  C   UNL     1       3.003  -3.870   1.873  1.00  0.00     0.000 C 
BRANCH   4   5
ATOM      5  C   UNL     1       1.848  -4.744   1.351  1.00  0.00     0.000 C 
BRANCH   5   6
ATOM      6  C   UNL     1       1.075  -5.450   2.479  1.00  0.00     0.000 C 
BRANCH   6   7
ATOM      7  C   UNL     1       1.605  -6.863   2.766  1.00  0.00     0.000 C 
BRANCH   7   8
ATOM      8  C   UNL     1       2.146  -7.015   4.197  1.00  0.00     0.000 C 
BRANCH   8   9
ATOM      9  C   UNL     1       3.653  -6.723   4.246  1.00  0.00     0.000 C 
BRANCH   9  10
ATOM     10  C   UNL     1       4.010  -5.588   5.222  1.00  0.00     0.006 C 
BRANCH  10  11
ATOM     11  C   UNL     1       5.358  -5.771   5.941  1.00  0.00     0.053 C 
BRANCH  11  12
ATOM     12  C   UNL     1       5.188  -5.940   7.419  1.00  0.00     0.041 C 
ATOM     13  O   UNL     1       5.606  -5.055   8.211  1.00  0.00    -0.550 OA
ATOM     14  O   UNL     1       4.604  -7.095   7.925  1.00  0.00    -0.550 OA
ENDBRANCH  11  12
ENDBRANCH  10  11
ENDBRANCH   9  10
ENDBRANCH   8   9
ENDBRANCH   7   8
ENDBRANCH   6   7
ENDBRANCH   5   6
ENDBRANCH   4   5
ENDBRANCH   3   4
ENDBRANCH   2   3
ENDBRANCH   1   2
BRANCH   1  15
ATOM     15  C   UNL     1       5.652  -2.078  -1.714  1.00  0.00     0.000 C 
BRANCH  15  16
ATOM     16  C   UNL     1       5.354  -0.681  -2.283  1.00  0.00     0.000 C 
BRANCH  16  17
ATOM     17  C   UNL     1       6.427   0.354  -1.910  1.00  0.00     0.000 C 
BRANCH  17  18
ATOM     18  C   UNL     1       7.785  -0.299  -1.593  1.00  0.00    -0.000 C 
BRANCH  18  19
ATOM     19  C   UNL     1       8.402   0.226  -0.286  1.00  0.00    -0.000 C 
BRANCH  19  20
ATOM     20  C   UNL     1       7.482   0.008   0.927  1.00  0.00    -0.000 C 
BRANCH  20  21
ATOM     21  C   UNL     1       8.089  -0.942   1.975  1.00  0.00    -0.000 C 
BRANCH  21  22
ATOM     22  C   UNL     1       7.592  -2.401   1.907  1.00  0.00    -0.000 C 
BRANCH  22  23
ATOM     23  C   UNL     1       8.247  -3.270   0.818  1.00  0.00    -0.000 C 
BRANCH  23  24
ATOM     24  C   UNL     1       8.261  -4.765   1.175  1.00  0.00    -0.000 C 
BRANCH  24  25
ATOM     25  C   UNL     1       7.754  -5.035   2.601  1.00  0.00    -0.003 C 
ATOM     26  C   UNL     1       7.062  -6.391   2.739  1.00  0.00     0.004 C 
ENDBRANCH  24  25
ENDBRANCH  23  24
ENDBRANCH  22  23
ENDBRANCH  21  22
ENDBRANCH  20  21
ENDBRANCH  19  20
ENDBRANCH  18  19
ENDBRANCH  17  18
ENDBRANCH  16  17
ENDBRANCH  15  16
ENDBRANCH   1  15
TORSDOF 22
ENDMDL
