MODEL 1
REMARK VINA RESULT:    -2.961      0.000      0.000
REMARK INTER + INTRA:         -12.205
REMARK INTER:                  -7.462
REMARK INTRA:                  -4.743
REMARK UNBOUND:                -4.743
REMARK SMILES CCCCCCCCCCCCCCCCCCCCCCCCCCCC(=O)[O-]
REMARK SMILES IDX 15 1 16 2 17 3 18 4 19 5 20 6 21 7 22 8 23 9 24 10 25 11
REMARK SMILES IDX 26 12 27 13 28 14 29 15 30 16 14 17 13 18 12 19 11 20 10 21
REMARK SMILES IDX 9 22 8 23 7 24 6 25 5 26 4 27 3 28 2 29 1 30
REMARK H PARENT
REMARK Flexibility Score: inf
ROOT
ATOM      1  C   UNL     1       7.122   1.651  -3.146  1.00  0.00     0.000 C 
ENDROOT
BRANCH   1   2
ATOM      2  C   UNL     1       7.173   0.116  -3.170  1.00  0.00     0.000 C 
BRANCH   2   3
ATOM      3  C   UNL     1       8.275  -0.449  -2.259  1.00  0.00     0.000 C 
BRANCH   3   4
ATOM      4  C   UNL     1       8.196   0.105  -0.825  1.00  0.00     0.000 C 
BRANCH   4   5
ATOM      5  C   UNL     1       9.591   0.368  -0.222  1.00  0.00     0.000 C 
BRANCH   5   6
ATOM      6  C   UNL     1       9.631   1.556   0.756  1.00  0.00     0.000 C 
BRANCH   6   7
ATOM      7  C   UNL     1       8.266   1.859   1.385  1.00  0.00     0.000 C 
BRANCH   7   8
ATOM      8  C   UNL     1       8.368   2.993   2.416  1.00  0.00     0.000 C 
BRANCH   8   9
ATOM      9  C   UNL     1       7.636   4.273   1.974  1.00  0.00     0.000 C 
BRANCH   9  10
ATOM     10  C   UNL     1       8.418   5.580   2.201  1.00  0.00     0.000 C 
BRANCH  10  11
ATOM     11  C   UNL     1       7.608   6.635   2.973  1.00  0.00     0.000 C 
BRANCH  11  12
ATOM     12  C   UNL     1       6.211   6.133   3.382  1.00  0.00     0.006 C 
BRANCH  12  13
ATOM     13  C   UNL     1       5.524   6.988   4.459  1.00  0.00     0.053 C 
BRANCH  13  14
ATOM     14  C   UNL     1       4.969   8.263   3.899  1.00  0.00     0.041 C 
ATOM     15  O   UNL     1       3.783   8.308   3.481  1.00  0.00    -0.550 OA
ATOM     16  O   UNL     1       5.771   9.395   3.821  1.00  0.00    -0.550 OA
ENDBRANCH  13  14
ENDBRANCH  12  13
ENDBRANCH  11  12
ENDBRANCH  10  11
ENDBRANCH   9  10
ENDBRANCH   8   9
ENDBRANCH   7   8
ENDBRANCH   6   7
ENDBRANCH   5   6
ENDBRANCH   4   5
ENDBRANCH   3   4
ENDBRANCH   2   3
ENDBRANCH   1   2
BRANCH   1  17
ATOM     17  C   UNL     1       8.374   2.252  -3.797  1.00  0.00     0.000 C 
BRANCH  17  18
ATOM     18  C   UNL     1       9.107   3.183  -2.822  1.00  0.00     0.000 C 
BRANCH  18  19
ATOM     19  C   UNL     1       8.187   3.766  -1.735  1.00  0.00     0.000 C 
BRANCH  19  20
ATOM     20  C   UNL     1       8.296   5.291  -1.534  1.00  0.00     0.000 C 
BRANCH  20  21
ATOM     21  C   UNL     1       7.185   6.118  -2.209  1.00  0.00     0.000 C 
BRANCH  21  22
ATOM     22  C   UNL     1       6.251   6.876  -1.242  1.00  0.00    -0.000 C 
BRANCH  22  23
ATOM     23  C   UNL     1       5.417   5.996  -0.287  1.00  0.00    -0.000 C 
BRANCH  23  24
ATOM     24  C   UNL     1       4.182   6.682   0.337  1.00  0.00    -0.000 C 
BRANCH  24  25
ATOM     25  C   UNL     1       2.889   6.537  -0.488  1.00  0.00    -0.000 C 
BRANCH  25  26
ATOM     26  C   UNL     1       2.372   5.087  -0.592  1.00  0.00    -0.000 C 
BRANCH  26  27
ATOM     27  C   UNL     1       2.524   4.522  -2.016  1.00  0.00    -0.000 C 
BRANCH  27  28
ATOM     28  C   UNL     1       2.665   5.621  -3.085  1.00  0.00    -0.000 C 
BRANCH  28  29
ATOM     29  C   UNL     1       3.943   5.528  -3.938  1.00  0.00    -0.003 C 
ATOM     30  C   UNL     1       4.545   4.123  -3.960  1.00  0.00     0.004 C 
ENDBRANCH  28  29
ENDBRANCH  27  28
ENDBRANCH  26  27
ENDBRANCH  25  26
ENDBRANCH  24  25
ENDBRANCH  23  24
ENDBRANCH  22  23
ENDBRANCH  21  22
ENDBRANCH  20  21
ENDBRANCH  19  20
ENDBRANCH  18  19
ENDBRANCH  17  18
ENDBRANCH   1  17
TORSDOF 26
ENDMDL
MODEL 2
REMARK VINA RESULT:    -2.958      1.812      6.778
REMARK INTER + INTRA:         -12.198
REMARK INTER:                  -6.765
REMARK INTRA:                  -5.433
REMARK UNBOUND:                -4.743
REMARK SMILES CCCCCCCCCCCCCCCCCCCCCCCCCCCC(=O)[O-]
REMARK SMILES IDX 15 1 16 2 17 3 18 4 19 5 20 6 21 7 22 8 23 9 24 10 25 11
REMARK SMILES IDX 26 12 27 13 28 14 29 15 30 16 14 17 13 18 12 19 11 20 10 21
REMARK SMILES IDX 9 22 8 23 7 24 6 25 5 26 4 27 3 28 2 29 1 30
REMARK H PARENT
REMARK Flexibility Score: inf
ROOT
ATOM      1  C   UNL     1       6.179   8.782   0.686  1.00  0.00     0.000 C 
ENDROOT
BRANCH   1   2
ATOM      2  C   UNL     1       5.914   7.692  -0.363  1.00  0.00     0.000 C 
BRANCH   2   3
ATOM      3  C   UNL     1       5.693   6.309   0.270  1.00  0.00     0.000 C 
BRANCH   3   4
ATOM      4  C   UNL     1       6.675   5.251  -0.266  1.00  0.00     0.000 C 
BRANCH   4   5
ATOM      5  C   UNL     1       7.789   5.874  -1.133  1.00  0.00     0.000 C 
BRANCH   5   6
ATOM      6  C   UNL     1       8.454   4.879  -2.100  1.00  0.00     0.000 C 
BRANCH   6   7
ATOM      7  C   UNL     1       7.713   4.759  -3.438  1.00  0.00     0.000 C 
BRANCH   7   8
ATOM      8  C   UNL     1       6.758   3.556  -3.438  1.00  0.00     0.000 C 
BRANCH   8   9
ATOM      9  C   UNL     1       5.274   3.968  -3.439  1.00  0.00     0.000 C 
BRANCH   9  10
ATOM     10  C   UNL     1       5.018   5.473  -3.634  1.00  0.00     0.000 C 
BRANCH  10  11
ATOM     11  C   UNL     1       3.760   5.966  -2.900  1.00  0.00     0.000 C 
BRANCH  11  12
ATOM     12  C   UNL     1       2.885   4.812  -2.377  1.00  0.00     0.006 C 
BRANCH  12  13
ATOM     13  C   UNL     1       2.505   4.932  -0.892  1.00  0.00     0.053 C 
BRANCH  13  14
ATOM     14  C   UNL     1       1.783   6.211  -0.596  1.00  0.00     0.041 C 
ATOM     15  O   UNL     1       2.253   7.026   0.241  1.00  0.00    -0.550 OA
ATOM     16  O   UNL     1       0.580   6.495  -1.231  1.00  0.00    -0.550 OA
ENDBRANCH  13  14
ENDBRANCH  12  13
ENDBRANCH  11  12
ENDBRANCH  10  11
ENDBRANCH   9  10
ENDBRANCH   8   9
ENDBRANCH   7   8
ENDBRANCH   6   7
ENDBRANCH   5   6
ENDBRANCH   4   5
ENDBRANCH   3   4
ENDBRANCH   2   3
ENDBRANCH   1   2
BRANCH   1  17
ATOM     17  C   UNL     1       4.875   9.221   1.363  1.00  0.00     0.000 C 
BRANCH  17  18
ATOM     18  C   UNL     1       5.057   9.340   2.882  1.00  0.00     0.000 C 
BRANCH  18  19
ATOM     19  C   UNL     1       4.502   8.130   3.654  1.00  0.00     0.000 C 
BRANCH  19  20
ATOM     20  C   UNL     1       5.551   7.319   4.442  1.00  0.00     0.000 C 
BRANCH  20  21
ATOM     21  C   UNL     1       6.572   6.559   3.576  1.00  0.00     0.000 C 
BRANCH  21  22
ATOM     22  C   UNL     1       7.998   7.148   3.573  1.00  0.00    -0.000 C 
BRANCH  22  23
ATOM     23  C   UNL     1       8.888   6.747   2.377  1.00  0.00    -0.000 C 
BRANCH  23  24
ATOM     24  C   UNL     1       9.849   5.565   2.633  1.00  0.00    -0.000 C 
BRANCH  24  25
ATOM     25  C   UNL     1       9.506   4.285   1.847  1.00  0.00    -0.000 C 
BRANCH  25  26
ATOM     26  C   UNL     1       8.360   3.458   2.466  1.00  0.00    -0.000 C 
BRANCH  26  27
ATOM     27  C   UNL     1       8.145   2.126   1.726  1.00  0.00    -0.000 C 
BRANCH  27  28
ATOM     28  C   UNL     1       8.721   2.134   0.298  1.00  0.00    -0.000 C 
BRANCH  28  29
ATOM     29  C   UNL     1       8.602   0.795  -0.451  1.00  0.00    -0.003 C 
ATOM     30  C   UNL     1       8.829   0.930  -1.956  1.00  0.00     0.004 C 
ENDBRANCH  28  29
ENDBRANCH  27  28
ENDBRANCH  26  27
ENDBRANCH  25  26
ENDBRANCH  24  25
ENDBRANCH  23  24
ENDBRANCH  22  23
ENDBRANCH  21  22
ENDBRANCH  20  21
ENDBRANCH  19  20
ENDBRANCH  18  19
ENDBRANCH  17  18
ENDBRANCH   1  17
TORSDOF 26
ENDMDL
MODEL 3
REMARK VINA RESULT:    -2.948     11.416     14.739
REMARK INTER + INTRA:         -12.171
REMARK INTER:                  -6.678
REMARK INTRA:                  -5.493
REMARK UNBOUND:                -4.743
REMARK SMILES CCCCCCCCCCCCCCCCCCCCCCCCCCCC(=O)[O-]
REMARK SMILES IDX 15 1 16 2 17 3 18 4 19 5 20 6 21 7 22 8 23 9 24 10 25 11
REMARK SMILES IDX 26 12 27 13 28 14 29 15 30 16 14 17 13 18 12 19 11 20 10 21
REMARK SMILES IDX 9 22 8 23 7 24 6 25 5 26 4 27 3 28 2 29 1 30
REMARK H PARENT
REMARK Flexibility Score: inf
ROOT
ATOM      1  C   UNL     1      -4.092  -2.444   5.878  1.00  0.00     0.000 C 
ENDROOT
BRANCH   1   2
ATOM      2  C   UNL     1      -5.326  -2.521   6.791  1.00  0.00     0.000 C 
BRANCH   2   3
ATOM      3  C   UNL     1      -6.631  -2.208   6.041  1.00  0.00     0.000 C 
BRANCH   3   4
ATOM      4  C   UNL     1      -7.324  -0.939   6.570  1.00  0.00     0.000 C 
BRANCH   4   5
ATOM      5  C   UNL     1      -6.373  -0.058   7.406  1.00  0.00     0.000 C 
BRANCH   5   6
ATOM      6  C   UNL     1      -6.043   1.295   6.752  1.00  0.00     0.000 C 
BRANCH   6   7
ATOM      7  C   UNL     1      -5.223   1.152   5.463  1.00  0.00     0.000 C 
BRANCH   7   8
ATOM      8  C   UNL     1      -5.767   2.066   4.355  1.00  0.00     0.000 C 
BRANCH   8   9
ATOM      9  C   UNL     1      -7.305   2.133   4.333  1.00  0.00     0.000 C 
BRANCH   9  10
ATOM     10  C   UNL     1      -7.965   1.521   3.084  1.00  0.00     0.000 C 
BRANCH  10  11
ATOM     11  C   UNL     1      -7.890  -0.015   3.060  1.00  0.00     0.000 C 
BRANCH  11  12
ATOM     12  C   UNL     1      -6.919  -0.547   1.991  1.00  0.00     0.006 C 
BRANCH  12  13
ATOM     13  C   UNL     1      -5.839  -1.496   2.537  1.00  0.00     0.053 C 
BRANCH  13  14
ATOM     14  C   UNL     1      -6.187  -2.936   2.311  1.00  0.00     0.041 C 
ATOM     15  O   UNL     1      -7.068  -3.251   1.469  1.00  0.00    -0.550 OA
ATOM     16  O   UNL     1      -5.552  -3.930   3.047  1.00  0.00    -0.550 OA
ENDBRANCH  13  14
ENDBRANCH  12  13
ENDBRANCH  11  12
ENDBRANCH  10  11
ENDBRANCH   9  10
ENDBRANCH   8   9
ENDBRANCH   7   8
ENDBRANCH   6   7
ENDBRANCH   5   6
ENDBRANCH   4   5
ENDBRANCH   3   4
ENDBRANCH   2   3
ENDBRANCH   1   2
BRANCH   1  17
ATOM     17  C   UNL     1      -3.061  -1.453   6.431  1.00  0.00     0.000 C 
BRANCH  17  18
ATOM     18  C   UNL     1      -2.986  -1.534   7.962  1.00  0.00     0.000 C 
BRANCH  18  19
ATOM     19  C   UNL     1      -1.641  -2.080   8.473  1.00  0.00     0.000 C 
BRANCH  19  20
ATOM     20  C   UNL     1      -0.729  -1.039   9.153  1.00  0.00     0.000 C 
BRANCH  20  21
ATOM     21  C   UNL     1       0.593  -0.750   8.416  1.00  0.00     0.000 C 
BRANCH  21  22
ATOM     22  C   UNL     1       0.491  -0.708   6.877  1.00  0.00    -0.000 C 
BRANCH  22  23
ATOM     23  C   UNL     1       0.796   0.656   6.221  1.00  0.00    -0.000 C 
BRANCH  23  24
ATOM     24  C   UNL     1       0.113   1.875   6.879  1.00  0.00    -0.000 C 
BRANCH  24  25
ATOM     25  C   UNL     1      -1.426   1.857   6.807  1.00  0.00    -0.000 C 
BRANCH  25  26
ATOM     26  C   UNL     1      -2.119   2.186   8.146  1.00  0.00    -0.000 C 
BRANCH  26  27
ATOM     27  C   UNL     1      -3.209   3.259   7.983  1.00  0.00    -0.000 C 
BRANCH  27  28
ATOM     28  C   UNL     1      -3.185   3.931   6.598  1.00  0.00    -0.000 C 
BRANCH  28  29
ATOM     29  C   UNL     1      -4.136   5.133   6.450  1.00  0.00    -0.003 C 
ATOM     30  C   UNL     1      -5.501   4.898   7.094  1.00  0.00     0.004 C 
ENDBRANCH  28  29
ENDBRANCH  27  28
ENDBRANCH  26  27
ENDBRANCH  25  26
ENDBRANCH  24  25
ENDBRANCH  23  24
ENDBRANCH  22  23
ENDBRANCH  21  22
ENDBRANCH  20  21
ENDBRANCH  19  20
ENDBRANCH  18  19
ENDBRANCH  17  18
ENDBRANCH   1  17
TORSDOF 26
ENDMDL
MODEL 4
REMARK VINA RESULT:    -2.943     11.395     14.671
REMARK INTER + INTRA:         -12.160
REMARK INTER:                  -7.074
REMARK INTRA:                  -5.086
REMARK UNBOUND:                -4.743
REMARK SMILES CCCCCCCCCCCCCCCCCCCCCCCCCCCC(=O)[O-]
REMARK SMILES IDX 15 1 16 2 17 3 18 4 19 5 20 6 21 7 22 8 23 9 24 10 25 11
REMARK SMILES IDX 26 12 27 13 28 14 29 15 30 16 14 17 13 18 12 19 11 20 10 21
REMARK SMILES IDX 9 22 8 23 7 24 6 25 5 26 4 27 3 28 2 29 1 30
REMARK H PARENT
REMARK Flexibility Score: inf
ROOT
ATOM      1  C   UNL     1      -1.782   2.496   8.047  1.00  0.00     0.000 C 
ENDROOT
BRANCH   1   2
ATOM      2  C   UNL     1      -1.674   2.035   9.509  1.00  0.00     0.000 C 
BRANCH   2   3
ATOM      3  C   UNL     1      -2.527   0.789   9.795  1.00  0.00     0.000 C 
BRANCH   3   4
ATOM      4  C   UNL     1      -2.801  -0.042   8.528  1.00  0.00     0.000 C 
BRANCH   4   5
ATOM      5  C   UNL     1      -4.243  -0.590   8.489  1.00  0.00     0.000 C 
BRANCH   5   6
ATOM      6  C   UNL     1      -5.075  -0.068   7.304  1.00  0.00     0.000 C 
BRANCH   6   7
ATOM      7  C   UNL     1      -4.226   0.222   6.060  1.00  0.00     0.000 C 
BRANCH   7   8
ATOM      8  C   UNL     1      -4.540   1.611   5.484  1.00  0.00     0.000 C 
BRANCH   8   9
ATOM      9  C   UNL     1      -5.254   1.548   4.121  1.00  0.00     0.000 C 
BRANCH   9  10
ATOM     10  C   UNL     1      -6.760   1.236   4.191  1.00  0.00     0.000 C 
BRANCH  10  11
ATOM     11  C   UNL     1      -7.183   0.109   3.235  1.00  0.00     0.000 C 
BRANCH  11  12
ATOM     12  C   UNL     1      -7.587  -1.179   3.975  1.00  0.00     0.006 C 
BRANCH  12  13
ATOM     13  C   UNL     1      -6.430  -2.166   4.202  1.00  0.00     0.053 C 
BRANCH  13  14
ATOM     14  C   UNL     1      -5.827  -2.635   2.913  1.00  0.00     0.041 C 
ATOM     15  O   UNL     1      -4.595  -2.489   2.699  1.00  0.00    -0.550 OA
ATOM     16  O   UNL     1      -6.630  -3.218   1.940  1.00  0.00    -0.550 OA
ENDBRANCH  13  14
ENDBRANCH  12  13
ENDBRANCH  11  12
ENDBRANCH  10  11
ENDBRANCH   9  10
ENDBRANCH   8   9
ENDBRANCH   7   8
ENDBRANCH   6   7
ENDBRANCH   5   6
ENDBRANCH   4   5
ENDBRANCH   3   4
ENDBRANCH   2   3
ENDBRANCH   1   2
BRANCH   1  17
ATOM     17  C   UNL     1      -0.413   2.461   7.358  1.00  0.00     0.000 C 
BRANCH  17  18
ATOM     18  C   UNL     1      -0.387   1.408   6.240  1.00  0.00     0.000 C 
BRANCH  18  19
ATOM     19  C   UNL     1       0.792   0.427   6.362  1.00  0.00     0.000 C 
BRANCH  19  20
ATOM     20  C   UNL     1       0.577  -0.736   7.350  1.00  0.00     0.000 C 
BRANCH  20  21
ATOM     21  C   UNL     1       1.011  -0.448   8.800  1.00  0.00     0.000 C 
BRANCH  21  22
ATOM     22  C   UNL     1       0.889  -1.641   9.771  1.00  0.00    -0.000 C 
BRANCH  22  23
ATOM     23  C   UNL     1       1.993  -2.714   9.658  1.00  0.00    -0.000 C 
BRANCH  23  24
ATOM     24  C   UNL     1       1.503  -4.131   9.285  1.00  0.00    -0.000 C 
BRANCH  24  25
ATOM     25  C   UNL     1       1.350  -4.373   7.771  1.00  0.00    -0.000 C 
BRANCH  25  26
ATOM     26  C   UNL     1       0.027  -5.061   7.378  1.00  0.00    -0.000 C 
BRANCH  26  27
ATOM     27  C   UNL     1      -1.077  -4.830   8.425  1.00  0.00    -0.000 C 
BRANCH  27  28
ATOM     28  C   UNL     1      -1.929  -3.582   8.130  1.00  0.00    -0.000 C 
BRANCH  28  29
ATOM     29  C   UNL     1      -2.015  -3.199   6.641  1.00  0.00    -0.003 C 
ATOM     30  C   UNL     1      -3.417  -3.376   6.059  1.00  0.00     0.004 C 
ENDBRANCH  28  29
ENDBRANCH  27  28
ENDBRANCH  26  27
ENDBRANCH  25  26
ENDBRANCH  24  25
ENDBRANCH  23  24
ENDBRANCH  22  23
ENDBRANCH  21  22
ENDBRANCH  20  21
ENDBRANCH  19  20
ENDBRANCH  18  19
ENDBRANCH  17  18
ENDBRANCH   1  17
TORSDOF 26
ENDMDL
MODEL 5
REMARK VINA RESULT:    -2.937     11.711     14.972
REMARK INTER + INTRA:         -12.144
REMARK INTER:                  -7.321
REMARK INTRA:                  -4.823
REMARK UNBOUND:                -4.743
REMARK SMILES CCCCCCCCCCCCCCCCCCCCCCCCCCCC(=O)[O-]
REMARK SMILES IDX 15 1 16 2 17 3 18 4 19 5 20 6 21 7 22 8 23 9 24 10 25 11
REMARK SMILES IDX 26 12 27 13 28 14 29 15 30 16 14 17 13 18 12 19 11 20 10 21
REMARK SMILES IDX 9 22 8 23 7 24 6 25 5 26 4 27 3 28 2 29 1 30
REMARK H PARENT
REMARK Flexibility Score: inf
ROOT
ATOM      1  C   UNL     1      -1.080   1.511   6.390  1.00  0.00     0.000 C 
ENDROOT
BRANCH   1   2
ATOM      2  C   UNL     1      -2.080   1.771   7.527  1.00  0.00     0.000 C 
BRANCH   2   3
ATOM      3  C   UNL     1      -2.974   0.554   7.811  1.00  0.00     0.000 C 
BRANCH   3   4
ATOM      4  C   UNL     1      -3.669   0.024   6.543  1.00  0.00     0.000 C 
BRANCH   4   5
ATOM      5  C   UNL     1      -5.049   0.675   6.319  1.00  0.00     0.000 C 
BRANCH   5   6
ATOM      6  C   UNL     1      -5.024   1.865   5.342  1.00  0.00     0.000 C 
BRANCH   6   7
ATOM      7  C   UNL     1      -5.481   1.487   3.928  1.00  0.00     0.000 C 
BRANCH   7   8
ATOM      8  C   UNL     1      -6.727   0.589   3.967  1.00  0.00     0.000 C 
BRANCH   8   9
ATOM      9  C   UNL     1      -6.895  -0.260   2.694  1.00  0.00     0.000 C 
BRANCH   9  10
ATOM     10  C   UNL     1      -5.642  -1.045   2.267  1.00  0.00     0.000 C 
BRANCH  10  11
ATOM     11  C   UNL     1      -5.597  -2.466   2.853  1.00  0.00     0.000 C 
BRANCH  11  12
ATOM     12  C   UNL     1      -4.711  -2.565   4.108  1.00  0.00     0.006 C 
BRANCH  12  13
ATOM     13  C   UNL     1      -5.219  -3.563   5.162  1.00  0.00     0.053 C 
BRANCH  13  14
ATOM     14  C   UNL     1      -6.046  -2.895   6.219  1.00  0.00     0.041 C 
ATOM     15  O   UNL     1      -7.154  -2.377   5.924  1.00  0.00    -0.550 OA
ATOM     16  O   UNL     1      -5.581  -2.828   7.527  1.00  0.00    -0.550 OA
ENDBRANCH  13  14
ENDBRANCH  12  13
ENDBRANCH  11  12
ENDBRANCH  10  11
ENDBRANCH   9  10
ENDBRANCH   8   9
ENDBRANCH   7   8
ENDBRANCH   6   7
ENDBRANCH   5   6
ENDBRANCH   4   5
ENDBRANCH   3   4
ENDBRANCH   2   3
ENDBRANCH   1   2
BRANCH   1  17
ATOM     17  C   UNL     1       0.365   1.632   6.890  1.00  0.00     0.000 C 
BRANCH  17  18
ATOM     18  C   UNL     1       1.035   0.253   6.973  1.00  0.00     0.000 C 
BRANCH  18  19
ATOM     19  C   UNL     1       0.793  -0.456   8.317  1.00  0.00     0.000 C 
BRANCH  19  20
ATOM     20  C   UNL     1      -0.082  -1.723   8.241  1.00  0.00     0.000 C 
BRANCH  20  21
ATOM     21  C   UNL     1      -0.337  -2.254   6.817  1.00  0.00     0.000 C 
BRANCH  21  22
ATOM     22  C   UNL     1      -1.663  -3.018   6.629  1.00  0.00    -0.000 C 
BRANCH  22  23
ATOM     23  C   UNL     1      -2.178  -3.785   7.866  1.00  0.00    -0.000 C 
BRANCH  23  24
ATOM     24  C   UNL     1      -2.901  -5.117   7.567  1.00  0.00    -0.000 C 
BRANCH  24  25
ATOM     25  C   UNL     1      -2.023  -6.370   7.743  1.00  0.00    -0.000 C 
BRANCH  25  26
ATOM     26  C   UNL     1      -0.952  -6.235   8.845  1.00  0.00    -0.000 C 
BRANCH  26  27
ATOM     27  C   UNL     1       0.445  -6.639   8.343  1.00  0.00    -0.000 C 
BRANCH  27  28
ATOM     28  C   UNL     1       1.057  -5.606   7.379  1.00  0.00    -0.000 C 
BRANCH  28  29
ATOM     29  C   UNL     1       2.506  -5.202   7.703  1.00  0.00    -0.003 C 
ATOM     30  C   UNL     1       2.602  -4.167   8.823  1.00  0.00     0.004 C 
ENDBRANCH  28  29
ENDBRANCH  27  28
ENDBRANCH  26  27
ENDBRANCH  25  26
ENDBRANCH  24  25
ENDBRANCH  23  24
ENDBRANCH  22  23
ENDBRANCH  21  22
ENDBRANCH  20  21
ENDBRANCH  19  20
ENDBRANCH  18  19
ENDBRANCH  17  18
ENDBRANCH   1  17
TORSDOF 26
ENDMDL
MODEL 6
REMARK VINA RESULT:    -2.896     11.175     13.530
REMARK INTER + INTRA:         -12.039
REMARK INTER:                  -6.778
REMARK INTRA:                  -5.262
REMARK UNBOUND:                -4.743
REMARK SMILES CCCCCCCCCCCCCCCCCCCCCCCCCCCC(=O)[O-]
REMARK SMILES IDX 15 1 16 2 17 3 18 4 19 5 20 6 21 7 22 8 23 9 24 10 25 11
REMARK SMILES IDX 26 12 27 13 28 14 29 15 30 16 14 17 13 18 12 19 11 20 10 21
REMARK SMILES IDX 9 22 8 23 7 24 6 25 5 26 4 27 3 28 2 29 1 30
REMARK H PARENT
REMARK Flexibility Score: inf
ROOT
ATOM      1  C   UNL     1       1.156  -2.049   8.952  1.00  0.00     0.000 C 
ENDROOT
BRANCH   1   2
ATOM      2  C   UNL     1       1.382  -3.546   9.213  1.00  0.00     0.000 C 
BRANCH   2   3
ATOM      3  C   UNL     1       1.665  -4.330   7.921  1.00  0.00     0.000 C 
BRANCH   3   4
ATOM      4  C   UNL     1       0.500  -5.258   7.528  1.00  0.00     0.000 C 
BRANCH   4   5
ATOM      5  C   UNL     1      -0.416  -5.586   8.725  1.00  0.00     0.000 C 
BRANCH   5   6
ATOM      6  C   UNL     1      -1.911  -5.345   8.449  1.00  0.00     0.000 C 
BRANCH   6   7
ATOM      7  C   UNL     1      -2.158  -4.498   7.195  1.00  0.00     0.000 C 
BRANCH   7   8
ATOM      8  C   UNL     1      -3.406  -3.617   7.356  1.00  0.00     0.000 C 
BRANCH   8   9
ATOM      9  C   UNL     1      -3.648  -2.694   6.148  1.00  0.00     0.000 C 
BRANCH   9  10
ATOM     10  C   UNL     1      -4.340  -3.363   4.947  1.00  0.00     0.000 C 
BRANCH  10  11
ATOM     11  C   UNL     1      -5.101  -2.363   4.061  1.00  0.00     0.000 C 
BRANCH  11  12
ATOM     12  C   UNL     1      -5.675  -1.177   4.858  1.00  0.00     0.006 C 
BRANCH  12  13
ATOM     13  C   UNL     1      -6.921  -0.536   4.225  1.00  0.00     0.053 C 
BRANCH  13  14
ATOM     14  C   UNL     1      -6.625   0.809   3.634  1.00  0.00     0.041 C 
ATOM     15  O   UNL     1      -7.549   1.650   3.477  1.00  0.00    -0.550 OA
ATOM     16  O   UNL     1      -5.331   1.127   3.240  1.00  0.00    -0.550 OA
ENDBRANCH  13  14
ENDBRANCH  12  13
ENDBRANCH  11  12
ENDBRANCH  10  11
ENDBRANCH   9  10
ENDBRANCH   8   9
ENDBRANCH   7   8
ENDBRANCH   6   7
ENDBRANCH   5   6
ENDBRANCH   4   5
ENDBRANCH   3   4
ENDBRANCH   2   3
ENDBRANCH   1   2
BRANCH   1  17
ATOM     17  C   UNL     1      -0.301  -1.772   8.563  1.00  0.00     0.000 C 
BRANCH  17  18
ATOM     18  C   UNL     1      -0.395  -1.243   7.125  1.00  0.00     0.000 C 
BRANCH  18  19
ATOM     19  C   UNL     1       0.744  -0.274   6.762  1.00  0.00     0.000 C 
BRANCH  19  20
ATOM     20  C   UNL     1       0.291   1.086   6.194  1.00  0.00     0.000 C 
BRANCH  20  21
ATOM     21  C   UNL     1       0.182   2.220   7.230  1.00  0.00     0.000 C 
BRANCH  21  22
ATOM     22  C   UNL     1       0.720   1.880   8.636  1.00  0.00    -0.000 C 
BRANCH  22  23
ATOM     23  C   UNL     1      -0.338   1.795   9.757  1.00  0.00    -0.000 C 
BRANCH  23  24
ATOM     24  C   UNL     1      -1.597   2.665   9.547  1.00  0.00    -0.000 C 
BRANCH  24  25
ATOM     25  C   UNL     1      -2.927   1.930   9.800  1.00  0.00    -0.000 C 
BRANCH  25  26
ATOM     26  C   UNL     1      -3.015   0.545   9.126  1.00  0.00    -0.000 C 
BRANCH  26  27
ATOM     27  C   UNL     1      -3.970   0.551   7.919  1.00  0.00    -0.000 C 
BRANCH  27  28
ATOM     28  C   UNL     1      -3.296   1.042   6.624  1.00  0.00    -0.000 C 
BRANCH  28  29
ATOM     29  C   UNL     1      -3.911   2.318   6.023  1.00  0.00    -0.003 C 
ATOM     30  C   UNL     1      -3.114   3.579   6.356  1.00  0.00     0.004 C 
ENDBRANCH  28  29
ENDBRANCH  27  28
ENDBRANCH  26  27
ENDBRANCH  25  26
ENDBRANCH  24  25
ENDBRANCH  23  24
ENDBRANCH  22  23
ENDBRANCH  21  22
ENDBRANCH  20  21
ENDBRANCH  19  20
ENDBRANCH  18  19
ENDBRANCH  17  18
ENDBRANCH   1  17
TORSDOF 26
ENDMDL
MODEL 7
REMARK VINA RESULT:    -2.870     11.433     14.494
REMARK INTER + INTRA:         -11.975
REMARK INTER:                  -6.949
REMARK INTRA:                  -5.026
REMARK UNBOUND:                -4.743
REMARK SMILES CCCCCCCCCCCCCCCCCCCCCCCCCCCC(=O)[O-]
REMARK SMILES IDX 15 1 16 2 17 3 18 4 19 5 20 6 21 7 22 8 23 9 24 10 25 11
REMARK SMILES IDX 26 12 27 13 28 14 29 15 30 16 14 17 13 18 12 19 11 20 10 21
REMARK SMILES IDX 9 22 8 23 7 24 6 25 5 26 4 27 3 28 2 29 1 30
REMARK H PARENT
REMARK Flexibility Score: inf
ROOT
ATOM      1  C   UNL     1      -0.019  -0.980   6.799  1.00  0.00     0.000 C 
ENDROOT
BRANCH   1   2
ATOM      2  C   UNL     1       0.992   0.175   6.728  1.00  0.00     0.000 C 
BRANCH   2   3
ATOM      3  C   UNL     1       0.314   1.536   6.503  1.00  0.00     0.000 C 
BRANCH   3   4
ATOM      4  C   UNL     1       0.246   2.381   7.789  1.00  0.00     0.000 C 
BRANCH   4   5
ATOM      5  C   UNL     1      -1.204   2.736   8.178  1.00  0.00     0.000 C 
BRANCH   5   6
ATOM      6  C   UNL     1      -2.207   2.615   7.017  1.00  0.00     0.000 C 
BRANCH   6   7
ATOM      7  C   UNL     1      -3.604   3.137   7.378  1.00  0.00     0.000 C 
BRANCH   7   8
ATOM      8  C   UNL     1      -4.556   3.054   6.175  1.00  0.00     0.000 C 
BRANCH   8   9
ATOM      9  C   UNL     1      -4.433   1.727   5.403  1.00  0.00     0.000 C 
BRANCH   9  10
ATOM     10  C   UNL     1      -5.771   1.054   5.051  1.00  0.00     0.000 C 
BRANCH  10  11
ATOM     11  C   UNL     1      -6.195   1.291   3.592  1.00  0.00     0.000 C 
BRANCH  11  12
ATOM     12  C   UNL     1      -6.911   0.076   2.975  1.00  0.00     0.006 C 
BRANCH  12  13
ATOM     13  C   UNL     1      -5.976  -0.908   2.253  1.00  0.00     0.053 C 
BRANCH  13  14
ATOM     14  C   UNL     1      -5.576  -2.055   3.130  1.00  0.00     0.041 C 
ATOM     15  O   UNL     1      -4.467  -2.626   2.963  1.00  0.00    -0.550 OA
ATOM     16  O   UNL     1      -6.440  -2.506   4.122  1.00  0.00    -0.550 OA
ENDBRANCH  13  14
ENDBRANCH  12  13
ENDBRANCH  11  12
ENDBRANCH  10  11
ENDBRANCH   9  10
ENDBRANCH   8   9
ENDBRANCH   7   8
ENDBRANCH   6   7
ENDBRANCH   5   6
ENDBRANCH   4   5
ENDBRANCH   3   4
ENDBRANCH   2   3
ENDBRANCH   1   2
BRANCH   1  17
ATOM     17  C   UNL     1       0.227  -1.849   8.038  1.00  0.00     0.000 C 
BRANCH  17  18
ATOM     18  C   UNL     1       0.524  -0.982   9.269  1.00  0.00     0.000 C 
BRANCH  18  19
ATOM     19  C   UNL     1      -0.747  -0.440   9.947  1.00  0.00     0.000 C 
BRANCH  19  20
ATOM     20  C   UNL     1      -2.035  -1.235   9.653  1.00  0.00     0.000 C 
BRANCH  20  21
ATOM     21  C   UNL     1      -3.125  -0.453   8.897  1.00  0.00     0.000 C 
BRANCH  21  22
ATOM     22  C   UNL     1      -4.436  -1.228   8.648  1.00  0.00    -0.000 C 
BRANCH  22  23
ATOM     23  C   UNL     1      -4.706  -1.638   7.184  1.00  0.00    -0.000 C 
BRANCH  23  24
ATOM     24  C   UNL     1      -3.457  -1.724   6.279  1.00  0.00    -0.000 C 
BRANCH  24  25
ATOM     25  C   UNL     1      -2.933  -3.154   6.051  1.00  0.00    -0.000 C 
BRANCH  25  26
ATOM     26  C   UNL     1      -3.964  -4.256   6.371  1.00  0.00    -0.000 C 
BRANCH  26  27
ATOM     27  C   UNL     1      -3.572  -5.067   7.619  1.00  0.00    -0.000 C 
BRANCH  27  28
ATOM     28  C   UNL     1      -2.220  -4.635   8.214  1.00  0.00    -0.000 C 
BRANCH  28  29
ATOM     29  C   UNL     1      -1.166  -5.754   8.295  1.00  0.00    -0.003 C 
ATOM     30  C   UNL     1       0.102  -5.440   7.502  1.00  0.00     0.004 C 
ENDBRANCH  28  29
ENDBRANCH  27  28
ENDBRANCH  26  27
ENDBRANCH  25  26
ENDBRANCH  24  25
ENDBRANCH  23  24
ENDBRANCH  22  23
ENDBRANCH  21  22
ENDBRANCH  20  21
ENDBRANCH  19  20
ENDBRANCH  18  19
ENDBRANCH  17  18
ENDBRANCH   1  17
TORSDOF 26
ENDMDL
MODEL 8
REMARK VINA RESULT:    -2.828     11.651     13.981
REMARK INTER + INTRA:         -11.869
REMARK INTER:                  -7.802
REMARK INTRA:                  -4.067
REMARK UNBOUND:                -4.743
REMARK SMILES CCCCCCCCCCCCCCCCCCCCCCCCCCCC(=O)[O-]
REMARK SMILES IDX 15 1 16 2 17 3 18 4 19 5 20 6 21 7 22 8 23 9 24 10 25 11
REMARK SMILES IDX 26 12 27 13 28 14 29 15 30 16 14 17 13 18 12 19 11 20 10 21
REMARK SMILES IDX 9 22 8 23 7 24 6 25 5 26 4 27 3 28 2 29 1 30
REMARK H PARENT
REMARK Flexibility Score: inf
ROOT
ATOM      1  C   UNL     1       0.131   1.131   6.023  1.00  0.00     0.000 C 
ENDROOT
BRANCH   1   2
ATOM      2  C   UNL     1       0.725  -0.199   6.511  1.00  0.00     0.000 C 
BRANCH   2   3
ATOM      3  C   UNL     1       0.474  -0.439   8.008  1.00  0.00     0.000 C 
BRANCH   3   4
ATOM      4  C   UNL     1       0.317  -1.933   8.347  1.00  0.00     0.000 C 
BRANCH   4   5
ATOM      5  C   UNL     1       0.319  -2.821   7.087  1.00  0.00     0.000 C 
BRANCH   5   6
ATOM      6  C   UNL     1      -0.832  -3.842   7.043  1.00  0.00     0.000 C 
BRANCH   6   7
ATOM      7  C   UNL     1      -1.629  -3.900   8.352  1.00  0.00     0.000 C 
BRANCH   7   8
ATOM      8  C   UNL     1      -1.733  -5.340   8.876  1.00  0.00     0.000 C 
BRANCH   8   9
ATOM      9  C   UNL     1      -1.885  -6.379   7.749  1.00  0.00     0.000 C 
BRANCH   9  10
ATOM     10  C   UNL     1      -0.850  -7.517   7.771  1.00  0.00     0.000 C 
BRANCH  10  11
ATOM     11  C   UNL     1       0.534  -7.059   8.261  1.00  0.00     0.000 C 
BRANCH  11  12
ATOM     12  C   UNL     1       1.662  -7.413   7.275  1.00  0.00     0.006 C 
BRANCH  12  13
ATOM     13  C   UNL     1       2.463  -6.200   6.772  1.00  0.00     0.053 C 
BRANCH  13  14
ATOM     14  C   UNL     1       3.508  -6.590   5.771  1.00  0.00     0.041 C 
ATOM     15  O   UNL     1       4.727  -6.556   6.082  1.00  0.00    -0.550 OA
ATOM     16  O   UNL     1       3.135  -6.973   4.488  1.00  0.00    -0.550 OA
ENDBRANCH  13  14
ENDBRANCH  12  13
ENDBRANCH  11  12
ENDBRANCH  10  11
ENDBRANCH   9  10
ENDBRANCH   8   9
ENDBRANCH   7   8
ENDBRANCH   6   7
ENDBRANCH   5   6
ENDBRANCH   4   5
ENDBRANCH   3   4
ENDBRANCH   2   3
ENDBRANCH   1   2
BRANCH   1  17
ATOM     17  C   UNL     1      -0.077   2.102   7.191  1.00  0.00     0.000 C 
BRANCH  17  18
ATOM     18  C   UNL     1      -1.513   2.644   7.206  1.00  0.00     0.000 C 
BRANCH  18  19
ATOM     19  C   UNL     1      -2.318   2.188   8.436  1.00  0.00     0.000 C 
BRANCH  19  20
ATOM     20  C   UNL     1      -2.880   0.755   8.356  1.00  0.00     0.000 C 
BRANCH  20  21
ATOM     21  C   UNL     1      -3.470   0.362   6.988  1.00  0.00     0.000 C 
BRANCH  21  22
ATOM     22  C   UNL     1      -3.019  -1.010   6.448  1.00  0.00    -0.000 C 
BRANCH  22  23
ATOM     23  C   UNL     1      -4.108  -2.103   6.396  1.00  0.00    -0.000 C 
BRANCH  23  24
ATOM     24  C   UNL     1      -4.183  -2.901   5.076  1.00  0.00    -0.000 C 
BRANCH  24  25
ATOM     25  C   UNL     1      -5.450  -2.633   4.242  1.00  0.00    -0.000 C 
BRANCH  25  26
ATOM     26  C   UNL     1      -5.164  -2.131   2.812  1.00  0.00    -0.000 C 
BRANCH  26  27
ATOM     27  C   UNL     1      -6.306  -1.255   2.269  1.00  0.00    -0.000 C 
BRANCH  27  28
ATOM     28  C   UNL     1      -6.691  -0.111   3.226  1.00  0.00    -0.000 C 
BRANCH  28  29
ATOM     29  C   UNL     1      -5.606   0.966   3.408  1.00  0.00    -0.003 C 
ATOM     30  C   UNL     1      -5.747   1.739   4.718  1.00  0.00     0.004 C 
ENDBRANCH  28  29
ENDBRANCH  27  28
ENDBRANCH  26  27
ENDBRANCH  25  26
ENDBRANCH  24  25
ENDBRANCH  23  24
ENDBRANCH  22  23
ENDBRANCH  21  22
ENDBRANCH  20  21
ENDBRANCH  19  20
ENDBRANCH  18  19
ENDBRANCH  17  18
ENDBRANCH   1  17
TORSDOF 26
ENDMDL
MODEL 9
REMARK VINA RESULT:    -2.817     12.303     15.116
REMARK INTER + INTRA:         -11.843
REMARK INTER:                  -7.501
REMARK INTRA:                  -4.342
REMARK UNBOUND:                -4.743
REMARK SMILES CCCCCCCCCCCCCCCCCCCCCCCCCCCC(=O)[O-]
REMARK SMILES IDX 15 1 16 2 17 3 18 4 19 5 20 6 21 7 22 8 23 9 24 10 25 11
REMARK SMILES IDX 26 12 27 13 28 14 29 15 30 16 14 17 13 18 12 19 11 20 10 21
REMARK SMILES IDX 9 22 8 23 7 24 6 25 5 26 4 27 3 28 2 29 1 30
REMARK H PARENT
REMARK Flexibility Score: inf
ROOT
ATOM      1  C   UNL     1       0.758  -1.267   8.364  1.00  0.00     0.000 C 
ENDROOT
BRANCH   1   2
ATOM      2  C   UNL     1       0.367  -0.967   6.909  1.00  0.00     0.000 C 
BRANCH   2   3
ATOM      3  C   UNL     1       0.958   0.360   6.404  1.00  0.00     0.000 C 
BRANCH   3   4
ATOM      4  C   UNL     1      -0.079   1.497   6.385  1.00  0.00     0.000 C 
BRANCH   4   5
ATOM      5  C   UNL     1      -0.044   2.342   7.675  1.00  0.00     0.000 C 
BRANCH   5   6
ATOM      6  C   UNL     1      -1.438   2.678   8.236  1.00  0.00     0.000 C 
BRANCH   6   7
ATOM      7  C   UNL     1      -2.529   1.723   7.736  1.00  0.00     0.000 C 
BRANCH   7   8
ATOM      8  C   UNL     1      -2.997   0.778   8.853  1.00  0.00     0.000 C 
BRANCH   8   9
ATOM      9  C   UNL     1      -3.004  -0.700   8.424  1.00  0.00     0.000 C 
BRANCH   9  10
ATOM     10  C   UNL     1      -3.209  -0.939   6.918  1.00  0.00     0.000 C 
BRANCH  10  11
ATOM     11  C   UNL     1      -4.232  -2.048   6.621  1.00  0.00     0.000 C 
BRANCH  11  12
ATOM     12  C   UNL     1      -3.823  -2.934   5.431  1.00  0.00     0.006 C 
BRANCH  12  13
ATOM     13  C   UNL     1      -4.643  -2.691   4.153  1.00  0.00     0.053 C 
BRANCH  13  14
ATOM     14  C   UNL     1      -5.622  -3.795   3.892  1.00  0.00     0.041 C 
ATOM     15  O   UNL     1      -6.120  -3.944   2.746  1.00  0.00    -0.550 OA
ATOM     16  O   UNL     1      -5.999  -4.649   4.922  1.00  0.00    -0.550 OA
ENDBRANCH  13  14
ENDBRANCH  12  13
ENDBRANCH  11  12
ENDBRANCH  10  11
ENDBRANCH   9  10
ENDBRANCH   8   9
ENDBRANCH   7   8
ENDBRANCH   6   7
ENDBRANCH   5   6
ENDBRANCH   4   5
ENDBRANCH   3   4
ENDBRANCH   2   3
ENDBRANCH   1   2
BRANCH   1  17
ATOM     17  C   UNL     1       0.410  -2.712   8.739  1.00  0.00     0.000 C 
BRANCH  17  18
ATOM     18  C   UNL     1       0.357  -3.606   7.492  1.00  0.00     0.000 C 
BRANCH  18  19
ATOM     19  C   UNL     1      -1.004  -4.300   7.304  1.00  0.00     0.000 C 
BRANCH  19  20
ATOM     20  C   UNL     1      -1.939  -4.251   8.529  1.00  0.00     0.000 C 
BRANCH  20  21
ATOM     21  C   UNL     1      -3.114  -5.246   8.493  1.00  0.00     0.000 C 
BRANCH  21  22
ATOM     22  C   UNL     1      -3.180  -6.138   7.236  1.00  0.00    -0.000 C 
BRANCH  22  23
ATOM     23  C   UNL     1      -2.971  -7.649   7.473  1.00  0.00    -0.000 C 
BRANCH  23  24
ATOM     24  C   UNL     1      -1.529  -8.160   7.264  1.00  0.00    -0.000 C 
BRANCH  24  25
ATOM     25  C   UNL     1      -0.610  -7.990   8.488  1.00  0.00    -0.000 C 
BRANCH  25  26
ATOM     26  C   UNL     1       0.740  -7.317   8.169  1.00  0.00    -0.000 C 
BRANCH  26  27
ATOM     27  C   UNL     1       1.480  -8.024   7.020  1.00  0.00    -0.000 C 
BRANCH  27  28
ATOM     28  C   UNL     1       2.496  -7.110   6.311  1.00  0.00    -0.000 C 
BRANCH  28  29
ATOM     29  C   UNL     1       2.930  -7.592   4.914  1.00  0.00    -0.003 C 
ATOM     30  C   UNL     1       4.035  -6.732   4.302  1.00  0.00     0.004 C 
ENDBRANCH  28  29
ENDBRANCH  27  28
ENDBRANCH  26  27
ENDBRANCH  25  26
ENDBRANCH  24  25
ENDBRANCH  23  24
ENDBRANCH  22  23
ENDBRANCH  21  22
ENDBRANCH  20  21
ENDBRANCH  19  20
ENDBRANCH  18  19
ENDBRANCH  17  18
ENDBRANCH   1  17
TORSDOF 26
ENDMDL
