MODEL 1
REMARK VINA RESULT:    -5.321      0.000      0.000
REMARK INTER + INTRA:          -6.635
REMARK INTER:                  -6.566
REMARK INTRA:                  -0.070
REMARK UNBOUND:                -0.070
REMARK SMILES CCCCCC(C)=O
REMARK SMILES IDX 4 1 3 2 2 3 1 4 5 5 6 6 8 7 7 8
REMARK H PARENT
REMARK Flexibility Score: inf
ROOT
ATOM      1  C   UNL     1      23.273  50.790  -4.873  1.00  0.00     0.008 C 
ENDROOT
BRANCH   1   2
ATOM      2  C   UNL     1      22.142  51.772  -4.529  1.00  0.00     0.000 C 
BRANCH   2   3
ATOM      3  C   UNL     1      22.655  53.192  -4.253  1.00  0.00    -0.003 C 
ATOM      4  C   UNL     1      22.912  53.946  -5.555  1.00  0.00     0.004 C 
ENDBRANCH   2   3
ENDBRANCH   1   2
BRANCH   1   5
ATOM      5  C   UNL     1      23.433  49.680  -3.824  1.00  0.00     0.075 C 
BRANCH   5   6
ATOM      6  C   UNL     1      24.242  48.540  -4.376  1.00  0.00     0.129 C 
ATOM      7  O   UNL     1      24.265  48.339  -5.581  1.00  0.00    -0.300 OA
ATOM      8  C   UNL     1      25.040  47.660  -3.461  1.00  0.00     0.087 C 
ENDBRANCH   5   6
ENDBRANCH   1   5
TORSDOF 4
ENDMDL
MODEL 2
REMARK VINA RESULT:    -5.293      2.254      4.842
REMARK INTER + INTRA:          -6.601
REMARK INTER:                  -6.480
REMARK INTRA:                  -0.121
REMARK UNBOUND:                -0.070
REMARK SMILES CCCCCC(C)=O
REMARK SMILES IDX 4 1 3 2 2 3 1 4 5 5 6 6 8 7 7 8
REMARK H PARENT
REMARK Flexibility Score: inf
ROOT
ATOM      1  C   UNL     1      23.614  50.756  -4.658  1.00  0.00     0.008 C 
ENDROOT
BRANCH   1   2
ATOM      2  C   UNL     1      23.240  49.320  -5.056  1.00  0.00     0.000 C 
BRANCH   2   3
ATOM      3  C   UNL     1      24.429  48.352  -4.966  1.00  0.00    -0.003 C 
ATOM      4  C   UNL     1      24.717  47.970  -3.517  1.00  0.00     0.004 C 
ENDBRANCH   2   3
ENDBRANCH   1   2
BRANCH   1   5
ATOM      5  C   UNL     1      22.386  51.619  -4.332  1.00  0.00     0.075 C 
BRANCH   5   6
ATOM      6  C   UNL     1      22.613  53.045  -4.749  1.00  0.00     0.129 C 
ATOM      7  O   UNL     1      22.543  53.939  -3.918  1.00  0.00    -0.300 OA
ATOM      8  C   UNL     1      22.948  53.377  -6.172  1.00  0.00     0.087 C 
ENDBRANCH   5   6
ENDBRANCH   1   5
TORSDOF 4
ENDMDL
MODEL 3
REMARK VINA RESULT:    -5.010      2.286      5.019
REMARK INTER + INTRA:          -6.251
REMARK INTER:                  -6.139
REMARK INTRA:                  -0.113
REMARK UNBOUND:                -0.070
REMARK SMILES CCCCCC(C)=O
REMARK SMILES IDX 4 1 3 2 2 3 1 4 5 5 6 6 8 7 7 8
REMARK H PARENT
REMARK Flexibility Score: inf
ROOT
ATOM      1  C   UNL     1      22.462  52.092  -5.027  1.00  0.00     0.008 C 
ENDROOT
BRANCH   1   2
ATOM      2  C   UNL     1      23.695  51.217  -4.758  1.00  0.00     0.000 C 
BRANCH   2   3
ATOM      3  C   UNL     1      23.372  49.716  -4.781  1.00  0.00    -0.003 C 
ATOM      4  C   UNL     1      24.628  48.880  -4.559  1.00  0.00     0.004 C 
ENDBRANCH   2   3
ENDBRANCH   1   2
BRANCH   1   5
ATOM      5  C   UNL     1      22.781  53.594  -4.992  1.00  0.00     0.075 C 
BRANCH   5   6
ATOM      6  C   UNL     1      23.125  54.097  -6.366  1.00  0.00     0.129 C 
ATOM      7  O   UNL     1      22.520  53.670  -7.338  1.00  0.00    -0.300 OA
ATOM      8  C   UNL     1      24.189  55.137  -6.551  1.00  0.00     0.087 C 
ENDBRANCH   5   6
ENDBRANCH   1   5
TORSDOF 4
ENDMDL
MODEL 4
REMARK VINA RESULT:    -4.938      1.274      1.678
REMARK INTER + INTRA:          -6.163
REMARK INTER:                  -6.038
REMARK INTRA:                  -0.125
REMARK UNBOUND:                -0.070
REMARK SMILES CCCCCC(C)=O
REMARK SMILES IDX 4 1 3 2 2 3 1 4 5 5 6 6 8 7 7 8
REMARK H PARENT
REMARK Flexibility Score: inf
ROOT
ATOM      1  C   UNL     1      22.394  51.577  -4.264  1.00  0.00     0.008 C 
ENDROOT
BRANCH   1   2
ATOM      2  C   UNL     1      22.390  53.071  -4.620  1.00  0.00     0.000 C 
BRANCH   2   3
ATOM      3  C   UNL     1      23.461  53.434  -5.658  1.00  0.00    -0.003 C 
ATOM      4  C   UNL     1      22.871  54.275  -6.787  1.00  0.00     0.004 C 
ENDBRANCH   2   3
ENDBRANCH   1   2
BRANCH   1   5
ATOM      5  C   UNL     1      23.575  50.822  -4.888  1.00  0.00     0.075 C 
BRANCH   5   6
ATOM      6  C   UNL     1      23.728  49.463  -4.264  1.00  0.00     0.129 C 
ATOM      7  O   UNL     1      23.306  49.262  -3.135  1.00  0.00    -0.300 OA
ATOM      8  C   UNL     1      24.373  48.344  -5.026  1.00  0.00     0.087 C 
ENDBRANCH   5   6
ENDBRANCH   1   5
TORSDOF 4
ENDMDL
MODEL 5
REMARK VINA RESULT:    -4.887      3.292      5.686
REMARK INTER + INTRA:          -6.099
REMARK INTER:                  -5.972
REMARK INTRA:                  -0.128
REMARK UNBOUND:                -0.070
REMARK SMILES CCCCCC(C)=O
REMARK SMILES IDX 4 1 3 2 2 3 1 4 5 5 6 6 8 7 7 8
REMARK H PARENT
REMARK Flexibility Score: inf
ROOT
ATOM      1  C   UNL     1      23.520  53.467  -5.802  1.00  0.00     0.008 C 
ENDROOT
BRANCH   1   2
ATOM      2  C   UNL     1      22.543  53.469  -4.617  1.00  0.00     0.000 C 
BRANCH   2   3
ATOM      3  C   UNL     1      22.117  52.054  -4.199  1.00  0.00    -0.003 C 
ATOM      4  C   UNL     1      23.100  51.009  -4.719  1.00  0.00     0.004 C 
ENDBRANCH   2   3
ENDBRANCH   1   2
BRANCH   1   5
ATOM      5  C   UNL     1      23.070  54.391  -6.943  1.00  0.00     0.075 C 
BRANCH   5   6
ATOM      6  C   UNL     1      24.168  55.347  -7.318  1.00  0.00     0.129 C 
ATOM      7  O   UNL     1      24.783  55.939  -6.443  1.00  0.00    -0.300 OA
ATOM      8  C   UNL     1      24.531  55.563  -8.756  1.00  0.00     0.087 C 
ENDBRANCH   5   6
ENDBRANCH   1   5
TORSDOF 4
ENDMDL
MODEL 6
REMARK VINA RESULT:    -4.879      2.512      3.906
REMARK INTER + INTRA:          -6.090
REMARK INTER:                  -6.021
REMARK INTRA:                  -0.069
REMARK UNBOUND:                -0.070
REMARK SMILES CCCCCC(C)=O
REMARK SMILES IDX 4 1 3 2 2 3 1 4 5 5 6 6 8 7 7 8
REMARK H PARENT
REMARK Flexibility Score: inf
ROOT
ATOM      1  C   UNL     1      22.924  53.517  -6.195  1.00  0.00     0.008 C 
ENDROOT
BRANCH   1   2
ATOM      2  C   UNL     1      23.645  54.810  -6.606  1.00  0.00     0.000 C 
BRANCH   2   3
ATOM      3  C   UNL     1      24.261  54.723  -8.010  1.00  0.00    -0.003 C 
ATOM      4  C   UNL     1      25.244  55.865  -8.251  1.00  0.00     0.004 C 
ENDBRANCH   2   3
ENDBRANCH   1   2
BRANCH   1   5
ATOM      5  C   UNL     1      23.109  53.183  -4.708  1.00  0.00     0.075 C 
BRANCH   5   6
ATOM      6  C   UNL     1      22.567  51.816  -4.398  1.00  0.00     0.129 C 
ATOM      7  O   UNL     1      21.447  51.699  -3.926  1.00  0.00    -0.300 OA
ATOM      8  C   UNL     1      23.383  50.591  -4.688  1.00  0.00     0.087 C 
ENDBRANCH   5   6
ENDBRANCH   1   5
TORSDOF 4
ENDMDL
MODEL 7
REMARK VINA RESULT:    -4.463      4.222      6.315
REMARK INTER + INTRA:          -5.576
REMARK INTER:                  -5.512
REMARK INTRA:                  -0.065
REMARK UNBOUND:                -0.070
REMARK SMILES CCCCCC(C)=O
REMARK SMILES IDX 4 1 3 2 2 3 1 4 5 5 6 6 8 7 7 8
REMARK H PARENT
REMARK Flexibility Score: inf
ROOT
ATOM      1  C   UNL     1      24.551  55.137  -8.040  1.00  0.00     0.008 C 
ENDROOT
BRANCH   1   2
ATOM      2  C   UNL     1      25.689  56.122  -8.352  1.00  0.00     0.000 C 
BRANCH   2   3
ATOM      3  C   UNL     1      25.177  57.533  -8.673  1.00  0.00    -0.003 C 
ATOM      4  C   UNL     1      26.317  58.442  -9.122  1.00  0.00     0.004 C 
ENDBRANCH   2   3
ENDBRANCH   1   2
BRANCH   1   5
ATOM      5  C   UNL     1      24.210  55.081  -6.544  1.00  0.00     0.075 C 
BRANCH   5   6
ATOM      6  C   UNL     1      23.061  54.144  -6.295  1.00  0.00     0.129 C 
ATOM      7  O   UNL     1      22.446  53.673  -7.240  1.00  0.00    -0.300 OA
ATOM      8  C   UNL     1      22.680  53.763  -4.897  1.00  0.00     0.087 C 
ENDBRANCH   5   6
ENDBRANCH   1   5
TORSDOF 4
ENDMDL
MODEL 8
REMARK VINA RESULT:    -4.348      5.529      8.061
REMARK INTER + INTRA:          -5.434
REMARK INTER:                  -5.363
REMARK INTRA:                  -0.071
REMARK UNBOUND:                -0.070
REMARK SMILES CCCCCC(C)=O
REMARK SMILES IDX 4 1 3 2 2 3 1 4 5 5 6 6 8 7 7 8
REMARK H PARENT
REMARK Flexibility Score: inf
ROOT
ATOM      1  C   UNL     1      24.291  55.898  -8.277  1.00  0.00     0.008 C 
ENDROOT
BRANCH   1   2
ATOM      2  C   UNL     1      24.342  54.911  -7.101  1.00  0.00     0.000 C 
BRANCH   2   3
ATOM      3  C   UNL     1      23.055  54.086  -6.965  1.00  0.00    -0.003 C 
ATOM      4  C   UNL     1      23.021  53.335  -5.637  1.00  0.00     0.004 C 
ENDBRANCH   2   3
ENDBRANCH   1   2
BRANCH   1   5
ATOM      5  C   UNL     1      25.687  56.284  -8.788  1.00  0.00     0.075 C 
BRANCH   5   6
ATOM      6  C   UNL     1      25.795  57.772  -8.968  1.00  0.00     0.129 C 
ATOM      7  O   UNL     1      24.894  58.499  -8.575  1.00  0.00    -0.300 OA
ATOM      8  C   UNL     1      27.011  58.375  -9.604  1.00  0.00     0.087 C 
ENDBRANCH   5   6
ENDBRANCH   1   5
TORSDOF 4
ENDMDL
MODEL 9
REMARK VINA RESULT:    -4.193      4.311      6.489
REMARK INTER + INTRA:          -5.243
REMARK INTER:                  -5.167
REMARK INTRA:                  -0.076
REMARK UNBOUND:                -0.070
REMARK SMILES CCCCCC(C)=O
REMARK SMILES IDX 4 1 3 2 2 3 1 4 5 5 6 6 8 7 7 8
REMARK H PARENT
REMARK Flexibility Score: inf
ROOT
ATOM      1  C   UNL     1      24.091  54.496  -6.496  1.00  0.00     0.008 C 
ENDROOT
BRANCH   1   2
ATOM      2  C   UNL     1      22.762  53.999  -5.907  1.00  0.00     0.000 C 
BRANCH   2   3
ATOM      3  C   UNL     1      22.796  52.507  -5.546  1.00  0.00    -0.003 C 
ATOM      4  C   UNL     1      22.037  52.237  -4.251  1.00  0.00     0.004 C 
ENDBRANCH   2   3
ENDBRANCH   1   2
BRANCH   1   5
ATOM      5  C   UNL     1      23.997  54.797  -7.999  1.00  0.00     0.075 C 
BRANCH   5   6
ATOM      6  C   UNL     1      24.483  56.189  -8.293  1.00  0.00     0.129 C 
ATOM      7  O   UNL     1      23.683  57.058  -8.605  1.00  0.00    -0.300 OA
ATOM      8  C   UNL     1      25.940  56.524  -8.184  1.00  0.00     0.087 C 
ENDBRANCH   5   6
ENDBRANCH   1   5
TORSDOF 4
ENDMDL
