MODEL 1
REMARK VINA RESULT:     4.342      0.000      0.000
REMARK INTER + INTRA:           5.398
REMARK INTER:                   5.865
REMARK INTRA:                  -0.468
REMARK UNBOUND:                -0.468
REMARK SMILES CC[C@@H](CC[C@@H](C)[C@@H]1CC[C@H]2[C@H]3CC(=O)C4=CC(=O)CC[C@]4(C)[C@H]3CC[C@@]21C)C(C)C
REMARK SMILES IDX 4 1 3 2 2 3 1 4 29 5 30 6 31 7 5 8 6 9 7 10 8 11 9 12 27 13
REMARK SMILES IDX 10 14 11 15 26 16 28 17 12 18 25 19 24 20 13 21 22 22 14 23
REMARK SMILES IDX 16 24 21 25 23 26 15 27 17 28 20 29 18 30 19 31
REMARK H PARENT
REMARK Flexibility Score: inf
ROOT
ATOM      1  C   UNL     1     -13.237 -11.933  36.665  1.00  0.00     0.004 C 
ENDROOT
BRANCH   1   2
ATOM      2  C   UNL     1     -12.831 -12.666  37.983  1.00  0.00    -0.009 C 
BRANCH   2   3
ATOM      3  C   UNL     1     -12.538 -14.162  37.683  1.00  0.00     0.000 C 
ATOM      4  C   UNL     1     -11.130 -14.617  38.082  1.00  0.00     0.004 C 
ENDBRANCH   2   3
BRANCH   2   5
ATOM      5  C   UNL     1     -13.891 -12.462  39.123  1.00  0.00    -0.014 C 
ATOM      6  C   UNL     1     -14.621 -11.112  39.016  1.00  0.00     0.007 C 
ATOM      7  C   UNL     1     -14.949 -13.578  39.124  1.00  0.00     0.007 C 
ENDBRANCH   2   5
ENDBRANCH   1   2
BRANCH   1   8
ATOM      8  C   UNL     1     -13.310 -12.884  35.448  1.00  0.00     0.004 C 
BRANCH   8   9
ATOM      9  C   UNL     1     -11.949 -13.212  34.744  1.00  0.00    -0.011 C 
ATOM     10  C   UNL     1     -10.789 -12.356  35.297  1.00  0.00     0.008 C 
BRANCH   9  11
ATOM     11  C   UNL     1     -11.680 -14.765  34.639  1.00  0.00    -0.002 C 
ATOM     12  C   UNL     1     -10.178 -15.183  34.658  1.00  0.00     0.005 C 
ATOM     13  C   UNL     1     -12.281 -15.543  33.413  1.00  0.00    -0.026 C 
ATOM     14  C   UNL     1      -9.875 -15.907  33.339  1.00  0.00     0.005 C 
ATOM     15  C   UNL     1     -11.073 -15.583  32.470  1.00  0.00    -0.001 C 
ATOM     16  C   UNL     1     -13.475 -14.917  32.643  1.00  0.00     0.007 C 
ATOM     17  C   UNL     1     -12.719 -16.945  33.943  1.00  0.00     0.012 C 
ATOM     18  C   UNL     1     -11.248 -16.317  31.121  1.00  0.00     0.004 C 
ATOM     19  C   UNL     1     -13.764 -15.672  31.315  1.00  0.00     0.005 C 
ATOM     20  C   UNL     1     -12.519 -15.803  30.377  1.00  0.00     0.003 C 
ATOM     21  C   UNL     1     -11.164 -17.856  31.110  1.00  0.00     0.085 C 
ATOM     22  C   UNL     1     -12.792 -16.560  28.990  1.00  0.00    -0.000 C 
ATOM     23  C   UNL     1     -11.006 -18.298  29.690  1.00  0.00     0.159 C 
ATOM     24  C   UNL     1     -11.610 -17.475  28.616  1.00  0.00     0.005 C 
ATOM     25  C   UNL     1     -13.038 -15.480  27.883  1.00  0.00     0.020 C 
ATOM     26  C   UNL     1     -14.035 -17.492  29.062  1.00  0.00     0.017 C 
ATOM     27  O   UNL     1     -10.427 -19.389  29.435  1.00  0.00    -0.295 OA
ATOM     28  C   UNL     1     -11.167 -17.598  27.352  1.00  0.00     0.055 C 
ATOM     29  C   UNL     1     -13.023 -16.059  26.464  1.00  0.00     0.081 C 
ATOM     30  C   UNL     1     -11.752 -16.827  26.246  1.00  0.00     0.156 C 
ATOM     31  O   UNL     1     -11.147 -16.758  25.141  1.00  0.00    -0.295 OA
ENDBRANCH   9  11
ENDBRANCH   8   9
ENDBRANCH   1   8
TORSDOF 6
ENDMDL
MODEL 2
REMARK VINA RESULT:     4.663      1.278      2.211
REMARK INTER + INTRA:           5.831
REMARK INTER:                   6.911
REMARK INTRA:                  -1.080
REMARK UNBOUND:                -0.468
REMARK SMILES CC[C@@H](CC[C@@H](C)[C@@H]1CC[C@H]2[C@H]3CC(=O)C4=CC(=O)CC[C@]4(C)[C@H]3CC[C@@]21C)C(C)C
REMARK SMILES IDX 4 1 3 2 2 3 1 4 29 5 30 6 31 7 5 8 6 9 7 10 8 11 9 12 27 13
REMARK SMILES IDX 10 14 11 15 26 16 28 17 12 18 25 19 24 20 13 21 22 22 14 23
REMARK SMILES IDX 16 24 21 25 23 26 15 27 17 28 20 29 18 30 19 31
REMARK H PARENT
REMARK Flexibility Score: inf
ROOT
ATOM      1  C   UNL     1     -10.197 -13.100  36.697  1.00  0.00     0.004 C 
ENDROOT
BRANCH   1   2
ATOM      2  C   UNL     1     -11.225 -12.171  35.977  1.00  0.00    -0.009 C 
BRANCH   2   3
ATOM      3  C   UNL     1     -10.748 -10.695  36.062  1.00  0.00     0.000 C 
ATOM      4  C   UNL     1     -10.140 -10.157  34.762  1.00  0.00     0.004 C 
ENDBRANCH   2   3
BRANCH   2   5
ATOM      5  C   UNL     1     -12.685 -12.379  36.513  1.00  0.00    -0.014 C 
ATOM      6  C   UNL     1     -13.598 -13.073  35.487  1.00  0.00     0.007 C 
ATOM      7  C   UNL     1     -12.704 -13.209  37.808  1.00  0.00     0.007 C 
ENDBRANCH   2   5
ENDBRANCH   1   2
BRANCH   1   8
ATOM      8  C   UNL     1      -9.923 -14.408  35.920  1.00  0.00     0.004 C 
BRANCH   8   9
ATOM      9  C   UNL     1     -10.648 -14.557  34.538  1.00  0.00    -0.011 C 
ATOM     10  C   UNL     1      -9.875 -13.858  33.400  1.00  0.00     0.008 C 
BRANCH   9  11
ATOM     11  C   UNL     1     -11.113 -16.040  34.256  1.00  0.00    -0.002 C 
ATOM     12  C   UNL     1      -9.969 -17.098  34.200  1.00  0.00     0.005 C 
ATOM     13  C   UNL     1     -11.960 -16.321  32.961  1.00  0.00    -0.026 C 
ATOM     14  C   UNL     1      -9.983 -17.732  32.803  1.00  0.00     0.005 C 
ATOM     15  C   UNL     1     -10.870 -16.805  31.997  1.00  0.00    -0.001 C 
ATOM     16  C   UNL     1     -12.709 -15.139  32.287  1.00  0.00     0.007 C 
ATOM     17  C   UNL     1     -13.007 -17.415  33.338  1.00  0.00     0.012 C 
ATOM     18  C   UNL     1     -11.313 -17.227  30.578  1.00  0.00     0.004 C 
ATOM     19  C   UNL     1     -13.264 -15.530  30.889  1.00  0.00     0.005 C 
ATOM     20  C   UNL     1     -12.184 -16.112  29.920  1.00  0.00     0.003 C 
ATOM     21  C   UNL     1     -11.939 -18.624  30.393  1.00  0.00     0.085 C 
ATOM     22  C   UNL     1     -12.722 -16.507  28.462  1.00  0.00    -0.000 C 
ATOM     23  C   UNL     1     -11.950 -18.933  28.930  1.00  0.00     0.159 C 
ATOM     24  C   UNL     1     -12.074 -17.814  27.966  1.00  0.00     0.005 C 
ATOM     25  C   UNL     1     -12.409 -15.321  27.487  1.00  0.00     0.020 C 
ATOM     26  C   UNL     1     -14.255 -16.769  28.452  1.00  0.00     0.017 C 
ATOM     27  O   UNL     1     -11.924 -20.133  28.543  1.00  0.00    -0.295 OA
ATOM     28  C   UNL     1     -11.693 -17.988  26.688  1.00  0.00     0.055 C 
ATOM     29  C   UNL     1     -12.611 -15.686  26.013  1.00  0.00     0.081 C 
ATOM     30  C   UNL     1     -11.823 -16.920  25.687  1.00  0.00     0.156 C 
ATOM     31  O   UNL     1     -11.214 -17.017  24.586  1.00  0.00    -0.295 OA
ENDBRANCH   9  11
ENDBRANCH   8   9
ENDBRANCH   1   8
TORSDOF 6
ENDMDL
MODEL 3
REMARK VINA RESULT:     5.836      3.105      8.201
REMARK INTER + INTRA:           7.415
REMARK INTER:                   6.795
REMARK INTRA:                   0.620
REMARK UNBOUND:                -0.468
REMARK SMILES CC[C@@H](CC[C@@H](C)[C@@H]1CC[C@H]2[C@H]3CC(=O)C4=CC(=O)CC[C@]4(C)[C@H]3CC[C@@]21C)C(C)C
REMARK SMILES IDX 4 1 3 2 2 3 1 4 29 5 30 6 31 7 5 8 6 9 7 10 8 11 9 12 27 13
REMARK SMILES IDX 10 14 11 15 26 16 28 17 12 18 25 19 24 20 13 21 22 22 14 23
REMARK SMILES IDX 16 24 21 25 23 26 15 27 17 28 20 29 18 30 19 31
REMARK H PARENT
REMARK Flexibility Score: inf
ROOT
ATOM      1  C   UNL     1     -12.022 -16.521  27.055  1.00  0.00     0.004 C 
ENDROOT
BRANCH   1   2
ATOM      2  C   UNL     1     -13.370 -16.065  27.698  1.00  0.00    -0.009 C 
BRANCH   2   3
ATOM      3  C   UNL     1     -14.394 -15.720  26.582  1.00  0.00     0.000 C 
ATOM      4  C   UNL     1     -14.152 -16.455  25.260  1.00  0.00     0.004 C 
ENDBRANCH   2   3
BRANCH   2   5
ATOM      5  C   UNL     1     -13.167 -14.901  28.731  1.00  0.00    -0.014 C 
ATOM      6  C   UNL     1     -11.696 -14.465  28.848  1.00  0.00     0.007 C 
ATOM      7  C   UNL     1     -14.004 -13.663  28.367  1.00  0.00     0.007 C 
ENDBRANCH   2   5
ENDBRANCH   1   2
BRANCH   1   8
ATOM      8  C   UNL     1     -11.574 -17.923  27.530  1.00  0.00     0.004 C 
BRANCH   8   9
ATOM      9  C   UNL     1     -10.810 -17.980  28.897  1.00  0.00    -0.011 C 
ATOM     10  C   UNL     1      -9.885 -16.760  29.094  1.00  0.00     0.008 C 
BRANCH   9  11
ATOM     11  C   UNL     1     -11.761 -18.334  30.108  1.00  0.00    -0.002 C 
ATOM     12  C   UNL     1     -13.266 -17.984  29.898  1.00  0.00     0.005 C 
ATOM     13  C   UNL     1     -11.421 -17.736  31.521  1.00  0.00    -0.026 C 
ATOM     14  C   UNL     1     -13.670 -16.979  30.984  1.00  0.00     0.005 C 
ATOM     15  C   UNL     1     -12.346 -16.514  31.553  1.00  0.00    -0.001 C 
ATOM     16  C   UNL     1      -9.971 -17.252  31.799  1.00  0.00     0.007 C 
ATOM     17  C   UNL     1     -11.782 -18.834  32.571  1.00  0.00     0.012 C 
ATOM     18  C   UNL     1     -12.336 -15.649  32.834  1.00  0.00     0.004 C 
ATOM     19  C   UNL     1      -9.876 -16.451  33.127  1.00  0.00     0.005 C 
ATOM     20  C   UNL     1     -10.876 -15.253  33.218  1.00  0.00     0.003 C 
ATOM     21  C   UNL     1     -13.134 -16.143  34.056  1.00  0.00     0.085 C 
ATOM     22  C   UNL     1     -10.787 -14.395  34.570  1.00  0.00    -0.000 C 
ATOM     23  C   UNL     1     -13.265 -15.000  35.013  1.00  0.00     0.159 C 
ATOM     24  C   UNL     1     -12.189 -13.983  35.058  1.00  0.00     0.005 C 
ATOM     25  C   UNL     1      -9.896 -13.136  34.293  1.00  0.00     0.020 C 
ATOM     26  C   UNL     1     -10.158 -15.204  35.739  1.00  0.00     0.017 C 
ATOM     27  O   UNL     1     -14.244 -14.958  35.807  1.00  0.00    -0.295 OA
ATOM     28  C   UNL     1     -12.440 -12.769  35.582  1.00  0.00     0.055 C 
ATOM     29  C   UNL     1      -9.967 -12.092  35.412  1.00  0.00     0.081 C 
ATOM     30  C   UNL     1     -11.401 -11.735  35.677  1.00  0.00     0.156 C 
ATOM     31  O   UNL     1     -11.727 -10.539  35.913  1.00  0.00    -0.295 OA
ENDBRANCH   9  11
ENDBRANCH   8   9
ENDBRANCH   1   8
TORSDOF 6
ENDMDL
MODEL 4
REMARK VINA RESULT:     6.453      1.048      2.042
REMARK INTER + INTRA:           8.249
REMARK INTER:                   8.577
REMARK INTRA:                  -0.327
REMARK UNBOUND:                -0.468
REMARK SMILES CC[C@@H](CC[C@@H](C)[C@@H]1CC[C@H]2[C@H]3CC(=O)C4=CC(=O)CC[C@]4(C)[C@H]3CC[C@@]21C)C(C)C
REMARK SMILES IDX 4 1 3 2 2 3 1 4 29 5 30 6 31 7 5 8 6 9 7 10 8 11 9 12 27 13
REMARK SMILES IDX 10 14 11 15 26 16 28 17 12 18 25 19 24 20 13 21 22 22 14 23
REMARK SMILES IDX 16 24 21 25 23 26 15 27 17 28 20 29 18 30 19 31
REMARK H PARENT
REMARK Flexibility Score: inf
ROOT
ATOM      1  C   UNL     1     -12.533 -12.220  35.824  1.00  0.00     0.004 C 
ENDROOT
BRANCH   1   2
ATOM      2  C   UNL     1     -12.461 -13.066  37.135  1.00  0.00    -0.009 C 
BRANCH   2   3
ATOM      3  C   UNL     1     -12.726 -12.154  38.364  1.00  0.00     0.000 C 
ATOM      4  C   UNL     1     -14.205 -12.029  38.744  1.00  0.00     0.004 C 
ENDBRANCH   2   3
BRANCH   2   5
ATOM      5  C   UNL     1     -11.118 -13.872  37.243  1.00  0.00    -0.014 C 
ATOM      6  C   UNL     1      -9.883 -12.957  37.306  1.00  0.00     0.007 C 
ATOM      7  C   UNL     1     -11.099 -14.785  38.481  1.00  0.00     0.007 C 
ENDBRANCH   2   5
ENDBRANCH   1   2
BRANCH   1   8
ATOM      8  C   UNL     1     -12.386 -13.079  34.547  1.00  0.00     0.004 C 
BRANCH   8   9
ATOM      9  C   UNL     1     -13.409 -14.254  34.381  1.00  0.00    -0.011 C 
ATOM     10  C   UNL     1     -14.555 -13.892  33.411  1.00  0.00     0.008 C 
BRANCH   9  11
ATOM     11  C   UNL     1     -12.700 -15.643  34.133  1.00  0.00    -0.002 C 
ATOM     12  C   UNL     1     -11.145 -15.626  34.243  1.00  0.00     0.005 C 
ATOM     13  C   UNL     1     -12.981 -16.391  32.778  1.00  0.00    -0.026 C 
ATOM     14  C   UNL     1     -10.573 -16.058  32.886  1.00  0.00     0.005 C 
ATOM     15  C   UNL     1     -11.761 -15.969  31.951  1.00  0.00    -0.001 C 
ATOM     16  C   UNL     1     -14.259 -16.026  31.975  1.00  0.00     0.007 C 
ATOM     17  C   UNL     1     -13.028 -17.916  33.110  1.00  0.00     0.012 C 
ATOM     18  C   UNL     1     -11.642 -16.540  30.520  1.00  0.00     0.004 C 
ATOM     19  C   UNL     1     -14.243 -16.651  30.552  1.00  0.00     0.005 C 
ATOM     20  C   UNL     1     -12.962 -16.307  29.723  1.00  0.00     0.003 C 
ATOM     21  C   UNL     1     -11.118 -17.979  30.349  1.00  0.00     0.085 C 
ATOM     22  C   UNL     1     -12.926 -16.921  28.243  1.00  0.00    -0.000 C 
ATOM     23  C   UNL     1     -10.759 -18.170  28.909  1.00  0.00     0.159 C 
ATOM     24  C   UNL     1     -11.512 -17.414  27.881  1.00  0.00     0.005 C 
ATOM     25  C   UNL     1     -13.408 -15.816  27.242  1.00  0.00     0.020 C 
ATOM     26  C   UNL     1     -13.851 -18.163  28.098  1.00  0.00     0.017 C 
ATOM     27  O   UNL     1      -9.878 -19.015  28.591  1.00  0.00    -0.295 OA
ATOM     28  C   UNL     1     -10.982 -17.243  26.657  1.00  0.00     0.055 C 
ATOM     29  C   UNL     1     -13.148 -16.178  25.776  1.00  0.00     0.081 C 
ATOM     30  C   UNL     1     -11.699 -16.527  25.593  1.00  0.00     0.156 C 
ATOM     31  O   UNL     1     -11.077 -16.149  24.563  1.00  0.00    -0.295 OA
ENDBRANCH   9  11
ENDBRANCH   8   9
ENDBRANCH   1   8
TORSDOF 6
ENDMDL
MODEL 5
REMARK VINA RESULT:     6.468      3.133      8.471
REMARK INTER + INTRA:           8.270
REMARK INTER:                   6.670
REMARK INTRA:                   1.600
REMARK UNBOUND:                -0.468
REMARK SMILES CC[C@@H](CC[C@@H](C)[C@@H]1CC[C@H]2[C@H]3CC(=O)C4=CC(=O)CC[C@]4(C)[C@H]3CC[C@@]21C)C(C)C
REMARK SMILES IDX 4 1 3 2 2 3 1 4 29 5 30 6 31 7 5 8 6 9 7 10 8 11 9 12 27 13
REMARK SMILES IDX 10 14 11 15 26 16 28 17 12 18 25 19 24 20 13 21 22 22 14 23
REMARK SMILES IDX 16 24 21 25 23 26 15 27 17 28 20 29 18 30 19 31
REMARK H PARENT
REMARK Flexibility Score: inf
ROOT
ATOM      1  C   UNL     1     -11.835 -16.640  26.913  1.00  0.00     0.004 C 
ENDROOT
BRANCH   1   2
ATOM      2  C   UNL     1     -13.277 -16.335  27.429  1.00  0.00    -0.009 C 
BRANCH   2   3
ATOM      3  C   UNL     1     -14.217 -17.526  27.096  1.00  0.00     0.000 C 
ATOM      4  C   UNL     1     -13.892 -18.814  27.860  1.00  0.00     0.004 C 
ENDBRANCH   2   3
BRANCH   2   5
ATOM      5  C   UNL     1     -13.815 -14.958  26.900  1.00  0.00    -0.014 C 
ATOM      6  C   UNL     1     -14.741 -15.114  25.681  1.00  0.00     0.007 C 
ATOM      7  C   UNL     1     -14.582 -14.190  27.988  1.00  0.00     0.007 C 
ENDBRANCH   2   5
ENDBRANCH   1   2
BRANCH   1   8
ATOM      8  C   UNL     1     -11.128 -17.747  27.729  1.00  0.00     0.004 C 
BRANCH   8   9
ATOM      9  C   UNL     1     -10.613 -17.337  29.151  1.00  0.00    -0.011 C 
ATOM     10  C   UNL     1     -10.042 -15.904  29.169  1.00  0.00     0.008 C 
BRANCH   9  11
ATOM     11  C   UNL     1     -11.647 -17.689  30.293  1.00  0.00    -0.002 C 
ATOM     12  C   UNL     1     -13.124 -17.284  30.002  1.00  0.00     0.005 C 
ATOM     13  C   UNL     1     -11.374 -17.137  31.739  1.00  0.00    -0.026 C 
ATOM     14  C   UNL     1     -13.562 -16.292  31.087  1.00  0.00     0.005 C 
ATOM     15  C   UNL     1     -12.260 -15.885  31.747  1.00  0.00    -0.001 C 
ATOM     16  C   UNL     1      -9.930 -16.708  32.116  1.00  0.00     0.007 C 
ATOM     17  C   UNL     1     -11.833 -18.246  32.737  1.00  0.00     0.012 C 
ATOM     18  C   UNL     1     -12.300 -15.052  33.048  1.00  0.00     0.004 C 
ATOM     19  C   UNL     1      -9.890 -15.943  33.467  1.00  0.00     0.005 C 
ATOM     20  C   UNL     1     -10.855 -14.714  33.529  1.00  0.00     0.003 C 
ATOM     21  C   UNL     1     -13.186 -15.548  34.207  1.00  0.00     0.085 C 
ATOM     22  C   UNL     1     -10.821 -13.892  34.905  1.00  0.00    -0.000 C 
ATOM     23  C   UNL     1     -13.338 -14.425  35.183  1.00  0.00     0.159 C 
ATOM     24  C   UNL     1     -12.236 -13.445  35.319  1.00  0.00     0.005 C 
ATOM     25  C   UNL     1      -9.875 -12.658  34.715  1.00  0.00     0.020 C 
ATOM     26  C   UNL     1     -10.290 -14.749  36.089  1.00  0.00     0.017 C 
ATOM     27  O   UNL     1     -14.362 -14.369  35.918  1.00  0.00    -0.295 OA
ATOM     28  C   UNL     1     -12.479 -12.237  35.858  1.00  0.00     0.055 C 
ATOM     29  C   UNL     1      -9.981 -11.638  35.854  1.00  0.00     0.081 C 
ATOM     30  C   UNL     1     -11.416 -11.240  36.042  1.00  0.00     0.156 C 
ATOM     31  O   UNL     1     -11.718 -10.040  36.289  1.00  0.00    -0.295 OA
ENDBRANCH   9  11
ENDBRANCH   8   9
ENDBRANCH   1   8
TORSDOF 6
ENDMDL
MODEL 6
REMARK VINA RESULT:     7.137      3.026      7.683
REMARK INTER + INTRA:           9.173
REMARK INTER:                   5.402
REMARK INTRA:                   3.771
REMARK UNBOUND:                -0.468
REMARK SMILES CC[C@@H](CC[C@@H](C)[C@@H]1CC[C@H]2[C@H]3CC(=O)C4=CC(=O)CC[C@]4(C)[C@H]3CC[C@@]21C)C(C)C
REMARK SMILES IDX 4 1 3 2 2 3 1 4 29 5 30 6 31 7 5 8 6 9 7 10 8 11 9 12 27 13
REMARK SMILES IDX 10 14 11 15 26 16 28 17 12 18 25 19 24 20 13 21 22 22 14 23
REMARK SMILES IDX 16 24 21 25 23 26 15 27 17 28 20 29 18 30 19 31
REMARK H PARENT
REMARK Flexibility Score: inf
ROOT
ATOM      1  C   UNL     1     -13.280 -15.927  27.100  1.00  0.00     0.004 C 
ENDROOT
BRANCH   1   2
ATOM      2  C   UNL     1     -13.167 -14.601  27.917  1.00  0.00    -0.009 C 
BRANCH   2   3
ATOM      3  C   UNL     1     -12.128 -14.775  29.059  1.00  0.00     0.000 C 
ATOM      4  C   UNL     1     -10.669 -14.677  28.600  1.00  0.00     0.004 C 
ENDBRANCH   2   3
BRANCH   2   5
ATOM      5  C   UNL     1     -14.565 -14.099  28.426  1.00  0.00    -0.014 C 
ATOM      6  C   UNL     1     -14.677 -14.121  29.961  1.00  0.00     0.007 C 
ATOM      7  C   UNL     1     -14.868 -12.671  27.945  1.00  0.00     0.007 C 
ENDBRANCH   2   5
ENDBRANCH   1   2
BRANCH   1   8
ATOM      8  C   UNL     1     -11.957 -16.315  26.400  1.00  0.00     0.004 C 
BRANCH   8   9
ATOM      9  C   UNL     1     -11.404 -17.748  26.712  1.00  0.00    -0.011 C 
ATOM     10  C   UNL     1      -9.875 -17.746  26.925  1.00  0.00     0.008 C 
BRANCH   9  11
ATOM     11  C   UNL     1     -12.258 -18.502  27.806  1.00  0.00    -0.002 C 
ATOM     12  C   UNL     1     -13.789 -18.210  27.773  1.00  0.00     0.005 C 
ATOM     13  C   UNL     1     -11.864 -18.314  29.317  1.00  0.00    -0.026 C 
ATOM     14  C   UNL     1     -14.179 -17.591  29.122  1.00  0.00     0.005 C 
ATOM     15  C   UNL     1     -12.849 -17.220  29.744  1.00  0.00    -0.001 C 
ATOM     16  C   UNL     1     -10.428 -17.833  29.660  1.00  0.00     0.007 C 
ATOM     17  C   UNL     1     -12.100 -19.690  30.015  1.00  0.00     0.012 C 
ATOM     18  C   UNL     1     -12.806 -16.762  31.219  1.00  0.00     0.004 C 
ATOM     19  C   UNL     1     -10.294 -17.444  31.159  1.00  0.00     0.005 C 
ATOM     20  C   UNL     1     -11.349 -16.395  31.638  1.00  0.00     0.003 C 
ATOM     21  C   UNL     1     -13.500 -17.642  32.278  1.00  0.00     0.085 C 
ATOM     22  C   UNL     1     -11.222 -15.959  33.176  1.00  0.00    -0.000 C 
ATOM     23  C   UNL     1     -13.632 -16.836  33.531  1.00  0.00     0.159 C 
ATOM     24  C   UNL     1     -12.612 -15.803  33.824  1.00  0.00     0.005 C 
ATOM     25  C   UNL     1     -10.419 -14.616  33.240  1.00  0.00     0.020 C 
ATOM     26  C   UNL     1     -10.480 -17.025  34.031  1.00  0.00     0.017 C 
ATOM     27  O   UNL     1     -14.561 -17.092  34.345  1.00  0.00    -0.295 OA
ATOM     28  C   UNL     1     -12.894 -14.812  34.690  1.00  0.00     0.055 C 
ATOM     29  C   UNL     1     -10.476 -13.946  34.617  1.00  0.00     0.081 C 
ATOM     30  C   UNL     1     -11.908 -13.780  35.037  1.00  0.00     0.156 C 
ATOM     31  O   UNL     1     -12.282 -12.729  35.626  1.00  0.00    -0.295 OA
ENDBRANCH   9  11
ENDBRANCH   8   9
ENDBRANCH   1   8
TORSDOF 6
ENDMDL
