MODEL 1
REMARK VINA RESULT:    -4.261      0.000      0.000
REMARK INTER + INTRA:          -9.381
REMARK INTER:                  -7.749
REMARK INTRA:                  -1.633
REMARK UNBOUND:                -1.633
REMARK SMILES CCCCCC=CCC=CCCCCCCCC(=O)[O-]
REMARK SMILES IDX 11 1 12 2 13 3 14 4 15 5 16 6 17 7 18 8 19 9 20 10 10 11
REMARK SMILES IDX 9 12 8 13 7 14 6 15 5 16 4 17 3 18 2 19 1 20
REMARK H PARENT
REMARK Flexibility Score: inf
ROOT
ATOM      1  C   UNL     1      30.933 169.323 158.921  1.00  0.00     0.027 C 
ENDROOT
BRANCH   1   2
ATOM      2  C   UNL     1      29.498 169.490 159.452  1.00  0.00     0.004 C 
BRANCH   2   3
ATOM      3  C   UNL     1      29.397 170.258 160.784  1.00  0.00     0.000 C 
BRANCH   3   4
ATOM      4  C   UNL     1      29.418 171.784 160.592  1.00  0.00     0.000 C 
BRANCH   4   5
ATOM      5  C   UNL     1      28.062 172.445 160.893  1.00  0.00     0.000 C 
BRANCH   5   6
ATOM      6  C   UNL     1      28.098 173.591 161.923  1.00  0.00     0.006 C 
BRANCH   6   7
ATOM      7  C   UNL     1      27.379 173.272 163.247  1.00  0.00     0.053 C 
BRANCH   7   8
ATOM      8  C   UNL     1      28.338 172.996 164.367  1.00  0.00     0.041 C 
ATOM      9  O   UNL     1      27.975 173.140 165.563  1.00  0.00    -0.550 OA
ATOM     10  O   UNL     1      29.620 172.538 164.090  1.00  0.00    -0.550 OA
ENDBRANCH   7   8
ENDBRANCH   6   7
ENDBRANCH   5   6
ENDBRANCH   4   5
ENDBRANCH   3   4
ENDBRANCH   2   3
ENDBRANCH   1   2
BRANCH   1  11
ATOM     11  C   UNL     1      31.696 168.241 159.647  1.00  0.00    -0.031 C 
ATOM     12  C   UNL     1      32.400 167.267 159.044  1.00  0.00    -0.027 C 
BRANCH  12  13
ATOM     13  C   UNL     1      32.487 167.101 157.546  1.00  0.00     0.054 C 
BRANCH  13  14
ATOM     14  C   UNL     1      33.873 167.420 157.047  1.00  0.00    -0.027 C 
ATOM     15  C   UNL     1      34.174 168.465 156.255  1.00  0.00    -0.031 C 
BRANCH  15  16
ATOM     16  C   UNL     1      33.184 169.513 155.808  1.00  0.00     0.027 C 
BRANCH  16  17
ATOM     17  C   UNL     1      32.747 169.307 154.351  1.00  0.00     0.004 C 
BRANCH  17  18
ATOM     18  C   UNL     1      31.265 169.658 154.137  1.00  0.00     0.000 C 
BRANCH  18  19
ATOM     19  C   UNL     1      30.359 169.094 155.243  1.00  0.00    -0.003 C 
ATOM     20  C   UNL     1      29.024 169.832 155.350  1.00  0.00     0.004 C 
ENDBRANCH  18  19
ENDBRANCH  17  18
ENDBRANCH  16  17
ENDBRANCH  15  16
ENDBRANCH  13  14
ENDBRANCH  12  13
ENDBRANCH   1  11
TORSDOF 14
ENDMDL
MODEL 2
REMARK VINA RESULT:    -4.222      1.506      3.930
REMARK INTER + INTRA:          -9.311
REMARK INTER:                  -6.920
REMARK INTRA:                  -2.391
REMARK UNBOUND:                -1.633
REMARK SMILES CCCCCC=CCC=CCCCCCCCC(=O)[O-]
REMARK SMILES IDX 11 1 12 2 13 3 14 4 15 5 16 6 17 7 18 8 19 9 20 10 10 11
REMARK SMILES IDX 9 12 8 13 7 14 6 15 5 16 4 17 3 18 2 19 1 20
REMARK H PARENT
REMARK Flexibility Score: inf
ROOT
ATOM      1  C   UNL     1      29.939 168.109 154.986  1.00  0.00     0.027 C 
ENDROOT
BRANCH   1   2
ATOM      2  C   UNL     1      29.089 167.871 156.247  1.00  0.00     0.004 C 
BRANCH   2   3
ATOM      3  C   UNL     1      28.502 169.152 156.870  1.00  0.00     0.000 C 
BRANCH   3   4
ATOM      4  C   UNL     1      27.940 168.920 158.283  1.00  0.00     0.000 C 
BRANCH   4   5
ATOM      5  C   UNL     1      27.557 170.228 158.998  1.00  0.00     0.000 C 
BRANCH   5   6
ATOM      6  C   UNL     1      28.149 170.410 160.409  1.00  0.00     0.006 C 
BRANCH   6   7
ATOM      7  C   UNL     1      29.049 171.650 160.559  1.00  0.00     0.053 C 
BRANCH   7   8
ATOM      8  C   UNL     1      28.414 172.718 161.399  1.00  0.00     0.041 C 
ATOM      9  O   UNL     1      28.805 172.913 162.580  1.00  0.00    -0.550 OA
ATOM     10  O   UNL     1      27.420 173.528 160.864  1.00  0.00    -0.550 OA
ENDBRANCH   7   8
ENDBRANCH   6   7
ENDBRANCH   5   6
ENDBRANCH   4   5
ENDBRANCH   3   4
ENDBRANCH   2   3
ENDBRANCH   1   2
BRANCH   1  11
ATOM     11  C   UNL     1      30.367 169.549 154.839  1.00  0.00    -0.031 C 
ATOM     12  C   UNL     1      31.582 169.945 154.421  1.00  0.00    -0.027 C 
BRANCH  12  13
ATOM     13  C   UNL     1      32.702 168.994 154.079  1.00  0.00     0.054 C 
BRANCH  13  14
ATOM     14  C   UNL     1      33.881 169.193 154.999  1.00  0.00    -0.027 C 
ATOM     15  C   UNL     1      34.142 168.430 156.075  1.00  0.00    -0.031 C 
BRANCH  15  16
ATOM     16  C   UNL     1      33.338 167.219 156.481  1.00  0.00     0.027 C 
BRANCH  16  17
ATOM     17  C   UNL     1      32.784 167.349 157.908  1.00  0.00     0.004 C 
BRANCH  17  18
ATOM     18  C   UNL     1      32.037 168.677 158.119  1.00  0.00     0.000 C 
BRANCH  18  19
ATOM     19  C   UNL     1      31.318 168.739 159.476  1.00  0.00    -0.003 C 
ATOM     20  C   UNL     1      31.852 167.716 160.478  1.00  0.00     0.004 C 
ENDBRANCH  18  19
ENDBRANCH  17  18
ENDBRANCH  16  17
ENDBRANCH  15  16
ENDBRANCH  13  14
ENDBRANCH  12  13
ENDBRANCH   1  11
TORSDOF 14
ENDMDL
MODEL 3
REMARK VINA RESULT:    -4.201      1.947      3.202
REMARK INTER + INTRA:          -9.271
REMARK INTER:                  -7.342
REMARK INTRA:                  -1.929
REMARK UNBOUND:                -1.633
REMARK SMILES CCCCCC=CCC=CCCCCCCCC(=O)[O-]
REMARK SMILES IDX 11 1 12 2 13 3 14 4 15 5 16 6 17 7 18 8 19 9 20 10 10 11
REMARK SMILES IDX 9 12 8 13 7 14 6 15 5 16 4 17 3 18 2 19 1 20
REMARK H PARENT
REMARK Flexibility Score: inf
ROOT
ATOM      1  C   UNL     1      29.938 169.119 157.789  1.00  0.00     0.027 C 
ENDROOT
BRANCH   1   2
ATOM      2  C   UNL     1      30.653 169.305 159.140  1.00  0.00     0.004 C 
BRANCH   2   3
ATOM      3  C   UNL     1      29.708 169.543 160.333  1.00  0.00     0.000 C 
BRANCH   3   4
ATOM      4  C   UNL     1      28.907 170.849 160.205  1.00  0.00     0.000 C 
BRANCH   4   5
ATOM      5  C   UNL     1      29.517 172.009 161.012  1.00  0.00     0.000 C 
BRANCH   5   6
ATOM      6  C   UNL     1      28.697 172.470 162.233  1.00  0.00     0.006 C 
BRANCH   6   7
ATOM      7  C   UNL     1      27.965 173.809 162.031  1.00  0.00     0.053 C 
BRANCH   7   8
ATOM      8  C   UNL     1      26.591 173.629 161.456  1.00  0.00     0.041 C 
ATOM      9  O   UNL     1      25.599 173.486 162.217  1.00  0.00    -0.550 OA
ATOM     10  O   UNL     1      26.401 173.662 160.080  1.00  0.00    -0.550 OA
ENDBRANCH   7   8
ENDBRANCH   6   7
ENDBRANCH   5   6
ENDBRANCH   4   5
ENDBRANCH   3   4
ENDBRANCH   2   3
ENDBRANCH   1   2
BRANCH   1  11
ATOM     11  C   UNL     1      29.620 167.672 157.498  1.00  0.00    -0.031 C 
ATOM     12  C   UNL     1      29.476 167.155 156.264  1.00  0.00    -0.027 C 
BRANCH  12  13
ATOM     13  C   UNL     1      29.574 167.970 154.998  1.00  0.00     0.054 C 
BRANCH  13  14
ATOM     14  C   UNL     1      30.721 167.501 154.140  1.00  0.00    -0.027 C 
ATOM     15  C   UNL     1      31.823 168.227 153.881  1.00  0.00    -0.031 C 
BRANCH  15  16
ATOM     16  C   UNL     1      32.108 169.589 154.467  1.00  0.00     0.027 C 
BRANCH  16  17
ATOM     17  C   UNL     1      32.916 169.497 155.769  1.00  0.00     0.004 C 
BRANCH  17  18
ATOM     18  C   UNL     1      34.265 168.787 155.563  1.00  0.00     0.000 C 
BRANCH  18  19
ATOM     19  C   UNL     1      34.475 167.623 156.543  1.00  0.00    -0.003 C 
ATOM     20  C   UNL     1      33.200 167.246 157.298  1.00  0.00     0.004 C 
ENDBRANCH  18  19
ENDBRANCH  17  18
ENDBRANCH  16  17
ENDBRANCH  15  16
ENDBRANCH  13  14
ENDBRANCH  12  13
ENDBRANCH   1  11
TORSDOF 14
ENDMDL
MODEL 4
REMARK VINA RESULT:    -4.158      3.654      7.420
REMARK INTER + INTRA:          -9.193
REMARK INTER:                  -7.121
REMARK INTRA:                  -2.072
REMARK UNBOUND:                -1.633
REMARK SMILES CCCCCC=CCC=CCCCCCCCC(=O)[O-]
REMARK SMILES IDX 11 1 12 2 13 3 14 4 15 5 16 6 17 7 18 8 19 9 20 10 10 11
REMARK SMILES IDX 9 12 8 13 7 14 6 15 5 16 4 17 3 18 2 19 1 20
REMARK H PARENT
REMARK Flexibility Score: inf
ROOT
ATOM      1  C   UNL     1      29.363 169.099 158.200  1.00  0.00     0.027 C 
ENDROOT
BRANCH   1   2
ATOM      2  C   UNL     1      28.798 169.209 156.772  1.00  0.00     0.004 C 
BRANCH   2   3
ATOM      3  C   UNL     1      29.832 168.964 155.657  1.00  0.00     0.000 C 
BRANCH   3   4
ATOM      4  C   UNL     1      29.919 170.134 154.662  1.00  0.00     0.000 C 
BRANCH   4   5
ATOM      5  C   UNL     1      31.318 170.287 154.039  1.00  0.00     0.000 C 
BRANCH   5   6
ATOM      6  C   UNL     1      32.204 169.027 154.081  1.00  0.00     0.006 C 
BRANCH   6   7
ATOM      7  C   UNL     1      33.515 169.204 154.868  1.00  0.00     0.053 C 
BRANCH   7   8
ATOM      8  C   UNL     1      33.653 168.207 155.981  1.00  0.00     0.041 C 
ATOM      9  O   UNL     1      34.494 168.393 156.898  1.00  0.00    -0.550 OA
ATOM     10  O   UNL     1      32.824 167.094 156.026  1.00  0.00    -0.550 OA
ENDBRANCH   7   8
ENDBRANCH   6   7
ENDBRANCH   5   6
ENDBRANCH   4   5
ENDBRANCH   3   4
ENDBRANCH   2   3
ENDBRANCH   1   2
BRANCH   1  11
ATOM     11  C   UNL     1      30.871 169.145 158.230  1.00  0.00    -0.031 C 
ATOM     12  C   UNL     1      31.638 168.473 159.108  1.00  0.00    -0.027 C 
BRANCH  12  13
ATOM     13  C   UNL     1      31.085 167.609 160.214  1.00  0.00     0.054 C 
BRANCH  13  14
ATOM     14  C   UNL     1      31.923 167.726 161.462  1.00  0.00    -0.027 C 
ATOM     15  C   UNL     1      31.469 168.188 162.641  1.00  0.00    -0.031 C 
BRANCH  15  16
ATOM     16  C   UNL     1      30.039 168.589 162.909  1.00  0.00     0.027 C 
BRANCH  16  17
ATOM     17  C   UNL     1      29.830 170.104 162.766  1.00  0.00     0.004 C 
BRANCH  17  18
ATOM     18  C   UNL     1      28.946 170.453 161.557  1.00  0.00     0.000 C 
BRANCH  18  19
ATOM     19  C   UNL     1      29.399 171.739 160.847  1.00  0.00    -0.003 C 
ATOM     20  C   UNL     1      28.498 172.935 161.156  1.00  0.00     0.004 C 
ENDBRANCH  18  19
ENDBRANCH  17  18
ENDBRANCH  16  17
ENDBRANCH  15  16
ENDBRANCH  13  14
ENDBRANCH  12  13
ENDBRANCH   1  11
TORSDOF 14
ENDMDL
MODEL 5
REMARK VINA RESULT:    -4.116      1.197      2.239
REMARK INTER + INTRA:          -9.117
REMARK INTER:                  -7.115
REMARK INTRA:                  -2.002
REMARK UNBOUND:                -1.633
REMARK SMILES CCCCCC=CCC=CCCCCCCCC(=O)[O-]
REMARK SMILES IDX 11 1 12 2 13 3 14 4 15 5 16 6 17 7 18 8 19 9 20 10 10 11
REMARK SMILES IDX 9 12 8 13 7 14 6 15 5 16 4 17 3 18 2 19 1 20
REMARK H PARENT
REMARK Flexibility Score: inf
ROOT
ATOM      1  C   UNL     1      31.988 168.561 158.820  1.00  0.00     0.027 C 
ENDROOT
BRANCH   1   2
ATOM      2  C   UNL     1      31.253 167.962 160.033  1.00  0.00     0.004 C 
BRANCH   2   3
ATOM      3  C   UNL     1      30.196 168.890 160.660  1.00  0.00     0.000 C 
BRANCH   3   4
ATOM      4  C   UNL     1      29.618 169.897 159.651  1.00  0.00     0.000 C 
BRANCH   4   5
ATOM      5  C   UNL     1      28.697 170.941 160.306  1.00  0.00     0.000 C 
BRANCH   5   6
ATOM      6  C   UNL     1      29.411 172.156 160.931  1.00  0.00     0.006 C 
BRANCH   6   7
ATOM      7  C   UNL     1      28.457 173.229 161.489  1.00  0.00     0.053 C 
BRANCH   7   8
ATOM      8  C   UNL     1      28.288 173.126 162.976  1.00  0.00     0.041 C 
ATOM      9  O   UNL     1      27.208 173.479 163.517  1.00  0.00    -0.550 OA
ATOM     10  O   UNL     1      29.308 172.601 163.759  1.00  0.00    -0.550 OA
ENDBRANCH   7   8
ENDBRANCH   6   7
ENDBRANCH   5   6
ENDBRANCH   4   5
ENDBRANCH   3   4
ENDBRANCH   2   3
ENDBRANCH   1   2
BRANCH   1  11
ATOM     11  C   UNL     1      32.654 167.508 157.969  1.00  0.00    -0.031 C 
ATOM     12  C   UNL     1      33.313 167.757 156.822  1.00  0.00    -0.027 C 
BRANCH  12  13
ATOM     13  C   UNL     1      33.439 169.130 156.210  1.00  0.00     0.054 C 
BRANCH  13  14
ATOM     14  C   UNL     1      33.500 169.048 154.706  1.00  0.00    -0.027 C 
ATOM     15  C   UNL     1      32.548 169.519 153.880  1.00  0.00    -0.031 C 
BRANCH  15  16
ATOM     16  C   UNL     1      31.315 170.262 154.331  1.00  0.00     0.027 C 
BRANCH  16  17
ATOM     17  C   UNL     1      30.123 169.319 154.549  1.00  0.00     0.004 C 
BRANCH  17  18
ATOM     18  C   UNL     1      29.699 169.254 156.026  1.00  0.00     0.000 C 
BRANCH  18  19
ATOM     19  C   UNL     1      29.257 167.845 156.452  1.00  0.00    -0.003 C 
ATOM     20  C   UNL     1      27.856 167.823 157.064  1.00  0.00     0.004 C 
ENDBRANCH  18  19
ENDBRANCH  17  18
ENDBRANCH  16  17
ENDBRANCH  15  16
ENDBRANCH  13  14
ENDBRANCH  12  13
ENDBRANCH   1  11
TORSDOF 14
ENDMDL
MODEL 6
REMARK VINA RESULT:    -4.115      1.333      3.055
REMARK INTER + INTRA:          -9.116
REMARK INTER:                  -6.837
REMARK INTRA:                  -2.279
REMARK UNBOUND:                -1.633
REMARK SMILES CCCCCC=CCC=CCCCCCCCC(=O)[O-]
REMARK SMILES IDX 11 1 12 2 13 3 14 4 15 5 16 6 17 7 18 8 19 9 20 10 10 11
REMARK SMILES IDX 9 12 8 13 7 14 6 15 5 16 4 17 3 18 2 19 1 20
REMARK H PARENT
REMARK Flexibility Score: inf
ROOT
ATOM      1  C   UNL     1      31.430 167.009 159.722  1.00  0.00     0.027 C 
ENDROOT
BRANCH   1   2
ATOM      2  C   UNL     1      30.783 167.055 161.118  1.00  0.00     0.004 C 
BRANCH   2   3
ATOM      3  C   UNL     1      30.512 168.476 161.648  1.00  0.00     0.000 C 
BRANCH   3   4
ATOM      4  C   UNL     1      29.011 168.793 161.754  1.00  0.00     0.000 C 
BRANCH   4   5
ATOM      5  C   UNL     1      28.532 169.794 160.688  1.00  0.00     0.000 C 
BRANCH   5   6
ATOM      6  C   UNL     1      29.380 171.074 160.553  1.00  0.00     0.006 C 
BRANCH   6   7
ATOM      7  C   UNL     1      28.627 172.369 160.911  1.00  0.00     0.053 C 
BRANCH   7   8
ATOM      8  C   UNL     1      28.759 172.724 162.363  1.00  0.00     0.041 C 
ATOM      9  O   UNL     1      28.081 173.667 162.849  1.00  0.00    -0.550 OA
ATOM     10  O   UNL     1      29.598 171.986 163.188  1.00  0.00    -0.550 OA
ENDBRANCH   7   8
ENDBRANCH   6   7
ENDBRANCH   5   6
ENDBRANCH   4   5
ENDBRANCH   3   4
ENDBRANCH   2   3
ENDBRANCH   1   2
BRANCH   1  11
ATOM     11  C   UNL     1      31.736 168.384 159.180  1.00  0.00    -0.031 C 
ATOM     12  C   UNL     1      31.112 168.947 158.130  1.00  0.00    -0.027 C 
BRANCH  12  13
ATOM     13  C   UNL     1      30.041 168.256 157.323  1.00  0.00     0.054 C 
BRANCH  13  14
ATOM     14  C   UNL     1      29.601 169.112 156.163  1.00  0.00    -0.027 C 
ATOM     15  C   UNL     1      30.082 169.002 154.911  1.00  0.00    -0.031 C 
BRANCH  15  16
ATOM     16  C   UNL     1      31.080 167.960 154.467  1.00  0.00     0.027 C 
BRANCH  16  17
ATOM     17  C   UNL     1      32.397 168.590 153.993  1.00  0.00     0.004 C 
BRANCH  17  18
ATOM     18  C   UNL     1      33.082 169.403 155.105  1.00  0.00     0.000 C 
BRANCH  18  19
ATOM     19  C   UNL     1      34.381 168.750 155.599  1.00  0.00    -0.003 C 
ATOM     20  C   UNL     1      34.131 167.531 156.489  1.00  0.00     0.004 C 
ENDBRANCH  18  19
ENDBRANCH  17  18
ENDBRANCH  16  17
ENDBRANCH  15  16
ENDBRANCH  13  14
ENDBRANCH  12  13
ENDBRANCH   1  11
TORSDOF 14
ENDMDL
MODEL 7
REMARK VINA RESULT:    -4.107      3.431      8.045
REMARK INTER + INTRA:          -9.102
REMARK INTER:                  -7.329
REMARK INTRA:                  -1.773
REMARK UNBOUND:                -1.633
REMARK SMILES CCCCCC=CCC=CCCCCCCCC(=O)[O-]
REMARK SMILES IDX 11 1 12 2 13 3 14 4 15 5 16 6 17 7 18 8 19 9 20 10 10 11
REMARK SMILES IDX 9 12 8 13 7 14 6 15 5 16 4 17 3 18 2 19 1 20
REMARK H PARENT
REMARK Flexibility Score: inf
ROOT
ATOM      1  C   UNL     1      31.481 169.112 158.350  1.00  0.00     0.027 C 
ENDROOT
BRANCH   1   2
ATOM      2  C   UNL     1      32.200 167.756 158.237  1.00  0.00     0.004 C 
BRANCH   2   3
ATOM      3  C   UNL     1      32.963 167.547 156.915  1.00  0.00     0.000 C 
BRANCH   3   4
ATOM      4  C   UNL     1      33.897 168.721 156.578  1.00  0.00     0.000 C 
BRANCH   4   5
ATOM      5  C   UNL     1      34.022 168.972 155.065  1.00  0.00     0.000 C 
BRANCH   5   6
ATOM      6  C   UNL     1      32.701 168.917 154.272  1.00  0.00     0.006 C 
BRANCH   6   7
ATOM      7  C   UNL     1      31.749 170.094 154.553  1.00  0.00     0.053 C 
BRANCH   7   8
ATOM      8  C   UNL     1      30.328 169.649 154.738  1.00  0.00     0.041 C 
ATOM      9  O   UNL     1      30.070 168.446 155.006  1.00  0.00    -0.550 OA
ATOM     10  O   UNL     1      29.292 170.571 154.657  1.00  0.00    -0.550 OA
ENDBRANCH   7   8
ENDBRANCH   6   7
ENDBRANCH   5   6
ENDBRANCH   4   5
ENDBRANCH   3   4
ENDBRANCH   2   3
ENDBRANCH   1   2
BRANCH   1  11
ATOM     11  C   UNL     1      29.980 168.967 158.418  1.00  0.00    -0.031 C 
ATOM     12  C   UNL     1      29.195 169.568 159.330  1.00  0.00    -0.027 C 
BRANCH  12  13
ATOM     13  C   UNL     1      29.721 170.442 160.442  1.00  0.00     0.054 C 
BRANCH  13  14
ATOM     14  C   UNL     1      29.662 169.725 161.767  1.00  0.00    -0.027 C 
ATOM     15  C   UNL     1      29.713 170.336 162.965  1.00  0.00    -0.031 C 
BRANCH  15  16
ATOM     16  C   UNL     1      29.764 171.832 163.160  1.00  0.00     0.027 C 
BRANCH  16  17
ATOM     17  C   UNL     1      28.607 172.338 164.035  1.00  0.00     0.004 C 
BRANCH  17  18
ATOM     18  C   UNL     1      27.698 173.322 163.278  1.00  0.00     0.000 C 
BRANCH  18  19
ATOM     19  C   UNL     1      28.173 173.577 161.840  1.00  0.00    -0.003 C 
ATOM     20  C   UNL     1      27.167 173.103 160.790  1.00  0.00     0.004 C 
ENDBRANCH  18  19
ENDBRANCH  17  18
ENDBRANCH  16  17
ENDBRANCH  15  16
ENDBRANCH  13  14
ENDBRANCH  12  13
ENDBRANCH   1  11
TORSDOF 14
ENDMDL
MODEL 8
REMARK VINA RESULT:    -4.072      1.759      2.064
REMARK INTER + INTRA:          -9.038
REMARK INTER:                  -7.368
REMARK INTRA:                  -1.670
REMARK UNBOUND:                -1.633
REMARK SMILES CCCCCC=CCC=CCCCCCCCC(=O)[O-]
REMARK SMILES IDX 11 1 12 2 13 3 14 4 15 5 16 6 17 7 18 8 19 9 20 10 10 11
REMARK SMILES IDX 9 12 8 13 7 14 6 15 5 16 4 17 3 18 2 19 1 20
REMARK H PARENT
REMARK Flexibility Score: inf
ROOT
ATOM      1  C   UNL     1      30.429 169.020 158.057  1.00  0.00     0.027 C 
ENDROOT
BRANCH   1   2
ATOM      2  C   UNL     1      29.120 169.480 158.723  1.00  0.00     0.004 C 
BRANCH   2   3
ATOM      3  C   UNL     1      29.259 169.854 160.211  1.00  0.00     0.000 C 
BRANCH   3   4
ATOM      4  C   UNL     1      29.391 171.371 160.430  1.00  0.00     0.000 C 
BRANCH   4   5
ATOM      5  C   UNL     1      28.867 171.826 161.803  1.00  0.00     0.000 C 
BRANCH   5   6
ATOM      6  C   UNL     1      28.357 173.279 161.869  1.00  0.00     0.006 C 
BRANCH   6   7
ATOM      7  C   UNL     1      27.097 173.544 161.024  1.00  0.00     0.053 C 
BRANCH   7   8
ATOM      8  C   UNL     1      25.842 173.524 161.846  1.00  0.00     0.041 C 
ATOM      9  O   UNL     1      25.396 172.437 162.297  1.00  0.00    -0.550 OA
ATOM     10  O   UNL     1      25.190 174.712 162.151  1.00  0.00    -0.550 OA
ENDBRANCH   7   8
ENDBRANCH   6   7
ENDBRANCH   5   6
ENDBRANCH   4   5
ENDBRANCH   3   4
ENDBRANCH   2   3
ENDBRANCH   1   2
BRANCH   1  11
ATOM     11  C   UNL     1      31.370 168.351 159.030  1.00  0.00    -0.031 C 
ATOM     12  C   UNL     1      32.447 167.628 158.676  1.00  0.00    -0.027 C 
BRANCH  12  13
ATOM     13  C   UNL     1      32.838 167.352 157.245  1.00  0.00     0.054 C 
BRANCH  13  14
ATOM     14  C   UNL     1      34.056 168.150 156.854  1.00  0.00    -0.027 C 
ATOM     15  C   UNL     1      34.204 168.781 155.675  1.00  0.00    -0.031 C 
BRANCH  15  16
ATOM     16  C   UNL     1      33.146 168.845 154.600  1.00  0.00     0.027 C 
BRANCH  16  17
ATOM     17  C   UNL     1      32.074 169.899 154.909  1.00  0.00     0.004 C 
BRANCH  17  18
ATOM     18  C   UNL     1      30.692 169.496 154.366  1.00  0.00     0.000 C 
BRANCH  18  19
ATOM     19  C   UNL     1      30.645 168.031 153.905  1.00  0.00    -0.003 C 
ATOM     20  C   UNL     1      29.911 167.123 154.892  1.00  0.00     0.004 C 
ENDBRANCH  18  19
ENDBRANCH  17  18
ENDBRANCH  16  17
ENDBRANCH  15  16
ENDBRANCH  13  14
ENDBRANCH  12  13
ENDBRANCH   1  11
TORSDOF 14
ENDMDL
MODEL 9
REMARK VINA RESULT:    -4.064      1.240      2.461
REMARK INTER + INTRA:          -9.022
REMARK INTER:                  -7.390
REMARK INTRA:                  -1.632
REMARK UNBOUND:                -1.633
REMARK SMILES CCCCCC=CCC=CCCCCCCCC(=O)[O-]
REMARK SMILES IDX 11 1 12 2 13 3 14 4 15 5 16 6 17 7 18 8 19 9 20 10 10 11
REMARK SMILES IDX 9 12 8 13 7 14 6 15 5 16 4 17 3 18 2 19 1 20
REMARK H PARENT
REMARK Flexibility Score: inf
ROOT
ATOM      1  C   UNL     1      29.201 170.327 160.695  1.00  0.00     0.027 C 
ENDROOT
BRANCH   1   2
ATOM      2  C   UNL     1      29.398 171.854 160.717  1.00  0.00     0.004 C 
BRANCH   2   3
ATOM      3  C   UNL     1      28.105 172.660 160.943  1.00  0.00     0.000 C 
BRANCH   3   4
ATOM      4  C   UNL     1      28.217 173.641 162.122  1.00  0.00     0.000 C 
BRANCH   4   5
ATOM      5  C   UNL     1      27.231 173.325 163.261  1.00  0.00     0.000 C 
BRANCH   5   6
ATOM      6  C   UNL     1      27.872 172.840 164.577  1.00  0.00     0.006 C 
BRANCH   6   7
ATOM      7  C   UNL     1      29.281 172.242 164.408  1.00  0.00     0.053 C 
BRANCH   7   8
ATOM      8  C   UNL     1      29.273 170.742 164.447  1.00  0.00     0.041 C 
ATOM      9  O   UNL     1      28.253 170.103 164.078  1.00  0.00    -0.550 OA
ATOM     10  O   UNL     1      30.408 170.049 164.849  1.00  0.00    -0.550 OA
ENDBRANCH   7   8
ENDBRANCH   6   7
ENDBRANCH   5   6
ENDBRANCH   4   5
ENDBRANCH   3   4
ENDBRANCH   2   3
ENDBRANCH   1   2
BRANCH   1  11
ATOM     11  C   UNL     1      28.871 169.807 159.317  1.00  0.00    -0.031 C 
ATOM     12  C   UNL     1      29.760 169.241 158.481  1.00  0.00    -0.027 C 
BRANCH  12  13
ATOM     13  C   UNL     1      31.227 169.089 158.797  1.00  0.00     0.054 C 
BRANCH  13  14
ATOM     14  C   UNL     1      31.803 167.870 158.120  1.00  0.00    -0.027 C 
ATOM     15  C   UNL     1      32.699 167.910 157.117  1.00  0.00    -0.031 C 
BRANCH  15  16
ATOM     16  C   UNL     1      33.314 169.175 156.570  1.00  0.00     0.027 C 
BRANCH  16  17
ATOM     17  C   UNL     1      33.652 169.051 155.077  1.00  0.00     0.004 C 
BRANCH  17  18
ATOM     18  C   UNL     1      32.391 168.890 154.211  1.00  0.00     0.000 C 
BRANCH  18  19
ATOM     19  C   UNL     1      31.488 170.132 154.247  1.00  0.00    -0.003 C 
ATOM     20  C   UNL     1      30.080 169.826 154.758  1.00  0.00     0.004 C 
ENDBRANCH  18  19
ENDBRANCH  17  18
ENDBRANCH  16  17
ENDBRANCH  15  16
ENDBRANCH  13  14
ENDBRANCH  12  13
ENDBRANCH   1  11
TORSDOF 14
ENDMDL
