MODEL 1
REMARK VINA RESULT:    -8.224      0.000      0.000
REMARK INTER + INTRA:         -13.331
REMARK INTER:                 -12.791
REMARK INTRA:                  -0.540
REMARK UNBOUND:                -0.540
REMARK SMILES C[C@]12C[C@]3(O)O[C@H](O1)[C@@]1(COC(=O)c4ccccc4)[C@@H]3C[C@]12O[C@H]1O[C@H](CO)[C@@H](O)[C@@H](O)[C@@H]1O
REMARK SMILES IDX 1 1 2 2 3 3 4 4 20 5 21 6 22 7 9 8 7 9 8 10 6 11 23 12 24 13
REMARK SMILES IDX 33 14 25 15 31 16 26 17 29 18 34 19 32 21 27 23 28 24 30 26
REMARK SMILES IDX 5 28 10 30 11 31 12 32 13 33 14 34 15 35 19 36 16 37 18 38
REMARK SMILES IDX 17 39
REMARK H PARENT 34 20 32 22 28 25 30 27 5 29
REMARK Flexibility Score: inf
ROOT
ATOM      1  C   UNL     1     -14.217   0.427  -4.225  1.00  0.00     0.046 C 
ATOM      2  C   UNL     1     -13.206   1.103  -5.150  1.00  0.00     0.104 C 
ATOM      3  C   UNL     1     -13.025   2.621  -4.786  1.00  0.00     0.104 C 
ATOM      4  C   UNL     1     -11.938   3.120  -5.807  1.00  0.00     0.175 C 
ATOM      5  C   UNL     1     -10.715   2.149  -5.839  1.00  0.00     0.070 C 
ATOM      6  C   UNL     1     -10.642   1.263  -4.592  1.00  0.00     0.050 C 
ATOM      7  C   UNL     1     -11.774   0.428  -5.224  1.00  0.00     0.115 C 
ATOM      8  C   UNL     1     -11.360   0.987  -6.594  1.00  0.00     0.096 C 
ATOM      9  C   UNL     1     -12.603   1.576  -7.246  1.00  0.00     0.267 C 
ATOM     10  O   UNL     1     -13.690   1.086  -6.482  1.00  0.00    -0.342 OA
ATOM     11  O   UNL     1     -12.515   2.983  -7.086  1.00  0.00    -0.320 OA
ENDROOT
BRANCH   7  12
ATOM     12  O   UNL     1     -11.680  -0.986  -5.107  1.00  0.00    -0.339 OA
BRANCH  12  13
ATOM     13  C   UNL     1     -10.790  -1.385  -4.064  1.00  0.00     0.282 C 
ATOM     14  C   UNL     1      -9.891  -2.573  -4.488  1.00  0.00     0.202 C 
ATOM     15  O   UNL     1     -11.514  -1.693  -2.883  1.00  0.00    -0.341 OA
ATOM     16  C   UNL     1     -10.663  -3.912  -4.554  1.00  0.00     0.179 C 
ATOM     17  C   UNL     1     -12.414  -2.770  -3.083  1.00  0.00     0.178 C 
ATOM     18  C   UNL     1     -11.626  -4.075  -3.358  1.00  0.00     0.177 C 
BRANCH  14  19
ATOM     19  O   UNL     1      -8.840  -2.688  -3.559  1.00  0.00    -0.385 OA
ATOM     20  H   UNL     1      -7.994  -2.713  -4.079  1.00  0.00     0.211 HD
ENDBRANCH  14  19
BRANCH  16  21
ATOM     21  O   UNL     1     -11.318  -4.057  -5.786  1.00  0.00    -0.387 OA
ATOM     22  H   UNL     1     -10.628  -4.080  -6.491  1.00  0.00     0.211 HD
ENDBRANCH  16  21
BRANCH  17  23
ATOM     23  C   UNL     1     -13.284  -2.923  -1.826  1.00  0.00     0.191 C 
BRANCH  23  24
ATOM     24  O   UNL     1     -14.030  -1.759  -1.599  1.00  0.00    -0.394 OA
ATOM     25  H   UNL     1     -14.956  -1.946  -1.910  1.00  0.00     0.210 HD
ENDBRANCH  23  24
ENDBRANCH  17  23
BRANCH  18  26
ATOM     26  O   UNL     1     -12.480  -5.174  -3.553  1.00  0.00    -0.387 OA
ATOM     27  H   UNL     1     -12.434  -5.741  -2.742  1.00  0.00     0.211 HD
ENDBRANCH  18  26
ENDBRANCH  12  13
ENDBRANCH   7  12
BRANCH   4  28
ATOM     28  O   UNL     1     -11.539   4.440  -5.561  1.00  0.00    -0.365 OA
ATOM     29  H   UNL     1     -11.176   4.793  -6.417  1.00  0.00     0.214 HD
ENDBRANCH   4  28
BRANCH   8  30
ATOM     30  C   UNL     1     -10.392   0.191  -7.514  1.00  0.00     0.249 C 
BRANCH  30  31
ATOM     31  O   UNL     1      -9.011   0.474  -7.285  1.00  0.00    -0.461 OA
BRANCH  31  32
ATOM     32  C   UNL     1      -8.000  -0.477  -7.082  1.00  0.00     0.338 C 
ATOM     33  O   UNL     1      -7.748  -1.351  -7.953  1.00  0.00    -0.246 OA
BRANCH  32  34
ATOM     34  C   UNL     1      -7.223  -0.454  -5.827  1.00  0.00     0.060 A 
ATOM     35  C   UNL     1      -7.587   0.416  -4.784  1.00  0.00     0.015 A 
ATOM     36  C   UNL     1      -6.104  -1.289  -5.661  1.00  0.00     0.015 A 
ATOM     37  C   UNL     1      -6.849   0.443  -3.596  1.00  0.00     0.001 A 
ATOM     38  C   UNL     1      -5.377  -1.269  -4.467  1.00  0.00     0.001 A 
ATOM     39  C   UNL     1      -5.749  -0.403  -3.436  1.00  0.00     0.000 A 
ENDBRANCH  32  34
ENDBRANCH  31  32
ENDBRANCH  30  31
ENDBRANCH   8  30
TORSDOF 12
ENDMDL
MODEL 2
REMARK VINA RESULT:    -8.163      2.208      5.654
REMARK INTER + INTRA:         -13.237
REMARK INTER:                 -13.093
REMARK INTRA:                  -0.144
REMARK UNBOUND:                -0.540
REMARK SMILES C[C@]12C[C@]3(O)O[C@H](O1)[C@@]1(COC(=O)c4ccccc4)[C@@H]3C[C@]12O[C@H]1O[C@H](CO)[C@@H](O)[C@@H](O)[C@@H]1O
REMARK SMILES IDX 1 1 2 2 3 3 4 4 20 5 21 6 22 7 9 8 7 9 8 10 6 11 23 12 24 13
REMARK SMILES IDX 33 14 25 15 31 16 26 17 29 18 34 19 32 21 27 23 28 24 30 26
REMARK SMILES IDX 5 28 10 30 11 31 12 32 13 33 14 34 15 35 19 36 16 37 18 38
REMARK SMILES IDX 17 39
REMARK H PARENT 34 20 32 22 28 25 30 27 5 29
REMARK Flexibility Score: inf
ROOT
ATOM      1  C   UNL     1     -10.505   2.101  -5.340  1.00  0.00     0.046 C 
ATOM      2  C   UNL     1     -11.373   0.855  -5.504  1.00  0.00     0.104 C 
ATOM      3  C   UNL     1     -12.227   0.923  -6.822  1.00  0.00     0.104 C 
ATOM      4  C   UNL     1     -13.009  -0.441  -6.828  1.00  0.00     0.175 C 
ATOM      5  C   UNL     1     -12.044  -1.638  -6.557  1.00  0.00     0.070 C 
ATOM      6  C   UNL     1     -10.579  -1.278  -6.821  1.00  0.00     0.050 C 
ATOM      7  C   UNL     1     -10.608  -0.533  -5.471  1.00  0.00     0.115 C 
ATOM      8  C   UNL     1     -11.803  -1.410  -5.065  1.00  0.00     0.096 C 
ATOM      9  C   UNL     1     -12.924  -0.482  -4.618  1.00  0.00     0.267 C 
ATOM     10  O   UNL     1     -12.312   0.783  -4.445  1.00  0.00    -0.342 OA
ATOM     11  O   UNL     1     -13.845  -0.414  -5.694  1.00  0.00    -0.320 OA
ENDROOT
BRANCH   7  12
ATOM     12  O   UNL     1      -9.466  -0.662  -4.634  1.00  0.00    -0.339 OA
BRANCH  12  13
ATOM     13  C   UNL     1      -8.414   0.227  -5.013  1.00  0.00     0.282 C 
ATOM     14  C   UNL     1      -7.203  -0.528  -5.615  1.00  0.00     0.202 C 
ATOM     15  O   UNL     1      -8.016   1.026  -3.911  1.00  0.00    -0.341 OA
ATOM     16  C   UNL     1      -6.384  -1.291  -4.547  1.00  0.00     0.179 C 
ATOM     17  C   UNL     1      -7.518   0.239  -2.842  1.00  0.00     0.178 C 
ATOM     18  C   UNL     1      -6.198  -0.452  -3.265  1.00  0.00     0.177 C 
BRANCH  14  19
ATOM     19  O   UNL     1      -6.371   0.407  -6.257  1.00  0.00    -0.385 OA
ATOM     20  H   UNL     1      -6.508   0.296  -7.234  1.00  0.00     0.211 HD
ENDBRANCH  14  19
BRANCH  16  21
ATOM     21  O   UNL     1      -6.948  -2.548  -4.281  1.00  0.00    -0.387 OA
ATOM     22  H   UNL     1      -7.786  -2.616  -4.797  1.00  0.00     0.211 HD
ENDBRANCH  16  21
BRANCH  17  23
ATOM     23  C   UNL     1      -7.282   1.151  -1.629  1.00  0.00     0.191 C 
BRANCH  23  24
ATOM     24  O   UNL     1      -8.460   1.294  -0.883  1.00  0.00    -0.394 OA
ATOM     25  H   UNL     1      -9.171   0.800  -1.372  1.00  0.00     0.210 HD
ENDBRANCH  23  24
ENDBRANCH  17  23
BRANCH  18  26
ATOM     26  O   UNL     1      -5.661  -1.237  -2.230  1.00  0.00    -0.387 OA
ATOM     27  H   UNL     1      -5.317  -0.624  -1.532  1.00  0.00     0.211 HD
ENDBRANCH  18  26
ENDBRANCH  12  13
ENDBRANCH   7  12
BRANCH   4  28
ATOM     28  O   UNL     1     -13.744  -0.631  -8.006  1.00  0.00    -0.365 OA
ATOM     29  H   UNL     1     -13.085  -0.802  -8.730  1.00  0.00     0.214 HD
ENDBRANCH   4  28
BRANCH   8  30
ATOM     30  C   UNL     1     -11.587  -2.706  -4.234  1.00  0.00     0.249 C 
BRANCH  30  31
ATOM     31  O   UNL     1     -12.071  -2.621  -2.892  1.00  0.00    -0.461 OA
BRANCH  31  32
ATOM     32  C   UNL     1     -12.573  -3.687  -2.132  1.00  0.00     0.338 C 
ATOM     33  O   UNL     1     -13.650  -3.573  -1.488  1.00  0.00    -0.246 OA
BRANCH  32  34
ATOM     34  C   UNL     1     -11.828  -4.960  -2.082  1.00  0.00     0.060 A 
ATOM     35  C   UNL     1     -12.519  -6.186  -2.066  1.00  0.00     0.015 A 
ATOM     36  C   UNL     1     -10.423  -4.967  -2.035  1.00  0.00     0.015 A 
ATOM     37  C   UNL     1     -11.815  -7.393  -2.014  1.00  0.00     0.001 A 
ATOM     38  C   UNL     1      -9.723  -6.177  -1.996  1.00  0.00     0.001 A 
ATOM     39  C   UNL     1     -10.418  -7.389  -1.985  1.00  0.00     0.000 A 
ENDBRANCH  32  34
ENDBRANCH  31  32
ENDBRANCH  30  31
ENDBRANCH   8  30
TORSDOF 12
ENDMDL
MODEL 3
REMARK VINA RESULT:    -8.139      2.123      5.993
REMARK INTER + INTRA:         -13.199
REMARK INTER:                 -11.967
REMARK INTRA:                  -1.232
REMARK UNBOUND:                -0.540
REMARK SMILES C[C@]12C[C@]3(O)O[C@H](O1)[C@@]1(COC(=O)c4ccccc4)[C@@H]3C[C@]12O[C@H]1O[C@H](CO)[C@@H](O)[C@@H](O)[C@@H]1O
REMARK SMILES IDX 1 1 2 2 3 3 4 4 20 5 21 6 22 7 9 8 7 9 8 10 6 11 23 12 24 13
REMARK SMILES IDX 33 14 25 15 31 16 26 17 29 18 34 19 32 21 27 23 28 24 30 26
REMARK SMILES IDX 5 28 10 30 11 31 12 32 13 33 14 34 15 35 19 36 16 37 18 38
REMARK SMILES IDX 17 39
REMARK H PARENT 34 20 32 22 28 25 30 27 5 29
REMARK Flexibility Score: inf
ROOT
ATOM      1  C   UNL     1      -9.269  -4.172  -3.127  1.00  0.00     0.046 C 
ATOM      2  C   UNL     1      -9.967  -2.990  -3.797  1.00  0.00     0.104 C 
ATOM      3  C   UNL     1     -11.332  -2.658  -3.092  1.00  0.00     0.104 C 
ATOM      4  C   UNL     1     -11.868  -1.413  -3.889  1.00  0.00     0.175 C 
ATOM      5  C   UNL     1     -10.756  -0.327  -4.041  1.00  0.00     0.070 C 
ATOM      6  C   UNL     1      -9.627  -0.501  -3.020  1.00  0.00     0.050 C 
ATOM      7  C   UNL     1      -9.119  -1.656  -3.909  1.00  0.00     0.115 C 
ATOM      8  C   UNL     1      -9.886  -1.029  -5.083  1.00  0.00     0.096 C 
ATOM      9  C   UNL     1     -10.775  -2.109  -5.682  1.00  0.00     0.267 C 
ATOM     10  O   UNL     1     -10.301  -3.326  -5.133  1.00  0.00    -0.342 OA
ATOM     11  O   UNL     1     -12.088  -1.861  -5.206  1.00  0.00    -0.320 OA
ENDROOT
BRANCH   7  12
ATOM     12  O   UNL     1      -7.715  -1.756  -4.102  1.00  0.00    -0.339 OA
BRANCH  12  13
ATOM     13  C   UNL     1      -6.977  -1.268  -2.980  1.00  0.00     0.282 C 
ATOM     14  C   UNL     1      -6.390   0.143  -3.238  1.00  0.00     0.202 C 
ATOM     15  O   UNL     1      -5.956  -2.184  -2.619  1.00  0.00    -0.341 OA
ATOM     16  C   UNL     1      -5.190   0.120  -4.214  1.00  0.00     0.179 C 
ATOM     17  C   UNL     1      -5.022  -2.371  -3.669  1.00  0.00     0.178 C 
ATOM     18  C   UNL     1      -4.238  -1.060  -3.921  1.00  0.00     0.177 C 
BRANCH  14  19
ATOM     19  O   UNL     1      -5.977   0.683  -2.007  1.00  0.00    -0.385 OA
ATOM     20  H   UNL     1      -6.380   1.588  -1.937  1.00  0.00     0.211 HD
ENDBRANCH  14  19
BRANCH  16  21
ATOM     21  O   UNL     1      -5.624   0.132  -5.549  1.00  0.00    -0.387 OA
ATOM     22  H   UNL     1      -4.868   0.433  -6.107  1.00  0.00     0.211 HD
ENDBRANCH  16  21
BRANCH  17  23
ATOM     23  C   UNL     1      -4.061  -3.503  -3.274  1.00  0.00     0.191 C 
BRANCH  23  24
ATOM     24  O   UNL     1      -4.374  -3.993  -1.999  1.00  0.00    -0.394 OA
ATOM     25  H   UNL     1      -5.277  -3.646  -1.771  1.00  0.00     0.210 HD
ENDBRANCH  23  24
ENDBRANCH  17  23
BRANCH  18  26
ATOM     26  O   UNL     1      -3.291  -1.202  -4.949  1.00  0.00    -0.387 OA
ATOM     27  H   UNL     1      -2.879  -0.315  -5.107  1.00  0.00     0.211 HD
ENDBRANCH  18  26
ENDBRANCH  12  13
ENDBRANCH   7  12
BRANCH   4  28
ATOM     28  O   UNL     1     -13.033  -0.878  -3.325  1.00  0.00    -0.365 OA
ATOM     29  H   UNL     1     -13.765  -1.034  -3.979  1.00  0.00     0.214 HD
ENDBRANCH   4  28
BRANCH   8  30
ATOM     30  C   UNL     1      -9.166  -0.076  -6.080  1.00  0.00     0.249 C 
BRANCH  30  31
ATOM     31  O   UNL     1      -9.796   0.007  -7.359  1.00  0.00    -0.461 OA
BRANCH  31  32
ATOM     32  C   UNL     1     -10.582   1.073  -7.820  1.00  0.00     0.338 C 
ATOM     33  O   UNL     1     -10.497   1.474  -9.011  1.00  0.00    -0.246 OA
BRANCH  32  34
ATOM     34  C   UNL     1     -11.520   1.738  -6.894  1.00  0.00     0.060 A 
ATOM     35  C   UNL     1     -12.789   1.182  -6.652  1.00  0.00     0.015 A 
ATOM     36  C   UNL     1     -11.167   2.939  -6.254  1.00  0.00     0.015 A 
ATOM     37  C   UNL     1     -13.682   1.813  -5.779  1.00  0.00     0.001 A 
ATOM     38  C   UNL     1     -12.057   3.559  -5.372  1.00  0.00     0.001 A 
ATOM     39  C   UNL     1     -13.314   2.997  -5.135  1.00  0.00     0.000 A 
ENDBRANCH  32  34
ENDBRANCH  31  32
ENDBRANCH  30  31
ENDBRANCH   8  30
TORSDOF 12
ENDMDL
MODEL 4
REMARK VINA RESULT:    -8.134      2.169      6.608
REMARK INTER + INTRA:         -13.192
REMARK INTER:                 -12.279
REMARK INTRA:                  -0.913
REMARK UNBOUND:                -0.540
REMARK SMILES C[C@]12C[C@]3(O)O[C@H](O1)[C@@]1(COC(=O)c4ccccc4)[C@@H]3C[C@]12O[C@H]1O[C@H](CO)[C@@H](O)[C@@H](O)[C@@H]1O
REMARK SMILES IDX 1 1 2 2 3 3 4 4 20 5 21 6 22 7 9 8 7 9 8 10 6 11 23 12 24 13
REMARK SMILES IDX 33 14 25 15 31 16 26 17 29 18 34 19 32 21 27 23 28 24 30 26
REMARK SMILES IDX 5 28 10 30 11 31 12 32 13 33 14 34 15 35 19 36 16 37 18 38
REMARK SMILES IDX 17 39
REMARK H PARENT 34 20 32 22 28 25 30 27 5 29
REMARK Flexibility Score: inf
ROOT
ATOM      1  C   UNL     1      -8.267  -4.287  -2.387  1.00  0.00     0.046 C 
ATOM      2  C   UNL     1      -9.573  -4.007  -3.128  1.00  0.00     0.104 C 
ATOM      3  C   UNL     1     -10.816  -4.503  -2.304  1.00  0.00     0.104 C 
ATOM      4  C   UNL     1     -12.042  -4.099  -3.201  1.00  0.00     0.175 C 
ATOM      5  C   UNL     1     -11.927  -2.612  -3.665  1.00  0.00     0.070 C 
ATOM      6  C   UNL     1     -10.964  -1.802  -2.792  1.00  0.00     0.050 C 
ATOM      7  C   UNL     1      -9.820  -2.501  -3.555  1.00  0.00     0.115 C 
ATOM      8  C   UNL     1     -10.811  -2.776  -4.697  1.00  0.00     0.096 C 
ATOM      9  C   UNL     1     -10.763  -4.267  -4.998  1.00  0.00     0.267 C 
ATOM     10  O   UNL     1      -9.603  -4.742  -4.340  1.00  0.00    -0.342 OA
ATOM     11  O   UNL     1     -11.911  -4.839  -4.393  1.00  0.00    -0.320 OA
ENDROOT
BRANCH   7  12
ATOM     12  O   UNL     1      -8.701  -1.704  -3.919  1.00  0.00    -0.339 OA
BRANCH  12  13
ATOM     13  C   UNL     1      -8.079  -1.094  -2.787  1.00  0.00     0.282 C 
ATOM     14  C   UNL     1      -8.497   0.388  -2.620  1.00  0.00     0.202 C 
ATOM     15  O   UNL     1      -6.668  -1.216  -2.868  1.00  0.00    -0.341 OA
ATOM     16  C   UNL     1      -7.845   1.315  -3.672  1.00  0.00     0.179 C 
ATOM     17  C   UNL     1      -6.149  -0.567  -4.016  1.00  0.00     0.178 C 
ATOM     18  C   UNL     1      -6.358   0.963  -3.898  1.00  0.00     0.177 C 
BRANCH  14  19
ATOM     19  O   UNL     1      -8.123   0.813  -1.332  1.00  0.00    -0.385 OA
ATOM     20  H   UNL     1      -7.825   0.006  -0.834  1.00  0.00     0.211 HD
ENDBRANCH  14  19
BRANCH  16  21
ATOM     21  O   UNL     1      -8.577   1.314  -4.869  1.00  0.00    -0.387 OA
ATOM     22  H   UNL     1      -9.530   1.417  -4.637  1.00  0.00     0.211 HD
ENDBRANCH  16  21
BRANCH  17  23
ATOM     23  C   UNL     1      -4.653  -0.896  -4.132  1.00  0.00     0.191 C 
BRANCH  23  24
ATOM     24  O   UNL     1      -4.180  -0.595  -5.416  1.00  0.00    -0.394 OA
ATOM     25  H   UNL     1      -4.263   0.389  -5.531  1.00  0.00     0.210 HD
ENDBRANCH  23  24
ENDBRANCH  17  23
BRANCH  18  26
ATOM     26  O   UNL     1      -5.848   1.652  -5.013  1.00  0.00    -0.387 OA
ATOM     27  H   UNL     1      -6.515   1.583  -5.742  1.00  0.00     0.211 HD
ENDBRANCH  18  26
ENDBRANCH  12  13
ENDBRANCH   7  12
BRANCH   4  28
ATOM     28  O   UNL     1     -13.269  -4.346  -2.573  1.00  0.00    -0.365 OA
ATOM     29  H   UNL     1     -13.314  -3.743  -1.785  1.00  0.00     0.214 HD
ENDBRANCH   4  28
BRANCH   8  30
ATOM     30  C   UNL     1     -10.902  -1.813  -5.914  1.00  0.00     0.249 C 
BRANCH  30  31
ATOM     31  O   UNL     1     -11.993  -2.092  -6.793  1.00  0.00    -0.461 OA
BRANCH  31  32
ATOM     32  C   UNL     1     -13.045  -1.216  -7.100  1.00  0.00     0.338 C 
ATOM     33  O   UNL     1     -14.004  -1.585  -7.827  1.00  0.00    -0.246 OA
BRANCH  32  34
ATOM     34  C   UNL     1     -13.025   0.160  -6.565  1.00  0.00     0.060 A 
ATOM     35  C   UNL     1     -13.714   0.469  -5.378  1.00  0.00     0.015 A 
ATOM     36  C   UNL     1     -12.331   1.181  -7.237  1.00  0.00     0.015 A 
ATOM     37  C   UNL     1     -13.701   1.773  -4.872  1.00  0.00     0.001 A 
ATOM     38  C   UNL     1     -12.309   2.480  -6.721  1.00  0.00     0.001 A 
ATOM     39  C   UNL     1     -12.994   2.776  -5.540  1.00  0.00     0.000 A 
ENDBRANCH  32  34
ENDBRANCH  31  32
ENDBRANCH  30  31
ENDBRANCH   8  30
TORSDOF 12
ENDMDL
MODEL 5
REMARK VINA RESULT:    -8.031      1.946      5.651
REMARK INTER + INTRA:         -13.031
REMARK INTER:                 -12.199
REMARK INTRA:                  -0.833
REMARK UNBOUND:                -0.540
REMARK SMILES C[C@]12C[C@]3(O)O[C@H](O1)[C@@]1(COC(=O)c4ccccc4)[C@@H]3C[C@]12O[C@H]1O[C@H](CO)[C@@H](O)[C@@H](O)[C@@H]1O
REMARK SMILES IDX 1 1 2 2 3 3 4 4 20 5 21 6 22 7 9 8 7 9 8 10 6 11 23 12 24 13
REMARK SMILES IDX 33 14 25 15 31 16 26 17 29 18 34 19 32 21 27 23 28 24 30 26
REMARK SMILES IDX 5 28 10 30 11 31 12 32 13 33 14 34 15 35 19 36 16 37 18 38
REMARK SMILES IDX 17 39
REMARK H PARENT 34 20 32 22 28 25 30 27 5 29
REMARK Flexibility Score: inf
ROOT
ATOM      1  C   UNL     1      -7.140  -3.595  -2.823  1.00  0.00     0.046 C 
ATOM      2  C   UNL     1      -6.946  -2.134  -3.224  1.00  0.00     0.104 C 
ATOM      3  C   UNL     1      -5.782  -1.979  -4.269  1.00  0.00     0.104 C 
ATOM      4  C   UNL     1      -5.765  -0.438  -4.579  1.00  0.00     0.175 C 
ATOM      5  C   UNL     1      -7.203   0.084  -4.893  1.00  0.00     0.070 C 
ATOM      6  C   UNL     1      -8.160  -1.045  -5.287  1.00  0.00     0.050 C 
ATOM      7  C   UNL     1      -8.229  -1.392  -3.785  1.00  0.00     0.115 C 
ATOM      8  C   UNL     1      -7.780   0.045  -3.479  1.00  0.00     0.096 C 
ATOM      9  C   UNL     1      -6.571  -0.038  -2.557  1.00  0.00     0.267 C 
ATOM     10  O   UNL     1      -6.548  -1.376  -2.095  1.00  0.00    -0.342 OA
ATOM     11  O   UNL     1      -5.430   0.198  -3.366  1.00  0.00    -0.320 OA
ENDROOT
BRANCH   7  12
ATOM     12  O   UNL     1      -9.503  -1.741  -3.259  1.00  0.00    -0.339 OA
BRANCH  12  13
ATOM     13  C   UNL     1     -10.298  -2.463  -4.200  1.00  0.00     0.282 C 
ATOM     14  C   UNL     1     -11.652  -1.763  -4.476  1.00  0.00     0.202 C 
ATOM     15  O   UNL     1     -10.498  -3.798  -3.763  1.00  0.00    -0.341 OA
ATOM     16  C   UNL     1     -12.646  -1.898  -3.297  1.00  0.00     0.179 C 
ATOM     17  C   UNL     1     -11.186  -3.849  -2.524  1.00  0.00     0.178 C 
ATOM     18  C   UNL     1     -12.632  -3.322  -2.700  1.00  0.00     0.177 C 
BRANCH  14  19
ATOM     19  O   UNL     1     -12.221  -2.335  -5.629  1.00  0.00    -0.385 OA
ATOM     20  H   UNL     1     -12.830  -3.058  -5.325  1.00  0.00     0.211 HD
ENDBRANCH  14  19
BRANCH  16  21
ATOM     21  O   UNL     1     -12.413  -0.913  -2.325  1.00  0.00    -0.387 OA
ATOM     22  H   UNL     1     -12.798  -0.068  -2.657  1.00  0.00     0.211 HD
ENDBRANCH  16  21
BRANCH  17  23
ATOM     23  C   UNL     1     -11.201  -5.304  -2.031  1.00  0.00     0.191 C 
BRANCH  23  24
ATOM     24  O   UNL     1     -10.050  -5.583  -1.281  1.00  0.00    -0.394 OA
ATOM     25  H   UNL     1     -10.254  -5.339  -0.339  1.00  0.00     0.210 HD
ENDBRANCH  23  24
ENDBRANCH  17  23
BRANCH  18  26
ATOM     26  O   UNL     1     -13.357  -3.364  -1.496  1.00  0.00    -0.387 OA
ATOM     27  H   UNL     1     -12.709  -3.482  -0.756  1.00  0.00     0.211 HD
ENDBRANCH  18  26
ENDBRANCH  12  13
ENDBRANCH   7  12
BRANCH   4  28
ATOM     28  O   UNL     1      -4.864  -0.106  -5.600  1.00  0.00    -0.365 OA
ATOM     29  H   UNL     1      -4.761  -0.918  -6.164  1.00  0.00     0.214 HD
ENDBRANCH   4  28
BRANCH   8  30
ATOM     30  C   UNL     1      -8.826   1.153  -3.170  1.00  0.00     0.249 C 
BRANCH  30  31
ATOM     31  O   UNL     1      -8.929   2.151  -4.186  1.00  0.00    -0.461 OA
BRANCH  31  32
ATOM     32  C   UNL     1     -10.105   2.812  -4.573  1.00  0.00     0.338 C 
ATOM     33  O   UNL     1     -10.356   3.978  -4.168  1.00  0.00    -0.246 OA
BRANCH  32  34
ATOM     34  C   UNL     1     -11.064   2.129  -5.463  1.00  0.00     0.060 A 
ATOM     35  C   UNL     1     -10.599   1.300  -6.501  1.00  0.00     0.015 A 
ATOM     36  C   UNL     1     -12.448   2.307  -5.298  1.00  0.00     0.015 A 
ATOM     37  C   UNL     1     -11.505   0.656  -7.350  1.00  0.00     0.001 A 
ATOM     38  C   UNL     1     -13.351   1.650  -6.141  1.00  0.00     0.001 A 
ATOM     39  C   UNL     1     -12.880   0.826  -7.166  1.00  0.00     0.000 A 
ENDBRANCH  32  34
ENDBRANCH  31  32
ENDBRANCH  30  31
ENDBRANCH   8  30
TORSDOF 12
ENDMDL
MODEL 6
REMARK VINA RESULT:    -7.877      3.051      5.732
REMARK INTER + INTRA:         -12.792
REMARK INTER:                 -11.548
REMARK INTRA:                  -1.244
REMARK UNBOUND:                -0.540
REMARK SMILES C[C@]12C[C@]3(O)O[C@H](O1)[C@@]1(COC(=O)c4ccccc4)[C@@H]3C[C@]12O[C@H]1O[C@H](CO)[C@@H](O)[C@@H](O)[C@@H]1O
REMARK SMILES IDX 1 1 2 2 3 3 4 4 20 5 21 6 22 7 9 8 7 9 8 10 6 11 23 12 24 13
REMARK SMILES IDX 33 14 25 15 31 16 26 17 29 18 34 19 32 21 27 23 28 24 30 26
REMARK SMILES IDX 5 28 10 30 11 31 12 32 13 33 14 34 15 35 19 36 16 37 18 38
REMARK SMILES IDX 17 39
REMARK H PARENT 34 20 32 22 28 25 30 27 5 29
REMARK Flexibility Score: inf
ROOT
ATOM      1  C   UNL     1      -6.900  -4.116  -3.121  1.00  0.00     0.046 C 
ATOM      2  C   UNL     1      -6.753  -2.600  -3.238  1.00  0.00     0.104 C 
ATOM      3  C   UNL     1      -5.657  -2.212  -4.294  1.00  0.00     0.104 C 
ATOM      4  C   UNL     1      -5.682  -0.640  -4.295  1.00  0.00     0.175 C 
ATOM      5  C   UNL     1      -7.144  -0.105  -4.420  1.00  0.00     0.070 C 
ATOM      6  C   UNL     1      -8.105  -1.161  -4.974  1.00  0.00     0.050 C 
ATOM      7  C   UNL     1      -8.079  -1.797  -3.569  1.00  0.00     0.115 C 
ATOM      8  C   UNL     1      -7.634  -0.436  -3.011  1.00  0.00     0.096 C 
ATOM      9  C   UNL     1      -6.372  -0.665  -2.193  1.00  0.00     0.267 C 
ATOM     10  O   UNL     1      -6.300  -2.067  -2.005  1.00  0.00    -0.342 OA
ATOM     11  O   UNL     1      -5.284  -0.245  -3.002  1.00  0.00    -0.320 OA
ENDROOT
BRANCH   7  12
ATOM     12  O   UNL     1      -9.313  -2.277  -3.051  1.00  0.00    -0.339 OA
BRANCH  12  13
ATOM     13  C   UNL     1     -10.099  -2.934  -4.047  1.00  0.00     0.282 C 
ATOM     14  C   UNL     1     -11.407  -2.164  -4.357  1.00  0.00     0.202 C 
ATOM     15  O   UNL     1     -10.377  -4.270  -3.660  1.00  0.00    -0.341 OA
ATOM     16  C   UNL     1     -12.455  -2.288  -3.225  1.00  0.00     0.179 C 
ATOM     17  C   UNL     1     -11.119  -4.326  -2.453  1.00  0.00     0.178 C 
ATOM     18  C   UNL     1     -12.531  -3.728  -2.672  1.00  0.00     0.177 C 
BRANCH  14  19
ATOM     19  O   UNL     1     -11.951  -2.675  -5.550  1.00  0.00    -0.385 OA
ATOM     20  H   UNL     1     -11.432  -2.279  -6.298  1.00  0.00     0.211 HD
ENDBRANCH  14  19
BRANCH  16  21
ATOM     21  O   UNL     1     -12.221  -1.343  -2.214  1.00  0.00    -0.387 OA
ATOM     22  H   UNL     1     -12.644  -0.497  -2.491  1.00  0.00     0.211 HD
ENDBRANCH  16  21
BRANCH  17  23
ATOM     23  C   UNL     1     -11.221  -5.792  -2.007  1.00  0.00     0.191 C 
BRANCH  23  24
ATOM     24  O   UNL     1     -12.430  -6.355  -2.435  1.00  0.00    -0.394 OA
ATOM     25  H   UNL     1     -13.007  -6.445  -1.630  1.00  0.00     0.210 HD
ENDBRANCH  23  24
ENDBRANCH  17  23
BRANCH  18  26
ATOM     26  O   UNL     1     -13.308  -3.771  -1.502  1.00  0.00    -0.387 OA
ATOM     27  H   UNL     1     -12.878  -3.183  -0.831  1.00  0.00     0.211 HD
ENDBRANCH  18  26
ENDBRANCH  12  13
ENDBRANCH   7  12
BRANCH   4  28
ATOM     28  O   UNL     1      -4.849  -0.091  -5.279  1.00  0.00    -0.365 OA
ATOM     29  H   UNL     1      -4.200   0.496  -4.810  1.00  0.00     0.214 HD
ENDBRANCH   4  28
BRANCH   8  30
ATOM     30  C   UNL     1      -8.678   0.561  -2.433  1.00  0.00     0.249 C 
BRANCH  30  31
ATOM     31  O   UNL     1      -8.166   1.398  -1.395  1.00  0.00    -0.461 OA
BRANCH  31  32
ATOM     32  C   UNL     1      -7.880   2.766  -1.509  1.00  0.00     0.338 C 
ATOM     33  O   UNL     1      -8.793   3.629  -1.419  1.00  0.00    -0.246 OA
BRANCH  32  34
ATOM     34  C   UNL     1      -6.489   3.201  -1.742  1.00  0.00     0.060 A 
ATOM     35  C   UNL     1      -5.915   3.085  -3.022  1.00  0.00     0.015 A 
ATOM     36  C   UNL     1      -5.715   3.723  -0.692  1.00  0.00     0.015 A 
ATOM     37  C   UNL     1      -4.596   3.492  -3.245  1.00  0.00     0.001 A 
ATOM     38  C   UNL     1      -4.400   4.141  -0.921  1.00  0.00     0.001 A 
ATOM     39  C   UNL     1      -3.841   4.025  -2.196  1.00  0.00     0.000 A 
ENDBRANCH  32  34
ENDBRANCH  31  32
ENDBRANCH  30  31
ENDBRANCH   8  30
TORSDOF 12
ENDMDL
MODEL 7
REMARK VINA RESULT:    -7.804      2.843      6.006
REMARK INTER + INTRA:         -12.678
REMARK INTER:                 -11.651
REMARK INTRA:                  -1.027
REMARK UNBOUND:                -0.540
REMARK SMILES C[C@]12C[C@]3(O)O[C@H](O1)[C@@]1(COC(=O)c4ccccc4)[C@@H]3C[C@]12O[C@H]1O[C@H](CO)[C@@H](O)[C@@H](O)[C@@H]1O
REMARK SMILES IDX 1 1 2 2 3 3 4 4 20 5 21 6 22 7 9 8 7 9 8 10 6 11 23 12 24 13
REMARK SMILES IDX 33 14 25 15 31 16 26 17 29 18 34 19 32 21 27 23 28 24 30 26
REMARK SMILES IDX 5 28 10 30 11 31 12 32 13 33 14 34 15 35 19 36 16 37 18 38
REMARK SMILES IDX 17 39
REMARK H PARENT 34 20 32 22 28 25 30 27 5 29
REMARK Flexibility Score: inf
ROOT
ATOM      1  C   UNL     1      -9.993  -2.162  -3.855  1.00  0.00     0.046 C 
ATOM      2  C   UNL     1      -8.712  -1.342  -3.715  1.00  0.00     0.104 C 
ATOM      3  C   UNL     1      -7.439  -2.221  -3.991  1.00  0.00     0.104 C 
ATOM      4  C   UNL     1      -6.248  -1.207  -3.839  1.00  0.00     0.175 C 
ATOM      5  C   UNL     1      -6.517   0.097  -4.655  1.00  0.00     0.070 C 
ATOM      6  C   UNL     1      -7.580  -0.103  -5.739  1.00  0.00     0.050 C 
ATOM      7  C   UNL     1      -8.625  -0.035  -4.606  1.00  0.00     0.115 C 
ATOM      8  C   UNL     1      -7.588   0.717  -3.757  1.00  0.00     0.096 C 
ATOM      9  C   UNL     1      -7.465  -0.014  -2.428  1.00  0.00     0.267 C 
ATOM     10  O   UNL     1      -8.578  -0.887  -2.380  1.00  0.00    -0.342 OA
ATOM     11  O   UNL     1      -6.272  -0.779  -2.496  1.00  0.00    -0.320 OA
ENDROOT
BRANCH   7  12
ATOM     12  O   UNL     1      -9.818   0.693  -4.867  1.00  0.00    -0.339 OA
BRANCH  12  13
ATOM     13  C   UNL     1     -10.372   0.383  -6.146  1.00  0.00     0.282 C 
ATOM     14  C   UNL     1     -10.418   1.622  -7.076  1.00  0.00     0.202 C 
ATOM     15  O   UNL     1     -11.661  -0.192  -6.004  1.00  0.00    -0.341 OA
ATOM     16  C   UNL     1     -11.518   2.632  -6.671  1.00  0.00     0.179 C 
ATOM     17  C   UNL     1     -12.568   0.696  -5.372  1.00  0.00     0.178 C 
ATOM     18  C   UNL     1     -12.833   1.919  -6.285  1.00  0.00     0.177 C 
BRANCH  14  19
ATOM     19  O   UNL     1     -10.655   1.181  -8.391  1.00  0.00    -0.385 OA
ATOM     20  H   UNL     1      -9.940   1.569  -8.961  1.00  0.00     0.211 HD
ENDBRANCH  14  19
BRANCH  16  21
ATOM     21  O   UNL     1     -11.065   3.493  -5.660  1.00  0.00    -0.387 OA
ATOM     22  H   UNL     1     -11.712   4.234  -5.586  1.00  0.00     0.211 HD
ENDBRANCH  16  21
BRANCH  17  23
ATOM     23  C   UNL     1     -13.877  -0.057  -5.091  1.00  0.00     0.191 C 
BRANCH  23  24
ATOM     24  O   UNL     1     -14.498   0.448  -3.941  1.00  0.00    -0.394 OA
ATOM     25  H   UNL     1     -15.448   0.621  -4.180  1.00  0.00     0.210 HD
ENDBRANCH  23  24
ENDBRANCH  17  23
BRANCH  18  26
ATOM     26  O   UNL     1     -13.736   2.824  -5.702  1.00  0.00    -0.387 OA
ATOM     27  H   UNL     1     -13.226   3.405  -5.082  1.00  0.00     0.211 HD
ENDBRANCH  18  26
ENDBRANCH  12  13
ENDBRANCH   7  12
BRANCH   4  28
ATOM     28  O   UNL     1      -5.013  -1.776  -4.175  1.00  0.00    -0.365 OA
ATOM     29  H   UNL     1      -4.356  -1.454  -3.503  1.00  0.00     0.214 HD
ENDBRANCH   4  28
BRANCH   8  30
ATOM     30  C   UNL     1      -7.579   2.271  -3.710  1.00  0.00     0.249 C 
BRANCH  30  31
ATOM     31  O   UNL     1      -8.317   2.822  -2.618  1.00  0.00    -0.461 OA
BRANCH  31  32
ATOM     32  C   UNL     1      -7.784   3.585  -1.569  1.00  0.00     0.338 C 
ATOM     33  O   UNL     1      -8.515   4.358  -0.894  1.00  0.00    -0.246 OA
BRANCH  32  34
ATOM     34  C   UNL     1      -6.346   3.484  -1.254  1.00  0.00     0.060 A 
ATOM     35  C   UNL     1      -5.455   4.484  -1.683  1.00  0.00     0.015 A 
ATOM     36  C   UNL     1      -5.845   2.384  -0.535  1.00  0.00     0.015 A 
ATOM     37  C   UNL     1      -4.091   4.388  -1.390  1.00  0.00     0.001 A 
ATOM     38  C   UNL     1      -4.482   2.299  -0.233  1.00  0.00     0.001 A 
ATOM     39  C   UNL     1      -3.606   3.300  -0.660  1.00  0.00     0.000 A 
ENDBRANCH  32  34
ENDBRANCH  31  32
ENDBRANCH  30  31
ENDBRANCH   8  30
TORSDOF 12
ENDMDL
MODEL 8
REMARK VINA RESULT:    -7.790      2.914      5.787
REMARK INTER + INTRA:         -12.657
REMARK INTER:                 -12.017
REMARK INTRA:                  -0.640
REMARK UNBOUND:                -0.540
REMARK SMILES C[C@]12C[C@]3(O)O[C@H](O1)[C@@]1(COC(=O)c4ccccc4)[C@@H]3C[C@]12O[C@H]1O[C@H](CO)[C@@H](O)[C@@H](O)[C@@H]1O
REMARK SMILES IDX 1 1 2 2 3 3 4 4 20 5 21 6 22 7 9 8 7 9 8 10 6 11 23 12 24 13
REMARK SMILES IDX 33 14 25 15 31 16 26 17 29 18 34 19 32 21 27 23 28 24 30 26
REMARK SMILES IDX 5 28 10 30 11 31 12 32 13 33 14 34 15 35 19 36 16 37 18 38
REMARK SMILES IDX 17 39
REMARK H PARENT 34 20 32 22 28 25 30 27 5 29
REMARK Flexibility Score: inf
ROOT
ATOM      1  C   UNL     1      -7.547  -3.438  -3.185  1.00  0.00     0.046 C 
ATOM      2  C   UNL     1      -6.855  -2.118  -3.518  1.00  0.00     0.104 C 
ATOM      3  C   UNL     1      -5.516  -2.358  -4.306  1.00  0.00     0.104 C 
ATOM      4  C   UNL     1      -4.984  -0.905  -4.583  1.00  0.00     0.175 C 
ATOM      5  C   UNL     1      -6.112  -0.000  -5.172  1.00  0.00     0.070 C 
ATOM      6  C   UNL     1      -7.264  -0.817  -5.766  1.00  0.00     0.050 C 
ATOM      7  C   UNL     1      -7.725  -1.060  -4.314  1.00  0.00     0.115 C 
ATOM      8  C   UNL     1      -6.940   0.196  -3.902  1.00  0.00     0.096 C 
ATOM      9  C   UNL     1      -6.015  -0.195  -2.759  1.00  0.00     0.267 C 
ATOM     10  O   UNL     1      -6.479  -1.459  -2.321  1.00  0.00    -0.342 OA
ATOM     11  O   UNL     1      -4.720  -0.340  -3.319  1.00  0.00    -0.320 OA
ENDROOT
BRANCH   7  12
ATOM     12  O   UNL     1      -9.122  -0.996  -4.058  1.00  0.00    -0.339 OA
BRANCH  12  13
ATOM     13  C   UNL     1      -9.843  -2.034  -4.725  1.00  0.00     0.282 C 
ATOM     14  C   UNL     1     -10.316  -1.600  -6.135  1.00  0.00     0.202 C 
ATOM     15  O   UNL     1     -10.937  -2.468  -3.935  1.00  0.00    -0.341 OA
ATOM     16  C   UNL     1     -11.495  -0.599  -6.088  1.00  0.00     0.179 C 
ATOM     17  C   UNL     1     -11.862  -1.420  -3.695  1.00  0.00     0.178 C 
ATOM     18  C   UNL     1     -12.539  -0.998  -5.022  1.00  0.00     0.177 C 
BRANCH  14  19
ATOM     19  O   UNL     1     -10.711  -2.749  -6.844  1.00  0.00    -0.385 OA
ATOM     20  H   UNL     1     -11.077  -3.390  -6.179  1.00  0.00     0.211 HD
ENDBRANCH  14  19
BRANCH  16  21
ATOM     21  O   UNL     1     -11.035   0.715  -5.913  1.00  0.00    -0.387 OA
ATOM     22  H   UNL     1     -10.818   1.077  -6.805  1.00  0.00     0.211 HD
ENDBRANCH  16  21
BRANCH  17  23
ATOM     23  C   UNL     1     -12.913  -1.914  -2.690  1.00  0.00     0.191 C 
BRANCH  23  24
ATOM     24  O   UNL     1     -13.721  -0.853  -2.260  1.00  0.00    -0.394 OA
ATOM     25  H   UNL     1     -14.543  -0.872  -2.819  1.00  0.00     0.210 HD
ENDBRANCH  23  24
ENDBRANCH  17  23
BRANCH  18  26
ATOM     26  O   UNL     1     -13.474   0.034  -4.831  1.00  0.00    -0.387 OA
ATOM     27  H   UNL     1     -13.180   0.812  -5.369  1.00  0.00     0.211 HD
ENDBRANCH  18  26
ENDBRANCH  12  13
ENDBRANCH   7  12
BRANCH   4  28
ATOM     28  O   UNL     1      -3.844  -0.899  -5.398  1.00  0.00    -0.365 OA
ATOM     29  H   UNL     1      -4.080  -0.387  -6.216  1.00  0.00     0.214 HD
ENDBRANCH   4  28
BRANCH   8  30
ATOM     30  C   UNL     1      -7.652   1.574  -3.794  1.00  0.00     0.249 C 
BRANCH  30  31
ATOM     31  O   UNL     1      -8.182   1.852  -2.497  1.00  0.00    -0.461 OA
BRANCH  31  32
ATOM     32  C   UNL     1      -7.906   2.988  -1.723  1.00  0.00     0.338 C 
ATOM     33  O   UNL     1      -8.828   3.767  -1.363  1.00  0.00    -0.246 OA
BRANCH  32  34
ATOM     34  C   UNL     1      -6.513   3.278  -1.327  1.00  0.00     0.060 A 
ATOM     35  C   UNL     1      -5.907   4.489  -1.707  1.00  0.00     0.015 A 
ATOM     36  C   UNL     1      -5.771   2.347  -0.581  1.00  0.00     0.015 A 
ATOM     37  C   UNL     1      -4.586   4.764  -1.338  1.00  0.00     0.001 A 
ATOM     38  C   UNL     1      -4.455   2.631  -0.202  1.00  0.00     0.001 A 
ATOM     39  C   UNL     1      -3.864   3.838  -0.581  1.00  0.00     0.000 A 
ENDBRANCH  32  34
ENDBRANCH  31  32
ENDBRANCH  30  31
ENDBRANCH   8  30
TORSDOF 12
ENDMDL
MODEL 9
REMARK VINA RESULT:    -7.773      2.209      5.689
REMARK INTER + INTRA:         -12.630
REMARK INTER:                 -11.801
REMARK INTRA:                  -0.828
REMARK UNBOUND:                -0.540
REMARK SMILES C[C@]12C[C@]3(O)O[C@H](O1)[C@@]1(COC(=O)c4ccccc4)[C@@H]3C[C@]12O[C@H]1O[C@H](CO)[C@@H](O)[C@@H](O)[C@@H]1O
REMARK SMILES IDX 1 1 2 2 3 3 4 4 20 5 21 6 22 7 9 8 7 9 8 10 6 11 23 12 24 13
REMARK SMILES IDX 33 14 25 15 31 16 26 17 29 18 34 19 32 21 27 23 28 24 30 26
REMARK SMILES IDX 5 28 10 30 11 31 12 32 13 33 14 34 15 35 19 36 16 37 18 38
REMARK SMILES IDX 17 39
REMARK H PARENT 34 20 32 22 28 25 30 27 5 29
REMARK Flexibility Score: inf
ROOT
ATOM      1  C   UNL     1      -6.075  -1.901  -1.838  1.00  0.00     0.046 C 
ATOM      2  C   UNL     1      -6.338  -0.456  -2.255  1.00  0.00     0.104 C 
ATOM      3  C   UNL     1      -5.046   0.211  -2.852  1.00  0.00     0.104 C 
ATOM      4  C   UNL     1      -5.523   1.655  -3.249  1.00  0.00     0.175 C 
ATOM      5  C   UNL     1      -6.851   1.599  -4.068  1.00  0.00     0.070 C 
ATOM      6  C   UNL     1      -7.101   0.217  -4.679  1.00  0.00     0.050 C 
ATOM      7  C   UNL     1      -7.535  -0.233  -3.269  1.00  0.00     0.115 C 
ATOM      8  C   UNL     1      -7.810   1.241  -2.933  1.00  0.00     0.096 C 
ATOM      9  C   UNL     1      -7.054   1.570  -1.654  1.00  0.00     0.267 C 
ATOM     10  O   UNL     1      -6.672   0.318  -1.115  1.00  0.00    -0.342 OA
ATOM     11  O   UNL     1      -5.893   2.286  -2.044  1.00  0.00    -0.320 OA
ENDROOT
BRANCH   7  12
ATOM     12  O   UNL     1      -8.670  -1.084  -3.180  1.00  0.00    -0.339 OA
BRANCH  12  13
ATOM     13  C   UNL     1      -8.742  -2.006  -4.269  1.00  0.00     0.282 C 
ATOM     14  C   UNL     1      -9.869  -1.641  -5.267  1.00  0.00     0.202 C 
ATOM     15  O   UNL     1      -8.899  -3.332  -3.789  1.00  0.00    -0.341 OA
ATOM     16  C   UNL     1     -11.281  -1.947  -4.712  1.00  0.00     0.179 C 
ATOM     17  C   UNL     1     -10.098  -3.484  -3.047  1.00  0.00     0.178 C 
ATOM     18  C   UNL     1     -11.323  -3.305  -3.977  1.00  0.00     0.177 C 
BRANCH  14  19
ATOM     19  O   UNL     1      -9.668  -2.374  -6.451  1.00  0.00    -0.385 OA
ATOM     20  H   UNL     1     -10.557  -2.707  -6.742  1.00  0.00     0.211 HD
ENDBRANCH  14  19
BRANCH  16  21
ATOM     21  O   UNL     1     -11.746  -0.895  -3.908  1.00  0.00    -0.387 OA
ATOM     22  H   UNL     1     -12.167  -1.292  -3.109  1.00  0.00     0.211 HD
ENDBRANCH  16  21
BRANCH  17  23
ATOM     23  C   UNL     1     -10.106  -4.883  -2.411  1.00  0.00     0.191 C 
BRANCH  23  24
ATOM     24  O   UNL     1     -11.172  -5.008  -1.510  1.00  0.00    -0.394 OA
ATOM     25  H   UNL     1     -11.416  -5.972  -1.486  1.00  0.00     0.210 HD
ENDBRANCH  23  24
ENDBRANCH  17  23
BRANCH  18  26
ATOM     26  O   UNL     1     -12.536  -3.458  -3.284  1.00  0.00    -0.387 OA
ATOM     27  H   UNL     1     -12.394  -3.152  -2.353  1.00  0.00     0.211 HD
ENDBRANCH  18  26
ENDBRANCH  12  13
ENDBRANCH   7  12
BRANCH   4  28
ATOM     28  O   UNL     1      -4.533   2.379  -3.926  1.00  0.00    -0.365 OA
ATOM     29  H   UNL     1      -3.693   1.853  -3.852  1.00  0.00     0.214 HD
ENDBRANCH   4  28
BRANCH   8  30
ATOM     30  C   UNL     1      -9.241   1.832  -3.078  1.00  0.00     0.249 C 
BRANCH  30  31
ATOM     31  O   UNL     1      -9.338   2.885  -4.039  1.00  0.00    -0.461 OA
BRANCH  31  32
ATOM     32  C   UNL     1     -10.523   3.355  -4.625  1.00  0.00     0.338 C 
ATOM     33  O   UNL     1     -10.927   4.530  -4.417  1.00  0.00    -0.246 OA
BRANCH  32  34
ATOM     34  C   UNL     1     -11.309   2.458  -5.494  1.00  0.00     0.060 A 
ATOM     35  C   UNL     1     -10.686   1.771  -6.551  1.00  0.00     0.015 A 
ATOM     36  C   UNL     1     -12.690   2.289  -5.289  1.00  0.00     0.015 A 
ATOM     37  C   UNL     1     -11.430   0.924  -7.380  1.00  0.00     0.001 A 
ATOM     38  C   UNL     1     -13.427   1.432  -6.112  1.00  0.00     0.001 A 
ATOM     39  C   UNL     1     -12.798   0.751  -7.156  1.00  0.00     0.000 A 
ENDBRANCH  32  34
ENDBRANCH  31  32
ENDBRANCH  30  31
ENDBRANCH   8  30
TORSDOF 12
ENDMDL
