MODEL 1
REMARK VINA RESULT:    -4.022      0.000      0.000
REMARK INTER + INTRA:          -4.409
REMARK INTER:                  -4.375
REMARK INTRA:                  -0.034
REMARK UNBOUND:                -0.034
REMARK SMILES O=C([O-])c1ccc(O)cc1
REMARK SMILES IDX 7 1 6 2 9 3 5 4 10 5 4 6 8 7 2 9 1 10 3 11
REMARK H PARENT 8 8
REMARK Flexibility Score: inf
ROOT
ATOM      1  C   UNL     1     -93.008 146.171 239.411  1.00  0.00     0.115 A 
ATOM      2  C   UNL     1     -93.287 147.476 238.987  1.00  0.00     0.047 A 
ATOM      3  C   UNL     1     -93.732 145.617 240.471  1.00  0.00     0.047 A 
ATOM      4  C   UNL     1     -94.285 148.223 239.620  1.00  0.00     0.014 A 
ATOM      5  C   UNL     1     -94.732 146.361 241.106  1.00  0.00     0.014 A 
ATOM      6  C   UNL     1     -95.019 147.672 240.687  1.00  0.00    -0.003 A 
ENDROOT
BRANCH   1   7
ATOM      7  O   UNL     1     -92.015 145.418 238.788  1.00  0.00    -0.508 OA
ATOM      8  H   UNL     1     -92.222 144.525 238.355  1.00  0.00     0.293 HD
ENDBRANCH   1   7
BRANCH   6   9
ATOM      9  C   UNL     1     -96.077 148.457 241.360  1.00  0.00     0.071 C 
ATOM     10  O   UNL     1     -97.036 147.879 241.936  1.00  0.00    -0.545 OA
ATOM     11  O   UNL     1     -96.026 149.847 241.366  1.00  0.00    -0.545 OA
ENDBRANCH   6   9
TORSDOF 2
ENDMDL
MODEL 2
REMARK VINA RESULT:    -4.018      0.033      1.532
REMARK INTER + INTRA:          -4.405
REMARK INTER:                  -4.371
REMARK INTRA:                  -0.034
REMARK UNBOUND:                -0.034
REMARK SMILES O=C([O-])c1ccc(O)cc1
REMARK SMILES IDX 7 1 6 2 9 3 5 4 10 5 4 6 8 7 2 9 1 10 3 11
REMARK H PARENT 8 8
REMARK Flexibility Score: inf
ROOT
ATOM      1  C   UNL     1     -92.990 146.151 239.410  1.00  0.00     0.115 A 
ATOM      2  C   UNL     1     -93.729 145.600 240.464  1.00  0.00     0.047 A 
ATOM      3  C   UNL     1     -93.256 147.457 238.986  1.00  0.00     0.047 A 
ATOM      4  C   UNL     1     -94.728 146.351 241.091  1.00  0.00     0.014 A 
ATOM      5  C   UNL     1     -94.254 148.211 239.612  1.00  0.00     0.014 A 
ATOM      6  C   UNL     1     -95.001 147.666 240.671  1.00  0.00    -0.003 A 
ENDROOT
BRANCH   1   7
ATOM      7  O   UNL     1     -91.994 145.413 238.777  1.00  0.00    -0.508 OA
ATOM      8  H   UNL     1     -91.722 145.601 237.819  1.00  0.00     0.293 HD
ENDBRANCH   1   7
BRANCH   6   9
ATOM      9  C   UNL     1     -96.056 148.466 241.330  1.00  0.00     0.071 C 
ATOM     10  O   UNL     1     -97.028 147.901 241.898  1.00  0.00    -0.545 OA
ATOM     11  O   UNL     1     -95.990 149.854 241.332  1.00  0.00    -0.545 OA
ENDBRANCH   6   9
TORSDOF 2
ENDMDL
MODEL 3
REMARK VINA RESULT:    -3.739      2.011      2.622
REMARK INTER + INTRA:          -4.100
REMARK INTER:                  -4.070
REMARK INTRA:                  -0.030
REMARK UNBOUND:                -0.034
REMARK SMILES O=C([O-])c1ccc(O)cc1
REMARK SMILES IDX 7 1 6 2 9 3 5 4 10 5 4 6 8 7 2 9 1 10 3 11
REMARK H PARENT 8 8
REMARK Flexibility Score: inf
ROOT
ATOM      1  C   UNL     1     -94.784 146.857 241.255  1.00  0.00     0.115 A 
ATOM      2  C   UNL     1     -94.572 148.147 240.752  1.00  0.00     0.047 A 
ATOM      3  C   UNL     1     -95.963 146.570 241.948  1.00  0.00     0.047 A 
ATOM      4  C   UNL     1     -95.533 149.144 240.943  1.00  0.00     0.014 A 
ATOM      5  C   UNL     1     -96.928 147.565 242.141  1.00  0.00     0.014 A 
ATOM      6  C   UNL     1     -96.723 148.862 241.641  1.00  0.00    -0.003 A 
ENDROOT
BRANCH   1   7
ATOM      7  O   UNL     1     -93.833 145.857 241.071  1.00  0.00    -0.508 OA
ATOM      8  H   UNL     1     -92.840 146.062 241.080  1.00  0.00     0.293 HD
ENDBRANCH   1   7
BRANCH   6   9
ATOM      9  C   UNL     1     -97.744 149.912 241.846  1.00  0.00     0.071 C 
ATOM     10  O   UNL     1     -98.171 150.590 240.874  1.00  0.00    -0.545 OA
ATOM     11  O   UNL     1     -98.247 150.167 243.117  1.00  0.00    -0.545 OA
ENDBRANCH   6   9
TORSDOF 2
ENDMDL
MODEL 4
REMARK VINA RESULT:    -3.723      2.035      3.030
REMARK INTER + INTRA:          -4.083
REMARK INTER:                  -4.053
REMARK INTRA:                  -0.030
REMARK UNBOUND:                -0.034
REMARK SMILES O=C([O-])c1ccc(O)cc1
REMARK SMILES IDX 7 1 6 2 9 3 5 4 10 5 4 6 8 7 2 9 1 10 3 11
REMARK H PARENT 8 8
REMARK Flexibility Score: inf
ROOT
ATOM      1  C   UNL     1     -94.764 146.954 241.250  1.00  0.00     0.115 A 
ATOM      2  C   UNL     1     -95.938 146.626 241.938  1.00  0.00     0.047 A 
ATOM      3  C   UNL     1     -94.590 148.250 240.755  1.00  0.00     0.047 A 
ATOM      4  C   UNL     1     -96.933 147.588 242.132  1.00  0.00     0.014 A 
ATOM      5  C   UNL     1     -95.584 149.216 240.947  1.00  0.00     0.014 A 
ATOM      6  C   UNL     1     -96.766 148.895 241.637  1.00  0.00    -0.003 A 
ENDROOT
BRANCH   1   7
ATOM      7  O   UNL     1     -93.766 146.003 241.051  1.00  0.00    -0.508 OA
ATOM      8  H   UNL     1     -93.568 145.628 240.130  1.00  0.00     0.293 HD
ENDBRANCH   1   7
BRANCH   6   9
ATOM      9  C   UNL     1     -97.815 149.919 241.838  1.00  0.00     0.071 C 
ATOM     10  O   UNL     1     -98.234 150.606 240.869  1.00  0.00    -0.545 OA
ATOM     11  O   UNL     1     -98.351 150.138 243.102  1.00  0.00    -0.545 OA
ENDBRANCH   6   9
TORSDOF 2
ENDMDL
MODEL 5
REMARK VINA RESULT:    -3.716      1.578      4.659
REMARK INTER + INTRA:          -4.076
REMARK INTER:                  -4.040
REMARK INTRA:                  -0.036
REMARK UNBOUND:                -0.034
REMARK SMILES O=C([O-])c1ccc(O)cc1
REMARK SMILES IDX 7 1 6 2 9 3 5 4 10 5 4 6 8 7 2 9 1 10 3 11
REMARK H PARENT 8 8
REMARK Flexibility Score: inf
ROOT
ATOM      1  C   UNL     1     -96.788 149.160 241.941  1.00  0.00     0.115 A 
ATOM      2  C   UNL     1     -96.937 147.815 242.301  1.00  0.00     0.047 A 
ATOM      3  C   UNL     1     -95.752 149.536 241.080  1.00  0.00     0.047 A 
ATOM      4  C   UNL     1     -96.054 146.852 241.804  1.00  0.00     0.014 A 
ATOM      5  C   UNL     1     -94.867 148.575 240.581  1.00  0.00     0.014 A 
ATOM      6  C   UNL     1     -95.009 147.223 240.937  1.00  0.00    -0.003 A 
ENDROOT
BRANCH   1   7
ATOM      7  O   UNL     1     -97.661 150.128 242.430  1.00  0.00    -0.508 OA
ATOM      8  H   UNL     1     -98.206 149.973 243.271  1.00  0.00     0.293 HD
ENDBRANCH   1   7
BRANCH   6   9
ATOM      9  C   UNL     1     -94.072 146.208 240.407  1.00  0.00     0.071 C 
ATOM     10  O   UNL     1     -93.158 146.537 239.605  1.00  0.00    -0.545 OA
ATOM     11  O   UNL     1     -94.188 144.876 240.788  1.00  0.00    -0.545 OA
ENDBRANCH   6   9
TORSDOF 2
ENDMDL
MODEL 6
REMARK VINA RESULT:    -3.679      1.069      4.641
REMARK INTER + INTRA:          -4.036
REMARK INTER:                  -4.006
REMARK INTRA:                  -0.030
REMARK UNBOUND:                -0.034
REMARK SMILES O=C([O-])c1ccc(O)cc1
REMARK SMILES IDX 7 1 6 2 9 3 5 4 10 5 4 6 8 7 2 9 1 10 3 11
REMARK H PARENT 8 8
REMARK Flexibility Score: inf
ROOT
ATOM      1  C   UNL     1     -95.040 147.738 240.688  1.00  0.00     0.115 A 
ATOM      2  C   UNL     1     -94.477 146.491 240.985  1.00  0.00     0.047 A 
ATOM      3  C   UNL     1     -94.658 148.410 239.524  1.00  0.00     0.047 A 
ATOM      4  C   UNL     1     -93.537 145.919 240.123  1.00  0.00     0.014 A 
ATOM      5  C   UNL     1     -93.718 147.841 238.658  1.00  0.00     0.014 A 
ATOM      6  C   UNL     1     -93.148 146.590 238.948  1.00  0.00    -0.003 A 
ENDROOT
BRANCH   1   7
ATOM      7  O   UNL     1     -95.976 148.317 241.541  1.00  0.00    -0.508 OA
ATOM      8  H   UNL     1     -96.966 148.316 241.320  1.00  0.00     0.293 HD
ENDBRANCH   1   7
BRANCH   6   9
ATOM      9  C   UNL     1     -92.155 145.990 238.030  1.00  0.00     0.071 C 
ATOM     10  O   UNL     1     -91.042 145.589 238.463  1.00  0.00    -0.545 OA
ATOM     11  O   UNL     1     -92.436 145.862 236.675  1.00  0.00    -0.545 OA
ENDBRANCH   6   9
TORSDOF 2
ENDMDL
MODEL 7
REMARK VINA RESULT:    -3.679      2.806      3.486
REMARK INTER + INTRA:          -4.035
REMARK INTER:                  -4.008
REMARK INTRA:                  -0.028
REMARK UNBOUND:                -0.034
REMARK SMILES O=C([O-])c1ccc(O)cc1
REMARK SMILES IDX 7 1 6 2 9 3 5 4 10 5 4 6 8 7 2 9 1 10 3 11
REMARK H PARENT 8 8
REMARK Flexibility Score: inf
ROOT
ATOM      1  C   UNL     1     -92.919 146.418 238.615  1.00  0.00     0.115 A 
ATOM      2  C   UNL     1     -93.445 147.481 239.359  1.00  0.00     0.047 A 
ATOM      3  C   UNL     1     -93.296 146.254 237.279  1.00  0.00     0.047 A 
ATOM      4  C   UNL     1     -94.343 148.376 238.770  1.00  0.00     0.014 A 
ATOM      5  C   UNL     1     -94.194 147.147 236.686  1.00  0.00     0.014 A 
ATOM      6  C   UNL     1     -94.727 148.218 237.425  1.00  0.00    -0.003 A 
ENDROOT
BRANCH   1   7
ATOM      7  O   UNL     1     -92.024 145.520 239.192  1.00  0.00    -0.508 OA
ATOM      8  H   UNL     1     -91.071 145.789 239.410  1.00  0.00     0.293 HD
ENDBRANCH   1   7
BRANCH   6   9
ATOM      9  C   UNL     1     -95.677 149.161 236.795  1.00  0.00     0.071 C 
ATOM     10  O   UNL     1     -96.901 149.131 237.090  1.00  0.00    -0.545 OA
ATOM     11  O   UNL     1     -95.230 150.095 235.867  1.00  0.00    -0.545 OA
ENDBRANCH   6   9
TORSDOF 2
ENDMDL
MODEL 8
REMARK VINA RESULT:    -3.660      1.807      4.557
REMARK INTER + INTRA:          -4.015
REMARK INTER:                  -3.979
REMARK INTRA:                  -0.036
REMARK UNBOUND:                -0.034
REMARK SMILES O=C([O-])c1ccc(O)cc1
REMARK SMILES IDX 7 1 6 2 9 3 5 4 10 5 4 6 8 7 2 9 1 10 3 11
REMARK H PARENT 8 8
REMARK Flexibility Score: inf
ROOT
ATOM      1  C   UNL     1     -97.157 149.277 242.251  1.00  0.00     0.115 A 
ATOM      2  C   UNL     1     -96.238 149.813 241.340  1.00  0.00     0.047 A 
ATOM      3  C   UNL     1     -97.133 147.909 242.534  1.00  0.00     0.047 A 
ATOM      4  C   UNL     1     -95.301 148.984 240.716  1.00  0.00     0.014 A 
ATOM      5  C   UNL     1     -96.197 147.076 241.912  1.00  0.00     0.014 A 
ATOM      6  C   UNL     1     -95.271 147.605 240.996  1.00  0.00    -0.003 A 
ENDROOT
BRANCH   1   7
ATOM      7  O   UNL     1     -98.095 150.094 242.879  1.00  0.00    -0.508 OA
ATOM      8  H   UNL     1     -98.730 149.728 243.579  1.00  0.00     0.293 HD
ENDBRANCH   1   7
BRANCH   6   9
ATOM      9  C   UNL     1     -94.282 146.723 240.339  1.00  0.00     0.071 C 
ATOM     10  O   UNL     1     -93.512 147.173 239.450  1.00  0.00    -0.545 OA
ATOM     11  O   UNL     1     -94.190 145.382 240.694  1.00  0.00    -0.545 OA
ENDBRANCH   6   9
TORSDOF 2
ENDMDL
MODEL 9
REMARK VINA RESULT:    -3.353      1.950      2.664
REMARK INTER + INTRA:          -3.681
REMARK INTER:                  -3.649
REMARK INTRA:                  -0.032
REMARK UNBOUND:                -0.034
REMARK SMILES O=C([O-])c1ccc(O)cc1
REMARK SMILES IDX 7 1 6 2 9 3 5 4 10 5 4 6 8 7 2 9 1 10 3 11
REMARK H PARENT 8 8
REMARK Flexibility Score: inf
ROOT
ATOM      1  C   UNL     1     -92.828 146.245 236.802  1.00  0.00     0.115 A 
ATOM      2  C   UNL     1     -92.226 145.966 238.035  1.00  0.00     0.047 A 
ATOM      3  C   UNL     1     -93.980 147.034 236.757  1.00  0.00     0.047 A 
ATOM      4  C   UNL     1     -92.775 146.473 239.217  1.00  0.00     0.014 A 
ATOM      5  C   UNL     1     -94.533 147.544 237.936  1.00  0.00     0.014 A 
ATOM      6  C   UNL     1     -93.936 147.269 239.179  1.00  0.00    -0.003 A 
ENDROOT
BRANCH   1   7
ATOM      7  O   UNL     1     -92.289 145.744 235.619  1.00  0.00    -0.508 OA
ATOM      8  H   UNL     1     -91.945 146.361 234.892  1.00  0.00     0.293 HD
ENDBRANCH   1   7
BRANCH   6   9
ATOM      9  C   UNL     1     -94.522 147.809 240.425  1.00  0.00     0.071 C 
ATOM     10  O   UNL     1     -94.522 147.125 241.483  1.00  0.00    -0.545 OA
ATOM     11  O   UNL     1     -95.082 149.081 240.446  1.00  0.00    -0.545 OA
ENDBRANCH   6   9
TORSDOF 2
ENDMDL
