MODEL 1
REMARK VINA RESULT:    -7.772      0.000      0.000
REMARK INTER + INTRA:         -10.192
REMARK INTER:                  -9.817
REMARK INTRA:                  -0.376
REMARK UNBOUND:                -0.376
REMARK SMILES Oc1ccc(CCc2cc(O)cc(O)c2)cc1
REMARK SMILES IDX 6 1 5 2 4 3 3 4 2 5 16 6 17 7 1 8 7 10 8 11 15 12 9 13 13 14
REMARK SMILES IDX 10 15 12 16 14 17 11 19
REMARK H PARENT 1 9 14 18 11 20
REMARK Flexibility Score: inf
ROOT
ATOM      1  C   UNL     1     -31.474  15.922  56.451  1.00  0.00     0.040 C 
ENDROOT
BRANCH   1   2
ATOM      2  C   UNL     1     -32.329  14.941  57.206  1.00  0.00    -0.047 A 
ATOM      3  C   UNL     1     -32.443  13.612  56.764  1.00  0.00     0.007 A 
ATOM      4  C   UNL     1     -33.264  12.711  57.449  1.00  0.00     0.046 A 
ATOM      5  C   UNL     1     -33.986  13.130  58.574  1.00  0.00     0.115 A 
ATOM      6  C   UNL     1     -33.065  15.359  58.327  1.00  0.00     0.007 A 
ATOM      7  C   UNL     1     -33.885  14.455  59.010  1.00  0.00     0.046 A 
BRANCH   5   8
ATOM      8  O   UNL     1     -34.806  12.239  59.263  1.00  0.00    -0.508 OA
ATOM      9  H   UNL     1     -35.811  12.358  59.292  1.00  0.00     0.293 HD
ENDBRANCH   5   8
ENDBRANCH   1   2
BRANCH   1  10
ATOM     10  C   UNL     1     -30.972  17.028  57.383  1.00  0.00     0.040 C 
BRANCH  10  11
ATOM     11  C   UNL     1     -29.988  17.917  56.669  1.00  0.00    -0.040 A 
ATOM     12  C   UNL     1     -28.756  17.402  56.235  1.00  0.00     0.050 A 
ATOM     13  C   UNL     1     -30.320  19.249  56.379  1.00  0.00     0.050 A 
ATOM     14  C   UNL     1     -27.854  18.217  55.541  1.00  0.00     0.119 A 
ATOM     15  C   UNL     1     -29.418  20.068  55.684  1.00  0.00     0.119 A 
ATOM     16  C   UNL     1     -28.187  19.551  55.270  1.00  0.00     0.092 A 
BRANCH  14  17
ATOM     17  O   UNL     1     -26.633  17.692  55.126  1.00  0.00    -0.508 OA
ATOM     18  H   UNL     1     -26.566  16.768  54.714  1.00  0.00     0.293 HD
ENDBRANCH  14  17
BRANCH  15  19
ATOM     19  O   UNL     1     -29.737  21.393  55.400  1.00  0.00    -0.508 OA
ATOM     20  H   UNL     1     -29.200  22.162  55.784  1.00  0.00     0.293 HD
ENDBRANCH  15  19
ENDBRANCH  10  11
ENDBRANCH   1  10
TORSDOF 6
ENDMDL
MODEL 2
REMARK VINA RESULT:    -7.757      0.356      2.357
REMARK INTER + INTRA:         -10.173
REMARK INTER:                  -9.807
REMARK INTRA:                  -0.366
REMARK UNBOUND:                -0.376
REMARK SMILES Oc1ccc(CCc2cc(O)cc(O)c2)cc1
REMARK SMILES IDX 6 1 5 2 4 3 3 4 2 5 16 6 17 7 1 8 7 10 8 11 15 12 9 13 13 14
REMARK SMILES IDX 10 15 12 16 14 17 11 19
REMARK H PARENT 1 9 14 18 11 20
REMARK Flexibility Score: inf
ROOT
ATOM      1  C   UNL     1     -31.464  16.091  56.439  1.00  0.00     0.040 C 
ENDROOT
BRANCH   1   2
ATOM      2  C   UNL     1     -32.317  15.065  57.134  1.00  0.00    -0.047 A 
ATOM      3  C   UNL     1     -33.047  15.409  58.283  1.00  0.00     0.007 A 
ATOM      4  C   UNL     1     -33.814  14.446  58.947  1.00  0.00     0.046 A 
ATOM      5  C   UNL     1     -33.850  13.128  58.474  1.00  0.00     0.115 A 
ATOM      6  C   UNL     1     -32.347  13.739  56.671  1.00  0.00     0.007 A 
ATOM      7  C   UNL     1     -33.115  12.777  57.337  1.00  0.00     0.046 A 
BRANCH   5   8
ATOM      8  O   UNL     1     -34.611  12.160  59.126  1.00  0.00    -0.508 OA
ATOM      9  H   UNL     1     -35.548  12.357  59.457  1.00  0.00     0.293 HD
ENDBRANCH   5   8
ENDBRANCH   1   2
BRANCH   1  10
ATOM     10  C   UNL     1     -30.892  17.088  57.451  1.00  0.00     0.040 C 
BRANCH  10  11
ATOM     11  C   UNL     1     -29.875  17.984  56.794  1.00  0.00    -0.040 A 
ATOM     12  C   UNL     1     -30.243  19.265  56.350  1.00  0.00     0.050 A 
ATOM     13  C   UNL     1     -28.540  17.569  56.675  1.00  0.00     0.050 A 
ATOM     14  C   UNL     1     -29.292  20.112  55.770  1.00  0.00     0.119 A 
ATOM     15  C   UNL     1     -27.585  18.417  56.094  1.00  0.00     0.119 A 
ATOM     16  C   UNL     1     -27.964  19.684  55.640  1.00  0.00     0.092 A 
BRANCH  14  17
ATOM     17  O   UNL     1     -29.677  21.375  55.327  1.00  0.00    -0.508 OA
ATOM     18  H   UNL     1     -29.612  21.637  54.350  1.00  0.00     0.293 HD
ENDBRANCH  14  17
BRANCH  15  19
ATOM     19  O   UNL     1     -26.260  18.009  55.965  1.00  0.00    -0.508 OA
ATOM     20  H   UNL     1     -25.645  17.942  56.768  1.00  0.00     0.293 HD
ENDBRANCH  15  19
ENDBRANCH  10  11
ENDBRANCH   1  10
TORSDOF 6
ENDMDL
MODEL 3
REMARK VINA RESULT:    -7.750      0.322      2.043
REMARK INTER + INTRA:         -10.164
REMARK INTER:                  -9.802
REMARK INTRA:                  -0.362
REMARK UNBOUND:                -0.376
REMARK SMILES Oc1ccc(CCc2cc(O)cc(O)c2)cc1
REMARK SMILES IDX 6 1 5 2 4 3 3 4 2 5 16 6 17 7 1 8 7 10 8 11 15 12 9 13 13 14
REMARK SMILES IDX 10 15 12 16 14 17 11 19
REMARK H PARENT 1 9 14 18 11 20
REMARK Flexibility Score: inf
ROOT
ATOM      1  C   UNL     1     -31.487  16.140  56.433  1.00  0.00     0.040 C 
ENDROOT
BRANCH   1   2
ATOM      2  C   UNL     1     -32.290  15.091  57.153  1.00  0.00    -0.047 A 
ATOM      3  C   UNL     1     -32.331  13.772  56.669  1.00  0.00     0.007 A 
ATOM      4  C   UNL     1     -33.105  12.806  57.321  1.00  0.00     0.046 A 
ATOM      5  C   UNL     1     -33.851  13.150  58.456  1.00  0.00     0.115 A 
ATOM      6  C   UNL     1     -33.050  15.433  58.284  1.00  0.00     0.007 A 
ATOM      7  C   UNL     1     -33.822  14.464  58.934  1.00  0.00     0.046 A 
BRANCH   5   8
ATOM      8  O   UNL     1     -34.623  12.195  59.113  1.00  0.00    -0.508 OA
ATOM      9  H   UNL     1     -34.234  11.307  59.404  1.00  0.00     0.293 HD
ENDBRANCH   5   8
ENDBRANCH   1   2
BRANCH   1  10
ATOM     10  C   UNL     1     -30.909  17.151  57.427  1.00  0.00     0.040 C 
BRANCH  10  11
ATOM     11  C   UNL     1     -29.897  18.038  56.751  1.00  0.00    -0.040 A 
ATOM     12  C   UNL     1     -30.258  19.326  56.324  1.00  0.00     0.050 A 
ATOM     13  C   UNL     1     -28.570  17.606  56.595  1.00  0.00     0.050 A 
ATOM     14  C   UNL     1     -29.310  20.165  55.726  1.00  0.00     0.119 A 
ATOM     15  C   UNL     1     -27.618  18.445  55.997  1.00  0.00     0.119 A 
ATOM     16  C   UNL     1     -27.992  19.720  55.561  1.00  0.00     0.092 A 
BRANCH  14  17
ATOM     17  O   UNL     1     -29.689  21.436  55.302  1.00  0.00    -0.508 OA
ATOM     18  H   UNL     1     -30.344  21.998  55.833  1.00  0.00     0.293 HD
ENDBRANCH  14  17
BRANCH  15  19
ATOM     19  O   UNL     1     -26.302  18.021  55.832  1.00  0.00    -0.508 OA
ATOM     20  H   UNL     1     -25.813  17.513  56.560  1.00  0.00     0.293 HD
ENDBRANCH  15  19
ENDBRANCH  10  11
ENDBRANCH   1  10
TORSDOF 6
ENDMDL
MODEL 4
REMARK VINA RESULT:    -7.728      0.155      1.185
REMARK INTER + INTRA:         -10.137
REMARK INTER:                  -9.768
REMARK INTRA:                  -0.369
REMARK UNBOUND:                -0.376
REMARK SMILES Oc1ccc(CCc2cc(O)cc(O)c2)cc1
REMARK SMILES IDX 6 1 5 2 4 3 3 4 2 5 16 6 17 7 1 8 7 10 8 11 15 12 9 13 13 14
REMARK SMILES IDX 10 15 12 16 14 17 11 19
REMARK H PARENT 1 9 14 18 11 20
REMARK Flexibility Score: inf
ROOT
ATOM      1  C   UNL     1     -31.609  16.164  56.392  1.00  0.00     0.040 C 
ENDROOT
BRANCH   1   2
ATOM      2  C   UNL     1     -32.427  15.135  57.124  1.00  0.00    -0.047 A 
ATOM      3  C   UNL     1     -33.088  15.472  58.317  1.00  0.00     0.007 A 
ATOM      4  C   UNL     1     -33.821  14.505  59.014  1.00  0.00     0.046 A 
ATOM      5  C   UNL     1     -33.892  13.193  58.531  1.00  0.00     0.115 A 
ATOM      6  C   UNL     1     -32.491  13.814  56.651  1.00  0.00     0.007 A 
ATOM      7  C   UNL     1     -33.225  12.849  57.350  1.00  0.00     0.046 A 
BRANCH   5   8
ATOM      8  O   UNL     1     -34.619  12.222  59.216  1.00  0.00    -0.508 OA
ATOM      9  H   UNL     1     -34.198  11.661  59.946  1.00  0.00     0.293 HD
ENDBRANCH   5   8
ENDBRANCH   1   2
BRANCH   1  10
ATOM     10  C   UNL     1     -30.854  17.055  57.382  1.00  0.00     0.040 C 
BRANCH  10  11
ATOM     11  C   UNL     1     -29.876  17.941  56.658  1.00  0.00    -0.040 A 
ATOM     12  C   UNL     1     -28.648  17.425  56.213  1.00  0.00     0.050 A 
ATOM     13  C   UNL     1     -30.208  19.274  56.370  1.00  0.00     0.050 A 
ATOM     14  C   UNL     1     -27.751  18.237  55.511  1.00  0.00     0.119 A 
ATOM     15  C   UNL     1     -29.311  20.091  55.665  1.00  0.00     0.119 A 
ATOM     16  C   UNL     1     -28.085  19.571  55.241  1.00  0.00     0.092 A 
BRANCH  14  17
ATOM     17  O   UNL     1     -26.535  17.709  55.085  1.00  0.00    -0.508 OA
ATOM     18  H   UNL     1     -25.850  17.358  55.745  1.00  0.00     0.293 HD
ENDBRANCH  14  17
BRANCH  15  19
ATOM     19  O   UNL     1     -29.631  21.416  55.382  1.00  0.00    -0.508 OA
ATOM     20  H   UNL     1     -30.311  21.927  55.933  1.00  0.00     0.293 HD
ENDBRANCH  15  19
ENDBRANCH  10  11
ENDBRANCH   1  10
TORSDOF 6
ENDMDL
MODEL 5
REMARK VINA RESULT:    -7.717      2.407      6.693
REMARK INTER + INTRA:         -10.123
REMARK INTER:                  -9.557
REMARK INTRA:                  -0.566
REMARK UNBOUND:                -0.376
REMARK SMILES Oc1ccc(CCc2cc(O)cc(O)c2)cc1
REMARK SMILES IDX 6 1 5 2 4 3 3 4 2 5 16 6 17 7 1 8 7 10 8 11 15 12 9 13 13 14
REMARK SMILES IDX 10 15 12 16 14 17 11 19
REMARK H PARENT 1 9 14 18 11 20
REMARK Flexibility Score: inf
ROOT
ATOM      1  C   UNL     1     -30.235  17.354  56.457  1.00  0.00     0.040 C 
ENDROOT
BRANCH   1   2
ATOM      2  C   UNL     1     -28.981  17.624  57.244  1.00  0.00    -0.047 A 
ATOM      3  C   UNL     1     -27.805  16.905  56.972  1.00  0.00     0.007 A 
ATOM      4  C   UNL     1     -26.650  17.134  57.726  1.00  0.00     0.046 A 
ATOM      5  C   UNL     1     -26.661  18.074  58.764  1.00  0.00     0.115 A 
ATOM      6  C   UNL     1     -28.991  18.556  58.294  1.00  0.00     0.007 A 
ATOM      7  C   UNL     1     -27.833  18.783  59.046  1.00  0.00     0.046 A 
BRANCH   5   8
ATOM      8  O   UNL     1     -25.516  18.310  59.521  1.00  0.00    -0.508 OA
ATOM      9  H   UNL     1     -24.628  18.527  59.085  1.00  0.00     0.293 HD
ENDBRANCH   5   8
ENDBRANCH   1   2
BRANCH   1  10
ATOM     10  C   UNL     1     -31.430  17.170  57.397  1.00  0.00     0.040 C 
BRANCH  10  11
ATOM     11  C   UNL     1     -31.941  15.755  57.332  1.00  0.00    -0.040 A 
ATOM     12  C   UNL     1     -31.525  14.899  56.300  1.00  0.00     0.050 A 
ATOM     13  C   UNL     1     -32.789  15.263  58.336  1.00  0.00     0.050 A 
ATOM     14  C   UNL     1     -31.971  13.573  56.256  1.00  0.00     0.119 A 
ATOM     15  C   UNL     1     -33.238  13.934  58.296  1.00  0.00     0.119 A 
ATOM     16  C   UNL     1     -32.831  13.095  57.254  1.00  0.00     0.092 A 
BRANCH  14  17
ATOM     17  O   UNL     1     -31.555  12.742  55.220  1.00  0.00    -0.508 OA
ATOM     18  H   UNL     1     -30.573  12.565  55.044  1.00  0.00     0.293 HD
ENDBRANCH  14  17
BRANCH  15  19
ATOM     19  O   UNL     1     -34.086  13.441  59.284  1.00  0.00    -0.508 OA
ATOM     20  H   UNL     1     -35.086  13.608  59.257  1.00  0.00     0.293 HD
ENDBRANCH  15  19
ENDBRANCH  10  11
ENDBRANCH   1  10
TORSDOF 6
ENDMDL
MODEL 6
REMARK VINA RESULT:    -7.668      2.386      6.818
REMARK INTER + INTRA:         -10.061
REMARK INTER:                  -9.490
REMARK INTRA:                  -0.572
REMARK UNBOUND:                -0.376
REMARK SMILES Oc1ccc(CCc2cc(O)cc(O)c2)cc1
REMARK SMILES IDX 6 1 5 2 4 3 3 4 2 5 16 6 17 7 1 8 7 10 8 11 15 12 9 13 13 14
REMARK SMILES IDX 10 15 12 16 14 17 11 19
REMARK H PARENT 1 9 14 18 11 20
REMARK Flexibility Score: inf
ROOT
ATOM      1  C   UNL     1     -30.301  17.418  56.417  1.00  0.00     0.040 C 
ENDROOT
BRANCH   1   2
ATOM      2  C   UNL     1     -29.046  17.668  57.208  1.00  0.00    -0.047 A 
ATOM      3  C   UNL     1     -27.890  16.907  56.964  1.00  0.00     0.007 A 
ATOM      4  C   UNL     1     -26.735  17.118  57.722  1.00  0.00     0.046 A 
ATOM      5  C   UNL     1     -26.725  18.083  58.737  1.00  0.00     0.115 A 
ATOM      6  C   UNL     1     -29.035  18.625  58.236  1.00  0.00     0.007 A 
ATOM      7  C   UNL     1     -27.877  18.834  58.993  1.00  0.00     0.046 A 
BRANCH   5   8
ATOM      8  O   UNL     1     -25.579  18.301  59.498  1.00  0.00    -0.508 OA
ATOM      9  H   UNL     1     -24.677  18.459  59.065  1.00  0.00     0.293 HD
ENDBRANCH   5   8
ENDBRANCH   1   2
BRANCH   1  10
ATOM     10  C   UNL     1     -31.490  17.185  57.354  1.00  0.00     0.040 C 
BRANCH  10  11
ATOM     11  C   UNL     1     -31.934  15.747  57.299  1.00  0.00    -0.040 A 
ATOM     12  C   UNL     1     -32.807  15.239  58.274  1.00  0.00     0.050 A 
ATOM     13  C   UNL     1     -31.525  14.921  56.240  1.00  0.00     0.050 A 
ATOM     14  C   UNL     1     -33.248  13.913  58.206  1.00  0.00     0.119 A 
ATOM     15  C   UNL     1     -31.966  13.591  56.170  1.00  0.00     0.119 A 
ATOM     16  C   UNL     1     -32.822  13.090  57.154  1.00  0.00     0.092 A 
BRANCH  14  17
ATOM     17  O   UNL     1     -34.107  13.424  59.187  1.00  0.00    -0.508 OA
ATOM     18  H   UNL     1     -34.151  13.842  60.109  1.00  0.00     0.293 HD
ENDBRANCH  14  17
BRANCH  15  19
ATOM     19  O   UNL     1     -31.558  12.763  55.127  1.00  0.00    -0.508 OA
ATOM     20  H   UNL     1     -30.774  12.130  55.229  1.00  0.00     0.293 HD
ENDBRANCH  15  19
ENDBRANCH  10  11
ENDBRANCH   1  10
TORSDOF 6
ENDMDL
MODEL 7
REMARK VINA RESULT:    -7.666      2.202      2.802
REMARK INTER + INTRA:         -10.058
REMARK INTER:                  -9.595
REMARK INTRA:                  -0.463
REMARK UNBOUND:                -0.376
REMARK SMILES Oc1ccc(CCc2cc(O)cc(O)c2)cc1
REMARK SMILES IDX 6 1 5 2 4 3 3 4 2 5 16 6 17 7 1 8 7 10 8 11 15 12 9 13 13 14
REMARK SMILES IDX 10 15 12 16 14 17 11 19
REMARK H PARENT 1 9 14 18 11 20
REMARK Flexibility Score: inf
ROOT
ATOM      1  C   UNL     1     -31.588  16.357  57.721  1.00  0.00     0.040 C 
ENDROOT
BRANCH   1   2
ATOM      2  C   UNL     1     -32.882  15.781  57.210  1.00  0.00    -0.047 A 
ATOM      3  C   UNL     1     -33.329  16.083  55.913  1.00  0.00     0.007 A 
ATOM      4  C   UNL     1     -34.548  15.575  55.452  1.00  0.00     0.046 A 
ATOM      5  C   UNL     1     -35.335  14.769  56.285  1.00  0.00     0.115 A 
ATOM      6  C   UNL     1     -33.681  14.984  58.046  1.00  0.00     0.007 A 
ATOM      7  C   UNL     1     -34.899  14.476  57.581  1.00  0.00     0.046 A 
BRANCH   5   8
ATOM      8  O   UNL     1     -36.550  14.257  55.835  1.00  0.00    -0.508 OA
ATOM      9  H   UNL     1     -36.712  14.061  54.855  1.00  0.00     0.293 HD
ENDBRANCH   5   8
ENDBRANCH   1   2
BRANCH   1  10
ATOM     10  C   UNL     1     -30.700  16.801  56.556  1.00  0.00     0.040 C 
BRANCH  10  11
ATOM     11  C   UNL     1     -30.065  18.134  56.853  1.00  0.00    -0.040 A 
ATOM     12  C   UNL     1     -30.079  19.155  55.890  1.00  0.00     0.050 A 
ATOM     13  C   UNL     1     -29.505  18.384  58.116  1.00  0.00     0.050 A 
ATOM     14  C   UNL     1     -29.519  20.405  56.176  1.00  0.00     0.119 A 
ATOM     15  C   UNL     1     -28.943  19.636  58.405  1.00  0.00     0.119 A 
ATOM     16  C   UNL     1     -28.948  20.641  57.434  1.00  0.00     0.092 A 
BRANCH  14  17
ATOM     17  O   UNL     1     -29.535  21.403  55.205  1.00  0.00    -0.508 OA
ATOM     18  H   UNL     1     -30.235  21.418  54.472  1.00  0.00     0.293 HD
ENDBRANCH  14  17
BRANCH  15  19
ATOM     19  O   UNL     1     -28.379  19.889  59.653  1.00  0.00    -0.508 OA
ATOM     20  H   UNL     1     -28.496  19.247  60.428  1.00  0.00     0.293 HD
ENDBRANCH  15  19
ENDBRANCH  10  11
ENDBRANCH   1  10
TORSDOF 6
ENDMDL
MODEL 8
REMARK VINA RESULT:    -7.641      2.544      6.982
REMARK INTER + INTRA:         -10.027
REMARK INTER:                  -9.445
REMARK INTRA:                  -0.582
REMARK UNBOUND:                -0.376
REMARK SMILES Oc1ccc(CCc2cc(O)cc(O)c2)cc1
REMARK SMILES IDX 6 1 5 2 4 3 3 4 2 5 16 6 17 7 1 8 7 10 8 11 15 12 9 13 13 14
REMARK SMILES IDX 10 15 12 16 14 17 11 19
REMARK H PARENT 1 9 14 18 11 20
REMARK Flexibility Score: inf
ROOT
ATOM      1  C   UNL     1     -30.115  17.306  57.365  1.00  0.00     0.040 C 
ENDROOT
BRANCH   1   2
ATOM      2  C   UNL     1     -30.121  18.787  57.633  1.00  0.00    -0.047 A 
ATOM      3  C   UNL     1     -30.187  19.270  58.951  1.00  0.00     0.007 A 
ATOM      4  C   UNL     1     -30.227  20.646  59.197  1.00  0.00     0.046 A 
ATOM      5  C   UNL     1     -30.211  21.552  58.129  1.00  0.00     0.115 A 
ATOM      6  C   UNL     1     -30.119  19.700  56.566  1.00  0.00     0.007 A 
ATOM      7  C   UNL     1     -30.158  21.076  56.815  1.00  0.00     0.046 A 
BRANCH   5   8
ATOM      8  O   UNL     1     -30.250  22.925  58.362  1.00  0.00    -0.508 OA
ATOM      9  H   UNL     1     -29.691  23.355  59.090  1.00  0.00     0.293 HD
ENDBRANCH   5   8
ENDBRANCH   1   2
BRANCH   1  10
ATOM     10  C   UNL     1     -31.140  16.951  56.285  1.00  0.00     0.040 C 
BRANCH  10  11
ATOM     11  C   UNL     1     -32.278  16.161  56.875  1.00  0.00    -0.040 A 
ATOM     12  C   UNL     1     -32.201  15.687  58.195  1.00  0.00     0.050 A 
ATOM     13  C   UNL     1     -33.448  15.942  56.131  1.00  0.00     0.050 A 
ATOM     14  C   UNL     1     -33.271  14.982  58.757  1.00  0.00     0.119 A 
ATOM     15  C   UNL     1     -34.522  15.236  56.692  1.00  0.00     0.119 A 
ATOM     16  C   UNL     1     -34.429  14.755  58.001  1.00  0.00     0.092 A 
BRANCH  14  17
ATOM     17  O   UNL     1     -33.173  14.513  60.065  1.00  0.00    -0.508 OA
ATOM     18  H   UNL     1     -32.277  14.287  60.481  1.00  0.00     0.293 HD
ENDBRANCH  14  17
BRANCH  15  19
ATOM     19  O   UNL     1     -35.682  15.008  55.957  1.00  0.00    -0.508 OA
ATOM     20  H   UNL     1     -36.209  15.771  55.548  1.00  0.00     0.293 HD
ENDBRANCH  15  19
ENDBRANCH  10  11
ENDBRANCH   1  10
TORSDOF 6
ENDMDL
MODEL 9
REMARK VINA RESULT:    -7.586      2.246      2.640
REMARK INTER + INTRA:          -9.957
REMARK INTER:                  -9.507
REMARK INTRA:                  -0.450
REMARK UNBOUND:                -0.376
REMARK SMILES Oc1ccc(CCc2cc(O)cc(O)c2)cc1
REMARK SMILES IDX 6 1 5 2 4 3 3 4 2 5 16 6 17 7 1 8 7 10 8 11 15 12 9 13 13 14
REMARK SMILES IDX 10 15 12 16 14 17 11 19
REMARK H PARENT 1 9 14 18 11 20
REMARK Flexibility Score: inf
ROOT
ATOM      1  C   UNL     1     -31.783  16.434  57.728  1.00  0.00     0.040 C 
ENDROOT
BRANCH   1   2
ATOM      2  C   UNL     1     -33.046  15.832  57.174  1.00  0.00    -0.047 A 
ATOM      3  C   UNL     1     -33.806  14.940  57.949  1.00  0.00     0.007 A 
ATOM      4  C   UNL     1     -34.961  14.355  57.420  1.00  0.00     0.046 A 
ATOM      5  C   UNL     1     -35.362  14.648  56.110  1.00  0.00     0.115 A 
ATOM      6  C   UNL     1     -33.445  16.112  55.857  1.00  0.00     0.007 A 
ATOM      7  C   UNL     1     -34.602  15.526  55.331  1.00  0.00     0.046 A 
BRANCH   5   8
ATOM      8  O   UNL     1     -36.512  14.072  55.574  1.00  0.00    -0.508 OA
ATOM      9  H   UNL     1     -37.379  14.590  55.500  1.00  0.00     0.293 HD
ENDBRANCH   5   8
ENDBRANCH   1   2
BRANCH   1  10
ATOM     10  C   UNL     1     -30.844  16.852  56.593  1.00  0.00     0.040 C 
BRANCH  10  11
ATOM     11  C   UNL     1     -30.219  18.190  56.889  1.00  0.00    -0.040 A 
ATOM     12  C   UNL     1     -29.582  18.417  58.120  1.00  0.00     0.050 A 
ATOM     13  C   UNL     1     -30.217  19.201  55.915  1.00  0.00     0.050 A 
ATOM     14  C   UNL     1     -28.972  19.648  58.385  1.00  0.00     0.119 A 
ATOM     15  C   UNL     1     -29.606  20.436  56.177  1.00  0.00     0.119 A 
ATOM     16  C   UNL     1     -28.989  20.657  57.412  1.00  0.00     0.092 A 
BRANCH  14  17
ATOM     17  O   UNL     1     -28.353  19.857  59.614  1.00  0.00    -0.508 OA
ATOM     18  H   UNL     1     -28.693  20.554  60.267  1.00  0.00     0.293 HD
ENDBRANCH  14  17
BRANCH  15  19
ATOM     19  O   UNL     1     -29.607  21.446  55.219  1.00  0.00    -0.508 OA
ATOM     20  H   UNL     1     -29.649  21.237  54.228  1.00  0.00     0.293 HD
ENDBRANCH  15  19
ENDBRANCH  10  11
ENDBRANCH   1  10
TORSDOF 6
ENDMDL
