MODEL 1
REMARK VINA RESULT:    -3.816      0.000      0.000
REMARK INTER + INTRA:          -5.429
REMARK INTER:                  -4.931
REMARK INTRA:                  -0.498
REMARK UNBOUND:                -0.498
REMARK SMILES C=CC(=O)CCCCC
REMARK SMILES IDX 6 1 7 2 8 3 9 4 5 5 3 6 4 7 2 8 1 9
REMARK H PARENT
REMARK Flexibility Score: inf
ROOT
ATOM      1  C   UNL     1      11.484 -30.077  21.999  1.00  0.00     0.008 C 
ENDROOT
BRANCH   1   2
ATOM      2  C   UNL     1      11.223 -28.850  22.886  1.00  0.00     0.000 C 
BRANCH   2   3
ATOM      3  C   UNL     1      12.135 -28.809  24.122  1.00  0.00    -0.003 C 
ATOM      4  C   UNL     1      12.688 -27.405  24.350  1.00  0.00     0.004 C 
ENDBRANCH   2   3
ENDBRANCH   1   2
BRANCH   1   5
ATOM      5  C   UNL     1      12.654 -30.934  22.504  1.00  0.00     0.080 C 
BRANCH   5   6
ATOM      6  C   UNL     1      13.643 -31.173  21.402  1.00  0.00     0.155 C 
ATOM      7  O   UNL     1      13.375 -32.019  20.505  1.00  0.00    -0.295 OA
BRANCH   6   8
ATOM      8  C   UNL     1      14.933 -30.457  21.398  1.00  0.00     0.039 C 
ATOM      9  C   UNL     1      15.047 -29.186  21.780  1.00  0.00     0.012 C 
ENDBRANCH   6   8
ENDBRANCH   5   6
ENDBRANCH   1   5
TORSDOF 5
ENDMDL
MODEL 2
REMARK VINA RESULT:    -3.726      1.519      1.967
REMARK INTER + INTRA:          -5.312
REMARK INTER:                  -4.932
REMARK INTRA:                  -0.381
REMARK UNBOUND:                -0.498
REMARK SMILES C=CC(=O)CCCCC
REMARK SMILES IDX 6 1 7 2 8 3 9 4 5 5 3 6 4 7 2 8 1 9
REMARK H PARENT
REMARK Flexibility Score: inf
ROOT
ATOM      1  C   UNL     1      12.149 -30.625  22.090  1.00  0.00     0.008 C 
ENDROOT
BRANCH   1   2
ATOM      2  C   UNL     1      11.975 -29.265  22.784  1.00  0.00     0.000 C 
BRANCH   2   3
ATOM      3  C   UNL     1      12.746 -29.176  24.110  1.00  0.00    -0.003 C 
ATOM      4  C   UNL     1      12.605 -27.791  24.734  1.00  0.00     0.004 C 
ENDBRANCH   2   3
ENDBRANCH   1   2
BRANCH   1   5
ATOM      5  C   UNL     1      13.534 -30.788  21.447  1.00  0.00     0.080 C 
BRANCH   5   6
ATOM      6  C   UNL     1      14.184 -32.056  21.916  1.00  0.00     0.155 C 
ATOM      7  O   UNL     1      14.216 -33.055  21.147  1.00  0.00    -0.295 OA
BRANCH   6   8
ATOM      8  C   UNL     1      14.737 -32.141  23.282  1.00  0.00     0.039 C 
ATOM      9  C   UNL     1      14.207 -32.925  24.220  1.00  0.00     0.012 C 
ENDBRANCH   6   8
ENDBRANCH   5   6
ENDBRANCH   1   5
TORSDOF 5
ENDMDL
MODEL 3
REMARK VINA RESULT:    -3.660      1.998      2.742
REMARK INTER + INTRA:          -5.227
REMARK INTER:                  -4.765
REMARK INTRA:                  -0.462
REMARK UNBOUND:                -0.498
REMARK SMILES C=CC(=O)CCCCC
REMARK SMILES IDX 6 1 7 2 8 3 9 4 5 5 3 6 4 7 2 8 1 9
REMARK H PARENT
REMARK Flexibility Score: inf
ROOT
ATOM      1  C   UNL     1      13.602 -30.899  21.414  1.00  0.00     0.008 C 
ENDROOT
BRANCH   1   2
ATOM      2  C   UNL     1      12.121 -30.655  21.745  1.00  0.00     0.000 C 
BRANCH   2   3
ATOM      3  C   UNL     1      11.921 -29.510  22.750  1.00  0.00    -0.003 C 
ATOM      4  C   UNL     1      13.027 -29.506  23.802  1.00  0.00     0.004 C 
ENDBRANCH   2   3
ENDBRANCH   1   2
BRANCH   1   5
ATOM      5  C   UNL     1      13.857 -32.302  20.847  1.00  0.00     0.080 C 
BRANCH   5   6
ATOM      6  C   UNL     1      14.649 -33.124  21.820  1.00  0.00     0.155 C 
ATOM      7  O   UNL     1      15.045 -34.273  21.481  1.00  0.00    -0.295 OA
BRANCH   6   8
ATOM      8  C   UNL     1      14.920 -32.607  23.176  1.00  0.00     0.039 C 
ATOM      9  C   UNL     1      14.309 -33.086  24.259  1.00  0.00     0.012 C 
ENDBRANCH   6   8
ENDBRANCH   5   6
ENDBRANCH   1   5
TORSDOF 5
ENDMDL
MODEL 4
REMARK VINA RESULT:    -3.586      8.813     10.654
REMARK INTER + INTRA:          -5.132
REMARK INTER:                  -4.827
REMARK INTRA:                  -0.305
REMARK UNBOUND:                -0.498
REMARK SMILES C=CC(=O)CCCCC
REMARK SMILES IDX 6 1 7 2 8 3 9 4 5 5 3 6 4 7 2 8 1 9
REMARK H PARENT
REMARK Flexibility Score: inf
ROOT
ATOM      1  C   UNL     1      20.793 -25.560  20.362  1.00  0.00     0.008 C 
ENDROOT
BRANCH   1   2
ATOM      2  C   UNL     1      20.235 -26.967  20.631  1.00  0.00     0.000 C 
BRANCH   2   3
ATOM      3  C   UNL     1      21.341 -28.003  20.881  1.00  0.00    -0.003 C 
ATOM      4  C   UNL     1      20.756 -29.404  21.032  1.00  0.00     0.004 C 
ENDBRANCH   2   3
ENDBRANCH   1   2
BRANCH   1   5
ATOM      5  C   UNL     1      22.193 -25.589  19.733  1.00  0.00     0.080 C 
BRANCH   5   6
ATOM      6  C   UNL     1      23.083 -24.574  20.387  1.00  0.00     0.155 C 
ATOM      7  O   UNL     1      23.999 -24.029  19.712  1.00  0.00    -0.295 OA
BRANCH   6   8
ATOM      8  C   UNL     1      22.914 -24.256  21.819  1.00  0.00     0.039 C 
ATOM      9  C   UNL     1      23.287 -23.088  22.340  1.00  0.00     0.012 C 
ENDBRANCH   6   8
ENDBRANCH   5   6
ENDBRANCH   1   5
TORSDOF 5
ENDMDL
MODEL 5
REMARK VINA RESULT:    -3.561      2.033      4.373
REMARK INTER + INTRA:          -5.099
REMARK INTER:                  -4.886
REMARK INTRA:                  -0.213
REMARK UNBOUND:                -0.498
REMARK SMILES C=CC(=O)CCCCC
REMARK SMILES IDX 6 1 7 2 8 3 9 4 5 5 3 6 4 7 2 8 1 9
REMARK H PARENT
REMARK Flexibility Score: inf
ROOT
ATOM      1  C   UNL     1      14.342 -29.299  22.428  1.00  0.00     0.008 C 
ENDROOT
BRANCH   1   2
ATOM      2  C   UNL     1      14.751 -30.479  21.531  1.00  0.00     0.000 C 
BRANCH   2   3
ATOM      3  C   UNL     1      13.564 -31.382  21.165  1.00  0.00    -0.003 C 
ATOM      4  C   UNL     1      14.039 -32.772  20.753  1.00  0.00     0.004 C 
ENDBRANCH   2   3
ENDBRANCH   1   2
BRANCH   1   5
ATOM      5  C   UNL     1      13.371 -29.713  23.543  1.00  0.00     0.080 C 
BRANCH   5   6
ATOM      6  C   UNL     1      12.440 -28.584  23.872  1.00  0.00     0.155 C 
ATOM      7  O   UNL     1      11.420 -28.394  23.154  1.00  0.00    -0.295 OA
BRANCH   6   8
ATOM      8  C   UNL     1      12.744 -27.681  24.999  1.00  0.00     0.039 C 
ATOM      9  C   UNL     1      13.521 -26.607  24.865  1.00  0.00     0.012 C 
ENDBRANCH   6   8
ENDBRANCH   5   6
ENDBRANCH   1   5
TORSDOF 5
ENDMDL
MODEL 6
REMARK VINA RESULT:    -3.554      2.010      4.348
REMARK INTER + INTRA:          -5.090
REMARK INTER:                  -4.836
REMARK INTRA:                  -0.254
REMARK UNBOUND:                -0.498
REMARK SMILES C=CC(=O)CCCCC
REMARK SMILES IDX 6 1 7 2 8 3 9 4 5 5 3 6 4 7 2 8 1 9
REMARK H PARENT
REMARK Flexibility Score: inf
ROOT
ATOM      1  C   UNL     1      12.735 -30.969  21.402  1.00  0.00     0.008 C 
ENDROOT
BRANCH   1   2
ATOM      2  C   UNL     1      13.467 -31.967  20.492  1.00  0.00     0.000 C 
BRANCH   2   3
ATOM      3  C   UNL     1      14.430 -32.878  21.268  1.00  0.00    -0.003 C 
ATOM      4  C   UNL     1      14.903 -34.041  20.401  1.00  0.00     0.004 C 
ENDBRANCH   2   3
ENDBRANCH   1   2
BRANCH   1   5
ATOM      5  C   UNL     1      13.046 -31.187  22.889  1.00  0.00     0.080 C 
BRANCH   5   6
ATOM      6  C   UNL     1      13.643 -29.947  23.487  1.00  0.00     0.155 C 
ATOM      7  O   UNL     1      14.864 -29.696  23.298  1.00  0.00    -0.295 OA
BRANCH   6   8
ATOM      8  C   UNL     1      12.814 -29.059  24.326  1.00  0.00     0.039 C 
ATOM      9  C   UNL     1      11.751 -28.414  23.850  1.00  0.00     0.012 C 
ENDBRANCH   6   8
ENDBRANCH   5   6
ENDBRANCH   1   5
TORSDOF 5
ENDMDL
MODEL 7
REMARK VINA RESULT:    -3.475      2.273      4.296
REMARK INTER + INTRA:          -4.988
REMARK INTER:                  -4.522
REMARK INTRA:                  -0.466
REMARK UNBOUND:                -0.498
REMARK SMILES C=CC(=O)CCCCC
REMARK SMILES IDX 6 1 7 2 8 3 9 4 5 5 3 6 4 7 2 8 1 9
REMARK H PARENT
REMARK Flexibility Score: inf
ROOT
ATOM      1  C   UNL     1      14.294 -28.732  22.996  1.00  0.00     0.008 C 
ENDROOT
BRANCH   1   2
ATOM      2  C   UNL     1      14.780 -29.559  21.795  1.00  0.00     0.000 C 
BRANCH   2   3
ATOM      3  C   UNL     1      15.055 -31.025  22.160  1.00  0.00    -0.003 C 
ATOM      4  C   UNL     1      14.159 -31.966  21.361  1.00  0.00     0.004 C 
ENDBRANCH   2   3
ENDBRANCH   1   2
BRANCH   1   5
ATOM      5  C   UNL     1      13.071 -29.353  23.685  1.00  0.00     0.080 C 
BRANCH   5   6
ATOM      6  C   UNL     1      11.841 -28.543  23.398  1.00  0.00     0.155 C 
ATOM      7  O   UNL     1      11.624 -27.493  24.062  1.00  0.00    -0.295 OA
BRANCH   6   8
ATOM      8  C   UNL     1      10.875 -29.001  22.380  1.00  0.00     0.039 C 
ATOM      9  C   UNL     1      10.948 -30.205  21.816  1.00  0.00     0.012 C 
ENDBRANCH   6   8
ENDBRANCH   5   6
ENDBRANCH   1   5
TORSDOF 5
ENDMDL
