MODEL 1
REMARK VINA RESULT:    -3.540      0.000      0.000
REMARK INTER + INTRA:          -7.356
REMARK INTER:                  -6.023
REMARK INTRA:                  -1.333
REMARK UNBOUND:                -1.333
REMARK SMILES CCCCCCCCCCCCCC(=O)[O-]
REMARK SMILES IDX 8 1 9 2 10 3 11 4 12 5 13 6 14 7 15 8 16 9 7 10 6 11 5 12
REMARK SMILES IDX 4 13 3 14 2 15 1 16
REMARK H PARENT
REMARK Flexibility Score: inf
ROOT
ATOM      1  C   UNL     1     -17.678  20.650  44.129  1.00  0.00     0.000 C 
ENDROOT
BRANCH   1   2
ATOM      2  C   UNL     1     -18.476  20.061  45.304  1.00  0.00     0.000 C 
BRANCH   2   3
ATOM      3  C   UNL     1     -19.560  21.019  45.827  1.00  0.00     0.000 C 
BRANCH   3   4
ATOM      4  C   UNL     1     -19.520  22.399  45.147  1.00  0.00     0.000 C 
BRANCH   4   5
ATOM      5  C   UNL     1     -20.359  23.497  45.831  1.00  0.00     0.006 C 
BRANCH   5   6
ATOM      6  C   UNL     1     -21.878  23.350  45.650  1.00  0.00     0.053 C 
BRANCH   6   7
ATOM      7  C   UNL     1     -22.473  24.524  44.936  1.00  0.00     0.041 C 
ATOM      8  O   UNL     1     -21.958  25.667  45.055  1.00  0.00    -0.550 OA
ATOM      9  O   UNL     1     -23.615  24.361  44.163  1.00  0.00    -0.550 OA
ENDBRANCH   6   7
ENDBRANCH   5   6
ENDBRANCH   4   5
ENDBRANCH   3   4
ENDBRANCH   2   3
ENDBRANCH   1   2
BRANCH   1  10
ATOM     10  C   UNL     1     -16.219  21.007  44.487  1.00  0.00     0.000 C 
BRANCH  10  11
ATOM     11  C   UNL     1     -15.687  22.178  43.646  1.00  0.00    -0.000 C 
BRANCH  11  12
ATOM     12  C   UNL     1     -16.282  23.510  44.117  1.00  0.00    -0.000 C 
BRANCH  12  13
ATOM     13  C   UNL     1     -16.650  24.401  42.924  1.00  0.00    -0.000 C 
BRANCH  13  14
ATOM     14  C   UNL     1     -17.889  23.859  42.195  1.00  0.00    -0.000 C 
BRANCH  14  15
ATOM     15  C   UNL     1     -19.138  24.722  42.434  1.00  0.00    -0.003 C 
ATOM     16  C   UNL     1     -18.868  26.215  42.254  1.00  0.00     0.004 C 
ENDBRANCH  14  15
ENDBRANCH  13  14
ENDBRANCH  12  13
ENDBRANCH  11  12
ENDBRANCH  10  11
ENDBRANCH   1  10
TORSDOF 12
ENDMDL
MODEL 2
REMARK VINA RESULT:    -3.459      1.649      4.374
REMARK INTER + INTRA:          -7.219
REMARK INTER:                  -5.996
REMARK INTRA:                  -1.222
REMARK UNBOUND:                -1.333
REMARK SMILES CCCCCCCCCCCCCC(=O)[O-]
REMARK SMILES IDX 8 1 9 2 10 3 11 4 12 5 13 6 14 7 15 8 16 9 7 10 6 11 5 12
REMARK SMILES IDX 4 13 3 14 2 15 1 16
REMARK H PARENT
REMARK Flexibility Score: inf
ROOT
ATOM      1  C   UNL     1     -18.131  21.850  44.846  1.00  0.00     0.000 C 
ENDROOT
BRANCH   1   2
ATOM      2  C   UNL     1     -17.639  21.625  43.406  1.00  0.00     0.000 C 
BRANCH   2   3
ATOM      3  C   UNL     1     -18.085  22.739  42.444  1.00  0.00     0.000 C 
BRANCH   3   4
ATOM      4  C   UNL     1     -18.143  24.123  43.114  1.00  0.00     0.000 C 
BRANCH   4   5
ATOM      5  C   UNL     1     -19.472  24.886  42.940  1.00  0.00     0.006 C 
BRANCH   5   6
ATOM      6  C   UNL     1     -19.332  26.415  42.889  1.00  0.00     0.053 C 
BRANCH   6   7
ATOM      7  C   UNL     1     -20.602  27.107  43.277  1.00  0.00     0.041 C 
ATOM      8  O   UNL     1     -20.790  27.468  44.468  1.00  0.00    -0.550 OA
ATOM      9  O   UNL     1     -21.592  27.324  42.327  1.00  0.00    -0.550 OA
ENDBRANCH   6   7
ENDBRANCH   5   6
ENDBRANCH   4   5
ENDBRANCH   3   4
ENDBRANCH   2   3
ENDBRANCH   1   2
BRANCH   1  10
ATOM     10  C   UNL     1     -19.013  20.705  45.387  1.00  0.00     0.000 C 
BRANCH  10  11
ATOM     11  C   UNL     1     -20.288  21.227  46.066  1.00  0.00    -0.000 C 
BRANCH  11  12
ATOM     12  C   UNL     1     -20.559  22.686  45.682  1.00  0.00    -0.000 C 
BRANCH  12  13
ATOM     13  C   UNL     1     -21.997  23.090  46.033  1.00  0.00    -0.000 C 
BRANCH  13  14
ATOM     14  C   UNL     1     -22.400  24.378  45.298  1.00  0.00    -0.000 C 
BRANCH  14  15
ATOM     15  C   UNL     1     -23.663  24.196  44.440  1.00  0.00    -0.003 C 
ATOM     16  C   UNL     1     -24.598  23.118  44.987  1.00  0.00     0.004 C 
ENDBRANCH  14  15
ENDBRANCH  13  14
ENDBRANCH  12  13
ENDBRANCH  11  12
ENDBRANCH  10  11
ENDBRANCH   1  10
TORSDOF 12
ENDMDL
MODEL 3
REMARK VINA RESULT:    -3.445      3.734      5.396
REMARK INTER + INTRA:          -7.194
REMARK INTER:                  -5.708
REMARK INTRA:                  -1.487
REMARK UNBOUND:                -1.333
REMARK SMILES CCCCCCCCCCCCCC(=O)[O-]
REMARK SMILES IDX 8 1 9 2 10 3 11 4 12 5 13 6 14 7 15 8 16 9 7 10 6 11 5 12
REMARK SMILES IDX 4 13 3 14 2 15 1 16
REMARK H PARENT
REMARK Flexibility Score: inf
ROOT
ATOM      1  C   UNL     1     -19.612  21.372  45.662  1.00  0.00     0.000 C 
ENDROOT
BRANCH   1   2
ATOM      2  C   UNL     1     -18.095  21.131  45.589  1.00  0.00     0.000 C 
BRANCH   2   3
ATOM      3  C   UNL     1     -17.644  20.590  44.222  1.00  0.00     0.000 C 
BRANCH   3   4
ATOM      4  C   UNL     1     -17.457  21.699  43.170  1.00  0.00     0.000 C 
BRANCH   4   5
ATOM      5  C   UNL     1     -16.153  22.513  43.292  1.00  0.00     0.006 C 
BRANCH   5   6
ATOM      6  C   UNL     1     -14.888  21.669  43.509  1.00  0.00     0.053 C 
BRANCH   6   7
ATOM      7  C   UNL     1     -13.648  22.408  43.111  1.00  0.00     0.041 C 
ATOM      8  O   UNL     1     -13.563  22.938  41.972  1.00  0.00    -0.550 OA
ATOM      9  O   UNL     1     -12.574  22.483  43.988  1.00  0.00    -0.550 OA
ENDBRANCH   6   7
ENDBRANCH   5   6
ENDBRANCH   4   5
ENDBRANCH   3   4
ENDBRANCH   2   3
ENDBRANCH   1   2
BRANCH   1  10
ATOM     10  C   UNL     1     -20.006  22.864  45.624  1.00  0.00     0.000 C 
BRANCH  10  11
ATOM     11  C   UNL     1     -18.817  23.785  45.941  1.00  0.00    -0.000 C 
BRANCH  11  12
ATOM     12  C   UNL     1     -18.692  24.901  44.898  1.00  0.00    -0.000 C 
BRANCH  12  13
ATOM     13  C   UNL     1     -19.571  24.613  43.674  1.00  0.00    -0.000 C 
BRANCH  13  14
ATOM     14  C   UNL     1     -18.923  25.158  42.392  1.00  0.00    -0.000 C 
BRANCH  14  15
ATOM     15  C   UNL     1     -19.494  26.523  41.977  1.00  0.00    -0.003 C 
ATOM     16  C   UNL     1     -18.432  27.622  41.944  1.00  0.00     0.004 C 
ENDBRANCH  14  15
ENDBRANCH  13  14
ENDBRANCH  12  13
ENDBRANCH  11  12
ENDBRANCH  10  11
ENDBRANCH   1  10
TORSDOF 12
ENDMDL
MODEL 4
REMARK VINA RESULT:    -3.435      1.286      3.911
REMARK INTER + INTRA:          -7.177
REMARK INTER:                  -5.593
REMARK INTRA:                  -1.585
REMARK UNBOUND:                -1.333
REMARK SMILES CCCCCCCCCCCCCC(=O)[O-]
REMARK SMILES IDX 8 1 9 2 10 3 11 4 12 5 13 6 14 7 15 8 16 9 7 10 6 11 5 12
REMARK SMILES IDX 4 13 3 14 2 15 1 16
REMARK H PARENT
REMARK Flexibility Score: inf
ROOT
ATOM      1  C   UNL     1     -18.393  24.153  43.037  1.00  0.00     0.000 C 
ENDROOT
BRANCH   1   2
ATOM      2  C   UNL     1     -19.074  25.095  42.029  1.00  0.00     0.000 C 
BRANCH   2   3
ATOM      3  C   UNL     1     -19.640  26.364  42.689  1.00  0.00     0.000 C 
BRANCH   3   4
ATOM      4  C   UNL     1     -20.180  26.112  44.108  1.00  0.00     0.000 C 
BRANCH   4   5
ATOM      5  C   UNL     1     -21.694  26.340  44.289  1.00  0.00     0.006 C 
BRANCH   5   6
ATOM      6  C   UNL     1     -22.569  25.119  43.968  1.00  0.00     0.053 C 
BRANCH   6   7
ATOM      7  C   UNL     1     -23.427  24.725  45.131  1.00  0.00     0.041 C 
ATOM      8  O   UNL     1     -24.600  24.308  44.941  1.00  0.00    -0.550 OA
ATOM      9  O   UNL     1     -22.940  24.847  46.426  1.00  0.00    -0.550 OA
ENDBRANCH   6   7
ENDBRANCH   5   6
ENDBRANCH   4   5
ENDBRANCH   3   4
ENDBRANCH   2   3
ENDBRANCH   1   2
BRANCH   1  10
ATOM     10  C   UNL     1     -18.116  22.742  42.477  1.00  0.00     0.000 C 
BRANCH  10  11
ATOM     11  C   UNL     1     -17.045  21.997  43.288  1.00  0.00    -0.000 C 
BRANCH  11  12
ATOM     12  C   UNL     1     -17.657  20.827  44.067  1.00  0.00    -0.000 C 
BRANCH  12  13
ATOM     13  C   UNL     1     -18.132  21.278  45.454  1.00  0.00    -0.000 C 
BRANCH  13  14
ATOM     14  C   UNL     1     -19.655  21.125  45.590  1.00  0.00    -0.000 C 
BRANCH  14  15
ATOM     15  C   UNL     1     -20.365  22.470  45.806  1.00  0.00    -0.003 C 
ATOM     16  C   UNL     1     -19.489  23.491  46.531  1.00  0.00     0.004 C 
ENDBRANCH  14  15
ENDBRANCH  13  14
ENDBRANCH  12  13
ENDBRANCH  11  12
ENDBRANCH  10  11
ENDBRANCH   1  10
TORSDOF 12
ENDMDL
MODEL 5
REMARK VINA RESULT:    -3.423      1.855      4.365
REMARK INTER + INTRA:          -7.158
REMARK INTER:                  -6.019
REMARK INTRA:                  -1.138
REMARK UNBOUND:                -1.333
REMARK SMILES CCCCCCCCCCCCCC(=O)[O-]
REMARK SMILES IDX 8 1 9 2 10 3 11 4 12 5 13 6 14 7 15 8 16 9 7 10 6 11 5 12
REMARK SMILES IDX 4 13 3 14 2 15 1 16
REMARK H PARENT
REMARK Flexibility Score: inf
ROOT
ATOM      1  C   UNL     1     -18.363  19.865  45.083  1.00  0.00     0.000 C 
ENDROOT
BRANCH   1   2
ATOM      2  C   UNL     1     -16.885  20.290  45.150  1.00  0.00     0.000 C 
BRANCH   2   3
ATOM      3  C   UNL     1     -16.601  21.580  44.364  1.00  0.00     0.000 C 
BRANCH   3   4
ATOM      4  C   UNL     1     -17.463  21.713  43.095  1.00  0.00     0.000 C 
BRANCH   4   5
ATOM      5  C   UNL     1     -18.434  22.911  43.079  1.00  0.00     0.006 C 
BRANCH   5   6
ATOM      6  C   UNL     1     -17.979  24.093  42.208  1.00  0.00     0.053 C 
BRANCH   6   7
ATOM      7  C   UNL     1     -18.656  25.370  42.601  1.00  0.00     0.041 C 
ATOM      8  O   UNL     1     -18.671  25.736  43.805  1.00  0.00    -0.550 OA
ATOM      9  O   UNL     1     -19.298  26.139  41.639  1.00  0.00    -0.550 OA
ENDBRANCH   6   7
ENDBRANCH   5   6
ENDBRANCH   4   5
ENDBRANCH   3   4
ENDBRANCH   2   3
ENDBRANCH   1   2
BRANCH   1  10
ATOM     10  C   UNL     1     -19.192  20.312  46.306  1.00  0.00     0.000 C 
BRANCH  10  11
ATOM     11  C   UNL     1     -19.913  21.646  46.061  1.00  0.00    -0.000 C 
BRANCH  11  12
ATOM     12  C   UNL     1     -21.323  21.630  46.662  1.00  0.00    -0.000 C 
BRANCH  12  13
ATOM     13  C   UNL     1     -22.137  22.840  46.189  1.00  0.00    -0.000 C 
BRANCH  13  14
ATOM     14  C   UNL     1     -21.260  23.812  45.385  1.00  0.00    -0.000 C 
BRANCH  14  15
ATOM     15  C   UNL     1     -22.080  24.919  44.704  1.00  0.00    -0.003 C 
ATOM     16  C   UNL     1     -23.507  24.481  44.375  1.00  0.00     0.004 C 
ENDBRANCH  14  15
ENDBRANCH  13  14
ENDBRANCH  12  13
ENDBRANCH  11  12
ENDBRANCH  10  11
ENDBRANCH   1  10
TORSDOF 12
ENDMDL
MODEL 6
REMARK VINA RESULT:    -3.422      2.548      4.283
REMARK INTER + INTRA:          -7.155
REMARK INTER:                  -5.559
REMARK INTRA:                  -1.596
REMARK UNBOUND:                -1.333
REMARK SMILES CCCCCCCCCCCCCC(=O)[O-]
REMARK SMILES IDX 8 1 9 2 10 3 11 4 12 5 13 6 14 7 15 8 16 9 7 10 6 11 5 12
REMARK SMILES IDX 4 13 3 14 2 15 1 16
REMARK H PARENT
REMARK Flexibility Score: inf
ROOT
ATOM      1  C   UNL     1     -17.623  20.551  44.363  1.00  0.00     0.000 C 
ENDROOT
BRANCH   1   2
ATOM      2  C   UNL     1     -18.648  21.539  44.945  1.00  0.00     0.000 C 
BRANCH   2   3
ATOM      3  C   UNL     1     -18.760  22.834  44.123  1.00  0.00     0.000 C 
BRANCH   3   4
ATOM      4  C   UNL     1     -18.121  22.715  42.727  1.00  0.00     0.000 C 
BRANCH   4   5
ATOM      5  C   UNL     1     -17.362  23.966  42.240  1.00  0.00     0.006 C 
BRANCH   5   6
ATOM      6  C   UNL     1     -16.984  24.960  43.349  1.00  0.00     0.053 C 
BRANCH   6   7
ATOM      7  C   UNL     1     -17.620  26.299  43.141  1.00  0.00     0.041 C 
ATOM      8  O   UNL     1     -18.664  26.404  42.446  1.00  0.00    -0.550 OA
ATOM      9  O   UNL     1     -17.041  27.436  43.691  1.00  0.00    -0.550 OA
ENDBRANCH   6   7
ENDBRANCH   5   6
ENDBRANCH   4   5
ENDBRANCH   3   4
ENDBRANCH   2   3
ENDBRANCH   1   2
BRANCH   1  10
ATOM     10  C   UNL     1     -16.598  20.039  45.397  1.00  0.00     0.000 C 
BRANCH  10  11
ATOM     11  C   UNL     1     -15.291  20.847  45.365  1.00  0.00    -0.000 C 
BRANCH  11  12
ATOM     12  C   UNL     1     -14.972  21.323  43.944  1.00  0.00    -0.000 C 
BRANCH  12  13
ATOM     13  C   UNL     1     -14.184  22.638  43.967  1.00  0.00    -0.000 C 
BRANCH  13  14
ATOM     14  C   UNL     1     -13.157  22.684  42.826  1.00  0.00    -0.000 C 
BRANCH  14  15
ATOM     15  C   UNL     1     -12.883  24.115  42.336  1.00  0.00    -0.003 C 
ATOM     16  C   UNL     1     -13.470  24.388  40.951  1.00  0.00     0.004 C 
ENDBRANCH  14  15
ENDBRANCH  13  14
ENDBRANCH  12  13
ENDBRANCH  11  12
ENDBRANCH  10  11
ENDBRANCH   1  10
TORSDOF 12
ENDMDL
MODEL 7
REMARK VINA RESULT:    -3.395      3.987      6.407
REMARK INTER + INTRA:          -7.110
REMARK INTER:                  -5.013
REMARK INTRA:                  -2.096
REMARK UNBOUND:                -1.333
REMARK SMILES CCCCCCCCCCCCCC(=O)[O-]
REMARK SMILES IDX 8 1 9 2 10 3 11 4 12 5 13 6 14 7 15 8 16 9 7 10 6 11 5 12
REMARK SMILES IDX 4 13 3 14 2 15 1 16
REMARK H PARENT
REMARK Flexibility Score: inf
ROOT
ATOM      1  C   UNL     1     -18.680  25.184  45.151  1.00  0.00     0.000 C 
ENDROOT
BRANCH   1   2
ATOM      2  C   UNL     1     -17.330  24.636  45.644  1.00  0.00     0.000 C 
BRANCH   2   3
ATOM      3  C   UNL     1     -16.151  25.563  45.301  1.00  0.00     0.000 C 
BRANCH   3   4
ATOM      4  C   UNL     1     -15.093  24.884  44.413  1.00  0.00     0.000 C 
BRANCH   4   5
ATOM      5  C   UNL     1     -14.907  25.506  43.014  1.00  0.00     0.006 C 
BRANCH   5   6
ATOM      6  C   UNL     1     -14.191  24.600  41.999  1.00  0.00     0.053 C 
BRANCH   6   7
ATOM      7  C   UNL     1     -13.017  23.897  42.608  1.00  0.00     0.041 C 
ATOM      8  O   UNL     1     -11.970  24.537  42.890  1.00  0.00    -0.550 OA
ATOM      9  O   UNL     1     -13.069  22.528  42.834  1.00  0.00    -0.550 OA
ENDBRANCH   6   7
ENDBRANCH   5   6
ENDBRANCH   4   5
ENDBRANCH   3   4
ENDBRANCH   2   3
ENDBRANCH   1   2
BRANCH   1  10
ATOM     10  C   UNL     1     -19.357  24.298  44.083  1.00  0.00     0.000 C 
BRANCH  10  11
ATOM     11  C   UNL     1     -18.948  24.696  42.657  1.00  0.00    -0.000 C 
BRANCH  11  12
ATOM     12  C   UNL     1     -17.888  23.739  42.100  1.00  0.00    -0.000 C 
BRANCH  12  13
ATOM     13  C   UNL     1     -18.031  22.341  42.715  1.00  0.00    -0.000 C 
BRANCH  13  14
ATOM     14  C   UNL     1     -16.678  21.826  43.228  1.00  0.00    -0.000 C 
BRANCH  14  15
ATOM     15  C   UNL     1     -16.808  21.037  44.541  1.00  0.00    -0.003 C 
ATOM     16  C   UNL     1     -18.251  20.642  44.853  1.00  0.00     0.004 C 
ENDBRANCH  14  15
ENDBRANCH  13  14
ENDBRANCH  12  13
ENDBRANCH  11  12
ENDBRANCH  10  11
ENDBRANCH   1  10
TORSDOF 12
ENDMDL
MODEL 8
REMARK VINA RESULT:    -3.381      3.368      5.329
REMARK INTER + INTRA:          -7.085
REMARK INTER:                  -5.414
REMARK INTRA:                  -1.671
REMARK UNBOUND:                -1.333
REMARK SMILES CCCCCCCCCCCCCC(=O)[O-]
REMARK SMILES IDX 8 1 9 2 10 3 11 4 12 5 13 6 14 7 15 8 16 9 7 10 6 11 5 12
REMARK SMILES IDX 4 13 3 14 2 15 1 16
REMARK H PARENT
REMARK Flexibility Score: inf
ROOT
ATOM      1  C   UNL     1     -18.006  20.570  44.431  1.00  0.00     0.000 C 
ENDROOT
BRANCH   1   2
ATOM      2  C   UNL     1     -17.471  21.964  44.057  1.00  0.00     0.000 C 
BRANCH   2   3
ATOM      3  C   UNL     1     -17.921  22.418  42.658  1.00  0.00     0.000 C 
BRANCH   3   4
ATOM      4  C   UNL     1     -17.576  23.889  42.365  1.00  0.00     0.000 C 
BRANCH   4   5
ATOM      5  C   UNL     1     -16.777  24.613  43.468  1.00  0.00     0.006 C 
BRANCH   5   6
ATOM      6  C   UNL     1     -15.480  25.282  42.986  1.00  0.00     0.053 C 
BRANCH   6   7
ATOM      7  C   UNL     1     -14.527  24.292  42.391  1.00  0.00     0.041 C 
ATOM      8  O   UNL     1     -13.985  24.522  41.279  1.00  0.00    -0.550 OA
ATOM      9  O   UNL     1     -14.263  23.100  43.053  1.00  0.00    -0.550 OA
ENDBRANCH   6   7
ENDBRANCH   5   6
ENDBRANCH   4   5
ENDBRANCH   3   4
ENDBRANCH   2   3
ENDBRANCH   1   2
BRANCH   1  10
ATOM     10  C   UNL     1     -19.070  20.594  45.549  1.00  0.00     0.000 C 
BRANCH  10  11
ATOM     11  C   UNL     1     -19.407  22.024  45.998  1.00  0.00    -0.000 C 
BRANCH  11  12
ATOM     12  C   UNL     1     -20.918  22.276  45.948  1.00  0.00    -0.000 C 
BRANCH  12  13
ATOM     13  C   UNL     1     -21.221  23.728  45.556  1.00  0.00    -0.000 C 
BRANCH  13  14
ATOM     14  C   UNL     1     -19.925  24.503  45.274  1.00  0.00    -0.000 C 
BRANCH  14  15
ATOM     15  C   UNL     1     -20.190  25.940  44.797  1.00  0.00    -0.003 C 
ATOM     16  C   UNL     1     -20.407  26.031  43.287  1.00  0.00     0.004 C 
ENDBRANCH  14  15
ENDBRANCH  13  14
ENDBRANCH  12  13
ENDBRANCH  11  12
ENDBRANCH  10  11
ENDBRANCH   1  10
TORSDOF 12
ENDMDL
MODEL 9
REMARK VINA RESULT:    -3.373      3.097      5.068
REMARK INTER + INTRA:          -7.073
REMARK INTER:                  -5.536
REMARK INTRA:                  -1.537
REMARK UNBOUND:                -1.333
REMARK SMILES CCCCCCCCCCCCCC(=O)[O-]
REMARK SMILES IDX 8 1 9 2 10 3 11 4 12 5 13 6 14 7 15 8 16 9 7 10 6 11 5 12
REMARK SMILES IDX 4 13 3 14 2 15 1 16
REMARK H PARENT
REMARK Flexibility Score: inf
ROOT
ATOM      1  C   UNL     1     -18.172  25.017  44.399  1.00  0.00     0.000 C 
ENDROOT
BRANCH   1   2
ATOM      2  C   UNL     1     -18.530  23.918  45.415  1.00  0.00     0.000 C 
BRANCH   2   3
ATOM      3  C   UNL     1     -19.409  22.811  44.809  1.00  0.00     0.000 C 
BRANCH   3   4
ATOM      4  C   UNL     1     -19.271  21.465  45.544  1.00  0.00     0.000 C 
BRANCH   4   5
ATOM      5  C   UNL     1     -18.236  20.491  44.948  1.00  0.00     0.006 C 
BRANCH   5   6
ATOM      6  C   UNL     1     -17.551  20.988  43.666  1.00  0.00     0.053 C 
BRANCH   6   7
ATOM      7  C   UNL     1     -16.112  21.334  43.898  1.00  0.00     0.041 C 
ATOM      8  O   UNL     1     -15.547  22.209  43.191  1.00  0.00    -0.550 OA
ATOM      9  O   UNL     1     -15.387  20.666  44.877  1.00  0.00    -0.550 OA
ENDBRANCH   6   7
ENDBRANCH   5   6
ENDBRANCH   4   5
ENDBRANCH   3   4
ENDBRANCH   2   3
ENDBRANCH   1   2
BRANCH   1  10
ATOM     10  C   UNL     1     -18.257  24.554  42.929  1.00  0.00     0.000 C 
BRANCH  10  11
ATOM     11  C   UNL     1     -19.135  25.485  42.079  1.00  0.00    -0.000 C 
BRANCH  11  12
ATOM     12  C   UNL     1     -18.727  26.950  42.267  1.00  0.00    -0.000 C 
BRANCH  12  13
ATOM     13  C   UNL     1     -19.825  27.738  42.993  1.00  0.00    -0.000 C 
BRANCH  13  14
ATOM     14  C   UNL     1     -21.171  27.002  42.918  1.00  0.00    -0.000 C 
BRANCH  14  15
ATOM     15  C   UNL     1     -21.727  26.646  44.306  1.00  0.00    -0.003 C 
ATOM     16  C   UNL     1     -22.203  25.197  44.398  1.00  0.00     0.004 C 
ENDBRANCH  14  15
ENDBRANCH  13  14
ENDBRANCH  12  13
ENDBRANCH  11  12
ENDBRANCH  10  11
ENDBRANCH   1  10
TORSDOF 12
ENDMDL
