MODEL 1
REMARK VINA RESULT:    -8.679      0.000      0.000
REMARK INTER + INTRA:         -10.871
REMARK INTER:                 -10.455
REMARK INTRA:                  -0.416
REMARK UNBOUND:                -0.416
REMARK SMILES O=c1c(O)c(-c2ccc(O)cc2O)oc2cc(O)cc(O)c12
REMARK SMILES IDX 5 1 3 2 2 3 1 4 22 5 20 6 19 7 17 8 16 9 15 10 14 11 6 12
REMARK SMILES IDX 8 13 7 14 9 15 11 16 12 17 10 18 13 20 4 22 21 24 18 26
REMARK H PARENT 10 19 13 21 4 23 21 25 18 27
REMARK Flexibility Score: inf
ROOT
ATOM      1  C   UNL     1     128.841 134.932 112.481  1.00  0.00     0.184 A 
ATOM      2  C   UNL     1     129.707 135.770 113.204  1.00  0.00     0.208 A 
ATOM      3  C   UNL     1     131.093 135.624 113.037  1.00  0.00     0.238 A 
ATOM      4  O   UNL     1     131.864 136.339 113.730  1.00  0.00    -0.285 OA
ATOM      5  C   UNL     1     131.596 134.656 112.135  1.00  0.00     0.111 A 
ATOM      6  C   UNL     1     132.981 134.448 111.858  1.00  0.00     0.134 A 
ATOM      7  C   UNL     1     133.368 133.377 111.044  1.00  0.00     0.093 A 
ATOM      8  C   UNL     1     132.418 132.546 110.445  1.00  0.00     0.123 A 
ATOM      9  C   UNL     1     131.063 132.777 110.662  1.00  0.00     0.094 A 
ATOM     10  C   UNL     1     130.645 133.815 111.499  1.00  0.00     0.146 A 
ATOM     11  O   UNL     1     129.344 133.994 111.688  1.00  0.00    -0.451 OA
ENDROOT
BRANCH   1  12
ATOM     12  C   UNL     1     127.369 135.049 112.591  1.00  0.00     0.063 A 
ATOM     13  C   UNL     1     125.324 134.798 113.887  1.00  0.00     0.047 A 
ATOM     14  C   UNL     1     126.709 134.661 113.772  1.00  0.00     0.020 A 
ATOM     15  C   UNL     1     124.579 135.334 112.829  1.00  0.00     0.119 A 
ATOM     16  C   UNL     1     125.226 135.734 111.658  1.00  0.00     0.093 A 
ATOM     17  C   UNL     1     126.618 135.600 111.532  1.00  0.00     0.130 A 
BRANCH  15  18
ATOM     18  O   UNL     1     123.197 135.474 112.934  1.00  0.00    -0.508 OA
ATOM     19  H   UNL     1     122.697 136.197 112.430  1.00  0.00     0.293 HD
ENDBRANCH  15  18
BRANCH  17  20
ATOM     20  O   UNL     1     127.249 135.998 110.354  1.00  0.00    -0.507 OA
ATOM     21  H   UNL     1     127.901 135.393 109.869  1.00  0.00     0.293 HD
ENDBRANCH  17  20
ENDBRANCH   1  12
BRANCH   2  22
ATOM     22  O   UNL     1     129.187 136.709 114.100  1.00  0.00    -0.502 OA
ATOM     23  H   UNL     1     128.383 136.515 114.685  1.00  0.00     0.293 HD
ENDBRANCH   2  22
BRANCH   6  24
ATOM     24  O   UNL     1     134.004 135.275 112.330  1.00  0.00    -0.507 OA
ATOM     25  H   UNL     1     133.863 136.114 112.871  1.00  0.00     0.293 HD
ENDBRANCH   6  24
BRANCH   8  26
ATOM     26  O   UNL     1     132.812 131.492 109.623  1.00  0.00    -0.508 OA
ATOM     27  H   UNL     1     132.858 131.594 108.616  1.00  0.00     0.293 HD
ENDBRANCH   8  26
TORSDOF 6
ENDMDL
MODEL 2
REMARK VINA RESULT:    -8.667      3.986      4.696
REMARK INTER + INTRA:         -10.856
REMARK INTER:                 -10.532
REMARK INTRA:                  -0.324
REMARK UNBOUND:                -0.416
REMARK SMILES O=c1c(O)c(-c2ccc(O)cc2O)oc2cc(O)cc(O)c12
REMARK SMILES IDX 5 1 3 2 2 3 1 4 22 5 20 6 19 7 17 8 16 9 15 10 14 11 6 12
REMARK SMILES IDX 8 13 7 14 9 15 11 16 12 17 10 18 13 20 4 22 21 24 18 26
REMARK H PARENT 10 19 13 21 4 23 21 25 18 27
REMARK Flexibility Score: inf
ROOT
ATOM      1  C   UNL     1     126.196 135.243 110.392  1.00  0.00     0.184 A 
ATOM      2  C   UNL     1     126.505 136.464 109.769  1.00  0.00     0.208 A 
ATOM      3  C   UNL     1     127.222 136.451 108.563  1.00  0.00     0.238 A 
ATOM      4  O   UNL     1     127.545 137.550 108.039  1.00  0.00    -0.285 OA
ATOM      5  C   UNL     1     127.604 135.217 107.984  1.00  0.00     0.111 A 
ATOM      6  C   UNL     1     128.299 135.083 106.744  1.00  0.00     0.134 A 
ATOM      7  C   UNL     1     128.738 133.819 106.332  1.00  0.00     0.093 A 
ATOM      8  C   UNL     1     128.450 132.676 107.082  1.00  0.00     0.123 A 
ATOM      9  C   UNL     1     127.722 132.790 108.262  1.00  0.00     0.094 A 
ATOM     10  C   UNL     1     127.302 134.041 108.720  1.00  0.00     0.146 A 
ATOM     11  O   UNL     1     126.620 134.105 109.857  1.00  0.00    -0.451 OA
ENDROOT
BRANCH   1  12
ATOM     12  C   UNL     1     125.421 135.184 111.653  1.00  0.00     0.063 A 
ATOM     13  C   UNL     1     123.391 134.588 112.856  1.00  0.00     0.047 A 
ATOM     14  C   UNL     1     124.112 134.670 111.663  1.00  0.00     0.020 A 
ATOM     15  C   UNL     1     123.971 135.009 114.059  1.00  0.00     0.119 A 
ATOM     16  C   UNL     1     125.275 135.509 114.062  1.00  0.00     0.093 A 
ATOM     17  C   UNL     1     126.006 135.597 112.868  1.00  0.00     0.130 A 
BRANCH  15  18
ATOM     18  O   UNL     1     123.260 134.931 115.255  1.00  0.00    -0.508 OA
ATOM     19  H   UNL     1     123.658 134.502 116.082  1.00  0.00     0.293 HD
ENDBRANCH  15  18
BRANCH  17  20
ATOM     20  O   UNL     1     127.305 136.104 112.886  1.00  0.00    -0.507 OA
ATOM     21  H   UNL     1     127.792 136.290 113.755  1.00  0.00     0.293 HD
ENDBRANCH  17  20
ENDBRANCH   1  12
BRANCH   2  22
ATOM     22  O   UNL     1     126.129 137.671 110.367  1.00  0.00    -0.502 OA
ATOM     23  H   UNL     1     125.167 137.883 110.606  1.00  0.00     0.293 HD
ENDBRANCH   2  22
BRANCH   6  24
ATOM     24  O   UNL     1     128.556 136.148 105.875  1.00  0.00    -0.507 OA
ATOM     25  H   UNL     1     128.113 137.052 105.926  1.00  0.00     0.293 HD
ENDBRANCH   6  24
BRANCH   8  26
ATOM     26  O   UNL     1     128.877 131.420 106.656  1.00  0.00    -0.508 OA
ATOM     27  H   UNL     1     129.615 130.920 107.137  1.00  0.00     0.293 HD
ENDBRANCH   8  26
TORSDOF 6
ENDMDL
MODEL 3
REMARK VINA RESULT:    -8.611      1.036      1.199
REMARK INTER + INTRA:         -10.788
REMARK INTER:                 -10.387
REMARK INTRA:                  -0.401
REMARK UNBOUND:                -0.416
REMARK SMILES O=c1c(O)c(-c2ccc(O)cc2O)oc2cc(O)cc(O)c12
REMARK SMILES IDX 5 1 3 2 2 3 1 4 22 5 20 6 19 7 17 8 16 9 15 10 14 11 6 12
REMARK SMILES IDX 8 13 7 14 9 15 11 16 12 17 10 18 13 20 4 22 21 24 18 26
REMARK H PARENT 10 19 13 21 4 23 21 25 18 27
REMARK Flexibility Score: inf
ROOT
ATOM      1  C   UNL     1     129.187 134.595 113.354  1.00  0.00     0.184 A 
ATOM      2  C   UNL     1     130.124 135.508 113.867  1.00  0.00     0.208 A 
ATOM      3  C   UNL     1     131.445 135.467 113.395  1.00  0.00     0.238 A 
ATOM      4  O   UNL     1     132.292 136.250 113.899  1.00  0.00    -0.285 OA
ATOM      5  C   UNL     1     131.809 134.526 112.401  1.00  0.00     0.111 A 
ATOM      6  C   UNL     1     133.109 134.421 111.821  1.00  0.00     0.134 A 
ATOM      7  C   UNL     1     133.388 133.370 110.940  1.00  0.00     0.093 A 
ATOM      8  C   UNL     1     132.397 132.459 110.567  1.00  0.00     0.123 A 
ATOM      9  C   UNL     1     131.110 132.589 111.082  1.00  0.00     0.094 A 
ATOM     10  C   UNL     1     130.809 133.605 111.992  1.00  0.00     0.146 A 
ATOM     11  O   UNL     1     129.572 133.685 112.468  1.00  0.00    -0.451 OA
ENDROOT
BRANCH   1  12
ATOM     12  C   UNL     1     127.772 134.600 113.791  1.00  0.00     0.063 A 
ATOM     13  C   UNL     1     126.030 133.839 115.311  1.00  0.00     0.047 A 
ATOM     14  C   UNL     1     127.359 133.813 114.881  1.00  0.00     0.020 A 
ATOM     15  C   UNL     1     125.097 134.659 114.665  1.00  0.00     0.119 A 
ATOM     16  C   UNL     1     125.500 135.455 113.590  1.00  0.00     0.093 A 
ATOM     17  C   UNL     1     126.832 135.434 113.150  1.00  0.00     0.130 A 
BRANCH  15  18
ATOM     18  O   UNL     1     123.769 134.692 115.087  1.00  0.00    -0.508 OA
ATOM     19  H   UNL     1     123.234 135.552 115.086  1.00  0.00     0.293 HD
ENDBRANCH  15  18
BRANCH  17  20
ATOM     20  O   UNL     1     127.219 136.230 112.071  1.00  0.00    -0.507 OA
ATOM     21  H   UNL     1     128.058 136.795 112.101  1.00  0.00     0.293 HD
ENDBRANCH  17  20
ENDBRANCH   1  12
BRANCH   2  22
ATOM     22  O   UNL     1     129.744 136.419 114.858  1.00  0.00    -0.502 OA
ATOM     23  H   UNL     1     129.786 137.422 114.719  1.00  0.00     0.293 HD
ENDBRANCH   2  22
BRANCH   6  24
ATOM     24  O   UNL     1     134.143 135.332 112.055  1.00  0.00    -0.507 OA
ATOM     25  H   UNL     1     134.210 135.934 112.861  1.00  0.00     0.293 HD
ENDBRANCH   6  24
BRANCH   8  26
ATOM     26  O   UNL     1     132.679 131.425 109.676  1.00  0.00    -0.508 OA
ATOM     27  H   UNL     1     132.028 131.163 108.945  1.00  0.00     0.293 HD
ENDBRANCH   8  26
TORSDOF 6
ENDMDL
MODEL 4
REMARK VINA RESULT:    -8.582      5.055      7.622
REMARK INTER + INTRA:         -10.754
REMARK INTER:                 -10.269
REMARK INTRA:                  -0.485
REMARK UNBOUND:                -0.416
REMARK SMILES O=c1c(O)c(-c2ccc(O)cc2O)oc2cc(O)cc(O)c12
REMARK SMILES IDX 5 1 3 2 2 3 1 4 22 5 20 6 19 7 17 8 16 9 15 10 14 11 6 12
REMARK SMILES IDX 8 13 7 14 9 15 11 16 12 17 10 18 13 20 4 22 21 24 18 26
REMARK H PARENT 10 19 13 21 4 23 21 25 18 27
REMARK Flexibility Score: inf
ROOT
ATOM      1  C   UNL     1     135.209 134.268 114.588  1.00  0.00     0.184 A 
ATOM      2  C   UNL     1     136.142 134.603 113.592  1.00  0.00     0.208 A 
ATOM      3  C   UNL     1     137.495 134.733 113.942  1.00  0.00     0.238 A 
ATOM      4  O   UNL     1     138.317 135.089 113.057  1.00  0.00    -0.285 OA
ATOM      5  C   UNL     1     137.902 134.506 115.280  1.00  0.00     0.111 A 
ATOM      6  C   UNL     1     139.252 134.572 115.739  1.00  0.00     0.134 A 
ATOM      7  C   UNL     1     139.521 134.456 117.107  1.00  0.00     0.093 A 
ATOM      8  C   UNL     1     138.497 134.212 118.026  1.00  0.00     0.123 A 
ATOM      9  C   UNL     1     137.184 134.088 117.580  1.00  0.00     0.094 A 
ATOM     10  C   UNL     1     136.878 134.235 116.225  1.00  0.00     0.146 A 
ATOM     11  O   UNL     1     135.612 134.121 115.844  1.00  0.00    -0.451 OA
ENDROOT
BRANCH   1  12
ATOM     12  C   UNL     1     133.771 134.091 114.283  1.00  0.00     0.063 A 
ATOM     13  C   UNL     1     131.952 132.734 113.400  1.00  0.00     0.047 A 
ATOM     14  C   UNL     1     133.312 132.914 113.663  1.00  0.00     0.020 A 
ATOM     15  C   UNL     1     131.029 133.723 113.762  1.00  0.00     0.119 A 
ATOM     16  C   UNL     1     131.472 134.889 114.389  1.00  0.00     0.093 A 
ATOM     17  C   UNL     1     132.837 135.079 114.656  1.00  0.00     0.130 A 
BRANCH  15  18
ATOM     18  O   UNL     1     129.670 133.553 113.504  1.00  0.00    -0.508 OA
ATOM     19  H   UNL     1     129.328 133.365 112.569  1.00  0.00     0.293 HD
ENDBRANCH  15  18
BRANCH  17  20
ATOM     20  O   UNL     1     133.265 136.252 115.278  1.00  0.00    -0.507 OA
ATOM     21  H   UNL     1     134.211 136.598 115.167  1.00  0.00     0.293 HD
ENDBRANCH  17  20
ENDBRANCH   1  12
BRANCH   2  22
ATOM     22  O   UNL     1     135.714 134.835 112.281  1.00  0.00    -0.502 OA
ATOM     23  H   UNL     1     135.234 135.684 112.009  1.00  0.00     0.293 HD
ENDBRANCH   2  22
BRANCH   6  24
ATOM     24  O   UNL     1     140.356 134.720 114.895  1.00  0.00    -0.507 OA
ATOM     25  H   UNL     1     140.649 135.589 114.476  1.00  0.00     0.293 HD
ENDBRANCH   6  24
BRANCH   8  26
ATOM     26  O   UNL     1     138.777 134.082 119.385  1.00  0.00    -0.508 OA
ATOM     27  H   UNL     1     139.701 134.266 119.756  1.00  0.00     0.293 HD
ENDBRANCH   8  26
TORSDOF 6
ENDMDL
MODEL 5
REMARK VINA RESULT:    -8.455      3.461      5.219
REMARK INTER + INTRA:         -10.600
REMARK INTER:                 -10.120
REMARK INTRA:                  -0.480
REMARK UNBOUND:                -0.416
REMARK SMILES O=c1c(O)c(-c2ccc(O)cc2O)oc2cc(O)cc(O)c12
REMARK SMILES IDX 5 1 3 2 2 3 1 4 22 5 20 6 19 7 17 8 16 9 15 10 14 11 6 12
REMARK SMILES IDX 8 13 7 14 9 15 11 16 12 17 10 18 13 20 4 22 21 24 18 26
REMARK H PARENT 10 19 13 21 4 23 21 25 18 27
REMARK Flexibility Score: inf
ROOT
ATOM      1  C   UNL     1     131.241 133.967 111.668  1.00  0.00     0.184 A 
ATOM      2  C   UNL     1     132.540 133.462 111.847  1.00  0.00     0.208 A 
ATOM      3  C   UNL     1     133.117 133.506 113.125  1.00  0.00     0.238 A 
ATOM      4  O   UNL     1     134.302 133.104 113.268  1.00  0.00    -0.285 OA
ATOM      5  C   UNL     1     132.381 134.036 114.213  1.00  0.00     0.111 A 
ATOM      6  C   UNL     1     132.853 134.094 115.559  1.00  0.00     0.134 A 
ATOM      7  C   UNL     1     132.090 134.756 116.529  1.00  0.00     0.093 A 
ATOM      8  C   UNL     1     130.844 135.304 116.216  1.00  0.00     0.123 A 
ATOM      9  C   UNL     1     130.350 135.200 114.919  1.00  0.00     0.094 A 
ATOM     10  C   UNL     1     131.103 134.579 113.920  1.00  0.00     0.146 A 
ATOM     11  O   UNL     1     130.600 134.512 112.693  1.00  0.00    -0.451 OA
ENDROOT
BRANCH   1  12
ATOM     12  C   UNL     1     130.563 133.929 110.351  1.00  0.00     0.063 A 
ATOM     13  C   UNL     1     129.286 132.718 108.670  1.00  0.00     0.047 A 
ATOM     14  C   UNL     1     129.949 132.746 109.898  1.00  0.00     0.020 A 
ATOM     15  C   UNL     1     129.217 133.872 107.880  1.00  0.00     0.119 A 
ATOM     16  C   UNL     1     129.812 135.054 108.326  1.00  0.00     0.093 A 
ATOM     17  C   UNL     1     130.482 135.092 109.559  1.00  0.00     0.130 A 
BRANCH  15  18
ATOM     18  O   UNL     1     128.558 133.853 106.653  1.00  0.00    -0.508 OA
ATOM     19  H   UNL     1     127.705 134.380 106.500  1.00  0.00     0.293 HD
ENDBRANCH  15  18
BRANCH  17  20
ATOM     20  O   UNL     1     131.077 136.279 109.988  1.00  0.00    -0.507 OA
ATOM     21  H   UNL     1     130.637 136.875 110.679  1.00  0.00     0.293 HD
ENDBRANCH  17  20
ENDBRANCH   1  12
BRANCH   2  22
ATOM     22  O   UNL     1     133.252 132.956 110.755  1.00  0.00    -0.502 OA
ATOM     23  H   UNL     1     134.265 132.951 110.722  1.00  0.00     0.293 HD
ENDBRANCH   2  22
BRANCH   6  24
ATOM     24  O   UNL     1     134.039 133.498 115.997  1.00  0.00    -0.507 OA
ATOM     25  H   UNL     1     134.636 132.918 115.428  1.00  0.00     0.293 HD
ENDBRANCH   6  24
BRANCH   8  26
ATOM     26  O   UNL     1     130.085 135.947 117.191  1.00  0.00    -0.508 OA
ATOM     27  H   UNL     1     129.085 135.801 117.265  1.00  0.00     0.293 HD
ENDBRANCH   8  26
TORSDOF 6
ENDMDL
MODEL 6
REMARK VINA RESULT:    -8.401      3.021      4.512
REMARK INTER + INTRA:         -10.536
REMARK INTER:                 -10.199
REMARK INTRA:                  -0.337
REMARK UNBOUND:                -0.416
REMARK SMILES O=c1c(O)c(-c2ccc(O)cc2O)oc2cc(O)cc(O)c12
REMARK SMILES IDX 5 1 3 2 2 3 1 4 22 5 20 6 19 7 17 8 16 9 15 10 14 11 6 12
REMARK SMILES IDX 8 13 7 14 9 15 11 16 12 17 10 18 13 20 4 22 21 24 18 26
REMARK H PARENT 10 19 13 21 4 23 21 25 18 27
REMARK Flexibility Score: inf
ROOT
ATOM      1  C   UNL     1     130.909 134.631 110.956  1.00  0.00     0.184 A 
ATOM      2  C   UNL     1     130.167 135.164 112.024  1.00  0.00     0.208 A 
ATOM      3  C   UNL     1     130.833 135.517 113.208  1.00  0.00     0.238 A 
ATOM      4  O   UNL     1     130.155 135.941 114.180  1.00  0.00    -0.285 OA
ATOM      5  C   UNL     1     132.236 135.352 113.302  1.00  0.00     0.111 A 
ATOM      6  C   UNL     1     133.020 135.713 114.439  1.00  0.00     0.134 A 
ATOM      7  C   UNL     1     134.381 135.386 114.471  1.00  0.00     0.093 A 
ATOM      8  C   UNL     1     135.000 134.770 113.380  1.00  0.00     0.123 A 
ATOM      9  C   UNL     1     134.256 134.468 112.243  1.00  0.00     0.094 A 
ATOM     10  C   UNL     1     132.888 134.748 112.196  1.00  0.00     0.146 A 
ATOM     11  O   UNL     1     132.214 134.432 111.097  1.00  0.00    -0.451 OA
ENDROOT
BRANCH   1  12
ATOM     12  C   UNL     1     130.273 134.261 109.671  1.00  0.00     0.063 A 
ATOM     13  C   UNL     1     129.326 132.573 108.195  1.00  0.00     0.047 A 
ATOM     14  C   UNL     1     129.952 132.919 109.395  1.00  0.00     0.020 A 
ATOM     15  C   UNL     1     129.002 133.562 107.259  1.00  0.00     0.119 A 
ATOM     16  C   UNL     1     129.304 134.898 107.530  1.00  0.00     0.093 A 
ATOM     17  C   UNL     1     129.934 135.256 108.732  1.00  0.00     0.130 A 
BRANCH  15  18
ATOM     18  O   UNL     1     128.378 133.227 106.059  1.00  0.00    -0.508 OA
ATOM     19  H   UNL     1     127.499 132.722 106.042  1.00  0.00     0.293 HD
ENDBRANCH  15  18
BRANCH  17  20
ATOM     20  O   UNL     1     130.236 136.594 108.985  1.00  0.00    -0.507 OA
ATOM     21  H   UNL     1     130.095 137.313 108.285  1.00  0.00     0.293 HD
ENDBRANCH  17  20
ENDBRANCH   1  12
BRANCH   2  22
ATOM     22  O   UNL     1     128.780 135.305 111.912  1.00  0.00    -0.502 OA
ATOM     23  H   UNL     1     128.291 135.184 111.033  1.00  0.00     0.293 HD
ENDBRANCH   2  22
BRANCH   6  24
ATOM     24  O   UNL     1     132.520 136.413 115.542  1.00  0.00    -0.507 OA
ATOM     25  H   UNL     1     132.795 137.347 115.804  1.00  0.00     0.293 HD
ENDBRANCH   6  24
BRANCH   8  26
ATOM     26  O   UNL     1     136.359 134.464 113.414  1.00  0.00    -0.508 OA
ATOM     27  H   UNL     1     137.064 135.153 113.179  1.00  0.00     0.293 HD
ENDBRANCH   8  26
TORSDOF 6
ENDMDL
MODEL 7
REMARK VINA RESULT:    -8.335      3.502      7.030
REMARK INTER + INTRA:         -10.456
REMARK INTER:                 -10.015
REMARK INTRA:                  -0.441
REMARK UNBOUND:                -0.416
REMARK SMILES O=c1c(O)c(-c2ccc(O)cc2O)oc2cc(O)cc(O)c12
REMARK SMILES IDX 5 1 3 2 2 3 1 4 22 5 20 6 19 7 17 8 16 9 15 10 14 11 6 12
REMARK SMILES IDX 8 13 7 14 9 15 11 16 12 17 10 18 13 20 4 22 21 24 18 26
REMARK H PARENT 10 19 13 21 4 23 21 25 18 27
REMARK Flexibility Score: inf
ROOT
ATOM      1  C   UNL     1     126.496 134.906 110.915  1.00  0.00     0.184 A 
ATOM      2  C   UNL     1     127.190 134.690 112.118  1.00  0.00     0.208 A 
ATOM      3  C   UNL     1     126.464 134.582 113.314  1.00  0.00     0.238 A 
ATOM      4  O   UNL     1     127.095 134.445 114.394  1.00  0.00    -0.285 OA
ATOM      5  C   UNL     1     125.051 134.670 113.290  1.00  0.00     0.111 A 
ATOM      6  C   UNL     1     124.211 134.535 114.436  1.00  0.00     0.134 A 
ATOM      7  C   UNL     1     122.836 134.768 114.315  1.00  0.00     0.093 A 
ATOM      8  C   UNL     1     122.262 135.068 113.077  1.00  0.00     0.123 A 
ATOM      9  C   UNL     1     123.065 135.143 111.943  1.00  0.00     0.094 A 
ATOM     10  C   UNL     1     124.446 134.952 112.037  1.00  0.00     0.146 A 
ATOM     11  O   UNL     1     125.176 135.045 110.933  1.00  0.00    -0.451 OA
ENDROOT
BRANCH   1  12
ATOM     12  C   UNL     1     127.199 135.006 109.615  1.00  0.00     0.063 A 
ATOM     13  C   UNL     1     128.500 133.974 107.835  1.00  0.00     0.047 A 
ATOM     14  C   UNL     1     127.861 133.888 109.074  1.00  0.00     0.020 A 
ATOM     15  C   UNL     1     128.478 135.173 107.113  1.00  0.00     0.119 A 
ATOM     16  C   UNL     1     127.812 136.284 107.635  1.00  0.00     0.093 A 
ATOM     17  C   UNL     1     127.168 136.209 108.880  1.00  0.00     0.130 A 
BRANCH  15  18
ATOM     18  O   UNL     1     129.112 135.268 105.876  1.00  0.00    -0.508 OA
ATOM     19  H   UNL     1     128.586 135.275 105.010  1.00  0.00     0.293 HD
ENDBRANCH  15  18
BRANCH  17  20
ATOM     20  O   UNL     1     126.513 137.329 109.391  1.00  0.00    -0.507 OA
ATOM     21  H   UNL     1     126.838 137.800 110.227  1.00  0.00     0.293 HD
ENDBRANCH  17  20
ENDBRANCH   1  12
BRANCH   2  22
ATOM     22  O   UNL     1     128.587 134.620 112.117  1.00  0.00    -0.502 OA
ATOM     23  H   UNL     1     129.125 134.500 111.267  1.00  0.00     0.293 HD
ENDBRANCH   2  22
BRANCH   6  24
ATOM     24  O   UNL     1     124.670 134.150 115.699  1.00  0.00    -0.507 OA
ATOM     25  H   UNL     1     124.724 134.756 116.502  1.00  0.00     0.293 HD
ENDBRANCH   6  24
BRANCH   8  26
ATOM     26  O   UNL     1     120.890 135.282 112.963  1.00  0.00    -0.508 OA
ATOM     27  H   UNL     1     120.435 136.064 113.421  1.00  0.00     0.293 HD
ENDBRANCH   8  26
TORSDOF 6
ENDMDL
MODEL 8
REMARK VINA RESULT:    -8.104      2.775      4.947
REMARK INTER + INTRA:         -10.177
REMARK INTER:                  -9.705
REMARK INTRA:                  -0.472
REMARK UNBOUND:                -0.416
REMARK SMILES O=c1c(O)c(-c2ccc(O)cc2O)oc2cc(O)cc(O)c12
REMARK SMILES IDX 5 1 3 2 2 3 1 4 22 5 20 6 19 7 17 8 16 9 15 10 14 11 6 12
REMARK SMILES IDX 8 13 7 14 9 15 11 16 12 17 10 18 13 20 4 22 21 24 18 26
REMARK H PARENT 10 19 13 21 4 23 21 25 18 27
REMARK Flexibility Score: inf
ROOT
ATOM      1  C   UNL     1     129.832 134.196 112.244  1.00  0.00     0.184 A 
ATOM      2  C   UNL     1     130.900 135.087 112.446  1.00  0.00     0.208 A 
ATOM      3  C   UNL     1     131.260 135.431 113.758  1.00  0.00     0.238 A 
ATOM      4  O   UNL     1     132.180 136.273 113.931  1.00  0.00    -0.285 OA
ATOM      5  C   UNL     1     130.561 134.866 114.852  1.00  0.00     0.111 A 
ATOM      6  C   UNL     1     130.865 135.114 116.225  1.00  0.00     0.134 A 
ATOM      7  C   UNL     1     130.027 134.601 117.221  1.00  0.00     0.093 A 
ATOM      8  C   UNL     1     128.931 133.796 116.898  1.00  0.00     0.123 A 
ATOM      9  C   UNL     1     128.661 133.500 115.565  1.00  0.00     0.094 A 
ATOM     10  C   UNL     1     129.458 134.027 114.545  1.00  0.00     0.146 A 
ATOM     11  O   UNL     1     129.157 133.730 113.287  1.00  0.00    -0.451 OA
ENDROOT
BRANCH   1  12
ATOM     12  C   UNL     1     129.416 133.772 110.887  1.00  0.00     0.063 A 
ATOM     13  C   UNL     1     129.678 132.304 108.962  1.00  0.00     0.047 A 
ATOM     14  C   UNL     1     130.087 132.724 110.230  1.00  0.00     0.020 A 
ATOM     15  C   UNL     1     128.586 132.918 108.337  1.00  0.00     0.119 A 
ATOM     16  C   UNL     1     127.905 133.950 108.986  1.00  0.00     0.093 A 
ATOM     17  C   UNL     1     128.309 134.380 110.259  1.00  0.00     0.130 A 
BRANCH  15  18
ATOM     18  O   UNL     1     128.170 132.507 107.072  1.00  0.00    -0.508 OA
ATOM     19  H   UNL     1     128.081 133.162 106.304  1.00  0.00     0.293 HD
ENDBRANCH  15  18
BRANCH  17  20
ATOM     20  O   UNL     1     127.624 135.416 110.892  1.00  0.00    -0.507 OA
ATOM     21  H   UNL     1     127.726 135.594 111.884  1.00  0.00     0.293 HD
ENDBRANCH  17  20
ENDBRANCH   1  12
BRANCH   2  22
ATOM     22  O   UNL     1     131.566 135.643 111.350  1.00  0.00    -0.502 OA
ATOM     23  H   UNL     1     132.021 135.075 110.645  1.00  0.00     0.293 HD
ENDBRANCH   2  22
BRANCH   6  24
ATOM     24  O   UNL     1     131.987 135.827 116.658  1.00  0.00    -0.507 OA
ATOM     25  H   UNL     1     132.941 135.519 116.553  1.00  0.00     0.293 HD
ENDBRANCH   6  24
BRANCH   8  26
ATOM     26  O   UNL     1     128.111 133.276 117.897  1.00  0.00    -0.508 OA
ATOM     27  H   UNL     1     127.228 133.711 118.137  1.00  0.00     0.293 HD
ENDBRANCH   8  26
TORSDOF 6
ENDMDL
MODEL 9
REMARK VINA RESULT:    -8.087      2.480      6.082
REMARK INTER + INTRA:         -10.158
REMARK INTER:                  -9.740
REMARK INTRA:                  -0.418
REMARK UNBOUND:                -0.416
REMARK SMILES O=c1c(O)c(-c2ccc(O)cc2O)oc2cc(O)cc(O)c12
REMARK SMILES IDX 5 1 3 2 2 3 1 4 22 5 20 6 19 7 17 8 16 9 15 10 14 11 6 12
REMARK SMILES IDX 8 13 7 14 9 15 11 16 12 17 10 18 13 20 4 22 21 24 18 26
REMARK H PARENT 10 19 13 21 4 23 21 25 18 27
REMARK Flexibility Score: inf
ROOT
ATOM      1  C   UNL     1     130.492 134.650 112.343  1.00  0.00     0.184 A 
ATOM      2  C   UNL     1     129.196 134.570 112.882  1.00  0.00     0.208 A 
ATOM      3  C   UNL     1     128.093 134.687 112.022  1.00  0.00     0.238 A 
ATOM      4  O   UNL     1     126.936 134.671 112.518  1.00  0.00    -0.285 OA
ATOM      5  C   UNL     1     128.298 134.862 110.632  1.00  0.00     0.111 A 
ATOM      6  C   UNL     1     127.254 134.954 109.663  1.00  0.00     0.134 A 
ATOM      7  C   UNL     1     127.571 135.255 108.333  1.00  0.00     0.093 A 
ATOM      8  C   UNL     1     128.899 135.404 107.925  1.00  0.00     0.123 A 
ATOM      9  C   UNL     1     129.927 135.259 108.851  1.00  0.00     0.094 A 
ATOM     10  C   UNL     1     129.642 134.995 110.193  1.00  0.00     0.146 A 
ATOM     11  O   UNL     1     130.652 134.875 111.045  1.00  0.00    -0.451 OA
ENDROOT
BRANCH   1  12
ATOM     12  C   UNL     1     131.699 134.510 113.190  1.00  0.00     0.063 A 
ATOM     13  C   UNL     1     133.443 133.119 114.165  1.00  0.00     0.047 A 
ATOM     14  C   UNL     1     132.288 133.248 113.390  1.00  0.00     0.020 A 
ATOM     15  C   UNL     1     134.032 134.250 114.743  1.00  0.00     0.119 A 
ATOM     16  C   UNL     1     133.463 135.509 114.539  1.00  0.00     0.093 A 
ATOM     17  C   UNL     1     132.302 135.649 113.763  1.00  0.00     0.130 A 
BRANCH  15  18
ATOM     18  O   UNL     1     135.184 134.132 115.518  1.00  0.00    -0.508 OA
ATOM     19  H   UNL     1     135.199 134.414 116.492  1.00  0.00     0.293 HD
ENDBRANCH  15  18
BRANCH  17  20
ATOM     20  O   UNL     1     131.741 136.912 113.574  1.00  0.00    -0.507 OA
ATOM     21  H   UNL     1     132.065 137.720 114.092  1.00  0.00     0.293 HD
ENDBRANCH  17  20
ENDBRANCH   1  12
BRANCH   2  22
ATOM     22  O   UNL     1     129.019 134.410 114.259  1.00  0.00    -0.502 OA
ATOM     23  H   UNL     1     129.173 135.164 114.918  1.00  0.00     0.293 HD
ENDBRANCH   2  22
BRANCH   6  24
ATOM     24  O   UNL     1     125.904 134.730 109.948  1.00  0.00    -0.507 OA
ATOM     25  H   UNL     1     125.443 133.835 109.889  1.00  0.00     0.293 HD
ENDBRANCH   6  24
BRANCH   8  26
ATOM     26  O   UNL     1     129.206 135.688 106.595  1.00  0.00    -0.508 OA
ATOM     27  H   UNL     1     129.893 135.147 106.083  1.00  0.00     0.293 HD
ENDBRANCH   8  26
TORSDOF 6
ENDMDL
