MODEL 1
REMARK VINA RESULT:    -5.662      0.000      0.000
REMARK INTER + INTRA:          -6.230
REMARK INTER:                  -6.158
REMARK INTRA:                  -0.071
REMARK UNBOUND:                -0.071
REMARK SMILES CCc1cccc(O)c1
REMARK SMILES IDX 3 1 9 2 7 3 6 4 5 5 4 6 2 7 1 8 8 9
REMARK H PARENT 8 10
REMARK Flexibility Score: inf
ROOT
ATOM      1  C   UNL     1      13.223 -12.816 -27.281  1.00  0.00    -0.045 A 
ATOM      2  C   UNL     1      12.426 -13.962 -27.127  1.00  0.00     0.049 A 
ATOM      3  C   UNL     1      11.123 -13.993 -27.645  1.00  0.00     0.115 A 
ATOM      4  C   UNL     1      10.619 -12.882 -28.328  1.00  0.00     0.046 A 
ATOM      5  C   UNL     1      11.412 -11.743 -28.498  1.00  0.00     0.004 A 
ATOM      6  C   UNL     1      12.711 -11.711 -27.980  1.00  0.00     0.004 A 
ENDROOT
BRANCH   1   7
ATOM      7  C   UNL     1      14.632 -12.794 -26.753  1.00  0.00     0.032 C 
ATOM      8  C   UNL     1      15.049 -11.373 -26.387  1.00  0.00     0.009 C 
ENDBRANCH   1   7
BRANCH   3   9
ATOM      9  O   UNL     1      10.324 -15.125 -27.489  1.00  0.00    -0.508 OA
ATOM     10  H   UNL     1      10.703 -15.997 -27.142  1.00  0.00     0.293 HD
ENDBRANCH   3   9
TORSDOF 2
ENDMDL
MODEL 2
REMARK VINA RESULT:    -5.620      2.362      3.258
REMARK INTER + INTRA:          -6.185
REMARK INTER:                  -6.114
REMARK INTRA:                  -0.071
REMARK UNBOUND:                -0.071
REMARK SMILES CCc1cccc(O)c1
REMARK SMILES IDX 3 1 9 2 7 3 6 4 5 5 4 6 2 7 1 8 8 9
REMARK H PARENT 8 10
REMARK Flexibility Score: inf
ROOT
ATOM      1  C   UNL     1      11.042 -12.405 -27.502  1.00  0.00    -0.045 A 
ATOM      2  C   UNL     1      11.041 -13.524 -26.653  1.00  0.00     0.049 A 
ATOM      3  C   UNL     1      11.342 -13.379 -25.290  1.00  0.00     0.115 A 
ATOM      4  C   UNL     1      11.634 -12.113 -24.774  1.00  0.00     0.046 A 
ATOM      5  C   UNL     1      11.623 -10.993 -25.611  1.00  0.00     0.004 A 
ATOM      6  C   UNL     1      11.324 -11.137 -26.969  1.00  0.00     0.004 A 
ENDROOT
BRANCH   1   7
ATOM      7  C   UNL     1      10.687 -12.556 -28.957  1.00  0.00     0.032 C 
ATOM      8  C   UNL     1      11.464 -11.557 -29.808  1.00  0.00     0.009 C 
ENDBRANCH   1   7
BRANCH   3   9
ATOM      9  O   UNL     1      11.350 -14.485 -24.443  1.00  0.00    -0.508 OA
ATOM     10  H   UNL     1      10.917 -14.455 -23.528  1.00  0.00     0.293 HD
ENDBRANCH   3   9
TORSDOF 2
ENDMDL
MODEL 3
REMARK VINA RESULT:    -5.587      2.025      2.929
REMARK INTER + INTRA:          -6.148
REMARK INTER:                  -6.072
REMARK INTRA:                  -0.076
REMARK UNBOUND:                -0.071
REMARK SMILES CCc1cccc(O)c1
REMARK SMILES IDX 3 1 9 2 7 3 6 4 5 5 4 6 2 7 1 8 8 9
REMARK H PARENT 8 10
REMARK Flexibility Score: inf
ROOT
ATOM      1  C   UNL     1      12.313 -11.489 -26.605  1.00  0.00    -0.045 A 
ATOM      2  C   UNL     1      11.638 -12.311 -25.687  1.00  0.00     0.049 A 
ATOM      3  C   UNL     1      12.102 -13.608 -25.424  1.00  0.00     0.115 A 
ATOM      4  C   UNL     1      13.247 -14.082 -26.072  1.00  0.00     0.046 A 
ATOM      5  C   UNL     1      13.931 -13.264 -26.977  1.00  0.00     0.004 A 
ATOM      6  C   UNL     1      13.469 -11.971 -27.239  1.00  0.00     0.004 A 
ENDROOT
BRANCH   1   7
ATOM      7  C   UNL     1      11.834 -10.086 -26.862  1.00  0.00     0.032 C 
ATOM      8  C   UNL     1      12.750  -9.377 -27.854  1.00  0.00     0.009 C 
ENDBRANCH   1   7
BRANCH   3   9
ATOM      9  O   UNL     1      11.434 -14.432 -24.520  1.00  0.00    -0.508 OA
ATOM     10  H   UNL     1      11.479 -15.441 -24.589  1.00  0.00     0.293 HD
ENDBRANCH   3   9
TORSDOF 2
ENDMDL
MODEL 4
REMARK VINA RESULT:    -5.509      1.740      2.507
REMARK INTER + INTRA:          -6.064
REMARK INTER:                  -5.989
REMARK INTRA:                  -0.075
REMARK UNBOUND:                -0.071
REMARK SMILES CCc1cccc(O)c1
REMARK SMILES IDX 3 1 9 2 7 3 6 4 5 5 4 6 2 7 1 8 8 9
REMARK H PARENT 8 10
REMARK Flexibility Score: inf
ROOT
ATOM      1  C   UNL     1      11.828 -11.595 -27.520  1.00  0.00    -0.045 A 
ATOM      2  C   UNL     1      11.284 -12.827 -27.919  1.00  0.00     0.049 A 
ATOM      3  C   UNL     1      10.977 -13.808 -26.964  1.00  0.00     0.115 A 
ATOM      4  C   UNL     1      11.206 -13.554 -25.608  1.00  0.00     0.046 A 
ATOM      5  C   UNL     1      11.735 -12.325 -25.203  1.00  0.00     0.004 A 
ATOM      6  C   UNL     1      12.041 -11.347 -26.154  1.00  0.00     0.004 A 
ENDROOT
BRANCH   1   7
ATOM      7  C   UNL     1      12.126 -10.530 -28.541  1.00  0.00     0.032 C 
ATOM      8  C   UNL     1      12.832  -9.343 -27.892  1.00  0.00     0.009 C 
ENDBRANCH   1   7
BRANCH   3   9
ATOM      9  O   UNL     1      10.443 -15.034 -27.353  1.00  0.00    -0.508 OA
ATOM     10  H   UNL     1      10.780 -15.906 -26.963  1.00  0.00     0.293 HD
ENDBRANCH   3   9
TORSDOF 2
ENDMDL
MODEL 5
REMARK VINA RESULT:    -5.399      1.578      2.241
REMARK INTER + INTRA:          -5.944
REMARK INTER:                  -5.868
REMARK INTRA:                  -0.076
REMARK UNBOUND:                -0.071
REMARK SMILES CCc1cccc(O)c1
REMARK SMILES IDX 3 1 9 2 7 3 6 4 5 5 4 6 2 7 1 8 8 9
REMARK H PARENT 8 10
REMARK Flexibility Score: inf
ROOT
ATOM      1  C   UNL     1      12.832 -11.579 -27.295  1.00  0.00    -0.045 A 
ATOM      2  C   UNL     1      13.444 -12.732 -26.775  1.00  0.00     0.049 A 
ATOM      3  C   UNL     1      12.810 -13.978 -26.880  1.00  0.00     0.115 A 
ATOM      4  C   UNL     1      11.567 -14.075 -27.512  1.00  0.00     0.046 A 
ATOM      5  C   UNL     1      10.958 -12.934 -28.044  1.00  0.00     0.004 A 
ATOM      6  C   UNL     1      11.589 -11.691 -27.939  1.00  0.00     0.004 A 
ENDROOT
BRANCH   1   7
ATOM      7  C   UNL     1      13.527 -10.247 -27.211  1.00  0.00     0.032 C 
ATOM      8  C   UNL     1      12.724  -9.173 -27.939  1.00  0.00     0.009 C 
ENDBRANCH   1   7
BRANCH   3   9
ATOM      9  O   UNL     1      13.408 -15.125 -26.361  1.00  0.00    -0.508 OA
ATOM     10  H   UNL     1      13.610 -15.216 -25.373  1.00  0.00     0.293 HD
ENDBRANCH   3   9
TORSDOF 2
ENDMDL
MODEL 6
REMARK VINA RESULT:    -5.323      1.499      2.413
REMARK INTER + INTRA:          -5.862
REMARK INTER:                  -5.810
REMARK INTRA:                  -0.051
REMARK UNBOUND:                -0.071
REMARK SMILES CCc1cccc(O)c1
REMARK SMILES IDX 3 1 9 2 7 3 6 4 5 5 4 6 2 7 1 8 8 9
REMARK H PARENT 8 10
REMARK Flexibility Score: inf
ROOT
ATOM      1  C   UNL     1      12.744 -11.625 -27.403  1.00  0.00    -0.045 A 
ATOM      2  C   UNL     1      11.623 -11.576 -28.248  1.00  0.00     0.049 A 
ATOM      3  C   UNL     1      10.867 -12.732 -28.490  1.00  0.00     0.115 A 
ATOM      4  C   UNL     1      11.226 -13.938 -27.880  1.00  0.00     0.046 A 
ATOM      5  C   UNL     1      12.332 -13.992 -27.027  1.00  0.00     0.004 A 
ATOM      6  C   UNL     1      13.087 -12.840 -26.785  1.00  0.00     0.004 A 
ENDROOT
BRANCH   1   7
ATOM      7  C   UNL     1      13.536 -10.378 -27.117  1.00  0.00     0.032 C 
ATOM      8  C   UNL     1      12.956  -9.186 -27.871  1.00  0.00     0.009 C 
ENDBRANCH   1   7
BRANCH   3   9
ATOM      9  O   UNL     1       9.758 -12.691 -29.332  1.00  0.00    -0.508 OA
ATOM     10  H   UNL     1       8.932 -12.155 -29.095  1.00  0.00     0.293 HD
ENDBRANCH   3   9
TORSDOF 2
ENDMDL
MODEL 7
REMARK VINA RESULT:    -5.321      2.480      3.508
REMARK INTER + INTRA:          -5.859
REMARK INTER:                  -5.807
REMARK INTRA:                  -0.052
REMARK UNBOUND:                -0.071
REMARK SMILES CCc1cccc(O)c1
REMARK SMILES IDX 3 1 9 2 7 3 6 4 5 5 4 6 2 7 1 8 8 9
REMARK H PARENT 8 10
REMARK Flexibility Score: inf
ROOT
ATOM      1  C   UNL     1      12.430 -11.497 -26.564  1.00  0.00    -0.045 A 
ATOM      2  C   UNL     1      13.704 -11.797 -27.073  1.00  0.00     0.049 A 
ATOM      3  C   UNL     1      14.260 -13.071 -26.883  1.00  0.00     0.115 A 
ATOM      4  C   UNL     1      13.538 -14.049 -26.193  1.00  0.00     0.046 A 
ATOM      5  C   UNL     1      12.263 -13.761 -25.696  1.00  0.00     0.004 A 
ATOM      6  C   UNL     1      11.709 -12.492 -25.884  1.00  0.00     0.004 A 
ENDROOT
BRANCH   1   7
ATOM      7  C   UNL     1      11.820 -10.141 -26.796  1.00  0.00     0.032 C 
ATOM      8  C   UNL     1      12.617  -9.361 -27.837  1.00  0.00     0.009 C 
ENDBRANCH   1   7
BRANCH   3   9
ATOM      9  O   UNL     1      15.527 -13.373 -27.379  1.00  0.00    -0.508 OA
ATOM     10  H   UNL     1      16.365 -12.989 -26.961  1.00  0.00     0.293 HD
ENDBRANCH   3   9
TORSDOF 2
ENDMDL
MODEL 8
REMARK VINA RESULT:    -5.300      2.143      3.781
REMARK INTER + INTRA:          -5.837
REMARK INTER:                  -5.777
REMARK INTRA:                  -0.059
REMARK UNBOUND:                -0.071
REMARK SMILES CCc1cccc(O)c1
REMARK SMILES IDX 3 1 9 2 7 3 6 4 5 5 4 6 2 7 1 8 8 9
REMARK H PARENT 8 10
REMARK Flexibility Score: inf
ROOT
ATOM      1  C   UNL     1      12.309 -12.560 -27.525  1.00  0.00    -0.045 A 
ATOM      2  C   UNL     1      13.508 -13.292 -27.543  1.00  0.00     0.049 A 
ATOM      3  C   UNL     1      14.709 -12.694 -27.134  1.00  0.00     0.115 A 
ATOM      4  C   UNL     1      14.711 -11.366 -26.696  1.00  0.00     0.046 A 
ATOM      5  C   UNL     1      13.519 -10.636 -26.662  1.00  0.00     0.004 A 
ATOM      6  C   UNL     1      12.322 -11.231 -27.071  1.00  0.00     0.004 A 
ENDROOT
BRANCH   1   7
ATOM      7  C   UNL     1      11.016 -13.211 -27.933  1.00  0.00     0.032 C 
ATOM      8  C   UNL     1      10.423 -12.514 -29.154  1.00  0.00     0.009 C 
ENDBRANCH   1   7
BRANCH   3   9
ATOM      9  O   UNL     1      15.903 -13.412 -27.156  1.00  0.00    -0.508 OA
ATOM     10  H   UNL     1      16.770 -13.009 -26.821  1.00  0.00     0.293 HD
ENDBRANCH   3   9
TORSDOF 2
ENDMDL
MODEL 9
REMARK VINA RESULT:    -5.111      2.059      2.560
REMARK INTER + INTRA:          -5.630
REMARK INTER:                  -5.575
REMARK INTRA:                  -0.055
REMARK UNBOUND:                -0.071
REMARK SMILES CCc1cccc(O)c1
REMARK SMILES IDX 3 1 9 2 7 3 6 4 5 5 4 6 2 7 1 8 8 9
REMARK H PARENT 8 10
REMARK Flexibility Score: inf
ROOT
ATOM      1  C   UNL     1      11.660 -12.111 -26.676  1.00  0.00    -0.045 A 
ATOM      2  C   UNL     1      10.721 -12.725 -27.522  1.00  0.00     0.049 A 
ATOM      3  C   UNL     1      10.633 -12.352 -28.871  1.00  0.00     0.115 A 
ATOM      4  C   UNL     1      11.491 -11.372 -29.379  1.00  0.00     0.046 A 
ATOM      5  C   UNL     1      12.437 -10.767 -28.547  1.00  0.00     0.004 A 
ATOM      6  C   UNL     1      12.525 -11.137 -27.201  1.00  0.00     0.004 A 
ENDROOT
BRANCH   1   7
ATOM      7  C   UNL     1      11.775 -12.533 -25.237  1.00  0.00     0.032 C 
ATOM      8  C   UNL     1      11.226 -11.452 -24.311  1.00  0.00     0.009 C 
ENDBRANCH   1   7
BRANCH   3   9
ATOM      9  O   UNL     1       9.700 -12.952 -29.714  1.00  0.00    -0.508 OA
ATOM     10  H   UNL     1       9.833 -12.980 -30.718  1.00  0.00     0.293 HD
ENDBRANCH   3   9
TORSDOF 2
ENDMDL
