MODEL 1
REMARK VINA RESULT:    -7.315      0.000      0.000
REMARK INTER + INTRA:          -7.943
REMARK INTER:                  -7.742
REMARK INTRA:                  -0.201
REMARK UNBOUND:                -0.201
REMARK SMILES CC1=C[C@@H]2C(=C(C)CC[C@H]2C(C)C)CC1
REMARK SMILES IDX 1 1 2 2 3 3 4 4 10 5 9 6 8 7 6 8 5 9 14 10 15 11 7 12 11 13
REMARK SMILES IDX 12 14 13 15
REMARK H PARENT
REMARK Flexibility Score: inf
ROOT
ATOM      1  C   UNL     1      -1.151 -13.154  10.607  1.00  0.00     0.039 C 
ATOM      2  C   UNL     1      -2.254 -14.136  10.324  1.00  0.00    -0.076 C 
ATOM      3  C   UNL     1      -2.677 -14.296   9.048  1.00  0.00    -0.020 C 
ATOM      4  C   UNL     1      -3.820 -15.225   8.662  1.00  0.00     0.041 C 
ATOM      5  C   UNL     1      -3.716 -15.687   7.162  1.00  0.00     0.003 C 
ATOM      6  C   UNL     1      -4.186 -17.149   7.005  1.00  0.00     0.009 C 
ATOM      7  C   UNL     1      -3.457 -18.060   7.984  1.00  0.00     0.031 C 
ATOM      8  C   UNL     1      -3.720 -17.643   9.406  1.00  0.00    -0.073 C 
ATOM      9  C   UNL     1      -3.902 -16.331   9.705  1.00  0.00    -0.064 C 
ATOM     10  C   UNL     1      -4.017 -15.809  11.118  1.00  0.00     0.036 C 
ATOM     11  C   UNL     1      -2.746 -15.022  11.460  1.00  0.00     0.035 C 
ATOM     12  C   UNL     1      -3.693 -18.711  10.473  1.00  0.00     0.039 C 
ENDROOT
BRANCH   5  13
ATOM     13  C   UNL     1      -4.523 -14.744   6.196  1.00  0.00    -0.013 C 
ATOM     14  C   UNL     1      -5.545 -15.511   5.338  1.00  0.00     0.007 C 
ATOM     15  C   UNL     1      -5.265 -13.626   6.954  1.00  0.00     0.007 C 
ENDBRANCH   5  13
TORSDOF 1
ENDMDL
MODEL 2
REMARK VINA RESULT:    -7.029      1.402      5.073
REMARK INTER + INTRA:          -7.641
REMARK INTER:                  -7.579
REMARK INTRA:                  -0.062
REMARK UNBOUND:                -0.201
REMARK SMILES CC1=C[C@@H]2C(=C(C)CC[C@H]2C(C)C)CC1
REMARK SMILES IDX 1 1 2 2 3 3 4 4 10 5 9 6 8 7 6 8 5 9 14 10 15 11 7 12 11 13
REMARK SMILES IDX 12 14 13 15
REMARK H PARENT
REMARK Flexibility Score: inf
ROOT
ATOM      1  C   UNL     1      -2.673 -19.124   7.553  1.00  0.00     0.039 C 
ATOM      2  C   UNL     1      -3.295 -17.864   8.090  1.00  0.00    -0.076 C 
ATOM      3  C   UNL     1      -2.651 -17.180   9.066  1.00  0.00    -0.020 C 
ATOM      4  C   UNL     1      -3.219 -15.923   9.712  1.00  0.00     0.041 C 
ATOM      5  C   UNL     1      -2.087 -15.020  10.325  1.00  0.00     0.003 C 
ATOM      6  C   UNL     1      -2.423 -13.524  10.147  1.00  0.00     0.009 C 
ATOM      7  C   UNL     1      -2.744 -13.211   8.691  1.00  0.00     0.031 C 
ATOM      8  C   UNL     1      -3.929 -14.007   8.217  1.00  0.00    -0.073 C 
ATOM      9  C   UNL     1      -4.147 -15.254   8.707  1.00  0.00    -0.064 C 
ATOM     10  C   UNL     1      -5.217 -16.181   8.178  1.00  0.00     0.036 C 
ATOM     11  C   UNL     1      -4.545 -17.325   7.410  1.00  0.00     0.035 C 
ATOM     12  C   UNL     1      -4.799 -13.408   7.138  1.00  0.00     0.039 C 
ENDROOT
BRANCH   5  13
ATOM     13  C   UNL     1      -1.824 -15.348  11.840  1.00  0.00    -0.013 C 
ATOM     14  C   UNL     1      -2.407 -14.282  12.785  1.00  0.00     0.007 C 
ATOM     15  C   UNL     1      -2.390 -16.722  12.249  1.00  0.00     0.007 C 
ENDBRANCH   5  13
TORSDOF 1
ENDMDL
MODEL 3
REMARK VINA RESULT:    -6.826      1.519      2.476
REMARK INTER + INTRA:          -7.426
REMARK INTER:                  -7.092
REMARK INTRA:                  -0.334
REMARK UNBOUND:                -0.201
REMARK SMILES CC1=C[C@@H]2C(=C(C)CC[C@H]2C(C)C)CC1
REMARK SMILES IDX 1 1 2 2 3 3 4 4 10 5 9 6 8 7 6 8 5 9 14 10 15 11 7 12 11 13
REMARK SMILES IDX 12 14 13 15
REMARK H PARENT
REMARK Flexibility Score: inf
ROOT
ATOM      1  C   UNL     1       0.361 -15.489   7.682  1.00  0.00     0.039 C 
ATOM      2  C   UNL     1      -0.874 -15.146   8.470  1.00  0.00    -0.076 C 
ATOM      3  C   UNL     1      -2.088 -15.386   7.921  1.00  0.00    -0.020 C 
ATOM      4  C   UNL     1      -3.398 -15.029   8.612  1.00  0.00     0.041 C 
ATOM      5  C   UNL     1      -4.590 -15.915   8.098  1.00  0.00     0.003 C 
ATOM      6  C   UNL     1      -5.567 -16.242   9.248  1.00  0.00     0.009 C 
ATOM      7  C   UNL     1      -4.822 -16.837  10.437  1.00  0.00     0.031 C 
ATOM      8  C   UNL     1      -3.795 -15.874  10.966  1.00  0.00    -0.073 C 
ATOM      9  C   UNL     1      -3.153 -15.032  10.115  1.00  0.00    -0.064 C 
ATOM     10  C   UNL     1      -2.004 -14.145  10.534  1.00  0.00     0.036 C 
ATOM     11  C   UNL     1      -0.711 -14.685   9.911  1.00  0.00     0.035 C 
ATOM     12  C   UNL     1      -3.455 -15.937  12.436  1.00  0.00     0.039 C 
ENDROOT
BRANCH   5  13
ATOM     13  C   UNL     1      -5.357 -15.239   6.903  1.00  0.00    -0.013 C 
ATOM     14  C   UNL     1      -5.187 -13.709   6.881  1.00  0.00     0.007 C 
ATOM     15  C   UNL     1      -4.916 -15.797   5.535  1.00  0.00     0.007 C 
ENDBRANCH   5  13
TORSDOF 1
ENDMDL
MODEL 4
REMARK VINA RESULT:    -6.519      0.938      4.317
REMARK INTER + INTRA:          -7.101
REMARK INTER:                  -6.809
REMARK INTRA:                  -0.292
REMARK UNBOUND:                -0.201
REMARK SMILES CC1=C[C@@H]2C(=C(C)CC[C@H]2C(C)C)CC1
REMARK SMILES IDX 1 1 2 2 3 3 4 4 10 5 9 6 8 7 6 8 5 9 14 10 15 11 7 12 11 13
REMARK SMILES IDX 12 14 13 15
REMARK H PARENT
REMARK Flexibility Score: inf
ROOT
ATOM      1  C   UNL     1      -5.354 -15.192   5.661  1.00  0.00     0.039 C 
ATOM      2  C   UNL     1      -4.488 -15.837   6.708  1.00  0.00    -0.076 C 
ATOM      3  C   UNL     1      -3.742 -15.048   7.517  1.00  0.00    -0.020 C 
ATOM      4  C   UNL     1      -2.795 -15.602   8.573  1.00  0.00     0.041 C 
ATOM      5  C   UNL     1      -2.536 -14.565   9.726  1.00  0.00     0.003 C 
ATOM      6  C   UNL     1      -2.408 -15.281  11.089  1.00  0.00     0.009 C 
ATOM      7  C   UNL     1      -3.603 -16.193  11.335  1.00  0.00     0.031 C 
ATOM      8  C   UNL     1      -3.702 -17.250  10.269  1.00  0.00    -0.073 C 
ATOM      9  C   UNL     1      -3.311 -16.970   8.999  1.00  0.00    -0.064 C 
ATOM     10  C   UNL     1      -3.518 -17.915   7.838  1.00  0.00     0.036 C 
ATOM     11  C   UNL     1      -4.603 -17.340   6.920  1.00  0.00     0.035 C 
ATOM     12  C   UNL     1      -4.315 -18.578  10.642  1.00  0.00     0.039 C 
ENDROOT
BRANCH   5  13
ATOM     13  C   UNL     1      -1.268 -13.678   9.451  1.00  0.00    -0.013 C 
ATOM     14  C   UNL     1      -1.057 -12.597  10.525  1.00  0.00     0.007 C 
ATOM     15  C   UNL     1       0.021 -14.517   9.345  1.00  0.00     0.007 C 
ENDBRANCH   5  13
TORSDOF 1
ENDMDL
MODEL 5
REMARK VINA RESULT:    -6.439      1.115      4.241
REMARK INTER + INTRA:          -7.016
REMARK INTER:                  -7.057
REMARK INTRA:                   0.040
REMARK UNBOUND:                -0.201
REMARK SMILES CC1=C[C@@H]2C(=C(C)CC[C@H]2C(C)C)CC1
REMARK SMILES IDX 1 1 2 2 3 3 4 4 10 5 9 6 8 7 6 8 5 9 14 10 15 11 7 12 11 13
REMARK SMILES IDX 12 14 13 15
REMARK H PARENT
REMARK Flexibility Score: inf
ROOT
ATOM      1  C   UNL     1      -5.379 -13.180   6.971  1.00  0.00     0.039 C 
ATOM      2  C   UNL     1      -4.368 -14.206   7.404  1.00  0.00    -0.076 C 
ATOM      3  C   UNL     1      -3.888 -14.159   8.670  1.00  0.00    -0.020 C 
ATOM      4  C   UNL     1      -2.826 -15.117   9.192  1.00  0.00     0.041 C 
ATOM      5  C   UNL     1      -2.887 -15.260  10.756  1.00  0.00     0.003 C 
ATOM      6  C   UNL     1      -2.562 -16.707  11.187  1.00  0.00     0.009 C 
ATOM      7  C   UNL     1      -3.440 -17.704  10.440  1.00  0.00     0.031 C 
ATOM      8  C   UNL     1      -3.220 -17.607   8.955  1.00  0.00    -0.073 C 
ATOM      9  C   UNL     1      -2.922 -16.409   8.391  1.00  0.00    -0.064 C 
ATOM     10  C   UNL     1      -2.838 -16.191   6.898  1.00  0.00     0.036 C 
ATOM     11  C   UNL     1      -4.039 -15.348   6.453  1.00  0.00     0.035 C 
ATOM     12  C   UNL     1      -3.421 -18.854   8.127  1.00  0.00     0.039 C 
ENDROOT
BRANCH   5  13
ATOM     13  C   UNL     1      -1.932 -14.244  11.481  1.00  0.00    -0.013 C 
ATOM     14  C   UNL     1      -1.704 -12.960  10.664  1.00  0.00     0.007 C 
ATOM     15  C   UNL     1      -2.451 -13.846  12.877  1.00  0.00     0.007 C 
ENDBRANCH   5  13
TORSDOF 1
ENDMDL
MODEL 6
REMARK VINA RESULT:    -6.383      1.173      3.752
REMARK INTER + INTRA:          -6.957
REMARK INTER:                  -6.694
REMARK INTRA:                  -0.263
REMARK UNBOUND:                -0.201
REMARK SMILES CC1=C[C@@H]2C(=C(C)CC[C@H]2C(C)C)CC1
REMARK SMILES IDX 1 1 2 2 3 3 4 4 10 5 9 6 8 7 6 8 5 9 14 10 15 11 7 12 11 13
REMARK SMILES IDX 12 14 13 15
REMARK H PARENT
REMARK Flexibility Score: inf
ROOT
ATOM      1  C   UNL     1      -2.375 -14.266  12.660  1.00  0.00     0.039 C 
ATOM      2  C   UNL     1      -2.544 -14.515  11.187  1.00  0.00    -0.076 C 
ATOM      3  C   UNL     1      -3.074 -15.693  10.778  1.00  0.00    -0.020 C 
ATOM      4  C   UNL     1      -3.240 -16.065   9.311  1.00  0.00     0.041 C 
ATOM      5  C   UNL     1      -4.375 -17.133   9.104  1.00  0.00     0.003 C 
ATOM      6  C   UNL     1      -5.143 -16.870   7.791  1.00  0.00     0.009 C 
ATOM      7  C   UNL     1      -5.634 -15.429   7.731  1.00  0.00     0.031 C 
ATOM      8  C   UNL     1      -4.480 -14.465   7.789  1.00  0.00    -0.073 C 
ATOM      9  C   UNL     1      -3.372 -14.776   8.510  1.00  0.00    -0.064 C 
ATOM     10  C   UNL     1      -2.237 -13.808   8.749  1.00  0.00     0.036 C 
ATOM     11  C   UNL     1      -2.257 -13.375  10.220  1.00  0.00     0.035 C 
ATOM     12  C   UNL     1      -4.635 -13.133   7.095  1.00  0.00     0.039 C 
ENDROOT
BRANCH   5  13
ATOM     13  C   UNL     1      -3.814 -18.602   9.127  1.00  0.00    -0.013 C 
ATOM     14  C   UNL     1      -2.489 -18.743   8.357  1.00  0.00     0.007 C 
ATOM     15  C   UNL     1      -3.601 -19.125  10.562  1.00  0.00     0.007 C 
ENDBRANCH   5  13
TORSDOF 1
ENDMDL
MODEL 7
REMARK VINA RESULT:    -5.916      2.408      4.004
REMARK INTER + INTRA:          -6.463
REMARK INTER:                  -6.297
REMARK INTRA:                  -0.166
REMARK UNBOUND:                -0.201
REMARK SMILES CC1=C[C@@H]2C(=C(C)CC[C@H]2C(C)C)CC1
REMARK SMILES IDX 1 1 2 2 3 3 4 4 10 5 9 6 8 7 6 8 5 9 14 10 15 11 7 12 11 13
REMARK SMILES IDX 12 14 13 15
REMARK H PARENT
REMARK Flexibility Score: inf
ROOT
ATOM      1  C   UNL     1      -1.458 -12.783  10.258  1.00  0.00     0.039 C 
ATOM      2  C   UNL     1      -2.027 -13.832  11.174  1.00  0.00    -0.076 C 
ATOM      3  C   UNL     1      -2.380 -15.032  10.656  1.00  0.00    -0.020 C 
ATOM      4  C   UNL     1      -3.012 -16.141  11.486  1.00  0.00     0.041 C 
ATOM      5  C   UNL     1      -2.767 -17.558  10.849  1.00  0.00     0.003 C 
ATOM      6  C   UNL     1      -2.552 -18.622  11.947  1.00  0.00     0.009 C 
ATOM      7  C   UNL     1      -1.464 -18.185  12.919  1.00  0.00     0.031 C 
ATOM      8  C   UNL     1      -1.835 -16.894  13.598  1.00  0.00    -0.073 C 
ATOM      9  C   UNL     1      -2.564 -15.963  12.930  1.00  0.00    -0.064 C 
ATOM     10  C   UNL     1      -2.849 -14.583  13.476  1.00  0.00     0.036 C 
ATOM     11  C   UNL     1      -2.041 -13.557  12.671  1.00  0.00     0.035 C 
ATOM     12  C   UNL     1      -1.306 -16.648  14.990  1.00  0.00     0.039 C 
ENDROOT
BRANCH   5  13
ATOM     13  C   UNL     1      -3.937 -17.986   9.891  1.00  0.00    -0.013 C 
ATOM     14  C   UNL     1      -5.042 -16.919   9.792  1.00  0.00     0.007 C 
ATOM     15  C   UNL     1      -3.441 -18.306   8.467  1.00  0.00     0.007 C 
ENDBRANCH   5  13
TORSDOF 1
ENDMDL
MODEL 8
REMARK VINA RESULT:    -5.866      2.027      4.795
REMARK INTER + INTRA:          -6.410
REMARK INTER:                  -6.154
REMARK INTRA:                  -0.256
REMARK UNBOUND:                -0.201
REMARK SMILES CC1=C[C@@H]2C(=C(C)CC[C@H]2C(C)C)CC1
REMARK SMILES IDX 1 1 2 2 3 3 4 4 10 5 9 6 8 7 6 8 5 9 14 10 15 11 7 12 11 13
REMARK SMILES IDX 12 14 13 15
REMARK H PARENT
REMARK Flexibility Score: inf
ROOT
ATOM      1  C   UNL     1      -2.360 -12.437   9.529  1.00  0.00     0.039 C 
ATOM      2  C   UNL     1      -2.126 -13.921   9.450  1.00  0.00    -0.076 C 
ATOM      3  C   UNL     1      -2.134 -14.647  10.592  1.00  0.00    -0.020 C 
ATOM      4  C   UNL     1      -1.858 -16.145  10.626  1.00  0.00     0.041 C 
ATOM      5  C   UNL     1      -2.501 -16.828  11.888  1.00  0.00     0.003 C 
ATOM      6  C   UNL     1      -3.022 -18.239  11.540  1.00  0.00     0.009 C 
ATOM      7  C   UNL     1      -3.942 -18.193  10.327  1.00  0.00     0.031 C 
ATOM      8  C   UNL     1      -3.216 -17.662   9.121  1.00  0.00    -0.073 C 
ATOM      9  C   UNL     1      -2.244 -16.726   9.273  1.00  0.00    -0.064 C 
ATOM     10  C   UNL     1      -1.573 -16.029   8.112  1.00  0.00     0.036 C 
ATOM     11  C   UNL     1      -2.042 -14.569   8.075  1.00  0.00     0.035 C 
ATOM     12  C   UNL     1      -3.659 -18.142   7.759  1.00  0.00     0.039 C 
ENDROOT
BRANCH   5  13
ATOM     13  C   UNL     1      -1.500 -16.896  13.098  1.00  0.00    -0.013 C 
ATOM     14  C   UNL     1      -2.016 -16.140  14.336  1.00  0.00     0.007 C 
ATOM     15  C   UNL     1      -1.179 -18.345  13.512  1.00  0.00     0.007 C 
ENDBRANCH   5  13
TORSDOF 1
ENDMDL
MODEL 9
REMARK VINA RESULT:    -5.475      1.334      3.586
REMARK INTER + INTRA:          -5.996
REMARK INTER:                  -5.666
REMARK INTRA:                  -0.330
REMARK UNBOUND:                -0.201
REMARK SMILES CC1=C[C@@H]2C(=C(C)CC[C@H]2C(C)C)CC1
REMARK SMILES IDX 1 1 2 2 3 3 4 4 10 5 9 6 8 7 6 8 5 9 14 10 15 11 7 12 11 13
REMARK SMILES IDX 12 14 13 15
REMARK H PARENT
REMARK Flexibility Score: inf
ROOT
ATOM      1  C   UNL     1      -4.966 -15.849  13.714  1.00  0.00     0.039 C 
ATOM      2  C   UNL     1      -4.000 -15.721  12.568  1.00  0.00    -0.076 C 
ATOM      3  C   UNL     1      -4.445 -15.946  11.309  1.00  0.00    -0.020 C 
ATOM      4  C   UNL     1      -3.539 -15.893  10.086  1.00  0.00     0.041 C 
ATOM      5  C   UNL     1      -4.348 -15.585   8.773  1.00  0.00     0.003 C 
ATOM      6  C   UNL     1      -3.526 -14.689   7.820  1.00  0.00     0.009 C 
ATOM      7  C   UNL     1      -3.026 -13.446   8.544  1.00  0.00     0.031 C 
ATOM      8  C   UNL     1      -2.141 -13.816   9.703  1.00  0.00    -0.073 C 
ATOM      9  C   UNL     1      -2.378 -14.957  10.399  1.00  0.00    -0.064 C 
ATOM     10  C   UNL     1      -1.640 -15.328  11.664  1.00  0.00     0.036 C 
ATOM     11  C   UNL     1      -2.600 -15.195  12.853  1.00  0.00     0.035 C 
ATOM     12  C   UNL     1      -1.054 -12.847  10.101  1.00  0.00     0.039 C 
ENDROOT
BRANCH   5  13
ATOM     13  C   UNL     1      -4.802 -16.898   8.037  1.00  0.00    -0.013 C 
ATOM     14  C   UNL     1      -5.172 -16.653   6.563  1.00  0.00     0.007 C 
ATOM     15  C   UNL     1      -3.727 -18.001   8.091  1.00  0.00     0.007 C 
ENDBRANCH   5  13
TORSDOF 1
ENDMDL
