MODEL 1
REMARK VINA RESULT:    -5.050      0.000      0.000
REMARK INTER + INTRA:          -6.099
REMARK INTER:                  -7.116
REMARK INTRA:                   1.017
REMARK UNBOUND:                 1.017
REMARK SMILES CC1=CCC(=C(C)C)C(=O)CC(C)=CCC1
REMARK SMILES IDX 12 1 14 2 13 3 15 4 16 5 2 6 1 7 3 8 11 10 9 11 10 12 5 13
REMARK SMILES IDX 6 14 7 15 8 16 4 17
REMARK H PARENT
REMARK Flexibility Score: 60.00
ROOT
ATOM      1  C   UNL     1      -3.013  28.570  31.102  1.00  0.00    -0.070 C 
ATOM      2  C   UNL     1      -1.677  28.339  31.016  1.00  0.00    -0.027 C 
ATOM      3  C   UNL     1      -3.490  29.779  31.869  1.00  0.00     0.039 C 
ENDROOT
BRANCH   2   4
ATOM      4  C   UNL     1      -1.026  27.136  30.374  1.00  0.00     0.032 C 
BRANCH   4   5
ATOM      5  C   UNL     1      -0.485  27.418  28.966  1.00  0.00     0.034 C 
BRANCH   5   6
ATOM      6  C   UNL     1      -1.515  27.033  27.922  1.00  0.00    -0.077 C 
ATOM      7  C   UNL     1      -1.504  25.623  27.392  1.00  0.00     0.039 C 
ATOM      8  C   UNL     1      -2.494  27.867  27.497  1.00  0.00    -0.023 CG0
ATOM      9  G   UNL     1      -2.657  29.314  27.901  1.00  0.00     0.000 G0
ENDBRANCH   5   6
ENDBRANCH   4   5
ENDBRANCH   2   4
BRANCH   1  10
ATOM     10  C   UNL     1      -4.074  27.771  30.354  1.00  0.00     0.111 C 
BRANCH  10  11
ATOM     11  C   UNL     1      -4.746  28.537  29.243  1.00  0.00     0.163 C 
ATOM     12  O   UNL     1      -5.958  28.278  29.004  1.00  0.00    -0.294 OA
BRANCH  11  13
ATOM     13  C   UNL     1      -4.051  29.618  28.469  1.00  0.00    -0.002 C 
ATOM     14  C   UNL     1      -4.660  30.825  28.252  1.00  0.00    -0.069 C 
ATOM     15  C   UNL     1      -5.981  31.178  28.900  1.00  0.00     0.039 C 
ATOM     16  C   UNL     1      -4.023  31.895  27.392  1.00  0.00     0.039 C 
BRANCH  13  17
ATOM     17  C   UNL     1      -2.674  29.326  27.875  1.00  0.00     0.066 CG0
ATOM     18  G   UNL     1      -2.504  27.867  27.521  1.00  0.00     0.000 G0
ENDBRANCH  13  17
ENDBRANCH  11  13
ENDBRANCH  10  11
ENDBRANCH   1  10
TORSDOF 0
ENDMDL
MODEL 2
REMARK VINA RESULT:    -4.521      1.614      4.255
REMARK INTER + INTRA:          -5.354
REMARK INTER:                  -6.548
REMARK INTRA:                   1.193
REMARK UNBOUND:                 1.017
REMARK SMILES CC1=CCC(=C(C)C)C(=O)CC(C)=CCC1
REMARK SMILES IDX 12 1 14 2 13 3 15 4 16 5 2 6 1 7 3 8 11 10 9 11 10 12 5 13
REMARK SMILES IDX 6 14 7 15 8 16 4 17
REMARK H PARENT
REMARK Flexibility Score: 60.00
ROOT
ATOM      1  C   UNL     1      -3.519  29.257  31.330  1.00  0.00    -0.070 C 
ATOM      2  C   UNL     1      -4.698  29.740  30.859  1.00  0.00    -0.027 C 
ATOM      3  C   UNL     1      -2.738  30.091  32.315  1.00  0.00     0.039 C 
ENDROOT
BRANCH   2   4
ATOM      4  C   UNL     1      -5.563  29.091  29.804  1.00  0.00     0.032 C 
BRANCH   4   5
ATOM      5  C   UNL     1      -5.725  29.947  28.540  1.00  0.00     0.034 C 
BRANCH   5   6
ATOM      6  C   UNL     1      -4.370  30.422  28.051  1.00  0.00    -0.077 C 
ATOM      7  C   UNL     1      -4.139  31.904  27.914  1.00  0.00     0.039 C 
ATOM      8  C   UNL     1      -3.332  29.588  27.805  1.00  0.00    -0.023 CG0
ATOM      9  G   UNL     1      -3.377  28.080  27.873  1.00  0.00     0.000 G0
ENDBRANCH   5   6
ENDBRANCH   4   5
ENDBRANCH   2   4
BRANCH   1  10
ATOM     10  C   UNL     1      -2.989  27.856  31.045  1.00  0.00     0.111 C 
BRANCH  10  11
ATOM     11  C   UNL     1      -1.895  27.816  30.008  1.00  0.00     0.163 C 
ATOM     12  O   UNL     1      -0.715  28.034  30.395  1.00  0.00    -0.294 OA
BRANCH  11  13
ATOM     13  C   UNL     1      -2.155  27.472  28.570  1.00  0.00    -0.002 C 
ATOM     14  C   UNL     1      -1.285  26.675  27.874  1.00  0.00    -0.069 C 
ATOM     15  C   UNL     1      -0.118  25.990  28.550  1.00  0.00     0.039 C 
ATOM     16  C   UNL     1      -1.470  26.394  26.398  1.00  0.00     0.039 C 
BRANCH  13  17
ATOM     17  C   UNL     1      -3.377  28.076  27.880  1.00  0.00     0.066 CG0
ATOM     18  G   UNL     1      -3.316  29.585  27.832  1.00  0.00     0.000 G0
ENDBRANCH  13  17
ENDBRANCH  11  13
ENDBRANCH  10  11
ENDBRANCH   1  10
TORSDOF 0
ENDMDL
MODEL 3
REMARK VINA RESULT:    -3.629      1.334      3.904
REMARK INTER + INTRA:          -4.097
REMARK INTER:                  -4.581
REMARK INTRA:                   0.483
REMARK UNBOUND:                 1.017
REMARK SMILES CC1=CCC(=C(C)C)C(=O)CC(C)=CCC1
REMARK SMILES IDX 12 1 14 2 13 3 15 4 16 5 2 6 1 7 3 8 11 10 9 11 10 12 5 13
REMARK SMILES IDX 6 14 7 15 8 16 4 17
REMARK H PARENT
REMARK Flexibility Score: 60.00
ROOT
ATOM      1  C   UNL     1      -3.955  29.187  31.121  1.00  0.00    -0.070 C 
ATOM      2  C   UNL     1      -4.899  29.997  30.573  1.00  0.00    -0.027 C 
ATOM      3  C   UNL     1      -2.861  29.811  31.951  1.00  0.00     0.039 C 
ENDROOT
BRANCH   2   4
ATOM      4  C   UNL     1      -6.007  29.562  29.643  1.00  0.00     0.032 C 
BRANCH   4   5
ATOM      5  C   UNL     1      -5.550  29.405  28.186  1.00  0.00     0.034 C 
BRANCH   5   6
ATOM      6  C   UNL     1      -4.323  30.257  27.926  1.00  0.00    -0.077 C 
ATOM      7  C   UNL     1      -4.466  31.756  27.994  1.00  0.00     0.039 C 
ATOM      8  C   UNL     1      -3.088  29.742  27.714  1.00  0.00    -0.023 CG0
ATOM      9  G   UNL     1      -2.753  28.274  27.599  1.00  0.00     0.000 G0
ENDBRANCH   5   6
ENDBRANCH   4   5
ENDBRANCH   2   4
BRANCH   1  10
ATOM     10  C   UNL     1      -4.001  27.664  31.079  1.00  0.00     0.111 C 
BRANCH  10  11
ATOM     11  C   UNL     1      -3.591  27.076  29.752  1.00  0.00     0.163 C 
ATOM     12  O   UNL     1      -4.282  26.126  29.294  1.00  0.00    -0.294 OA
BRANCH  11  13
ATOM     13  C   UNL     1      -2.444  27.616  28.948  1.00  0.00    -0.002 C 
ATOM     14  C   UNL     1      -1.166  27.575  29.438  1.00  0.00    -0.069 C 
ATOM     15  C   UNL     1      -0.831  26.860  30.728  1.00  0.00     0.039 C 
ATOM     16  C   UNL     1      -0.007  28.200  28.692  1.00  0.00     0.039 C 
BRANCH  13  17
ATOM     17  C   UNL     1      -2.737  28.266  27.596  1.00  0.00     0.066 CG0
ATOM     18  G   UNL     1      -3.091  29.728  27.732  1.00  0.00     0.000 G0
ENDBRANCH  13  17
ENDBRANCH  11  13
ENDBRANCH  10  11
ENDBRANCH   1  10
TORSDOF 0
ENDMDL
MODEL 4
REMARK VINA RESULT:    -3.515      1.690      3.624
REMARK INTER + INTRA:          -3.936
REMARK INTER:                  -5.223
REMARK INTRA:                   1.287
REMARK UNBOUND:                 1.017
REMARK SMILES CC1=CCC(=C(C)C)C(=O)CC(C)=CCC1
REMARK SMILES IDX 12 1 14 2 13 3 15 4 16 5 2 6 1 7 3 8 11 10 9 11 10 12 5 13
REMARK SMILES IDX 6 14 7 15 8 16 4 17
REMARK H PARENT
REMARK Flexibility Score: 60.00
ROOT
ATOM      1  C   UNL     1      -1.725  26.949  28.187  1.00  0.00    -0.070 C 
ATOM      2  C   UNL     1      -0.909  27.269  29.224  1.00  0.00    -0.027 C 
ATOM      3  C   UNL     1      -1.214  26.001  27.130  1.00  0.00     0.039 C 
ENDROOT
BRANCH   2   4
ATOM      4  C   UNL     1      -1.214  28.267  30.316  1.00  0.00     0.032 C 
BRANCH   4   5
ATOM      5  C   UNL     1      -2.475  27.921  31.120  1.00  0.00     0.034 C 
BRANCH   5   6
ATOM      6  C   UNL     1      -3.146  29.188  31.614  1.00  0.00    -0.077 C 
ATOM      7  C   UNL     1      -2.507  29.938  32.754  1.00  0.00     0.039 C 
ATOM      8  C   UNL     1      -4.247  29.723  31.035  1.00  0.00    -0.023 CG0
ATOM      9  G   UNL     1      -5.031  29.111  29.898  1.00  0.00     0.000 G0
ENDBRANCH   5   6
ENDBRANCH   4   5
ENDBRANCH   2   4
BRANCH   1  10
ATOM     10  C   UNL     1      -3.188  27.366  28.084  1.00  0.00     0.111 C 
BRANCH  10  11
ATOM     11  C   UNL     1      -3.389  28.849  27.894  1.00  0.00     0.163 C 
ATOM     12  O   UNL     1      -2.592  29.452  27.125  1.00  0.00    -0.294 OA
BRANCH  11  13
ATOM     13  C   UNL     1      -4.521  29.601  28.530  1.00  0.00    -0.002 C 
ATOM     14  C   UNL     1      -5.043  30.716  27.931  1.00  0.00    -0.069 C 
ATOM     15  C   UNL     1      -4.614  31.152  26.547  1.00  0.00     0.039 C 
ATOM     16  C   UNL     1      -6.117  31.549  28.598  1.00  0.00     0.039 C 
BRANCH  13  17
ATOM     17  C   UNL     1      -5.041  29.133  29.889  1.00  0.00     0.066 CG0
ATOM     18  G   UNL     1      -4.258  29.731  31.034  1.00  0.00     0.000 G0
ENDBRANCH  13  17
ENDBRANCH  11  13
ENDBRANCH  10  11
ENDBRANCH   1  10
TORSDOF 0
ENDMDL
MODEL 5
REMARK VINA RESULT:    -2.594      1.704      4.471
REMARK INTER + INTRA:          -2.639
REMARK INTER:                  -3.865
REMARK INTRA:                   1.227
REMARK UNBOUND:                 1.017
REMARK SMILES CC1=CCC(=C(C)C)C(=O)CC(C)=CCC1
REMARK SMILES IDX 12 1 14 2 13 3 15 4 16 5 2 6 1 7 3 8 11 10 9 11 10 12 5 13
REMARK SMILES IDX 6 14 7 15 8 16 4 17
REMARK H PARENT
REMARK Flexibility Score: 60.00
ROOT
ATOM      1  C   UNL     1      -4.529  29.360  28.441  1.00  0.00    -0.070 C 
ATOM      2  C   UNL     1      -4.910  28.834  29.635  1.00  0.00    -0.027 C 
ATOM      3  C   UNL     1      -4.971  30.760  28.094  1.00  0.00     0.039 C 
ENDROOT
BRANCH   2   4
ATOM      4  C   UNL     1      -4.642  27.425  30.107  1.00  0.00     0.032 C 
BRANCH   4   5
ATOM      5  C   UNL     1      -3.589  27.347  31.221  1.00  0.00     0.034 C 
BRANCH   5   6
ATOM      6  C   UNL     1      -2.773  28.624  31.261  1.00  0.00    -0.077 C 
ATOM      7  C   UNL     1      -3.324  29.800  32.026  1.00  0.00     0.039 C 
ATOM      8  C   UNL     1      -1.540  28.740  30.713  1.00  0.00    -0.023 CG0
ATOM      9  G   UNL     1      -0.834  27.680  29.900  1.00  0.00     0.000 G0
ENDBRANCH   5   6
ENDBRANCH   4   5
ENDBRANCH   2   4
BRANCH   1  10
ATOM     10  C   UNL     1      -3.558  28.688  27.477  1.00  0.00     0.111 C 
BRANCH  10  11
ATOM     11  C   UNL     1      -2.114  28.781  27.900  1.00  0.00     0.163 C 
ATOM     12  O   UNL     1      -1.552  29.907  27.818  1.00  0.00    -0.294 OA
BRANCH  11  13
ATOM     13  C   UNL     1      -1.358  27.611  28.460  1.00  0.00    -0.002 C 
ATOM     14  C   UNL     1      -1.195  26.467  27.724  1.00  0.00    -0.069 C 
ATOM     15  C   UNL     1      -1.631  26.382  26.278  1.00  0.00     0.039 C 
ATOM     16  C   UNL     1      -0.523  25.240  28.300  1.00  0.00     0.039 C 
BRANCH  13  17
ATOM     17  C   UNL     1      -0.824  27.698  29.889  1.00  0.00     0.066 CG0
ATOM     18  G   UNL     1      -1.553  28.738  30.707  1.00  0.00     0.000 G0
ENDBRANCH  13  17
ENDBRANCH  11  13
ENDBRANCH  10  11
ENDBRANCH   1  10
TORSDOF 0
ENDMDL
MODEL 6
REMARK VINA RESULT:    -2.556      1.449      3.495
REMARK INTER + INTRA:          -2.584
REMARK INTER:                  -4.455
REMARK INTRA:                   1.871
REMARK UNBOUND:                 1.017
REMARK SMILES CC1=CCC(=C(C)C)C(=O)CC(C)=CCC1
REMARK SMILES IDX 12 1 14 2 13 3 15 4 16 5 2 6 1 7 3 8 11 10 9 11 10 12 5 13
REMARK SMILES IDX 6 14 7 15 8 16 4 17
REMARK H PARENT
REMARK Flexibility Score: 60.00
ROOT
ATOM      1  C   UNL     1      -4.718  30.731  27.860  1.00  0.00    -0.070 C 
ATOM      2  C   UNL     1      -3.414  30.602  27.502  1.00  0.00    -0.027 C 
ATOM      3  C   UNL     1      -5.455  31.987  27.467  1.00  0.00     0.039 C 
ENDROOT
BRANCH   2   4
ATOM      4  C   UNL     1      -2.498  29.464  27.888  1.00  0.00     0.032 C 
BRANCH   4   5
ATOM      5  C   UNL     1      -2.809  28.156  27.147  1.00  0.00     0.034 C 
BRANCH   5   6
ATOM      6  C   UNL     1      -2.286  26.971  27.935  1.00  0.00    -0.077 C 
ATOM      7  C   UNL     1      -0.968  26.367  27.527  1.00  0.00     0.039 C 
ATOM      8  C   UNL     1      -2.903  26.475  29.034  1.00  0.00    -0.023 CG0
ATOM      9  G   UNL     1      -4.232  26.937  29.583  1.00  0.00     0.000 G0
ENDBRANCH   5   6
ENDBRANCH   4   5
ENDBRANCH   2   4
BRANCH   1  10
ATOM     10  C   UNL     1      -5.543  29.627  28.512  1.00  0.00     0.111 C 
BRANCH  10  11
ATOM     11  C   UNL     1      -5.156  29.336  29.940  1.00  0.00     0.163 C 
ATOM     12  O   UNL     1      -5.740  29.987  30.848  1.00  0.00    -0.294 OA
BRANCH  11  13
ATOM     13  C   UNL     1      -4.160  28.276  30.309  1.00  0.00    -0.002 C 
ATOM     14  C   UNL     1      -3.167  28.535  31.216  1.00  0.00    -0.069 C 
ATOM     15  C   UNL     1      -3.116  29.833  31.991  1.00  0.00     0.039 C 
ATOM     16  C   UNL     1      -2.092  27.517  31.531  1.00  0.00     0.039 C 
BRANCH  13  17
ATOM     17  C   UNL     1      -4.238  26.920  29.609  1.00  0.00     0.066 CG0
ATOM     18  G   UNL     1      -2.904  26.493  29.044  1.00  0.00     0.000 G0
ENDBRANCH  13  17
ENDBRANCH  11  13
ENDBRANCH  10  11
ENDBRANCH   1  10
TORSDOF 0
ENDMDL
MODEL 7
REMARK VINA RESULT:    -2.232      1.779      4.402
REMARK INTER + INTRA:          -2.129
REMARK INTER:                  -2.833
REMARK INTRA:                   0.705
REMARK UNBOUND:                 1.017
REMARK SMILES CC1=CCC(=C(C)C)C(=O)CC(C)=CCC1
REMARK SMILES IDX 12 1 14 2 13 3 15 4 16 5 2 6 1 7 3 8 11 10 9 11 10 12 5 13
REMARK SMILES IDX 6 14 7 15 8 16 4 17
REMARK H PARENT
REMARK Flexibility Score: 60.00
ROOT
ATOM      1  C   UNL     1      -2.601  27.947  27.859  1.00  0.00    -0.070 C 
ATOM      2  C   UNL     1      -2.204  29.206  27.541  1.00  0.00    -0.027 C 
ATOM      3  C   UNL     1      -1.556  26.864  27.967  1.00  0.00     0.039 C 
ENDROOT
BRANCH   2   4
ATOM      4  C   UNL     1      -3.114  30.387  27.299  1.00  0.00     0.032 C 
BRANCH   4   5
ATOM      5  C   UNL     1      -3.731  30.953  28.586  1.00  0.00     0.034 C 
BRANCH   5   6
ATOM      6  C   UNL     1      -5.233  30.748  28.582  1.00  0.00    -0.077 C 
ATOM      7  C   UNL     1      -6.013  31.201  27.375  1.00  0.00     0.039 C 
ATOM      8  C   UNL     1      -5.902  30.110  29.571  1.00  0.00    -0.023 CG0
ATOM      9  G   UNL     1      -5.297  29.601  30.859  1.00  0.00     0.000 G0
ENDBRANCH   5   6
ENDBRANCH   4   5
ENDBRANCH   2   4
BRANCH   1  10
ATOM     10  C   UNL     1      -4.023  27.570  28.261  1.00  0.00     0.111 C 
BRANCH  10  11
ATOM     11  C   UNL     1      -4.238  27.494  29.751  1.00  0.00     0.163 C 
ATOM     12  O   UNL     1      -4.511  26.367  30.247  1.00  0.00    -0.294 OA
BRANCH  11  13
ATOM     13  C   UNL     1      -4.081  28.684  30.653  1.00  0.00    -0.002 C 
ATOM     14  C   UNL     1      -2.900  28.916  31.306  1.00  0.00    -0.069 C 
ATOM     15  C   UNL     1      -1.666  28.082  31.039  1.00  0.00     0.039 C 
ATOM     16  C   UNL     1      -2.747  30.051  32.296  1.00  0.00     0.039 C 
BRANCH  13  17
ATOM     17  C   UNL     1      -5.284  29.600  30.875  1.00  0.00     0.066 CG0
ATOM     18  G   UNL     1      -5.888  30.073  29.574  1.00  0.00     0.000 G0
ENDBRANCH  13  17
ENDBRANCH  11  13
ENDBRANCH  10  11
ENDBRANCH   1  10
TORSDOF 0
ENDMDL
