MODEL 1
REMARK VINA RESULT:    -3.769      0.000      0.000
REMARK INTER + INTRA:          -3.879
REMARK INTER:                  -3.879
REMARK INTRA:                   0.000
REMARK UNBOUND:                 0.000
REMARK SMILES CC1(C)[C@@H]2CC[C@@](C)(C2)[C@@H]1O
REMARK SMILES IDX 1 1 2 2 4 3 5 4 6 5 7 6 9 7 10 8 8 9 3 10 11 11
REMARK H PARENT 11 12
REMARK Flexibility Score: inf
ROOT
ATOM      1  C   UNL     1       7.819   0.146  -2.279  1.00  0.00     0.014 C 
ATOM      2  C   UNL     1       7.482   1.551  -1.717  1.00  0.00    -0.006 C 
ATOM      3  C   UNL     1       5.998   1.578  -1.208  1.00  0.00    -0.002 C 
ATOM      4  C   UNL     1       5.531   3.016  -0.901  1.00  0.00     0.005 C 
ATOM      5  C   UNL     1       6.345   3.382   0.350  1.00  0.00     0.010 C 
ATOM      6  C   UNL     1       7.131   2.079   0.646  1.00  0.00    -0.006 C 
ATOM      7  C   UNL     1       6.120   1.037   0.212  1.00  0.00     0.013 C 
ATOM      8  C   UNL     1       8.266   1.821  -0.389  1.00  0.00     0.126 C 
ATOM      9  C   UNL     1       7.578   1.943   2.105  1.00  0.00     0.014 C 
ATOM     10  C   UNL     1       7.771   2.570  -2.851  1.00  0.00     0.014 C 
ENDROOT
BRANCH   8  11
ATOM     11  O   UNL     1       9.253   2.826  -0.454  1.00  0.00    -0.392 OA
ATOM     12  H   UNL     1      10.015   2.513  -0.994  1.00  0.00     0.211 HD
ENDBRANCH   8  11
TORSDOF 1
ENDMDL
MODEL 2
REMARK VINA RESULT:    -3.749      1.452      2.276
REMARK INTER + INTRA:          -3.859
REMARK INTER:                  -3.859
REMARK INTRA:                   0.000
REMARK UNBOUND:                 0.000
REMARK SMILES CC1(C)[C@@H]2CC[C@@](C)(C2)[C@@H]1O
REMARK SMILES IDX 1 1 2 2 4 3 5 4 6 5 7 6 9 7 10 8 8 9 3 10 11 11
REMARK H PARENT 11 12
REMARK Flexibility Score: inf
ROOT
ATOM      1  C   UNL     1       8.003   3.771  -2.555  1.00  0.00     0.014 C 
ATOM      2  C   UNL     1       6.830   3.067  -1.828  1.00  0.00    -0.006 C 
ATOM      3  C   UNL     1       6.959   1.512  -1.993  1.00  0.00    -0.002 C 
ATOM      4  C   UNL     1       5.679   0.785  -1.531  1.00  0.00     0.005 C 
ATOM      5  C   UNL     1       5.699   0.986  -0.008  1.00  0.00     0.010 C 
ATOM      6  C   UNL     1       7.029   1.748   0.223  1.00  0.00    -0.006 C 
ATOM      7  C   UNL     1       7.897   1.129  -0.854  1.00  0.00     0.013 C 
ATOM      8  C   UNL     1       6.965   3.222  -0.276  1.00  0.00     0.126 C 
ATOM      9  C   UNL     1       7.592   1.596   1.640  1.00  0.00     0.014 C 
ATOM     10  C   UNL     1       5.518   3.649  -2.419  1.00  0.00     0.014 C 
ENDROOT
BRANCH   8  11
ATOM     11  O   UNL     1       5.984   4.020   0.348  1.00  0.00    -0.392 OA
ATOM     12  H   UNL     1       5.321   3.447   0.798  1.00  0.00     0.211 HD
ENDBRANCH   8  11
TORSDOF 1
ENDMDL
MODEL 3
REMARK VINA RESULT:    -3.652      1.598      3.358
REMARK INTER + INTRA:          -3.758
REMARK INTER:                  -3.758
REMARK INTRA:                   0.000
REMARK UNBOUND:                 0.000
REMARK SMILES CC1(C)[C@@H]2CC[C@@](C)(C2)[C@@H]1O
REMARK SMILES IDX 1 1 2 2 4 3 5 4 6 5 7 6 9 7 10 8 8 9 3 10 11 11
REMARK H PARENT 11 12
REMARK Flexibility Score: inf
ROOT
ATOM      1  C   UNL     1       5.419   0.646  -0.003  1.00  0.00     0.014 C 
ATOM      2  C   UNL     1       6.447   1.747  -0.366  1.00  0.00    -0.006 C 
ATOM      3  C   UNL     1       7.061   1.455  -1.780  1.00  0.00    -0.002 C 
ATOM      4  C   UNL     1       8.281   2.357  -2.065  1.00  0.00     0.005 C 
ATOM      5  C   UNL     1       7.649   3.748  -2.228  1.00  0.00     0.010 C 
ATOM      6  C   UNL     1       6.133   3.460  -2.084  1.00  0.00    -0.006 C 
ATOM      7  C   UNL     1       6.047   2.089  -2.724  1.00  0.00     0.013 C 
ATOM      8  C   UNL     1       5.730   3.115  -0.620  1.00  0.00     0.126 C 
ATOM      9  C   UNL     1       5.237   4.513  -2.744  1.00  0.00     0.014 C 
ATOM     10  C   UNL     1       7.498   1.776   0.776  1.00  0.00     0.014 C 
ENDROOT
BRANCH   8  11
ATOM     11  O   UNL     1       5.992   4.129   0.325  1.00  0.00    -0.392 OA
ATOM     12  H   UNL     1       6.315   3.729   1.164  1.00  0.00     0.211 HD
ENDBRANCH   8  11
TORSDOF 1
ENDMDL
MODEL 4
REMARK VINA RESULT:    -3.636      1.516      2.615
REMARK INTER + INTRA:          -3.742
REMARK INTER:                  -3.742
REMARK INTRA:                   0.000
REMARK UNBOUND:                 0.000
REMARK SMILES CC1(C)[C@@H]2CC[C@@](C)(C2)[C@@H]1O
REMARK SMILES IDX 1 1 2 2 4 3 5 4 6 5 7 6 9 7 10 8 8 9 3 10 11 11
REMARK H PARENT 11 12
REMARK Flexibility Score: inf
ROOT
ATOM      1  C   UNL     1       6.442   3.962  -2.436  1.00  0.00     0.014 C 
ATOM      2  C   UNL     1       7.114   3.051  -1.377  1.00  0.00    -0.006 C 
ATOM      3  C   UNL     1       6.397   3.227   0.007  1.00  0.00    -0.002 C 
ATOM      4  C   UNL     1       7.196   2.561   1.147  1.00  0.00     0.005 C 
ATOM      5  C   UNL     1       7.037   1.063   0.849  1.00  0.00     0.010 C 
ATOM      6  C   UNL     1       6.106   1.052  -0.390  1.00  0.00    -0.006 C 
ATOM      7  C   UNL     1       5.230   2.252  -0.092  1.00  0.00     0.013 C 
ATOM      8  C   UNL     1       6.828   1.542  -1.680  1.00  0.00     0.126 C 
ATOM      9  C   UNL     1       5.330  -0.256  -0.571  1.00  0.00     0.014 C 
ATOM     10  C   UNL     1       8.620   3.426  -1.351  1.00  0.00     0.014 C 
ENDROOT
BRANCH   8  11
ATOM     11  O   UNL     1       7.945   0.772  -2.066  1.00  0.00    -0.392 OA
ATOM     12  H   UNL     1       8.277   0.254  -1.298  1.00  0.00     0.211 HD
ENDBRANCH   8  11
TORSDOF 1
ENDMDL
MODEL 5
REMARK VINA RESULT:    -3.572      1.272      1.513
REMARK INTER + INTRA:          -3.676
REMARK INTER:                  -3.676
REMARK INTRA:                   0.000
REMARK UNBOUND:                 0.000
REMARK SMILES CC1(C)[C@@H]2CC[C@@](C)(C2)[C@@H]1O
REMARK SMILES IDX 1 1 2 2 4 3 5 4 6 5 7 6 9 7 10 8 8 9 3 10 11 11
REMARK H PARENT 11 12
REMARK Flexibility Score: inf
ROOT
ATOM      1  C   UNL     1       7.016   1.937  -3.743  1.00  0.00     0.014 C 
ATOM      2  C   UNL     1       6.735   2.796  -2.483  1.00  0.00    -0.006 C 
ATOM      3  C   UNL     1       5.717   2.052  -1.549  1.00  0.00    -0.002 C 
ATOM      4  C   UNL     1       5.195   2.978  -0.431  1.00  0.00     0.005 C 
ATOM      5  C   UNL     1       6.429   3.166   0.464  1.00  0.00     0.010 C 
ATOM      6  C   UNL     1       7.492   2.267  -0.217  1.00  0.00    -0.006 C 
ATOM      7  C   UNL     1       6.618   1.139  -0.728  1.00  0.00     0.013 C 
ATOM      8  C   UNL     1       8.000   2.863  -1.563  1.00  0.00     0.126 C 
ATOM      9  C   UNL     1       8.612   1.810   0.723  1.00  0.00     0.014 C 
ATOM     10  C   UNL     1       6.231   4.176  -2.982  1.00  0.00     0.014 C 
ENDROOT
BRANCH   8  11
ATOM     11  O   UNL     1       8.617   4.127  -1.460  1.00  0.00    -0.392 OA
ATOM     12  H   UNL     1       9.523   4.029  -1.087  1.00  0.00     0.211 HD
ENDBRANCH   8  11
TORSDOF 1
ENDMDL
MODEL 6
REMARK VINA RESULT:    -3.527      1.388      2.964
REMARK INTER + INTRA:          -3.630
REMARK INTER:                  -3.630
REMARK INTRA:                   0.000
REMARK UNBOUND:                 0.000
REMARK SMILES CC1(C)[C@@H]2CC[C@@](C)(C2)[C@@H]1O
REMARK SMILES IDX 1 1 2 2 4 3 5 4 6 5 7 6 9 7 10 8 8 9 3 10 11 11
REMARK H PARENT 11 12
REMARK Flexibility Score: inf
ROOT
ATOM      1  C   UNL     1       7.513   2.256   1.827  1.00  0.00     0.014 C 
ATOM      2  C   UNL     1       7.327   1.747   0.375  1.00  0.00    -0.006 C 
ATOM      3  C   UNL     1       5.838   1.303   0.154  1.00  0.00    -0.002 C 
ATOM      4  C   UNL     1       5.668   0.535  -1.174  1.00  0.00     0.005 C 
ATOM      5  C   UNL     1       5.876   1.628  -2.233  1.00  0.00     0.010 C 
ATOM      6  C   UNL     1       6.074   2.906  -1.378  1.00  0.00    -0.006 C 
ATOM      7  C   UNL     1       5.148   2.610  -0.215  1.00  0.00     0.013 C 
ATOM      8  C   UNL     1       7.449   2.926  -0.648  1.00  0.00     0.126 C 
ATOM      9  C   UNL     1       5.745   4.205  -2.121  1.00  0.00     0.014 C 
ATOM     10  C   UNL     1       8.356   0.605   0.163  1.00  0.00     0.014 C 
ENDROOT
BRANCH   8  11
ATOM     11  O   UNL     1       8.575   2.887  -1.496  1.00  0.00    -0.392 OA
ATOM     12  H   UNL     1       8.899   3.802  -1.666  1.00  0.00     0.211 HD
ENDBRANCH   8  11
TORSDOF 1
ENDMDL
MODEL 7
REMARK VINA RESULT:    -3.457      1.853      3.061
REMARK INTER + INTRA:          -3.558
REMARK INTER:                  -3.558
REMARK INTRA:                   0.000
REMARK UNBOUND:                 0.000
REMARK SMILES CC1(C)[C@@H]2CC[C@@](C)(C2)[C@@H]1O
REMARK SMILES IDX 1 1 2 2 4 3 5 4 6 5 7 6 9 7 10 8 8 9 3 10 11 11
REMARK H PARENT 11 12
REMARK Flexibility Score: inf
ROOT
ATOM      1  C   UNL     1       7.786  -0.307  -1.974  1.00  0.00     0.014 C 
ATOM      2  C   UNL     1       7.530   0.121  -0.507  1.00  0.00    -0.006 C 
ATOM      3  C   UNL     1       8.640   1.129  -0.046  1.00  0.00    -0.002 C 
ATOM      4  C   UNL     1       8.591   1.367   1.478  1.00  0.00     0.005 C 
ATOM      5  C   UNL     1       7.289   2.160   1.661  1.00  0.00     0.010 C 
ATOM      6  C   UNL     1       6.784   2.339   0.206  1.00  0.00    -0.006 C 
ATOM      7  C   UNL     1       8.101   2.469  -0.532  1.00  0.00     0.013 C 
ATOM      8  C   UNL     1       6.246   1.012  -0.404  1.00  0.00     0.126 C 
ATOM      9  C   UNL     1       5.845   3.535   0.019  1.00  0.00     0.014 C 
ATOM     10  C   UNL     1       7.478  -1.179   0.339  1.00  0.00     0.014 C 
ENDROOT
BRANCH   8  11
ATOM     11  O   UNL     1       5.156   0.438   0.283  1.00  0.00    -0.392 OA
ATOM     12  H   UNL     1       5.000   0.922   1.127  1.00  0.00     0.211 HD
ENDBRANCH   8  11
TORSDOF 1
ENDMDL
MODEL 8
REMARK VINA RESULT:    -3.314     11.468     12.656
REMARK INTER + INTRA:          -3.411
REMARK INTER:                  -3.411
REMARK INTRA:                   0.000
REMARK UNBOUND:                 0.000
REMARK SMILES CC1(C)[C@@H]2CC[C@@](C)(C2)[C@@H]1O
REMARK SMILES IDX 1 1 2 2 4 3 5 4 6 5 7 6 9 7 10 8 8 9 3 10 11 11
REMARK H PARENT 11 12
REMARK Flexibility Score: inf
ROOT
ATOM      1  C   UNL     1      -1.621  -6.027  -5.260  1.00  0.00     0.014 C 
ATOM      2  C   UNL     1      -1.386  -4.587  -5.784  1.00  0.00    -0.006 C 
ATOM      3  C   UNL     1      -1.495  -4.568  -7.350  1.00  0.00    -0.002 C 
ATOM      4  C   UNL     1      -0.998  -3.229  -7.935  1.00  0.00     0.005 C 
ATOM      5  C   UNL     1      -2.080  -2.235  -7.488  1.00  0.00     0.010 C 
ATOM      6  C   UNL     1      -3.103  -3.142  -6.757  1.00  0.00    -0.006 C 
ATOM      7  C   UNL     1      -2.993  -4.409  -7.580  1.00  0.00     0.013 C 
ATOM      8  C   UNL     1      -2.573  -3.649  -5.384  1.00  0.00     0.126 C 
ATOM      9  C   UNL     1      -4.518  -2.558  -6.700  1.00  0.00     0.014 C 
ATOM     10  C   UNL     1      -0.001  -4.133  -5.250  1.00  0.00     0.014 C 
ENDROOT
BRANCH   8  11
ATOM     11  O   UNL     1      -2.266  -2.635  -4.452  1.00  0.00    -0.392 OA
ATOM     12  H   UNL     1      -2.934  -1.914  -4.509  1.00  0.00     0.211 HD
ENDBRANCH   8  11
TORSDOF 1
ENDMDL
MODEL 9
REMARK VINA RESULT:    -3.309      1.386      3.312
REMARK INTER + INTRA:          -3.406
REMARK INTER:                  -3.406
REMARK INTRA:                   0.000
REMARK UNBOUND:                 0.000
REMARK SMILES CC1(C)[C@@H]2CC[C@@](C)(C2)[C@@H]1O
REMARK SMILES IDX 1 1 2 2 4 3 5 4 6 5 7 6 9 7 10 8 8 9 3 10 11 11
REMARK H PARENT 11 12
REMARK Flexibility Score: inf
ROOT
ATOM      1  C   UNL     1       5.621   3.369   0.019  1.00  0.00     0.014 C 
ATOM      2  C   UNL     1       6.665   2.459  -0.674  1.00  0.00    -0.006 C 
ATOM      3  C   UNL     1       6.524   2.577  -2.232  1.00  0.00    -0.002 C 
ATOM      4  C   UNL     1       7.343   1.491  -2.960  1.00  0.00     0.005 C 
ATOM      5  C   UNL     1       8.794   1.922  -2.699  1.00  0.00     0.010 C 
ATOM      6  C   UNL     1       8.626   3.245  -1.909  1.00  0.00    -0.006 C 
ATOM      7  C   UNL     1       7.373   3.800  -2.555  1.00  0.00     0.013 C 
ATOM      8  C   UNL     1       8.115   3.010  -0.456  1.00  0.00     0.126 C 
ATOM      9  C   UNL     1       9.838   4.178  -1.997  1.00  0.00     0.014 C 
ATOM     10  C   UNL     1       6.438   1.021  -0.135  1.00  0.00     0.014 C 
ENDROOT
BRANCH   8  11
ATOM     11  O   UNL     1       8.957   2.217   0.351  1.00  0.00    -0.392 OA
ATOM     12  H   UNL     1       9.878   2.246   0.004  1.00  0.00     0.211 HD
ENDBRANCH   8  11
TORSDOF 1
ENDMDL
