MODEL 1
REMARK VINA RESULT:    -2.029      0.000      0.000
REMARK INTER + INTRA:          -2.088
REMARK INTER:                  -2.088
REMARK INTRA:                   0.000
REMARK UNBOUND:                 0.000
REMARK SMILES CC1(C)[C@@H]2CC[C@@](C)(C2)[C@H]1O
REMARK SMILES IDX 1 1 2 2 4 3 5 4 6 5 7 6 9 7 10 8 8 9 3 10 11 11
REMARK H PARENT 11 12
REMARK Flexibility Score: inf
ROOT
ATOM      1  C   UNL     1     123.459 110.918 134.769  1.00  0.00     0.014 C 
ATOM      2  C   UNL     1     124.584 110.306 133.894  1.00  0.00    -0.006 C 
ATOM      3  C   UNL     1     125.986 110.692 134.483  1.00  0.00    -0.002 C 
ATOM      4  C   UNL     1     127.125 110.347 133.500  1.00  0.00     0.005 C 
ATOM      5  C   UNL     1     127.125 108.809 133.503  1.00  0.00     0.010 C 
ATOM      6  C   UNL     1     126.048 108.467 134.559  1.00  0.00    -0.006 C 
ATOM      7  C   UNL     1     126.212 109.617 135.532  1.00  0.00     0.013 C 
ATOM      8  C   UNL     1     124.644 108.739 133.939  1.00  0.00     0.126 C 
ATOM      9  C   UNL     1     126.233 107.075 135.178  1.00  0.00     0.014 C 
ATOM     10  C   UNL     1     124.364 110.815 132.447  1.00  0.00     0.014 C 
ENDROOT
BRANCH   8  11
ATOM     11  O   UNL     1     123.585 108.159 134.669  1.00  0.00    -0.392 OA
ATOM     12  H   UNL     1     122.855 107.922 134.045  1.00  0.00     0.211 HD
ENDBRANCH   8  11
TORSDOF 1
ENDMDL
MODEL 2
REMARK VINA RESULT:    -1.993      1.226      2.887
REMARK INTER + INTRA:          -2.051
REMARK INTER:                  -2.051
REMARK INTRA:                   0.000
REMARK UNBOUND:                 0.000
REMARK SMILES CC1(C)[C@@H]2CC[C@@](C)(C2)[C@H]1O
REMARK SMILES IDX 1 1 2 2 4 3 5 4 6 5 7 6 9 7 10 8 8 9 3 10 11 11
REMARK H PARENT 11 12
REMARK Flexibility Score: inf
ROOT
ATOM      1  C   UNL     1     126.097 107.270 135.393  1.00  0.00     0.014 C 
ATOM      2  C   UNL     1     125.921 108.663 134.734  1.00  0.00    -0.006 C 
ATOM      3  C   UNL     1     127.107 108.938 133.746  1.00  0.00    -0.002 C 
ATOM      4  C   UNL     1     127.125 110.411 133.283  1.00  0.00     0.005 C 
ATOM      5  C   UNL     1     125.869 110.508 132.401  1.00  0.00     0.010 C 
ATOM      6  C   UNL     1     125.341 109.054 132.394  1.00  0.00    -0.006 C 
ATOM      7  C   UNL     1     126.635 108.269 132.466  1.00  0.00     0.013 C 
ATOM      8  C   UNL     1     124.683 108.760 133.776  1.00  0.00     0.126 C 
ATOM      9  C   UNL     1     124.469 108.737 131.171  1.00  0.00     0.014 C 
ATOM     10  C   UNL     1     125.821 109.700 135.881  1.00  0.00     0.014 C 
ENDROOT
BRANCH   8  11
ATOM     11  O   UNL     1     123.878 107.601 133.780  1.00  0.00    -0.392 OA
ATOM     12  H   UNL     1     124.077 107.073 134.593  1.00  0.00     0.211 HD
ENDBRANCH   8  11
TORSDOF 1
ENDMDL
MODEL 3
REMARK VINA RESULT:    -1.978      0.831      0.831
REMARK INTER + INTRA:          -2.036
REMARK INTER:                  -2.036
REMARK INTRA:                   0.000
REMARK UNBOUND:                 0.000
REMARK SMILES CC1(C)[C@@H]2CC[C@@](C)(C2)[C@H]1O
REMARK SMILES IDX 1 1 2 2 4 3 5 4 6 5 7 6 9 7 10 8 8 9 3 10 11 11
REMARK H PARENT 11 12
REMARK Flexibility Score: inf
ROOT
ATOM      1  C   UNL     1     123.814 111.963 134.518  1.00  0.00     0.014 C 
ATOM      2  C   UNL     1     124.690 110.889 133.820  1.00  0.00    -0.006 C 
ATOM      3  C   UNL     1     126.204 111.140 134.152  1.00  0.00    -0.002 C 
ATOM      4  C   UNL     1     127.125 110.277 133.264  1.00  0.00     0.005 C 
ATOM      5  C   UNL     1     126.858 108.852 133.777  1.00  0.00     0.010 C 
ATOM      6  C   UNL     1     125.886 109.088 134.957  1.00  0.00    -0.006 C 
ATOM      7  C   UNL     1     126.375 110.423 135.480  1.00  0.00     0.013 C 
ATOM      8  C   UNL     1     124.482 109.438 134.379  1.00  0.00     0.126 C 
ATOM      9  C   UNL     1     125.906 107.952 135.988  1.00  0.00     0.014 C 
ATOM     10  C   UNL     1     124.373 110.955 132.305  1.00  0.00     0.014 C 
ENDROOT
BRANCH   8  11
ATOM     11  O   UNL     1     123.443 109.347 135.330  1.00  0.00    -0.392 OA
ATOM     12  H   UNL     1     122.676 108.871 134.926  1.00  0.00     0.211 HD
ENDBRANCH   8  11
TORSDOF 1
ENDMDL
MODEL 4
REMARK VINA RESULT:    -1.968      1.783      3.228
REMARK INTER + INTRA:          -2.026
REMARK INTER:                  -2.026
REMARK INTRA:                   0.000
REMARK UNBOUND:                 0.000
REMARK SMILES CC1(C)[C@@H]2CC[C@@](C)(C2)[C@H]1O
REMARK SMILES IDX 1 1 2 2 4 3 5 4 6 5 7 6 9 7 10 8 8 9 3 10 11 11
REMARK H PARENT 11 12
REMARK Flexibility Score: inf
ROOT
ATOM      1  C   UNL     1     123.981 109.645 136.766  1.00  0.00     0.014 C 
ATOM      2  C   UNL     1     125.268 109.133 136.067  1.00  0.00    -0.006 C 
ATOM      3  C   UNL     1     124.915 108.568 134.647  1.00  0.00    -0.002 C 
ATOM      4  C   UNL     1     126.104 107.799 134.034  1.00  0.00     0.005 C 
ATOM      5  C   UNL     1     127.124 108.915 133.752  1.00  0.00     0.010 C 
ATOM      6  C   UNL     1     126.353 110.195 134.154  1.00  0.00    -0.006 C 
ATOM      7  C   UNL     1     124.935 109.815 133.779  1.00  0.00     0.013 C 
ATOM      8  C   UNL     1     126.291 110.267 135.709  1.00  0.00     0.126 C 
ATOM      9  C   UNL     1     126.881 111.457 133.459  1.00  0.00     0.014 C 
ATOM     10  C   UNL     1     125.909 108.080 137.006  1.00  0.00     0.014 C 
ENDROOT
BRANCH   8  11
ATOM     11  O   UNL     1     125.915 111.536 136.198  1.00  0.00    -0.392 OA
ATOM     12  H   UNL     1     124.989 111.732 135.909  1.00  0.00     0.211 HD
ENDBRANCH   8  11
TORSDOF 1
ENDMDL
MODEL 5
REMARK VINA RESULT:    -1.856      1.233      1.984
REMARK INTER + INTRA:          -1.910
REMARK INTER:                  -1.910
REMARK INTRA:                   0.000
REMARK UNBOUND:                 0.000
REMARK SMILES CC1(C)[C@@H]2CC[C@@](C)(C2)[C@H]1O
REMARK SMILES IDX 1 1 2 2 4 3 5 4 6 5 7 6 9 7 10 8 8 9 3 10 11 11
REMARK H PARENT 11 12
REMARK Flexibility Score: inf
ROOT
ATOM      1  C   UNL     1     122.867 108.480 135.445  1.00  0.00     0.014 C 
ATOM      2  C   UNL     1     123.941 109.531 135.059  1.00  0.00    -0.006 C 
ATOM      3  C   UNL     1     125.091 109.534 136.127  1.00  0.00    -0.002 C 
ATOM      4  C   UNL     1     126.030 110.744 135.939  1.00  0.00     0.005 C 
ATOM      5  C   UNL     1     126.745 110.421 134.617  1.00  0.00     0.010 C 
ATOM      6  C   UNL     1     126.192 109.020 134.261  1.00  0.00    -0.006 C 
ATOM      7  C   UNL     1     126.000 108.419 135.639  1.00  0.00     0.013 C 
ATOM      8  C   UNL     1     124.729 109.182 133.749  1.00  0.00     0.126 C 
ATOM      9  C   UNL     1     127.125 108.222 133.340  1.00  0.00     0.014 C 
ATOM     10  C   UNL     1     123.218 110.895 134.929  1.00  0.00     0.014 C 
ENDROOT
BRANCH   8  11
ATOM     11  O   UNL     1     124.236 108.038 133.086  1.00  0.00    -0.392 OA
ATOM     12  H   UNL     1     123.437 107.706 133.566  1.00  0.00     0.211 HD
ENDBRANCH   8  11
TORSDOF 1
ENDMDL
MODEL 6
REMARK VINA RESULT:    -1.762      1.974      3.164
REMARK INTER + INTRA:          -1.813
REMARK INTER:                  -1.813
REMARK INTRA:                   0.000
REMARK UNBOUND:                 0.000
REMARK SMILES CC1(C)[C@@H]2CC[C@@](C)(C2)[C@H]1O
REMARK SMILES IDX 1 1 2 2 4 3 5 4 6 5 7 6 9 7 10 8 8 9 3 10 11 11
REMARK H PARENT 11 12
REMARK Flexibility Score: inf
ROOT
ATOM      1  C   UNL     1     124.389 108.401 134.672  1.00  0.00     0.014 C 
ATOM      2  C   UNL     1     125.568 109.272 135.180  1.00  0.00    -0.006 C 
ATOM      3  C   UNL     1     125.132 110.779 135.234  1.00  0.00    -0.002 C 
ATOM      4  C   UNL     1     126.342 111.708 135.462  1.00  0.00     0.005 C 
ATOM      5  C   UNL     1     126.756 111.383 136.907  1.00  0.00     0.010 C 
ATOM      6  C   UNL     1     125.671 110.376 137.357  1.00  0.00    -0.006 C 
ATOM      7  C   UNL     1     124.463 110.882 136.595  1.00  0.00     0.013 C 
ATOM      8  C   UNL     1     125.958 109.004 136.675  1.00  0.00     0.126 C 
ATOM      9  C   UNL     1     125.491 110.327 138.880  1.00  0.00     0.014 C 
ATOM     10  C   UNL     1     126.768 109.013 134.235  1.00  0.00     0.014 C 
ENDROOT
BRANCH   8  11
ATOM     11  O   UNL     1     125.251 107.929 137.255  1.00  0.00    -0.392 OA
ATOM     12  H   UNL     1     124.281 108.069 137.116  1.00  0.00     0.211 HD
ENDBRANCH   8  11
TORSDOF 1
ENDMDL
MODEL 7
REMARK VINA RESULT:     0.000      6.053      7.466
REMARK INTER + INTRA:           0.000
REMARK INTER:                   0.000
REMARK INTRA:                   0.000
REMARK UNBOUND:                 0.000
REMARK SMILES CC1(C)[C@@H]2CC[C@@](C)(C2)[C@H]1O
REMARK SMILES IDX 1 1 2 2 4 3 5 4 6 5 7 6 9 7 10 8 8 9 3 10 11 11
REMARK H PARENT 11 12
REMARK Flexibility Score: inf
ROOT
ATOM      1  C   UNL     1     120.919 112.091 131.628  1.00  0.00     0.014 C 
ATOM      2  C   UNL     1     120.614 111.561 130.202  1.00  0.00    -0.006 C 
ATOM      3  C   UNL     1     120.252 112.759 129.255  1.00  0.00    -0.002 C 
ATOM      4  C   UNL     1     119.674 112.262 127.913  1.00  0.00     0.005 C 
ATOM      5  C   UNL     1     120.889 111.602 127.240  1.00  0.00     0.010 C 
ATOM      6  C   UNL     1     122.033 111.888 128.241  1.00  0.00    -0.006 C 
ATOM      7  C   UNL     1     121.617 113.237 128.790  1.00  0.00     0.013 C 
ATOM      8  C   UNL     1     121.859 110.947 129.472  1.00  0.00     0.126 C 
ATOM      9  C   UNL     1     123.422 111.864 127.589  1.00  0.00     0.014 C 
ATOM     10  C   UNL     1     119.476 110.519 130.337  1.00  0.00     0.014 C 
ENDROOT
BRANCH   8  11
ATOM     11  O   UNL     1     123.007 110.872 130.289  1.00  0.00    -0.392 OA
ATOM     12  H   UNL     1     123.813 110.948 129.720  1.00  0.00     0.211 HD
ENDBRANCH   8  11
TORSDOF 1
ENDMDL
