MODEL 1
REMARK VINA RESULT:    -6.212      0.000      0.000
REMARK INTER + INTRA:          -8.455
REMARK INTER:                  -7.846
REMARK INTRA:                  -0.610
REMARK UNBOUND:                -0.610
REMARK SMILES O=C(C=Cc1ccc(O)cc1)c1ccc(O)cc1O
REMARK SMILES IDX 4 1 3 2 5 3 6 4 7 5 8 6 11 7 10 8 9 9 2 11 1 12 12 13 18 14
REMARK SMILES IDX 13 15 17 16 14 17 15 18 19 19 16 21
REMARK H PARENT 9 10 19 20 16 22
REMARK Flexibility Score: inf
ROOT
ATOM      1  C   UNL     1      27.745  36.571  20.513  1.00  0.00     0.012 C 
ATOM      2  C   UNL     1      26.795  37.509  20.638  1.00  0.00     0.053 C 
ENDROOT
BRANCH   1   3
ATOM      3  C   UNL     1      27.946  35.470  21.487  1.00  0.00    -0.025 A 
ATOM      4  C   UNL     1      28.551  34.282  21.044  1.00  0.00     0.012 A 
ATOM      5  C   UNL     1      28.752  33.214  21.924  1.00  0.00     0.047 A 
ATOM      6  C   UNL     1      28.339  33.315  23.258  1.00  0.00     0.115 A 
ATOM      7  C   UNL     1      27.520  35.558  22.828  1.00  0.00     0.012 A 
ATOM      8  C   UNL     1      27.722  34.487  23.705  1.00  0.00     0.047 A 
BRANCH   6   9
ATOM      9  O   UNL     1      28.533  32.259  24.146  1.00  0.00    -0.508 OA
ATOM     10  H   UNL     1      28.842  32.418  25.098  1.00  0.00     0.293 HD
ENDBRANCH   6   9
ENDBRANCH   1   3
BRANCH   2  11
ATOM     11  C   UNL     1      26.635  38.602  19.654  1.00  0.00     0.189 C 
ATOM     12  O   UNL     1      26.561  38.335  18.423  1.00  0.00    -0.289 OA
BRANCH  11  13
ATOM     13  C   UNL     1      26.610  40.020  20.085  1.00  0.00     0.064 A 
ATOM     14  C   UNL     1      27.173  41.050  19.297  1.00  0.00     0.130 A 
ATOM     15  C   UNL     1      26.034  40.346  21.325  1.00  0.00     0.020 A 
ATOM     16  C   UNL     1      27.113  42.379  19.739  1.00  0.00     0.093 A 
ATOM     17  C   UNL     1      25.986  41.674  21.759  1.00  0.00     0.047 A 
ATOM     18  C   UNL     1      26.519  42.693  20.969  1.00  0.00     0.119 A 
BRANCH  14  19
ATOM     19  O   UNL     1      27.812  40.752  18.094  1.00  0.00    -0.507 OA
ATOM     20  H   UNL     1      27.456  40.042  17.464  1.00  0.00     0.293 HD
ENDBRANCH  14  19
BRANCH  18  21
ATOM     21  O   UNL     1      26.459  44.012  21.414  1.00  0.00    -0.508 OA
ATOM     22  H   UNL     1      25.805  44.297  22.133  1.00  0.00     0.293 HD
ENDBRANCH  18  21
ENDBRANCH  11  13
ENDBRANCH   2  11
TORSDOF 6
ENDMDL
MODEL 2
REMARK VINA RESULT:    -5.615      1.074      1.936
REMARK INTER + INTRA:          -7.702
REMARK INTER:                  -7.304
REMARK INTRA:                  -0.398
REMARK UNBOUND:                -0.610
REMARK SMILES O=C(C=Cc1ccc(O)cc1)c1ccc(O)cc1O
REMARK SMILES IDX 4 1 3 2 5 3 6 4 7 5 8 6 11 7 10 8 9 9 2 11 1 12 12 13 18 14
REMARK SMILES IDX 13 15 17 16 14 17 15 18 19 19 16 21
REMARK H PARENT 9 10 19 20 16 22
REMARK Flexibility Score: inf
ROOT
ATOM      1  C   UNL     1      27.925  36.705  20.666  1.00  0.00     0.012 C 
ATOM      2  C   UNL     1      26.839  37.488  20.600  1.00  0.00     0.053 C 
ENDROOT
BRANCH   1   3
ATOM      3  C   UNL     1      28.037  35.528  21.562  1.00  0.00    -0.025 A 
ATOM      4  C   UNL     1      27.575  35.642  22.884  1.00  0.00     0.012 A 
ATOM      5  C   UNL     1      27.671  34.561  23.766  1.00  0.00     0.047 A 
ATOM      6  C   UNL     1      28.241  33.355  23.343  1.00  0.00     0.115 A 
ATOM      7  C   UNL     1      28.624  34.315  21.148  1.00  0.00     0.012 A 
ATOM      8  C   UNL     1      28.718  33.237  22.034  1.00  0.00     0.047 A 
BRANCH   6   9
ATOM      9  O   UNL     1      28.341  32.271  24.212  1.00  0.00    -0.508 OA
ATOM     10  H   UNL     1      28.992  31.513  24.039  1.00  0.00     0.293 HD
ENDBRANCH   6   9
ENDBRANCH   1   3
BRANCH   2  11
ATOM     11  C   UNL     1      26.770  38.665  19.705  1.00  0.00     0.189 C 
ATOM     12  O   UNL     1      26.554  38.505  18.473  1.00  0.00    -0.289 OA
BRANCH  11  13
ATOM     13  C   UNL     1      27.001  40.033  20.223  1.00  0.00     0.064 A 
ATOM     14  C   UNL     1      26.104  40.652  21.124  1.00  0.00     0.130 A 
ATOM     15  C   UNL     1      28.129  40.748  19.784  1.00  0.00     0.020 A 
ATOM     16  C   UNL     1      26.372  41.944  21.599  1.00  0.00     0.093 A 
ATOM     17  C   UNL     1      28.383  42.038  20.259  1.00  0.00     0.047 A 
ATOM     18  C   UNL     1      27.510  42.638  21.168  1.00  0.00     0.119 A 
BRANCH  14  19
ATOM     19  O   UNL     1      24.940  39.998  21.527  1.00  0.00    -0.507 OA
ATOM     20  H   UNL     1      24.613  40.036  22.486  1.00  0.00     0.293 HD
ENDBRANCH  14  19
BRANCH  18  21
ATOM     21  O   UNL     1      27.780  43.922  21.635  1.00  0.00    -0.508 OA
ATOM     22  H   UNL     1      28.337  44.575  21.096  1.00  0.00     0.293 HD
ENDBRANCH  18  21
ENDBRANCH  11  13
ENDBRANCH   2  11
TORSDOF 6
ENDMDL
MODEL 3
REMARK VINA RESULT:    -5.493      4.009     10.424
REMARK INTER + INTRA:          -7.548
REMARK INTER:                  -6.934
REMARK INTRA:                  -0.614
REMARK UNBOUND:                -0.610
REMARK SMILES O=C(C=Cc1ccc(O)cc1)c1ccc(O)cc1O
REMARK SMILES IDX 4 1 3 2 5 3 6 4 7 5 8 6 11 7 10 8 9 9 2 11 1 12 12 13 18 14
REMARK SMILES IDX 13 15 17 16 14 17 15 18 19 19 16 21
REMARK H PARENT 9 10 19 20 16 22
REMARK Flexibility Score: inf
ROOT
ATOM      1  C   UNL     1      28.693  32.451  23.099  1.00  0.00     0.012 C 
ATOM      2  C   UNL     1      28.365  31.848  24.249  1.00  0.00     0.053 C 
ENDROOT
BRANCH   1   3
ATOM      3  C   UNL     1      28.386  33.872  22.797  1.00  0.00    -0.025 A 
ATOM      4  C   UNL     1      27.683  34.625  23.752  1.00  0.00     0.012 A 
ATOM      5  C   UNL     1      27.364  35.964  23.506  1.00  0.00     0.047 A 
ATOM      6  C   UNL     1      27.733  36.565  22.297  1.00  0.00     0.115 A 
ATOM      7  C   UNL     1      28.741  34.480  21.576  1.00  0.00     0.012 A 
ATOM      8  C   UNL     1      28.418  35.819  21.335  1.00  0.00     0.047 A 
BRANCH   6   9
ATOM      9  O   UNL     1      27.421  37.898  22.040  1.00  0.00    -0.508 OA
ATOM     10  H   UNL     1      28.143  38.584  21.850  1.00  0.00     0.293 HD
ENDBRANCH   6   9
ENDBRANCH   1   3
BRANCH   2  11
ATOM     11  C   UNL     1      28.673  30.424  24.508  1.00  0.00     0.189 C 
ATOM     12  O   UNL     1      29.125  29.700  23.579  1.00  0.00    -0.289 OA
BRANCH  11  13
ATOM     13  C   UNL     1      28.412  29.814  25.832  1.00  0.00     0.064 A 
ATOM     14  C   UNL     1      27.447  28.796  26.009  1.00  0.00     0.130 A 
ATOM     15  C   UNL     1      29.125  30.280  26.951  1.00  0.00     0.020 A 
ATOM     16  C   UNL     1      27.245  28.238  27.279  1.00  0.00     0.093 A 
ATOM     17  C   UNL     1      28.911  29.721  28.214  1.00  0.00     0.047 A 
ATOM     18  C   UNL     1      27.976  28.698  28.382  1.00  0.00     0.119 A 
BRANCH  14  19
ATOM     19  O   UNL     1      26.675  28.358  24.933  1.00  0.00    -0.507 OA
ATOM     20  H   UNL     1      25.833  28.846  24.649  1.00  0.00     0.293 HD
ENDBRANCH  14  19
BRANCH  18  21
ATOM     21  O   UNL     1      27.777  28.149  29.647  1.00  0.00    -0.508 OA
ATOM     22  H   UNL     1      28.249  28.519  30.464  1.00  0.00     0.293 HD
ENDBRANCH  18  21
ENDBRANCH  11  13
ENDBRANCH   2  11
TORSDOF 6
ENDMDL
MODEL 4
REMARK VINA RESULT:    -5.406      1.498      7.661
REMARK INTER + INTRA:          -7.438
REMARK INTER:                  -6.995
REMARK INTRA:                  -0.443
REMARK UNBOUND:                -0.610
REMARK SMILES O=C(C=Cc1ccc(O)cc1)c1ccc(O)cc1O
REMARK SMILES IDX 4 1 3 2 5 3 6 4 7 5 8 6 11 7 10 8 9 9 2 11 1 12 12 13 18 14
REMARK SMILES IDX 13 15 17 16 14 17 15 18 19 19 16 21
REMARK H PARENT 9 10 19 20 16 22
REMARK Flexibility Score: inf
ROOT
ATOM      1  C   UNL     1      27.980  38.541  19.687  1.00  0.00     0.012 C 
ATOM      2  C   UNL     1      28.162  37.619  20.643  1.00  0.00     0.053 C 
ENDROOT
BRANCH   1   3
ATOM      3  C   UNL     1      27.499  39.919  19.953  1.00  0.00    -0.025 A 
ATOM      4  C   UNL     1      26.821  40.175  21.156  1.00  0.00     0.012 A 
ATOM      5  C   UNL     1      26.341  41.456  21.445  1.00  0.00     0.047 A 
ATOM      6  C   UNL     1      26.522  42.498  20.528  1.00  0.00     0.115 A 
ATOM      7  C   UNL     1      27.664  40.970  19.028  1.00  0.00     0.012 A 
ATOM      8  C   UNL     1      27.182  42.250  19.320  1.00  0.00     0.047 A 
BRANCH   6   9
ATOM      9  O   UNL     1      26.050  43.779  20.803  1.00  0.00    -0.508 OA
ATOM     10  H   UNL     1      26.313  44.574  20.232  1.00  0.00     0.293 HD
ENDBRANCH   6   9
ENDBRANCH   1   3
BRANCH   2  11
ATOM     11  C   UNL     1      28.628  36.249  20.337  1.00  0.00     0.189 C 
ATOM     12  O   UNL     1      29.069  35.976  19.187  1.00  0.00    -0.289 OA
BRANCH  11  13
ATOM     13  C   UNL     1      28.540  35.168  21.347  1.00  0.00     0.064 A 
ATOM     14  C   UNL     1      28.788  33.816  21.018  1.00  0.00     0.130 A 
ATOM     15  C   UNL     1      28.172  35.494  22.665  1.00  0.00     0.020 A 
ATOM     16  C   UNL     1      28.707  32.830  22.012  1.00  0.00     0.093 A 
ATOM     17  C   UNL     1      28.087  34.502  23.645  1.00  0.00     0.047 A 
ATOM     18  C   UNL     1      28.358  33.170  23.325  1.00  0.00     0.119 A 
BRANCH  14  19
ATOM     19  O   UNL     1      29.089  33.450  19.707  1.00  0.00    -0.507 OA
ATOM     20  H   UNL     1      28.933  32.507  19.369  1.00  0.00     0.293 HD
ENDBRANCH  14  19
BRANCH  18  21
ATOM     21  O   UNL     1      28.273  32.194  24.315  1.00  0.00    -0.508 OA
ATOM     22  H   UNL     1      29.092  31.891  24.830  1.00  0.00     0.293 HD
ENDBRANCH  18  21
ENDBRANCH  11  13
ENDBRANCH   2  11
TORSDOF 6
ENDMDL
MODEL 5
REMARK VINA RESULT:    -5.154      7.867     13.554
REMARK INTER + INTRA:          -7.119
REMARK INTER:                  -6.432
REMARK INTRA:                  -0.688
REMARK UNBOUND:                -0.610
REMARK SMILES O=C(C=Cc1ccc(O)cc1)c1ccc(O)cc1O
REMARK SMILES IDX 4 1 3 2 5 3 6 4 7 5 8 6 11 7 10 8 9 9 2 11 1 12 12 13 18 14
REMARK SMILES IDX 13 15 17 16 14 17 15 18 19 19 16 21
REMARK H PARENT 9 10 19 20 16 22
REMARK Flexibility Score: inf
ROOT
ATOM      1  C   UNL     1      28.571  28.071  25.818  1.00  0.00     0.012 C 
ATOM      2  C   UNL     1      27.755  27.042  25.552  1.00  0.00     0.053 C 
ENDROOT
BRANCH   1   3
ATOM      3  C   UNL     1      28.732  29.246  24.925  1.00  0.00    -0.025 A 
ATOM      4  C   UNL     1      28.582  30.531  25.470  1.00  0.00     0.012 A 
ATOM      5  C   UNL     1      28.715  31.666  24.664  1.00  0.00     0.047 A 
ATOM      6  C   UNL     1      28.989  31.531  23.298  1.00  0.00     0.115 A 
ATOM      7  C   UNL     1      28.994  29.117  23.545  1.00  0.00     0.012 A 
ATOM      8  C   UNL     1      29.125  30.255  22.743  1.00  0.00     0.047 A 
BRANCH   6   9
ATOM      9  O   UNL     1      29.125  32.653  22.484  1.00  0.00    -0.508 OA
ATOM     10  H   UNL     1      29.442  33.541  22.856  1.00  0.00     0.293 HD
ENDBRANCH   6   9
ENDBRANCH   1   3
BRANCH   2  11
ATOM     11  C   UNL     1      27.633  25.879  26.459  1.00  0.00     0.189 C 
ATOM     12  O   UNL     1      27.777  24.711  26.006  1.00  0.00    -0.289 OA
BRANCH  11  13
ATOM     13  C   UNL     1      27.292  26.059  27.890  1.00  0.00     0.064 A 
ATOM     14  C   UNL     1      27.974  25.362  28.913  1.00  0.00     0.130 A 
ATOM     15  C   UNL     1      26.242  26.927  28.238  1.00  0.00     0.020 A 
ATOM     16  C   UNL     1      27.626  25.576  30.255  1.00  0.00     0.093 A 
ATOM     17  C   UNL     1      25.899  27.127  29.577  1.00  0.00     0.047 A 
ATOM     18  C   UNL     1      26.590  26.458  30.589  1.00  0.00     0.119 A 
BRANCH  14  19
ATOM     19  O   UNL     1      28.974  24.443  28.599  1.00  0.00    -0.507 OA
ATOM     20  H   UNL     1      29.816  24.720  28.107  1.00  0.00     0.293 HD
ENDBRANCH  14  19
BRANCH  18  21
ATOM     21  O   UNL     1      26.239  26.672  31.920  1.00  0.00    -0.508 OA
ATOM     22  H   UNL     1      25.511  26.128  32.368  1.00  0.00     0.293 HD
ENDBRANCH  18  21
ENDBRANCH  11  13
ENDBRANCH   2  11
TORSDOF 6
ENDMDL
MODEL 6
REMARK VINA RESULT:    -4.989      2.343      3.206
REMARK INTER + INTRA:          -6.911
REMARK INTER:                  -6.286
REMARK INTRA:                  -0.625
REMARK UNBOUND:                -0.610
REMARK SMILES O=C(C=Cc1ccc(O)cc1)c1ccc(O)cc1O
REMARK SMILES IDX 4 1 3 2 5 3 6 4 7 5 8 6 11 7 10 8 9 9 2 11 1 12 12 13 18 14
REMARK SMILES IDX 13 15 17 16 14 17 15 18 19 19 16 21
REMARK H PARENT 9 10 19 20 16 22
REMARK Flexibility Score: inf
ROOT
ATOM      1  C   UNL     1      27.448  38.174  21.349  1.00  0.00     0.012 C 
ATOM      2  C   UNL     1      28.203  39.200  20.933  1.00  0.00     0.053 C 
ENDROOT
BRANCH   1   3
ATOM      3  C   UNL     1      27.886  36.757  21.297  1.00  0.00    -0.025 A 
ATOM      4  C   UNL     1      27.691  35.950  22.430  1.00  0.00     0.012 A 
ATOM      5  C   UNL     1      28.097  34.612  22.429  1.00  0.00     0.047 A 
ATOM      6  C   UNL     1      28.716  34.065  21.299  1.00  0.00     0.115 A 
ATOM      7  C   UNL     1      28.523  36.203  20.168  1.00  0.00     0.012 A 
ATOM      8  C   UNL     1      28.929  34.864  20.172  1.00  0.00     0.047 A 
BRANCH   6   9
ATOM      9  O   UNL     1      29.125  32.734  21.285  1.00  0.00    -0.508 OA
ATOM     10  H   UNL     1      30.049  32.461  21.600  1.00  0.00     0.293 HD
ENDBRANCH   6   9
ENDBRANCH   1   3
BRANCH   2  11
ATOM     11  C   UNL     1      27.725  40.600  20.986  1.00  0.00     0.189 C 
ATOM     12  O   UNL     1      27.222  41.131  19.958  1.00  0.00    -0.289 OA
BRANCH  11  13
ATOM     13  C   UNL     1      27.875  41.413  22.216  1.00  0.00     0.064 A 
ATOM     14  C   UNL     1      27.006  42.489  22.509  1.00  0.00     0.130 A 
ATOM     15  C   UNL     1      28.927  41.123  23.102  1.00  0.00     0.020 A 
ATOM     16  C   UNL     1      27.178  43.221  23.694  1.00  0.00     0.093 A 
ATOM     17  C   UNL     1      29.093  41.863  24.275  1.00  0.00     0.047 A 
ATOM     18  C   UNL     1      28.219  42.910  24.577  1.00  0.00     0.119 A 
BRANCH  14  19
ATOM     19  O   UNL     1      25.994  42.846  21.619  1.00  0.00    -0.507 OA
ATOM     20  H   UNL     1      26.019  43.721  21.108  1.00  0.00     0.293 HD
ENDBRANCH  14  19
BRANCH  18  21
ATOM     21  O   UNL     1      28.395  43.635  25.753  1.00  0.00    -0.508 OA
ATOM     22  H   UNL     1      29.172  43.450  26.377  1.00  0.00     0.293 HD
ENDBRANCH  18  21
ENDBRANCH  11  13
ENDBRANCH   2  11
TORSDOF 6
ENDMDL
MODEL 7
REMARK VINA RESULT:    -4.970      5.274     11.352
REMARK INTER + INTRA:          -6.888
REMARK INTER:                  -6.542
REMARK INTRA:                  -0.346
REMARK UNBOUND:                -0.610
REMARK SMILES O=C(C=Cc1ccc(O)cc1)c1ccc(O)cc1O
REMARK SMILES IDX 4 1 3 2 5 3 6 4 7 5 8 6 11 7 10 8 9 9 2 11 1 12 12 13 18 14
REMARK SMILES IDX 13 15 17 16 14 17 15 18 19 19 16 21
REMARK H PARENT 9 10 19 20 16 22
REMARK Flexibility Score: inf
ROOT
ATOM      1  C   UNL     1      29.026  30.853  24.350  1.00  0.00     0.012 C 
ATOM      2  C   UNL     1      28.095  30.164  25.024  1.00  0.00     0.053 C 
ENDROOT
BRANCH   1   3
ATOM      3  C   UNL     1      28.751  32.123  23.633  1.00  0.00    -0.025 A 
ATOM      4  C   UNL     1      29.065  32.205  22.266  1.00  0.00     0.012 A 
ATOM      5  C   UNL     1      28.832  33.385  21.552  1.00  0.00     0.047 A 
ATOM      6  C   UNL     1      28.292  34.503  22.198  1.00  0.00     0.115 A 
ATOM      7  C   UNL     1      28.221  33.258  24.279  1.00  0.00     0.012 A 
ATOM      8  C   UNL     1      27.990  34.436  23.561  1.00  0.00     0.047 A 
BRANCH   6   9
ATOM      9  O   UNL     1      28.055  35.684  21.499  1.00  0.00    -0.508 OA
ATOM     10  H   UNL     1      27.189  35.835  20.994  1.00  0.00     0.293 HD
ENDBRANCH   6   9
ENDBRANCH   1   3
BRANCH   2  11
ATOM     11  C   UNL     1      28.403  28.892  25.714  1.00  0.00     0.189 C 
ATOM     12  O   UNL     1      29.120  28.024  25.144  1.00  0.00    -0.289 OA
BRANCH  11  13
ATOM     13  C   UNL     1      27.841  28.593  27.052  1.00  0.00     0.064 A 
ATOM     14  C   UNL     1      28.194  29.345  28.195  1.00  0.00     0.130 A 
ATOM     15  C   UNL     1      26.952  27.513  27.194  1.00  0.00     0.020 A 
ATOM     16  C   UNL     1      27.625  29.035  29.439  1.00  0.00     0.093 A 
ATOM     17  C   UNL     1      26.396  27.208  28.439  1.00  0.00     0.047 A 
ATOM     18  C   UNL     1      26.726  27.968  29.563  1.00  0.00     0.119 A 
BRANCH  14  19
ATOM     19  O   UNL     1      29.125  30.380  28.103  1.00  0.00    -0.507 OA
ATOM     20  H   UNL     1      28.853  31.351  28.205  1.00  0.00     0.293 HD
ENDBRANCH  14  19
BRANCH  18  21
ATOM     21  O   UNL     1      26.159  27.654  30.796  1.00  0.00    -0.508 OA
ATOM     22  H   UNL     1      26.661  27.104  31.483  1.00  0.00     0.293 HD
ENDBRANCH  18  21
ENDBRANCH  11  13
ENDBRANCH   2  11
TORSDOF 6
ENDMDL
MODEL 8
REMARK VINA RESULT:    -4.802      7.616     12.530
REMARK INTER + INTRA:          -6.674
REMARK INTER:                  -5.960
REMARK INTRA:                  -0.715
REMARK UNBOUND:                -0.610
REMARK SMILES O=C(C=Cc1ccc(O)cc1)c1ccc(O)cc1O
REMARK SMILES IDX 4 1 3 2 5 3 6 4 7 5 8 6 11 7 10 8 9 9 2 11 1 12 12 13 18 14
REMARK SMILES IDX 13 15 17 16 14 17 15 18 19 19 16 21
REMARK H PARENT 9 10 19 20 16 22
REMARK Flexibility Score: inf
ROOT
ATOM      1  C   UNL     1      28.015  28.974  26.019  1.00  0.00     0.012 C 
ATOM      2  C   UNL     1      28.948  28.506  26.860  1.00  0.00     0.053 C 
ENDROOT
BRANCH   1   3
ATOM      3  C   UNL     1      28.322  29.820  24.839  1.00  0.00    -0.025 A 
ATOM      4  C   UNL     1      28.208  31.215  24.963  1.00  0.00     0.012 A 
ATOM      5  C   UNL     1      28.477  32.050  23.874  1.00  0.00     0.047 A 
ATOM      6  C   UNL     1      28.853  31.502  22.643  1.00  0.00     0.115 A 
ATOM      7  C   UNL     1      28.687  29.275  23.591  1.00  0.00     0.012 A 
ATOM      8  C   UNL     1      28.954  30.115  22.505  1.00  0.00     0.047 A 
BRANCH   6   9
ATOM      9  O   UNL     1      29.125  32.323  21.551  1.00  0.00    -0.508 OA
ATOM     10  H   UNL     1      29.774  33.099  21.620  1.00  0.00     0.293 HD
ENDBRANCH   6   9
ENDBRANCH   1   3
BRANCH   2  11
ATOM     11  C   UNL     1      28.602  27.678  28.037  1.00  0.00     0.189 C 
ATOM     12  O   UNL     1      29.121  26.537  28.177  1.00  0.00    -0.289 OA
BRANCH  11  13
ATOM     13  C   UNL     1      27.612  28.145  29.035  1.00  0.00     0.064 A 
ATOM     14  C   UNL     1      26.542  27.327  29.464  1.00  0.00     0.130 A 
ATOM     15  C   UNL     1      27.724  29.448  29.550  1.00  0.00     0.020 A 
ATOM     16  C   UNL     1      25.637  27.807  30.423  1.00  0.00     0.093 A 
ATOM     17  C   UNL     1      26.813  29.919  30.500  1.00  0.00     0.047 A 
ATOM     18  C   UNL     1      25.771  29.101  30.942  1.00  0.00     0.119 A 
BRANCH  14  19
ATOM     19  O   UNL     1      26.361  26.054  28.924  1.00  0.00    -0.507 OA
ATOM     20  H   UNL     1      25.462  25.588  28.950  1.00  0.00     0.293 HD
ENDBRANCH  14  19
BRANCH  18  21
ATOM     21  O   UNL     1      24.875  29.584  31.892  1.00  0.00    -0.508 OA
ATOM     22  H   UNL     1      25.182  29.858  32.818  1.00  0.00     0.293 HD
ENDBRANCH  18  21
ENDBRANCH  11  13
ENDBRANCH   2  11
TORSDOF 6
ENDMDL
MODEL 9
REMARK VINA RESULT:    -4.640      1.749      7.179
REMARK INTER + INTRA:          -6.470
REMARK INTER:                  -6.012
REMARK INTRA:                  -0.458
REMARK UNBOUND:                -0.610
REMARK SMILES O=C(C=Cc1ccc(O)cc1)c1ccc(O)cc1O
REMARK SMILES IDX 4 1 3 2 5 3 6 4 7 5 8 6 11 7 10 8 9 9 2 11 1 12 12 13 18 14
REMARK SMILES IDX 13 15 17 16 14 17 15 18 19 19 16 21
REMARK H PARENT 9 10 19 20 16 22
REMARK Flexibility Score: inf
ROOT
ATOM      1  C   UNL     1      26.319  39.099  21.109  1.00  0.00     0.012 C 
ATOM      2  C   UNL     1      25.641  38.132  20.476  1.00  0.00     0.053 C 
ENDROOT
BRANCH   1   3
ATOM      3  C   UNL     1      26.613  40.425  20.509  1.00  0.00    -0.025 A 
ATOM      4  C   UNL     1      27.272  40.472  19.270  1.00  0.00     0.012 A 
ATOM      5  C   UNL     1      27.578  41.698  18.673  1.00  0.00     0.047 A 
ATOM      6  C   UNL     1      27.240  42.896  19.313  1.00  0.00     0.115 A 
ATOM      7  C   UNL     1      26.289  41.636  21.154  1.00  0.00     0.012 A 
ATOM      8  C   UNL     1      26.598  42.861  20.553  1.00  0.00     0.047 A 
BRANCH   6   9
ATOM      9  O   UNL     1      27.539  44.125  18.728  1.00  0.00    -0.508 OA
ATOM     10  H   UNL     1      27.050  44.972  18.997  1.00  0.00     0.293 HD
ENDBRANCH   6   9
ENDBRANCH   1   3
BRANCH   2  11
ATOM     11  C   UNL     1      25.381  36.816  21.100  1.00  0.00     0.189 C 
ATOM     12  O   UNL     1      24.279  36.234  20.904  1.00  0.00    -0.289 OA
BRANCH  11  13
ATOM     13  C   UNL     1      26.377  36.186  21.999  1.00  0.00     0.064 A 
ATOM     14  C   UNL     1      27.647  35.776  21.534  1.00  0.00     0.130 A 
ATOM     15  C   UNL     1      26.038  35.966  23.345  1.00  0.00     0.020 A 
ATOM     16  C   UNL     1      28.563  35.197  22.425  1.00  0.00     0.093 A 
ATOM     17  C   UNL     1      26.956  35.382  24.223  1.00  0.00     0.047 A 
ATOM     18  C   UNL     1      28.220  35.001  23.769  1.00  0.00     0.119 A 
BRANCH  14  19
ATOM     19  O   UNL     1      27.990  35.917  20.190  1.00  0.00    -0.507 OA
ATOM     20  H   UNL     1      27.777  36.763  19.673  1.00  0.00     0.293 HD
ENDBRANCH  14  19
BRANCH  18  21
ATOM     21  O   UNL     1      29.125  34.424  24.657  1.00  0.00    -0.508 OA
ATOM     22  H   UNL     1      30.077  34.216  24.381  1.00  0.00     0.293 HD
ENDBRANCH  18  21
ENDBRANCH  11  13
ENDBRANCH   2  11
TORSDOF 6
ENDMDL
