MODEL 1
REMARK VINA RESULT:    -3.653      0.000      0.000
REMARK INTER + INTRA:          -4.679
REMARK INTER:                  -4.507
REMARK INTRA:                  -0.172
REMARK UNBOUND:                -0.172
REMARK SMILES CCCCC=CC(C)=O
REMARK SMILES IDX 4 1 3 2 2 3 1 4 5 5 6 6 7 7 9 8 8 9
REMARK H PARENT
REMARK Flexibility Score: inf
ROOT
ATOM      1  C   UNL     1      18.133  11.029  52.752  1.00  0.00     0.027 C 
ENDROOT
BRANCH   1   2
ATOM      2  C   UNL     1      18.442  12.388  52.104  1.00  0.00     0.004 C 
BRANCH   2   3
ATOM      3  C   UNL     1      18.927  13.429  53.125  1.00  0.00    -0.003 C 
ATOM      4  C   UNL     1      18.739  14.867  52.640  1.00  0.00     0.004 C 
ENDBRANCH   2   3
ENDBRANCH   1   2
BRANCH   1   5
ATOM      5  C   UNL     1      17.087  10.284  51.974  1.00  0.00    -0.023 C 
ATOM      6  C   UNL     1      16.411  10.863  50.976  1.00  0.00     0.042 C 
BRANCH   6   7
ATOM      7  C   UNL     1      15.391  10.144  50.190  1.00  0.00     0.152 C 
ATOM      8  O   UNL     1      14.166  10.248  50.474  1.00  0.00    -0.295 OA
ATOM      9  C   UNL     1      15.811   9.286  49.041  1.00  0.00     0.093 C 
ENDBRANCH   6   7
ENDBRANCH   1   5
TORSDOF 4
ENDMDL
MODEL 2
REMARK VINA RESULT:    -3.629     20.848     22.323
REMARK INTER + INTRA:          -4.649
REMARK INTER:                  -4.407
REMARK INTRA:                  -0.242
REMARK UNBOUND:                -0.172
REMARK SMILES CCCCC=CC(C)=O
REMARK SMILES IDX 4 1 3 2 2 3 1 4 5 5 6 6 7 7 9 8 8 9
REMARK H PARENT
REMARK Flexibility Score: inf
ROOT
ATOM      1  C   UNL     1       2.037  23.652  38.001  1.00  0.00     0.027 C 
ENDROOT
BRANCH   1   2
ATOM      2  C   UNL     1       1.893  22.284  37.317  1.00  0.00     0.004 C 
BRANCH   2   3
ATOM      3  C   UNL     1       0.567  21.589  37.665  1.00  0.00    -0.003 C 
ATOM      4  C   UNL     1       0.767  20.204  38.280  1.00  0.00     0.004 C 
ENDBRANCH   2   3
ENDBRANCH   1   2
BRANCH   1   5
ATOM      5  C   UNL     1       3.348  23.761  38.723  1.00  0.00    -0.023 C 
ATOM      6  C   UNL     1       4.164  22.709  38.857  1.00  0.00     0.042 C 
BRANCH   6   7
ATOM      7  C   UNL     1       5.463  22.799  39.550  1.00  0.00     0.152 C 
ATOM      8  O   UNL     1       5.600  22.358  40.723  1.00  0.00    -0.295 OA
ATOM      9  C   UNL     1       6.632  23.415  38.853  1.00  0.00     0.093 C 
ENDBRANCH   6   7
ENDBRANCH   1   5
TORSDOF 4
ENDMDL
MODEL 3
REMARK VINA RESULT:    -3.620      1.011      1.279
REMARK INTER + INTRA:          -4.638
REMARK INTER:                  -4.395
REMARK INTRA:                  -0.243
REMARK UNBOUND:                -0.172
REMARK SMILES CCCCC=CC(C)=O
REMARK SMILES IDX 4 1 3 2 2 3 1 4 5 5 6 6 7 7 9 8 8 9
REMARK H PARENT
REMARK Flexibility Score: inf
ROOT
ATOM      1  C   UNL     1      18.444  11.521  52.919  1.00  0.00     0.027 C 
ENDROOT
BRANCH   1   2
ATOM      2  C   UNL     1      19.051  12.917  53.125  1.00  0.00     0.004 C 
BRANCH   2   3
ATOM      3  C   UNL     1      18.706  13.884  51.981  1.00  0.00    -0.003 C 
ATOM      4  C   UNL     1      18.620  15.339  52.440  1.00  0.00     0.004 C 
ENDBRANCH   2   3
ENDBRANCH   1   2
BRANCH   1   5
ATOM      5  C   UNL     1      17.528  11.499  51.729  1.00  0.00    -0.023 C 
ATOM      6  C   UNL     1      16.551  10.593  51.615  1.00  0.00     0.042 C 
BRANCH   6   7
ATOM      7  C   UNL     1      15.631  10.563  50.463  1.00  0.00     0.152 C 
ATOM      8  O   UNL     1      15.026   9.502  50.149  1.00  0.00    -0.295 OA
ATOM      9  C   UNL     1      15.410  11.803  49.660  1.00  0.00     0.093 C 
ENDBRANCH   6   7
ENDBRANCH   1   5
TORSDOF 4
ENDMDL
MODEL 4
REMARK VINA RESULT:    -3.619     22.821     23.855
REMARK INTER + INTRA:          -4.637
REMARK INTER:                  -4.450
REMARK INTRA:                  -0.187
REMARK UNBOUND:                -0.172
REMARK SMILES CCCCC=CC(C)=O
REMARK SMILES IDX 4 1 3 2 2 3 1 4 5 5 6 6 7 7 9 8 8 9
REMARK H PARENT
REMARK Flexibility Score: inf
ROOT
ATOM      1  C   UNL     1       2.206  22.487  37.255  1.00  0.00     0.027 C 
ENDROOT
BRANCH   1   2
ATOM      2  C   UNL     1       0.848  21.886  37.648  1.00  0.00     0.004 C 
BRANCH   2   3
ATOM      3  C   UNL     1       0.970  20.443  38.162  1.00  0.00    -0.003 C 
ATOM      4  C   UNL     1      -0.384  19.817  38.498  1.00  0.00     0.004 C 
ENDBRANCH   2   3
ENDBRANCH   1   2
BRANCH   1   5
ATOM      5  C   UNL     1       2.554  23.657  38.130  1.00  0.00    -0.023 C 
ATOM      6  C   UNL     1       1.613  24.345  38.786  1.00  0.00     0.042 C 
BRANCH   6   7
ATOM      7  C   UNL     1       1.935  25.487  39.661  1.00  0.00     0.152 C 
ATOM      8  O   UNL     1       1.444  26.628  39.440  1.00  0.00    -0.295 OA
ATOM      9  C   UNL     1       2.850  25.292  40.827  1.00  0.00     0.093 C 
ENDBRANCH   6   7
ENDBRANCH   1   5
TORSDOF 4
ENDMDL
MODEL 5
REMARK VINA RESULT:    -3.564     18.368     19.093
REMARK INTER + INTRA:          -4.569
REMARK INTER:                  -4.381
REMARK INTRA:                  -0.188
REMARK UNBOUND:                -0.172
REMARK SMILES CCCCC=CC(C)=O
REMARK SMILES IDX 4 1 3 2 2 3 1 4 5 5 6 6 7 7 9 8 8 9
REMARK H PARENT
REMARK Flexibility Score: inf
ROOT
ATOM      1  C   UNL     1      17.380  22.569  34.989  1.00  0.00     0.027 C 
ENDROOT
BRANCH   1   2
ATOM      2  C   UNL     1      18.280  21.450  35.534  1.00  0.00     0.004 C 
BRANCH   2   3
ATOM      3  C   UNL     1      19.093  20.757  34.429  1.00  0.00    -0.003 C 
ATOM      4  C   UNL     1      19.119  21.554  33.124  1.00  0.00     0.004 C 
ENDBRANCH   2   3
ENDBRANCH   1   2
BRANCH   1   5
ATOM      5  C   UNL     1      16.255  22.869  35.936  1.00  0.00    -0.023 C 
ATOM      6  C   UNL     1      15.651  21.902  36.635  1.00  0.00     0.042 C 
BRANCH   6   7
ATOM      7  C   UNL     1      14.554  22.178  37.582  1.00  0.00     0.152 C 
ATOM      8  O   UNL     1      14.745  22.904  38.595  1.00  0.00    -0.295 OA
ATOM      9  C   UNL     1      13.200  21.594  37.337  1.00  0.00     0.093 C 
ENDBRANCH   6   7
ENDBRANCH   1   5
TORSDOF 4
ENDMDL
MODEL 6
REMARK VINA RESULT:    -3.559     18.613     19.478
REMARK INTER + INTRA:          -4.563
REMARK INTER:                  -4.427
REMARK INTRA:                  -0.136
REMARK UNBOUND:                -0.172
REMARK SMILES CCCCC=CC(C)=O
REMARK SMILES IDX 4 1 3 2 2 3 1 4 5 5 6 6 7 7 9 8 8 9
REMARK H PARENT
REMARK Flexibility Score: inf
ROOT
ATOM      1  C   UNL     1      17.311  22.601  35.034  1.00  0.00     0.027 C 
ENDROOT
BRANCH   1   2
ATOM      2  C   UNL     1      18.255  21.489  35.515  1.00  0.00     0.004 C 
BRANCH   2   3
ATOM      3  C   UNL     1      19.024  20.829  34.360  1.00  0.00    -0.003 C 
ATOM      4  C   UNL     1      19.113  21.720  33.121  1.00  0.00     0.004 C 
ENDBRANCH   2   3
ENDBRANCH   1   2
BRANCH   1   5
ATOM      5  C   UNL     1      16.023  22.590  35.805  1.00  0.00    -0.023 C 
ATOM      6  C   UNL     1      15.813  23.425  36.830  1.00  0.00     0.042 C 
BRANCH   6   7
ATOM      7  C   UNL     1      14.551  23.441  37.591  1.00  0.00     0.152 C 
ATOM      8  O   UNL     1      13.601  22.670  37.281  1.00  0.00    -0.295 OA
ATOM      9  C   UNL     1      14.394  24.376  38.746  1.00  0.00     0.093 C 
ENDBRANCH   6   7
ENDBRANCH   1   5
TORSDOF 4
ENDMDL
MODEL 7
REMARK VINA RESULT:    -3.443     12.486     14.648
REMARK INTER + INTRA:          -4.419
REMARK INTER:                  -4.152
REMARK INTRA:                  -0.268
REMARK UNBOUND:                -0.172
REMARK SMILES CCCCC=CC(C)=O
REMARK SMILES IDX 4 1 3 2 2 3 1 4 5 5 6 6 7 7 9 8 8 9
REMARK H PARENT
REMARK Flexibility Score: inf
ROOT
ATOM      1  C   UNL     1       1.809  10.216  48.321  1.00  0.00     0.027 C 
ENDROOT
BRANCH   1   2
ATOM      2  C   UNL     1       1.936  11.534  49.100  1.00  0.00     0.004 C 
BRANCH   2   3
ATOM      3  C   UNL     1       0.790  12.511  48.794  1.00  0.00    -0.003 C 
ATOM      4  C   UNL     1       1.179  13.580  47.773  1.00  0.00     0.004 C 
ENDBRANCH   2   3
ENDBRANCH   1   2
BRANCH   1   5
ATOM      5  C   UNL     1       3.091   9.876  47.618  1.00  0.00    -0.023 C 
ATOM      6  C   UNL     1       4.082  10.767  47.499  1.00  0.00     0.042 C 
BRANCH   6   7
ATOM      7  C   UNL     1       5.355  10.450  46.825  1.00  0.00     0.152 C 
ATOM      8  O   UNL     1       5.456  10.525  45.570  1.00  0.00    -0.295 OA
ATOM      9  C   UNL     1       6.540  10.038  47.637  1.00  0.00     0.093 C 
ENDBRANCH   6   7
ENDBRANCH   1   5
TORSDOF 4
ENDMDL
MODEL 8
REMARK VINA RESULT:    -3.433     19.098     19.767
REMARK INTER + INTRA:          -4.407
REMARK INTER:                  -4.278
REMARK INTRA:                  -0.129
REMARK UNBOUND:                -0.172
REMARK SMILES CCCCC=CC(C)=O
REMARK SMILES IDX 4 1 3 2 2 3 1 4 5 5 6 6 7 7 9 8 8 9
REMARK H PARENT
REMARK Flexibility Score: inf
ROOT
ATOM      1  C   UNL     1      17.069  22.366  36.455  1.00  0.00     0.027 C 
ENDROOT
BRANCH   1   2
ATOM      2  C   UNL     1      17.947  21.493  35.547  1.00  0.00     0.004 C 
BRANCH   2   3
ATOM      3  C   UNL     1      18.512  22.272  34.348  1.00  0.00    -0.003 C 
ATOM      4  C   UNL     1      19.124  21.361  33.284  1.00  0.00     0.004 C 
ENDBRANCH   2   3
ENDBRANCH   1   2
BRANCH   1   5
ATOM      5  C   UNL     1      15.749  22.667  35.806  1.00  0.00    -0.023 C 
ATOM      6  C   UNL     1      14.609  22.666  36.505  1.00  0.00     0.042 C 
BRANCH   6   7
ATOM      7  C   UNL     1      13.304  22.973  35.889  1.00  0.00     0.152 C 
ATOM      8  O   UNL     1      13.166  22.970  34.636  1.00  0.00    -0.295 OA
ATOM      9  C   UNL     1      12.131  23.288  36.760  1.00  0.00     0.093 C 
ENDBRANCH   6   7
ENDBRANCH   1   5
TORSDOF 4
ENDMDL
MODEL 9
REMARK VINA RESULT:    -3.405      2.066      5.239
REMARK INTER + INTRA:          -4.372
REMARK INTER:                  -4.223
REMARK INTRA:                  -0.150
REMARK UNBOUND:                -0.172
REMARK SMILES CCCCC=CC(C)=O
REMARK SMILES IDX 4 1 3 2 2 3 1 4 5 5 6 6 7 7 9 8 8 9
REMARK H PARENT
REMARK Flexibility Score: inf
ROOT
ATOM      1  C   UNL     1      15.283  10.244  50.533  1.00  0.00     0.027 C 
ENDROOT
BRANCH   1   2
ATOM      2  C   UNL     1      15.939   9.502  49.359  1.00  0.00     0.004 C 
BRANCH   2   3
ATOM      3  C   UNL     1      15.272   9.825  48.013  1.00  0.00    -0.003 C 
ATOM      4  C   UNL     1      13.804   9.401  47.962  1.00  0.00     0.004 C 
ENDBRANCH   2   3
ENDBRANCH   1   2
BRANCH   1   5
ATOM      5  C   UNL     1      16.299  10.620  51.573  1.00  0.00    -0.023 C 
ATOM      6  C   UNL     1      17.282  11.488  51.309  1.00  0.00     0.042 C 
BRANCH   6   7
ATOM      7  C   UNL     1      18.281  11.881  52.320  1.00  0.00     0.152 C 
ATOM      8  O   UNL     1      18.753  11.032  53.125  1.00  0.00    -0.295 OA
ATOM      9  C   UNL     1      18.744  13.300  52.390  1.00  0.00     0.093 C 
ENDBRANCH   6   7
ENDBRANCH   1   5
TORSDOF 4
ENDMDL
