MODEL 1
REMARK VINA RESULT:    -6.419      0.000      0.000
REMARK INTER + INTRA:          -8.138
REMARK INTER:                  -7.733
REMARK INTRA:                  -0.405
REMARK UNBOUND:                -0.405
REMARK SMILES O=c1c(O)c(-c2ccc(O)cc2O)oc2cc(O)cc(O)c12
REMARK SMILES IDX 5 1 3 2 2 3 1 4 22 5 20 6 19 7 17 8 16 9 15 10 14 11 6 12
REMARK SMILES IDX 8 13 7 14 9 15 11 16 12 17 10 18 13 20 4 22 21 24 18 26
REMARK H PARENT 10 19 13 21 4 23 21 25 18 27
REMARK Flexibility Score: inf
ROOT
ATOM      1  C   UNL     1     -34.400  -8.167   2.042  1.00  0.00     0.184 A 
ATOM      2  C   UNL     1     -33.210  -8.814   1.681  1.00  0.00     0.208 A 
ATOM      3  C   UNL     1     -33.022  -9.198   0.343  1.00  0.00     0.238 A 
ATOM      4  O   UNL     1     -31.927  -9.723   0.014  1.00  0.00    -0.285 OA
ATOM      5  C   UNL     1     -34.043  -8.954  -0.608  1.00  0.00     0.111 A 
ATOM      6  C   UNL     1     -33.977  -9.336  -1.982  1.00  0.00     0.134 A 
ATOM      7  C   UNL     1     -34.994  -8.935  -2.859  1.00  0.00     0.093 A 
ATOM      8  C   UNL     1     -36.102  -8.224  -2.401  1.00  0.00     0.123 A 
ATOM      9  C   UNL     1     -36.204  -7.895  -1.047  1.00  0.00     0.094 A 
ATOM     10  C   UNL     1     -35.189  -8.249  -0.155  1.00  0.00     0.146 A 
ATOM     11  O   UNL     1     -35.318  -7.905   1.121  1.00  0.00    -0.451 OA
ENDROOT
BRANCH   1  12
ATOM     12  C   UNL     1     -34.662  -7.761   3.441  1.00  0.00     0.063 A 
ATOM     13  C   UNL     1     -35.358  -8.369   5.691  1.00  0.00     0.047 A 
ATOM     14  C   UNL     1     -35.050  -8.732   4.379  1.00  0.00     0.020 A 
ATOM     15  C   UNL     1     -35.289  -7.031   6.084  1.00  0.00     0.119 A 
ATOM     16  C   UNL     1     -34.905  -6.054   5.158  1.00  0.00     0.093 A 
ATOM     17  C   UNL     1     -34.584  -6.406   3.842  1.00  0.00     0.130 A 
BRANCH  15  18
ATOM     18  O   UNL     1     -35.604  -6.682   7.396  1.00  0.00    -0.508 OA
ATOM     19  H   UNL     1     -35.215  -7.185   8.186  1.00  0.00     0.293 HD
ENDBRANCH  15  18
BRANCH  17  20
ATOM     20  O   UNL     1     -34.172  -5.396   2.970  1.00  0.00    -0.507 OA
ATOM     21  H   UNL     1     -34.047  -4.434   3.258  1.00  0.00     0.293 HD
ENDBRANCH  17  20
ENDBRANCH   1  12
BRANCH   2  22
ATOM     22  O   UNL     1     -32.221  -9.045   2.642  1.00  0.00    -0.502 OA
ATOM     23  H   UNL     1     -31.470  -8.388   2.817  1.00  0.00     0.293 HD
ENDBRANCH   2  22
BRANCH   6  24
ATOM     24  O   UNL     1     -32.960 -10.125  -2.527  1.00  0.00    -0.507 OA
ATOM     25  H   UNL     1     -33.025 -10.628  -3.398  1.00  0.00     0.293 HD
ENDBRANCH   6  24
BRANCH   8  26
ATOM     26  O   UNL     1     -37.102  -7.855  -3.298  1.00  0.00    -0.508 OA
ATOM     27  H   UNL     1     -36.890  -7.631  -4.263  1.00  0.00     0.293 HD
ENDBRANCH   8  26
TORSDOF 6
ENDMDL
MODEL 2
REMARK VINA RESULT:    -6.400      1.508      7.047
REMARK INTER + INTRA:          -8.115
REMARK INTER:                  -7.698
REMARK INTRA:                  -0.416
REMARK UNBOUND:                -0.405
REMARK SMILES O=c1c(O)c(-c2ccc(O)cc2O)oc2cc(O)cc(O)c12
REMARK SMILES IDX 5 1 3 2 2 3 1 4 22 5 20 6 19 7 17 8 16 9 15 10 14 11 6 12
REMARK SMILES IDX 8 13 7 14 9 15 11 16 12 17 10 18 13 20 4 22 21 24 18 26
REMARK H PARENT 10 19 13 21 4 23 21 25 18 27
REMARK Flexibility Score: inf
ROOT
ATOM      1  C   UNL     1     -34.659  -8.048   2.890  1.00  0.00     0.184 A 
ATOM      2  C   UNL     1     -34.374  -6.723   3.248  1.00  0.00     0.208 A 
ATOM      3  C   UNL     1     -34.671  -6.291   4.551  1.00  0.00     0.238 A 
ATOM      4  O   UNL     1     -34.356  -5.119   4.885  1.00  0.00    -0.285 OA
ATOM      5  C   UNL     1     -35.275  -7.186   5.468  1.00  0.00     0.111 A 
ATOM      6  C   UNL     1     -35.656  -6.845   6.801  1.00  0.00     0.134 A 
ATOM      7  C   UNL     1     -36.134  -7.843   7.659  1.00  0.00     0.093 A 
ATOM      8  C   UNL     1     -36.307  -9.154   7.215  1.00  0.00     0.123 A 
ATOM      9  C   UNL     1     -35.992  -9.486   5.895  1.00  0.00     0.094 A 
ATOM     10  C   UNL     1     -35.478  -8.520   5.027  1.00  0.00     0.146 A 
ATOM     11  O   UNL     1     -35.179  -8.880   3.783  1.00  0.00    -0.451 OA
ENDROOT
BRANCH   1  12
ATOM     12  C   UNL     1     -34.390  -8.552   1.525  1.00  0.00     0.063 A 
ATOM     13  C   UNL     1     -35.186  -8.971  -0.736  1.00  0.00     0.047 A 
ATOM     14  C   UNL     1     -35.392  -8.454   0.545  1.00  0.00     0.020 A 
ATOM     15  C   UNL     1     -33.980  -9.598  -1.054  1.00  0.00     0.119 A 
ATOM     16  C   UNL     1     -32.975  -9.704  -0.085  1.00  0.00     0.093 A 
ATOM     17  C   UNL     1     -33.165  -9.180   1.199  1.00  0.00     0.130 A 
BRANCH  15  18
ATOM     18  O   UNL     1     -33.790 -10.115  -2.334  1.00  0.00    -0.508 OA
ATOM     19  H   UNL     1     -33.402  -9.550  -3.081  1.00  0.00     0.293 HD
ENDBRANCH  15  18
BRANCH  17  20
ATOM     20  O   UNL     1     -32.115  -9.280   2.115  1.00  0.00    -0.507 OA
ATOM     21  H   UNL     1     -31.205  -8.867   1.959  1.00  0.00     0.293 HD
ENDBRANCH  17  20
ENDBRANCH   1  12
BRANCH   2  22
ATOM     22  O   UNL     1     -33.781  -5.861   2.322  1.00  0.00    -0.502 OA
ATOM     23  H   UNL     1     -33.521  -6.160   1.390  1.00  0.00     0.293 HD
ENDBRANCH   2  22
BRANCH   6  24
ATOM     24  O   UNL     1     -35.610  -5.548   7.320  1.00  0.00    -0.507 OA
ATOM     25  H   UNL     1     -35.342  -4.728   6.798  1.00  0.00     0.293 HD
ENDBRANCH   6  24
BRANCH   8  26
ATOM     26  O   UNL     1     -36.800 -10.118   8.091  1.00  0.00    -0.508 OA
ATOM     27  H   UNL     1     -36.422 -10.228   9.024  1.00  0.00     0.293 HD
ENDBRANCH   8  26
TORSDOF 6
ENDMDL
MODEL 3
REMARK VINA RESULT:    -5.625      1.568      6.973
REMARK INTER + INTRA:          -7.180
REMARK INTER:                  -6.779
REMARK INTRA:                  -0.401
REMARK UNBOUND:                -0.405
REMARK SMILES O=c1c(O)c(-c2ccc(O)cc2O)oc2cc(O)cc(O)c12
REMARK SMILES IDX 5 1 3 2 2 3 1 4 22 5 20 6 19 7 17 8 16 9 15 10 14 11 6 12
REMARK SMILES IDX 8 13 7 14 9 15 11 16 12 17 10 18 13 20 4 22 21 24 18 26
REMARK H PARENT 10 19 13 21 4 23 21 25 18 27
REMARK Flexibility Score: inf
ROOT
ATOM      1  C   UNL     1     -34.778  -7.871   3.034  1.00  0.00     0.184 A 
ATOM      2  C   UNL     1     -35.291  -8.786   3.965  1.00  0.00     0.208 A 
ATOM      3  C   UNL     1     -35.620  -8.335   5.253  1.00  0.00     0.238 A 
ATOM      4  O   UNL     1     -36.137  -9.148   6.063  1.00  0.00    -0.285 OA
ATOM      5  C   UNL     1     -35.402  -6.979   5.600  1.00  0.00     0.111 A 
ATOM      6  C   UNL     1     -35.661  -6.421   6.888  1.00  0.00     0.134 A 
ATOM      7  C   UNL     1     -35.523  -5.041   7.084  1.00  0.00     0.093 A 
ATOM      8  C   UNL     1     -35.075  -4.209   6.058  1.00  0.00     0.123 A 
ATOM      9  C   UNL     1     -34.764  -4.753   4.810  1.00  0.00     0.094 A 
ATOM     10  C   UNL     1     -34.926  -6.121   4.574  1.00  0.00     0.146 A 
ATOM     11  O   UNL     1     -34.631  -6.596   3.370  1.00  0.00    -0.451 OA
ENDROOT
BRANCH   1  12
ATOM     12  C   UNL     1     -34.393  -8.294   1.670  1.00  0.00     0.063 A 
ATOM     13  C   UNL     1     -35.016  -8.648  -0.656  1.00  0.00     0.047 A 
ATOM     14  C   UNL     1     -35.334  -8.205   0.630  1.00  0.00     0.020 A 
ATOM     15  C   UNL     1     -33.758  -9.193  -0.919  1.00  0.00     0.119 A 
ATOM     16  C   UNL     1     -32.813  -9.290   0.109  1.00  0.00     0.093 A 
ATOM     17  C   UNL     1     -33.115  -8.839   1.400  1.00  0.00     0.130 A 
BRANCH  15  18
ATOM     18  O   UNL     1     -33.457  -9.637  -2.206  1.00  0.00    -0.508 OA
ATOM     19  H   UNL     1     -32.589 -10.118  -2.410  1.00  0.00     0.293 HD
ENDBRANCH  15  18
BRANCH  17  20
ATOM     20  O   UNL     1     -32.123  -8.926   2.379  1.00  0.00    -0.507 OA
ATOM     21  H   UNL     1     -31.328  -9.547   2.305  1.00  0.00     0.293 HD
ENDBRANCH  17  20
ENDBRANCH   1  12
BRANCH   2  22
ATOM     22  O   UNL     1     -35.492 -10.119   3.595  1.00  0.00    -0.502 OA
ATOM     23  H   UNL     1     -35.851 -10.813   4.240  1.00  0.00     0.293 HD
ENDBRANCH   2  22
BRANCH   6  24
ATOM     24  O   UNL     1     -36.026  -7.175   8.008  1.00  0.00    -0.507 OA
ATOM     25  H   UNL     1     -36.885  -7.694   8.098  1.00  0.00     0.293 HD
ENDBRANCH   6  24
BRANCH   8  26
ATOM     26  O   UNL     1     -34.934  -2.844   6.292  1.00  0.00    -0.508 OA
ATOM     27  H   UNL     1     -35.652  -2.183   6.017  1.00  0.00     0.293 HD
ENDBRANCH   8  26
TORSDOF 6
ENDMDL
MODEL 4
REMARK VINA RESULT:    -5.616      1.816      6.991
REMARK INTER + INTRA:          -7.170
REMARK INTER:                  -6.782
REMARK INTRA:                  -0.389
REMARK UNBOUND:                -0.405
REMARK SMILES O=c1c(O)c(-c2ccc(O)cc2O)oc2cc(O)cc(O)c12
REMARK SMILES IDX 5 1 3 2 2 3 1 4 22 5 20 6 19 7 17 8 16 9 15 10 14 11 6 12
REMARK SMILES IDX 8 13 7 14 9 15 11 16 12 17 10 18 13 20 4 22 21 24 18 26
REMARK H PARENT 10 19 13 21 4 23 21 25 18 27
REMARK Flexibility Score: inf
ROOT
ATOM      1  C   UNL     1     -34.481  -7.969   3.492  1.00  0.00     0.184 A 
ATOM      2  C   UNL     1     -35.159  -8.763   4.427  1.00  0.00     0.208 A 
ATOM      3  C   UNL     1     -35.661  -8.164   5.594  1.00  0.00     0.238 A 
ATOM      4  O   UNL     1     -36.322  -8.870   6.399  1.00  0.00    -0.285 OA
ATOM      5  C   UNL     1     -35.450  -6.782   5.821  1.00  0.00     0.111 A 
ATOM      6  C   UNL     1     -35.878  -6.078   6.986  1.00  0.00     0.134 A 
ATOM      7  C   UNL     1     -35.723  -4.687   7.049  1.00  0.00     0.093 A 
ATOM      8  C   UNL     1     -35.097  -3.984   6.020  1.00  0.00     0.123 A 
ATOM      9  C   UNL     1     -34.622  -4.671   4.901  1.00  0.00     0.094 A 
ATOM     10  C   UNL     1     -34.795  -6.053   4.793  1.00  0.00     0.146 A 
ATOM     11  O   UNL     1     -34.341  -6.666   3.706  1.00  0.00    -0.451 OA
ENDROOT
BRANCH   1  12
ATOM     12  C   UNL     1     -33.911  -8.550   2.257  1.00  0.00     0.063 A 
ATOM     13  C   UNL     1     -32.062  -9.675   1.144  1.00  0.00     0.047 A 
ATOM     14  C   UNL     1     -32.649  -9.167   2.305  1.00  0.00     0.020 A 
ATOM     15  C   UNL     1     -32.723  -9.567  -0.082  1.00  0.00     0.119 A 
ATOM     16  C   UNL     1     -33.979  -8.952  -0.142  1.00  0.00     0.093 A 
ATOM     17  C   UNL     1     -34.583  -8.448   1.016  1.00  0.00     0.130 A 
BRANCH  15  18
ATOM     18  O   UNL     1     -32.123 -10.073  -1.233  1.00  0.00    -0.508 OA
ATOM     19  H   UNL     1     -32.675 -10.407  -2.015  1.00  0.00     0.293 HD
ENDBRANCH  15  18
BRANCH  17  20
ATOM     20  O   UNL     1     -35.853  -7.878   0.904  1.00  0.00    -0.507 OA
ATOM     21  H   UNL     1     -36.382  -7.873   0.042  1.00  0.00     0.293 HD
ENDBRANCH  17  20
ENDBRANCH   1  12
BRANCH   2  22
ATOM     22  O   UNL     1     -35.350 -10.125   4.179  1.00  0.00    -0.502 OA
ATOM     23  H   UNL     1     -35.919 -10.712   4.776  1.00  0.00     0.293 HD
ENDBRANCH   2  22
BRANCH   6  24
ATOM     24  O   UNL     1     -36.433  -6.693   8.112  1.00  0.00    -0.507 OA
ATOM     25  H   UNL     1     -36.658  -6.222   8.974  1.00  0.00     0.293 HD
ENDBRANCH   6  24
BRANCH   8  26
ATOM     26  O   UNL     1     -34.945  -2.604   6.123  1.00  0.00    -0.508 OA
ATOM     27  H   UNL     1     -35.627  -1.965   5.731  1.00  0.00     0.293 HD
ENDBRANCH   8  26
TORSDOF 6
ENDMDL
MODEL 5
REMARK VINA RESULT:    -4.519      2.481      4.863
REMARK INTER + INTRA:          -5.848
REMARK INTER:                  -5.615
REMARK INTRA:                  -0.234
REMARK UNBOUND:                -0.405
REMARK SMILES O=c1c(O)c(-c2ccc(O)cc2O)oc2cc(O)cc(O)c12
REMARK SMILES IDX 5 1 3 2 2 3 1 4 22 5 20 6 19 7 17 8 16 9 15 10 14 11 6 12
REMARK SMILES IDX 8 13 7 14 9 15 11 16 12 17 10 18 13 20 4 22 21 24 18 26
REMARK H PARENT 10 19 13 21 4 23 21 25 18 27
REMARK Flexibility Score: inf
ROOT
ATOM      1  C   UNL     1     -35.079  -8.077   5.759  1.00  0.00     0.184 A 
ATOM      2  C   UNL     1     -34.905  -6.700   5.560  1.00  0.00     0.208 A 
ATOM      3  C   UNL     1     -34.467  -6.243   4.306  1.00  0.00     0.238 A 
ATOM      4  O   UNL     1     -34.371  -5.003   4.115  1.00  0.00    -0.285 OA
ATOM      5  C   UNL     1     -34.181  -7.176   3.279  1.00  0.00     0.111 A 
ATOM      6  C   UNL     1     -33.693  -6.829   1.983  1.00  0.00     0.134 A 
ATOM      7  C   UNL     1     -33.561  -7.824   1.006  1.00  0.00     0.093 A 
ATOM      8  C   UNL     1     -33.837  -9.160   1.295  1.00  0.00     0.123 A 
ATOM      9  C   UNL     1     -34.260  -9.518   2.576  1.00  0.00     0.094 A 
ATOM     10  C   UNL     1     -34.436  -8.544   3.562  1.00  0.00     0.146 A 
ATOM     11  O   UNL     1     -34.853  -8.925   4.764  1.00  0.00    -0.451 OA
ENDROOT
BRANCH   1  12
ATOM     12  C   UNL     1     -35.517  -8.617   7.065  1.00  0.00     0.063 A 
ATOM     13  C   UNL     1     -37.115  -8.592   8.900  1.00  0.00     0.047 A 
ATOM     14  C   UNL     1     -36.706  -8.141   7.643  1.00  0.00     0.020 A 
ATOM     15  C   UNL     1     -36.339  -9.518   9.600  1.00  0.00     0.119 A 
ATOM     16  C   UNL     1     -35.151  -9.997   9.035  1.00  0.00     0.093 A 
ATOM     17  C   UNL     1     -34.736  -9.562   7.771  1.00  0.00     0.130 A 
BRANCH  15  18
ATOM     18  O   UNL     1     -36.756  -9.955  10.856  1.00  0.00    -0.508 OA
ATOM     19  H   UNL     1     -36.791  -9.327  11.651  1.00  0.00     0.293 HD
ENDBRANCH  15  18
BRANCH  17  20
ATOM     20  O   UNL     1     -33.562 -10.100   7.240  1.00  0.00    -0.507 OA
ATOM     21  H   UNL     1     -33.496 -11.049   6.895  1.00  0.00     0.293 HD
ENDBRANCH  17  20
ENDBRANCH   1  12
BRANCH   2  22
ATOM     22  O   UNL     1     -35.192  -5.803   6.592  1.00  0.00    -0.502 OA
ATOM     23  H   UNL     1     -35.585  -4.885   6.422  1.00  0.00     0.293 HD
ENDBRANCH   2  22
BRANCH   6  24
ATOM     24  O   UNL     1     -33.300  -5.539   1.615  1.00  0.00    -0.507 OA
ATOM     25  H   UNL     1     -33.520  -4.700   2.130  1.00  0.00     0.293 HD
ENDBRANCH   6  24
BRANCH   8  26
ATOM     26  O   UNL     1     -33.680 -10.125   0.303  1.00  0.00    -0.508 OA
ATOM     27  H   UNL     1     -33.606  -9.872  -0.675  1.00  0.00     0.293 HD
ENDBRANCH   8  26
TORSDOF 6
ENDMDL
MODEL 6
REMARK VINA RESULT:    -3.571      2.182      3.605
REMARK INTER + INTRA:          -4.707
REMARK INTER:                  -4.455
REMARK INTRA:                  -0.252
REMARK UNBOUND:                -0.405
REMARK SMILES O=c1c(O)c(-c2ccc(O)cc2O)oc2cc(O)cc(O)c12
REMARK SMILES IDX 5 1 3 2 2 3 1 4 22 5 20 6 19 7 17 8 16 9 15 10 14 11 6 12
REMARK SMILES IDX 8 13 7 14 9 15 11 16 12 17 10 18 13 20 4 22 21 24 18 26
REMARK H PARENT 10 19 13 21 4 23 21 25 18 27
REMARK Flexibility Score: inf
ROOT
ATOM      1  C   UNL     1     -34.810  -9.361   3.479  1.00  0.00     0.184 A 
ATOM      2  C   UNL     1     -35.762  -9.540   2.466  1.00  0.00     0.208 A 
ATOM      3  C   UNL     1     -35.324  -9.777   1.153  1.00  0.00     0.238 A 
ATOM      4  O   UNL     1     -36.183  -9.997   0.260  1.00  0.00    -0.285 OA
ATOM      5  C   UNL     1     -33.936  -9.802   0.869  1.00  0.00     0.111 A 
ATOM      6  C   UNL     1     -33.379  -9.993  -0.431  1.00  0.00     0.134 A 
ATOM      7  C   UNL     1     -31.992 -10.122  -0.576  1.00  0.00     0.093 A 
ATOM      8  C   UNL     1     -31.139 -10.002   0.521  1.00  0.00     0.123 A 
ATOM      9  C   UNL     1     -31.670  -9.757   1.789  1.00  0.00     0.094 A 
ATOM     10  C   UNL     1     -33.051  -9.660   1.970  1.00  0.00     0.146 A 
ATOM     11  O   UNL     1     -33.516  -9.440   3.195  1.00  0.00    -0.451 OA
ENDROOT
BRANCH   1  12
ATOM     12  C   UNL     1     -35.213  -9.086   4.876  1.00  0.00     0.063 A 
ATOM     13  C   UNL     1     -36.504  -9.728   6.836  1.00  0.00     0.047 A 
ATOM     14  C   UNL     1     -36.063  -9.989   5.538  1.00  0.00     0.020 A 
ATOM     15  C   UNL     1     -36.110  -8.558   7.490  1.00  0.00     0.119 A 
ATOM     16  C   UNL     1     -35.266  -7.650   6.840  1.00  0.00     0.093 A 
ATOM     17  C   UNL     1     -34.807  -7.906   5.542  1.00  0.00     0.130 A 
BRANCH  15  18
ATOM     18  O   UNL     1     -36.563  -8.308   8.784  1.00  0.00    -0.508 OA
ATOM     19  H   UNL     1     -35.937  -7.977   9.509  1.00  0.00     0.293 HD
ENDBRANCH  15  18
BRANCH  17  20
ATOM     20  O   UNL     1     -33.938  -6.984   4.955  1.00  0.00    -0.507 OA
ATOM     21  H   UNL     1     -33.094  -6.657   5.406  1.00  0.00     0.293 HD
ENDBRANCH  17  20
ENDBRANCH   1  12
BRANCH   2  22
ATOM     22  O   UNL     1     -37.125  -9.507   2.775  1.00  0.00    -0.502 OA
ATOM     23  H   UNL     1     -37.561  -8.710   3.224  1.00  0.00     0.293 HD
ENDBRANCH   2  22
BRANCH   6  24
ATOM     24  O   UNL     1     -34.134 -10.036  -1.607  1.00  0.00    -0.507 OA
ATOM     25  H   UNL     1     -35.100 -10.319  -1.661  1.00  0.00     0.293 HD
ENDBRANCH   6  24
BRANCH   8  26
ATOM     26  O   UNL     1     -29.763 -10.119   0.338  1.00  0.00    -0.508 OA
ATOM     27  H   UNL     1     -29.312  -9.793  -0.509  1.00  0.00     0.293 HD
ENDBRANCH   8  26
TORSDOF 6
ENDMDL
