MODEL 1
REMARK VINA RESULT:    -3.735      0.000      0.000
REMARK INTER + INTRA:          -5.261
REMARK INTER:                  -4.827
REMARK INTRA:                  -0.433
REMARK UNBOUND:                -0.433
REMARK SMILES C=CC(=O)CCCCC
REMARK SMILES IDX 6 1 7 2 8 3 9 4 5 5 3 6 4 7 2 8 1 9
REMARK H PARENT
REMARK Flexibility Score: inf
ROOT
ATOM      1  C   UNL     1       3.315  21.674   6.996  1.00  0.00     0.008 C 
ENDROOT
BRANCH   1   2
ATOM      2  C   UNL     1       3.498  20.355   7.763  1.00  0.00     0.000 C 
BRANCH   2   3
ATOM      3  C   UNL     1       2.931  19.147   7.004  1.00  0.00    -0.003 C 
ATOM      4  C   UNL     1       4.039  18.168   6.624  1.00  0.00     0.004 C 
ENDBRANCH   2   3
ENDBRANCH   1   2
BRANCH   1   5
ATOM      5  C   UNL     1       4.600  22.126   6.281  1.00  0.00     0.080 C 
BRANCH   5   6
ATOM      6  C   UNL     1       4.874  21.347   5.013  1.00  0.00     0.155 C 
ATOM      7  O   UNL     1       3.962  21.190   4.159  1.00  0.00    -0.295 OA
BRANCH   6   8
ATOM      8  C   UNL     1       6.192  20.737   4.744  1.00  0.00     0.039 C 
ATOM      9  C   UNL     1       6.454  19.986   3.675  1.00  0.00     0.012 C 
ENDBRANCH   6   8
ENDBRANCH   5   6
ENDBRANCH   1   5
TORSDOF 5
ENDMDL
MODEL 2
REMARK VINA RESULT:    -3.430      1.743      4.155
REMARK INTER + INTRA:          -4.867
REMARK INTER:                  -4.639
REMARK INTRA:                  -0.227
REMARK UNBOUND:                -0.433
REMARK SMILES C=CC(=O)CCCCC
REMARK SMILES IDX 6 1 7 2 8 3 9 4 5 5 3 6 4 7 2 8 1 9
REMARK H PARENT
REMARK Flexibility Score: inf
ROOT
ATOM      1  C   UNL     1       5.804  20.650   4.629  1.00  0.00     0.008 C 
ENDROOT
BRANCH   1   2
ATOM      2  C   UNL     1       6.153  20.294   3.175  1.00  0.00     0.000 C 
BRANCH   2   3
ATOM      3  C   UNL     1       5.099  20.794   2.176  1.00  0.00    -0.003 C 
ATOM      4  C   UNL     1       5.017  19.876   0.960  1.00  0.00     0.004 C 
ENDBRANCH   2   3
ENDBRANCH   1   2
BRANCH   1   5
ATOM      5  C   UNL     1       4.290  20.805   4.854  1.00  0.00     0.080 C 
BRANCH   5   6
ATOM      6  C   UNL     1       3.863  20.447   6.260  1.00  0.00     0.155 C 
ATOM      7  O   UNL     1       3.901  21.316   7.172  1.00  0.00    -0.295 OA
BRANCH   6   8
ATOM      8  C   UNL     1       3.413  19.086   6.614  1.00  0.00     0.039 C 
ATOM      9  C   UNL     1       4.207  18.016   6.589  1.00  0.00     0.012 C 
ENDBRANCH   6   8
ENDBRANCH   5   6
ENDBRANCH   1   5
TORSDOF 5
ENDMDL
MODEL 3
REMARK VINA RESULT:    -3.423     11.305     12.830
REMARK INTER + INTRA:          -4.857
REMARK INTER:                  -4.407
REMARK INTRA:                  -0.450
REMARK UNBOUND:                -0.433
REMARK SMILES C=CC(=O)CCCCC
REMARK SMILES IDX 6 1 7 2 8 3 9 4 5 5 3 6 4 7 2 8 1 9
REMARK H PARENT
REMARK Flexibility Score: inf
ROOT
ATOM      1  C   UNL     1       3.232  10.536  13.534  1.00  0.00     0.008 C 
ENDROOT
BRANCH   1   2
ATOM      2  C   UNL     1       4.543   9.749  13.677  1.00  0.00     0.000 C 
BRANCH   2   3
ATOM      3  C   UNL     1       4.309   8.267  14.006  1.00  0.00    -0.003 C 
ATOM      4  C   UNL     1       2.890   8.035  14.517  1.00  0.00     0.004 C 
ENDBRANCH   2   3
ENDBRANCH   1   2
BRANCH   1   5
ATOM      5  C   UNL     1       3.196  11.402  12.262  1.00  0.00     0.080 C 
BRANCH   5   6
ATOM      6  C   UNL     1       2.470  10.734  11.115  1.00  0.00     0.155 C 
ATOM      7  O   UNL     1       2.414  11.297   9.990  1.00  0.00    -0.295 OA
BRANCH   6   8
ATOM      8  C   UNL     1       1.797   9.429  11.275  1.00  0.00     0.039 C 
ATOM      9  C   UNL     1       1.708   8.521  10.303  1.00  0.00     0.012 C 
ENDBRANCH   6   8
ENDBRANCH   5   6
ENDBRANCH   1   5
TORSDOF 5
ENDMDL
MODEL 4
REMARK VINA RESULT:    -3.417      1.910      3.973
REMARK INTER + INTRA:          -4.849
REMARK INTER:                  -4.458
REMARK INTRA:                  -0.392
REMARK UNBOUND:                -0.433
REMARK SMILES C=CC(=O)CCCCC
REMARK SMILES IDX 6 1 7 2 8 3 9 4 5 5 3 6 4 7 2 8 1 9
REMARK H PARENT
REMARK Flexibility Score: inf
ROOT
ATOM      1  C   UNL     1       3.150  20.883   6.326  1.00  0.00     0.008 C 
ENDROOT
BRANCH   1   2
ATOM      2  C   UNL     1       3.832  20.737   4.957  1.00  0.00     0.000 C 
BRANCH   2   3
ATOM      3  C   UNL     1       5.326  21.090   5.000  1.00  0.00    -0.003 C 
ATOM      4  C   UNL     1       6.162  20.026   4.295  1.00  0.00     0.004 C 
ENDBRANCH   2   3
ENDBRANCH   1   2
BRANCH   1   5
ATOM      5  C   UNL     1       3.614  19.820   7.336  1.00  0.00     0.080 C 
BRANCH   5   6
ATOM      6  C   UNL     1       3.421  18.406   6.833  1.00  0.00     0.155 C 
ATOM      7  O   UNL     1       4.421  17.672   6.612  1.00  0.00    -0.295 OA
BRANCH   6   8
ATOM      8  C   UNL     1       2.078  17.850   6.571  1.00  0.00     0.039 C 
ATOM      9  C   UNL     1       1.869  16.679   5.970  1.00  0.00     0.012 C 
ENDBRANCH   6   8
ENDBRANCH   5   6
ENDBRANCH   1   5
TORSDOF 5
ENDMDL
MODEL 5
REMARK VINA RESULT:    -3.369      8.890     10.676
REMARK INTER + INTRA:          -4.787
REMARK INTER:                  -4.658
REMARK INTRA:                  -0.129
REMARK UNBOUND:                -0.433
REMARK SMILES C=CC(=O)CCCCC
REMARK SMILES IDX 6 1 7 2 8 3 9 4 5 5 3 6 4 7 2 8 1 9
REMARK H PARENT
REMARK Flexibility Score: inf
ROOT
ATOM      1  C   UNL     1       1.954  11.075   9.770  1.00  0.00     0.008 C 
ENDROOT
BRANCH   1   2
ATOM      2  C   UNL     1       2.215  10.371  11.111  1.00  0.00     0.000 C 
BRANCH   2   3
ATOM      3  C   UNL     1       3.027  11.238  12.084  1.00  0.00    -0.003 C 
ATOM      4  C   UNL     1       3.822  10.373  13.058  1.00  0.00     0.004 C 
ENDBRANCH   2   3
ENDBRANCH   1   2
BRANCH   1   5
ATOM      5  C   UNL     1       1.894  10.092   8.587  1.00  0.00     0.080 C 
BRANCH   5   6
ATOM      6  C   UNL     1       2.347  10.711   7.283  1.00  0.00     0.155 C 
ATOM      7  O   UNL     1       3.533  10.554   6.888  1.00  0.00    -0.295 OA
BRANCH   6   8
ATOM      8  C   UNL     1       1.438  11.523   6.450  1.00  0.00     0.039 C 
ATOM      9  C   UNL     1       1.223  12.824   6.643  1.00  0.00     0.012 C 
ENDBRANCH   6   8
ENDBRANCH   5   6
ENDBRANCH   1   5
TORSDOF 5
ENDMDL
MODEL 6
REMARK VINA RESULT:    -3.368      1.338      3.477
REMARK INTER + INTRA:          -4.787
REMARK INTER:                  -4.284
REMARK INTRA:                  -0.503
REMARK UNBOUND:                -0.433
REMARK SMILES C=CC(=O)CCCCC
REMARK SMILES IDX 6 1 7 2 8 3 9 4 5 5 3 6 4 7 2 8 1 9
REMARK H PARENT
REMARK Flexibility Score: inf
ROOT
ATOM      1  C   UNL     1       4.847  21.764   5.717  1.00  0.00     0.008 C 
ENDROOT
BRANCH   1   2
ATOM      2  C   UNL     1       4.332  21.399   4.316  1.00  0.00     0.000 C 
BRANCH   2   3
ATOM      3  C   UNL     1       5.333  20.545   3.523  1.00  0.00    -0.003 C 
ATOM      4  C   UNL     1       6.691  20.504   4.218  1.00  0.00     0.004 C 
ENDBRANCH   2   3
ENDBRANCH   1   2
BRANCH   1   5
ATOM      5  C   UNL     1       3.724  21.807   6.768  1.00  0.00     0.080 C 
BRANCH   5   6
ATOM      6  C   UNL     1       2.924  20.524   6.828  1.00  0.00     0.155 C 
ATOM      7  O   UNL     1       1.723  20.511   6.446  1.00  0.00    -0.295 OA
BRANCH   6   8
ATOM      8  C   UNL     1       3.504  19.268   7.344  1.00  0.00     0.039 C 
ATOM      9  C   UNL     1       3.980  18.299   6.563  1.00  0.00     0.012 C 
ENDBRANCH   6   8
ENDBRANCH   5   6
ENDBRANCH   1   5
TORSDOF 5
ENDMDL
MODEL 7
REMARK VINA RESULT:    -3.360      0.853      1.240
REMARK INTER + INTRA:          -4.775
REMARK INTER:                  -4.301
REMARK INTRA:                  -0.474
REMARK UNBOUND:                -0.433
REMARK SMILES C=CC(=O)CCCCC
REMARK SMILES IDX 6 1 7 2 8 3 9 4 5 5 3 6 4 7 2 8 1 9
REMARK H PARENT
REMARK Flexibility Score: inf
ROOT
ATOM      1  C   UNL     1       4.249  22.159   6.322  1.00  0.00     0.008 C 
ENDROOT
BRANCH   1   2
ATOM      2  C   UNL     1       3.153  21.496   7.171  1.00  0.00     0.000 C 
BRANCH   2   3
ATOM      3  C   UNL     1       3.547  20.091   7.650  1.00  0.00    -0.003 C 
ATOM      4  C   UNL     1       2.957  19.015   6.742  1.00  0.00     0.004 C 
ENDBRANCH   2   3
ENDBRANCH   1   2
BRANCH   1   5
ATOM      5  C   UNL     1       3.871  22.252   4.833  1.00  0.00     0.080 C 
BRANCH   5   6
ATOM      6  C   UNL     1       4.430  21.112   4.011  1.00  0.00     0.155 C 
ATOM      7  O   UNL     1       3.907  20.816   2.904  1.00  0.00    -0.295 OA
BRANCH   6   8
ATOM      8  C   UNL     1       5.577  20.306   4.477  1.00  0.00     0.039 C 
ATOM      9  C   UNL     1       6.839  20.541   4.117  1.00  0.00     0.012 C 
ENDBRANCH   6   8
ENDBRANCH   5   6
ENDBRANCH   1   5
TORSDOF 5
ENDMDL
MODEL 8
REMARK VINA RESULT:    -3.335     11.933     13.619
REMARK INTER + INTRA:          -4.743
REMARK INTER:                  -4.410
REMARK INTRA:                  -0.333
REMARK UNBOUND:                -0.433
REMARK SMILES C=CC(=O)CCCCC
REMARK SMILES IDX 6 1 7 2 8 3 9 4 5 5 3 6 4 7 2 8 1 9
REMARK H PARENT
REMARK Flexibility Score: inf
ROOT
ATOM      1  C   UNL     1       3.266  11.273  12.630  1.00  0.00     0.008 C 
ENDROOT
BRANCH   1   2
ATOM      2  C   UNL     1       2.461  10.952  11.361  1.00  0.00     0.000 C 
BRANCH   2   3
ATOM      3  C   UNL     1       1.951   9.504  11.335  1.00  0.00    -0.003 C 
ATOM      4  C   UNL     1       1.866   8.977   9.905  1.00  0.00     0.004 C 
ENDBRANCH   2   3
ENDBRANCH   1   2
BRANCH   1   5
ATOM      5  C   UNL     1       4.152  10.100  13.082  1.00  0.00     0.080 C 
BRANCH   5   6
ATOM      6  C   UNL     1       3.996   9.776  14.551  1.00  0.00     0.155 C 
ATOM      7  O   UNL     1       5.004   9.457  15.238  1.00  0.00    -0.295 OA
BRANCH   6   8
ATOM      8  C   UNL     1       2.679   9.802  15.219  1.00  0.00     0.039 C 
ATOM      9  C   UNL     1       2.231   8.825  16.006  1.00  0.00     0.012 C 
ENDBRANCH   6   8
ENDBRANCH   5   6
ENDBRANCH   1   5
TORSDOF 5
ENDMDL
MODEL 9
REMARK VINA RESULT:    -3.287     10.488     11.717
REMARK INTER + INTRA:          -4.682
REMARK INTER:                  -4.454
REMARK INTRA:                  -0.227
REMARK UNBOUND:                -0.433
REMARK SMILES C=CC(=O)CCCCC
REMARK SMILES IDX 6 1 7 2 8 3 9 4 5 5 3 6 4 7 2 8 1 9
REMARK H PARENT
REMARK Flexibility Score: inf
ROOT
ATOM      1  C   UNL     1       2.386  11.285  11.174  1.00  0.00     0.008 C 
ENDROOT
BRANCH   1   2
ATOM      2  C   UNL     1       3.255  11.276  12.441  1.00  0.00     0.000 C 
BRANCH   2   3
ATOM      3  C   UNL     1       3.189   9.939  13.194  1.00  0.00    -0.003 C 
ATOM      4  C   UNL     1       4.554   9.558  13.758  1.00  0.00     0.004 C 
ENDBRANCH   2   3
ENDBRANCH   1   2
BRANCH   1   5
ATOM      5  C   UNL     1       2.020   9.869  10.696  1.00  0.00     0.080 C 
BRANCH   5   6
ATOM      6  C   UNL     1       1.981   9.748   9.189  1.00  0.00     0.155 C 
ATOM      7  O   UNL     1       2.032   8.613   8.645  1.00  0.00    -0.295 OA
BRANCH   6   8
ATOM      8  C   UNL     1       1.903  10.936   8.314  1.00  0.00     0.039 C 
ATOM      9  C   UNL     1       2.281  10.938   7.037  1.00  0.00     0.012 C 
ENDBRANCH   6   8
ENDBRANCH   5   6
ENDBRANCH   1   5
TORSDOF 5
ENDMDL
