MODEL 1
REMARK VINA RESULT:    -6.788      0.000      0.000
REMARK INTER + INTRA:         -11.467
REMARK INTER:                 -10.558
REMARK INTRA:                  -0.909
REMARK UNBOUND:                -0.909
REMARK SMILES COc1cc(CNC(=O)CCCCC=CC(C)C)ccc1O
REMARK SMILES IDX 11 1 12 2 13 3 14 4 15 5 16 6 17 7 18 8 10 9 8 10 9 11 7 12
REMARK SMILES IDX 6 14 5 15 4 16 19 17 3 18 20 19 21 20 2 21 1 22 22 23
REMARK H PARENT 7 13 22 24
REMARK Flexibility Score: inf
ROOT
ATOM      1  C   UNL     1     -13.465 -30.946 -10.107  1.00  0.00     0.010 C 
ENDROOT
BRANCH   1   2
ATOM      2  C   UNL     1     -14.174 -29.627 -10.465  1.00  0.00     0.005 C 
BRANCH   2   3
ATOM      3  C   UNL     1     -14.076 -29.223 -11.947  1.00  0.00     0.027 C 
BRANCH   3   4
ATOM      4  C   UNL     1     -15.288 -28.454 -12.413  1.00  0.00    -0.031 C 
ATOM      5  C   UNL     1     -15.310 -27.213 -12.945  1.00  0.00    -0.028 C 
BRANCH   5   6
ATOM      6  C   UNL     1     -14.133 -26.317 -13.294  1.00  0.00     0.005 C 
ATOM      7  C   UNL     1     -13.340 -26.787 -14.520  1.00  0.00     0.012 C 
ATOM      8  C   UNL     1     -14.527 -24.837 -13.382  1.00  0.00     0.012 C 
ENDBRANCH   5   6
ENDBRANCH   3   4
ENDBRANCH   2   3
ENDBRANCH   1   2
BRANCH   1   9
ATOM      9  C   UNL     1     -11.935 -30.827 -10.110  1.00  0.00     0.100 C 
BRANCH   9  10
ATOM     10  C   UNL     1     -11.348 -31.682 -11.193  1.00  0.00     0.220 C 
ATOM     11  O   UNL     1     -10.484 -31.189 -11.969  1.00  0.00    -0.275 OA
ATOM     12  N   UNL     1     -11.797 -33.033 -11.372  1.00  0.00    -0.352 N 
ATOM     13  H   UNL     1     -12.522 -33.418 -10.725  1.00  0.00     0.163 HD
BRANCH  12  14
ATOM     14  C   UNL     1     -11.321 -33.883 -12.462  1.00  0.00     0.151 C 
BRANCH  14  15
ATOM     15  C   UNL     1     -12.447 -34.219 -13.404  1.00  0.00    -0.025 A 
ATOM     16  C   UNL     1     -13.779 -34.016 -13.008  1.00  0.00     0.056 A 
ATOM     17  C   UNL     1     -12.178 -34.757 -14.671  1.00  0.00     0.009 A 
ATOM     18  C   UNL     1     -14.843 -34.352 -13.873  1.00  0.00     0.160 A 
ATOM     19  C   UNL     1     -13.226 -35.091 -15.530  1.00  0.00     0.050 A 
ATOM     20  C   UNL     1     -14.554 -34.893 -15.139  1.00  0.00     0.157 A 
BRANCH  18  21
ATOM     21  O   UNL     1     -16.186 -34.165 -13.505  1.00  0.00    -0.493 OA
ATOM     22  C   UNL     1     -16.984 -35.136 -12.837  1.00  0.00     0.278 C 
ENDBRANCH  18  21
BRANCH  20  23
ATOM     23  O   UNL     1     -15.573 -35.243 -16.023  1.00  0.00    -0.504 OA
ATOM     24  H   UNL     1     -16.132 -34.550 -16.505  1.00  0.00     0.293 HD
ENDBRANCH  20  23
ENDBRANCH  14  15
ENDBRANCH  12  14
ENDBRANCH   9  10
ENDBRANCH   1   9
TORSDOF 10
ENDMDL
MODEL 2
REMARK VINA RESULT:    -6.776      1.296      2.255
REMARK INTER + INTRA:         -11.447
REMARK INTER:                 -10.576
REMARK INTRA:                  -0.871
REMARK UNBOUND:                -0.909
REMARK SMILES COc1cc(CNC(=O)CCCCC=CC(C)C)ccc1O
REMARK SMILES IDX 11 1 12 2 13 3 14 4 15 5 16 6 17 7 18 8 10 9 8 10 9 11 7 12
REMARK SMILES IDX 6 14 5 15 4 16 19 17 3 18 20 19 21 20 2 21 1 22 22 23
REMARK H PARENT 7 13 22 24
REMARK Flexibility Score: inf
ROOT
ATOM      1  C   UNL     1     -14.957 -28.842 -12.476  1.00  0.00     0.010 C 
ENDROOT
BRANCH   1   2
ATOM      2  C   UNL     1     -15.669 -27.487 -12.649  1.00  0.00     0.005 C 
BRANCH   2   3
ATOM      3  C   UNL     1     -14.995 -26.308 -11.926  1.00  0.00     0.027 C 
BRANCH   3   4
ATOM      4  C   UNL     1     -14.785 -25.122 -12.835  1.00  0.00    -0.031 C 
ATOM      5  C   UNL     1     -13.741 -24.904 -13.664  1.00  0.00    -0.028 C 
BRANCH   5   6
ATOM      6  C   UNL     1     -12.569 -25.825 -13.964  1.00  0.00     0.005 C 
ATOM      7  C   UNL     1     -11.768 -26.231 -12.720  1.00  0.00     0.012 C 
ATOM      8  C   UNL     1     -12.974 -27.031 -14.821  1.00  0.00     0.012 C 
ENDBRANCH   5   6
ENDBRANCH   3   4
ENDBRANCH   2   3
ENDBRANCH   1   2
BRANCH   1   9
ATOM      9  C   UNL     1     -14.206 -28.962 -11.144  1.00  0.00     0.100 C 
BRANCH   9  10
ATOM     10  C   UNL     1     -13.219 -30.089 -11.202  1.00  0.00     0.220 C 
ATOM     11  O   UNL     1     -12.170 -30.028 -10.503  1.00  0.00    -0.275 OA
ATOM     12  N   UNL     1     -13.444 -31.203 -12.077  1.00  0.00    -0.352 N 
ATOM     13  H   UNL     1     -14.314 -31.229 -12.655  1.00  0.00     0.163 HD
BRANCH  12  14
ATOM     14  C   UNL     1     -12.475 -32.287 -12.236  1.00  0.00     0.151 C 
BRANCH  14  15
ATOM     15  C   UNL     1     -12.977 -33.306 -13.225  1.00  0.00    -0.025 A 
ATOM     16  C   UNL     1     -14.315 -33.728 -13.183  1.00  0.00     0.056 A 
ATOM     17  C   UNL     1     -12.109 -33.858 -14.179  1.00  0.00     0.009 A 
ATOM     18  C   UNL     1     -14.789 -34.702 -14.088  1.00  0.00     0.160 A 
ATOM     19  C   UNL     1     -12.571 -34.821 -15.077  1.00  0.00     0.050 A 
ATOM     20  C   UNL     1     -13.903 -35.246 -15.036  1.00  0.00     0.157 A 
BRANCH  18  21
ATOM     21  O   UNL     1     -16.121 -35.148 -14.069  1.00  0.00    -0.493 OA
ATOM     22  C   UNL     1     -16.964 -35.128 -12.923  1.00  0.00     0.278 C 
ENDBRANCH  18  21
BRANCH  20  23
ATOM     23  O   UNL     1     -14.327 -36.213 -15.947  1.00  0.00    -0.504 OA
ATOM     24  H   UNL     1     -13.763 -36.493 -16.739  1.00  0.00     0.293 HD
ENDBRANCH  20  23
ENDBRANCH  14  15
ENDBRANCH  12  14
ENDBRANCH   9  10
ENDBRANCH   1   9
TORSDOF 10
ENDMDL
MODEL 3
REMARK VINA RESULT:    -6.769      3.105      5.824
REMARK INTER + INTRA:         -11.436
REMARK INTER:                  -9.122
REMARK INTRA:                  -2.314
REMARK UNBOUND:                -0.909
REMARK SMILES COc1cc(CNC(=O)CCCCC=CC(C)C)ccc1O
REMARK SMILES IDX 11 1 12 2 13 3 14 4 15 5 16 6 17 7 18 8 10 9 8 10 9 11 7 12
REMARK SMILES IDX 6 14 5 15 4 16 19 17 3 18 20 19 21 20 2 21 1 22 22 23
REMARK H PARENT 7 13 22 24
REMARK Flexibility Score: inf
ROOT
ATOM      1  C   UNL     1      -9.781 -32.619  -8.967  1.00  0.00     0.010 C 
ENDROOT
BRANCH   1   2
ATOM      2  C   UNL     1     -10.613 -32.115  -7.774  1.00  0.00     0.005 C 
BRANCH   2   3
ATOM      3  C   UNL     1     -11.311 -30.763  -8.001  1.00  0.00     0.027 C 
BRANCH   3   4
ATOM      4  C   UNL     1     -10.350 -29.601  -7.923  1.00  0.00    -0.031 C 
ATOM      5  C   UNL     1      -9.916 -28.833  -8.946  1.00  0.00    -0.028 C 
BRANCH   5   6
ATOM      6  C   UNL     1     -10.346 -28.875 -10.404  1.00  0.00     0.005 C 
ATOM      7  C   UNL     1     -10.660 -27.495 -10.996  1.00  0.00     0.012 C 
ATOM      8  C   UNL     1      -9.380 -29.683 -11.278  1.00  0.00     0.012 C 
ENDBRANCH   5   6
ENDBRANCH   3   4
ENDBRANCH   2   3
ENDBRANCH   1   2
BRANCH   1   9
ATOM      9  C   UNL     1     -10.303 -33.938  -9.552  1.00  0.00     0.100 C 
BRANCH   9  10
ATOM     10  C   UNL     1     -11.480 -33.683 -10.445  1.00  0.00     0.220 C 
ATOM     11  O   UNL     1     -12.446 -34.495 -10.441  1.00  0.00    -0.275 OA
ATOM     12  N   UNL     1     -11.487 -32.551 -11.326  1.00  0.00    -0.352 N 
ATOM     13  H   UNL     1     -10.673 -31.897 -11.321  1.00  0.00     0.163 HD
BRANCH  12  14
ATOM     14  C   UNL     1     -12.570 -32.301 -12.277  1.00  0.00     0.151 C 
BRANCH  14  15
ATOM     15  C   UNL     1     -13.145 -30.924 -12.077  1.00  0.00    -0.025 A 
ATOM     16  C   UNL     1     -13.116 -29.990 -13.125  1.00  0.00     0.056 A 
ATOM     17  C   UNL     1     -13.692 -30.555 -10.840  1.00  0.00     0.009 A 
ATOM     18  C   UNL     1     -13.628 -28.688 -12.941  1.00  0.00     0.160 A 
ATOM     19  C   UNL     1     -14.201 -29.269 -10.650  1.00  0.00     0.050 A 
ATOM     20  C   UNL     1     -14.171 -28.335 -11.691  1.00  0.00     0.157 A 
BRANCH  18  21
ATOM     21  O   UNL     1     -13.610 -27.730 -13.968  1.00  0.00    -0.493 OA
ATOM     22  C   UNL     1     -12.595 -26.746 -14.138  1.00  0.00     0.278 C 
ENDBRANCH  18  21
BRANCH  20  23
ATOM     23  O   UNL     1     -14.684 -27.059 -11.463  1.00  0.00    -0.504 OA
ATOM     24  H   UNL     1     -14.128 -26.318 -11.055  1.00  0.00     0.293 HD
ENDBRANCH  20  23
ENDBRANCH  14  15
ENDBRANCH  12  14
ENDBRANCH   9  10
ENDBRANCH   1   9
TORSDOF 10
ENDMDL
MODEL 4
REMARK VINA RESULT:    -6.743      3.458      6.838
REMARK INTER + INTRA:         -11.396
REMARK INTER:                  -9.831
REMARK INTRA:                  -1.565
REMARK UNBOUND:                -0.909
REMARK SMILES COc1cc(CNC(=O)CCCCC=CC(C)C)ccc1O
REMARK SMILES IDX 11 1 12 2 13 3 14 4 15 5 16 6 17 7 18 8 10 9 8 10 9 11 7 12
REMARK SMILES IDX 6 14 5 15 4 16 19 17 3 18 20 19 21 20 2 21 1 22 22 23
REMARK H PARENT 7 13 22 24
REMARK Flexibility Score: inf
ROOT
ATOM      1  C   UNL     1     -10.803 -31.149  -7.968  1.00  0.00     0.010 C 
ENDROOT
BRANCH   1   2
ATOM      2  C   UNL     1     -10.371 -32.596  -7.664  1.00  0.00     0.005 C 
BRANCH   2   3
ATOM      3  C   UNL     1      -9.434 -33.222  -8.712  1.00  0.00     0.027 C 
BRANCH   3   4
ATOM      4  C   UNL     1     -10.118 -34.293  -9.525  1.00  0.00    -0.031 C 
ATOM      5  C   UNL     1     -11.105 -34.123 -10.431  1.00  0.00    -0.028 C 
BRANCH   5   6
ATOM      6  C   UNL     1     -11.712 -32.822 -10.930  1.00  0.00     0.005 C 
ATOM      7  C   UNL     1     -10.967 -32.211 -12.124  1.00  0.00     0.012 C 
ATOM      8  C   UNL     1     -13.222 -32.932 -11.174  1.00  0.00     0.012 C 
ENDBRANCH   5   6
ENDBRANCH   3   4
ENDBRANCH   2   3
ENDBRANCH   1   2
BRANCH   1   9
ATOM      9  C   UNL     1      -9.683 -30.125  -7.739  1.00  0.00     0.100 C 
BRANCH   9  10
ATOM     10  C   UNL     1      -9.746 -29.044  -8.775  1.00  0.00     0.220 C 
ATOM     11  O   UNL     1      -9.168 -27.943  -8.556  1.00  0.00    -0.275 OA
ATOM     12  N   UNL     1     -10.494 -29.242  -9.983  1.00  0.00    -0.352 N 
ATOM     13  H   UNL     1     -10.975 -30.156 -10.140  1.00  0.00     0.163 HD
BRANCH  12  14
ATOM     14  C   UNL     1     -10.659 -28.193 -10.988  1.00  0.00     0.151 C 
BRANCH  14  15
ATOM     15  C   UNL     1     -12.061 -28.199 -11.538  1.00  0.00    -0.025 A 
ATOM     16  C   UNL     1     -12.470 -27.198 -12.433  1.00  0.00     0.056 A 
ATOM     17  C   UNL     1     -12.974 -29.188 -11.145  1.00  0.00     0.009 A 
ATOM     18  C   UNL     1     -13.789 -27.179 -12.934  1.00  0.00     0.160 A 
ATOM     19  C   UNL     1     -14.280 -29.176 -11.636  1.00  0.00     0.050 A 
ATOM     20  C   UNL     1     -14.693 -28.178 -12.526  1.00  0.00     0.157 A 
BRANCH  18  21
ATOM     21  O   UNL     1     -14.231 -26.189 -13.827  1.00  0.00    -0.493 OA
ATOM     22  C   UNL     1     -14.633 -24.878 -13.447  1.00  0.00     0.278 C 
ENDBRANCH  18  21
BRANCH  20  23
ATOM     23  O   UNL     1     -16.006 -28.196 -12.993  1.00  0.00    -0.504 OA
ATOM     24  H   UNL     1     -16.336 -28.890 -13.653  1.00  0.00     0.293 HD
ENDBRANCH  20  23
ENDBRANCH  14  15
ENDBRANCH  12  14
ENDBRANCH   9  10
ENDBRANCH   1   9
TORSDOF 10
ENDMDL
MODEL 5
REMARK VINA RESULT:    -6.732      1.442      1.895
REMARK INTER + INTRA:         -11.379
REMARK INTER:                 -10.531
REMARK INTRA:                  -0.848
REMARK UNBOUND:                -0.909
REMARK SMILES COc1cc(CNC(=O)CCCCC=CC(C)C)ccc1O
REMARK SMILES IDX 11 1 12 2 13 3 14 4 15 5 16 6 17 7 18 8 10 9 8 10 9 11 7 12
REMARK SMILES IDX 6 14 5 15 4 16 19 17 3 18 20 19 21 20 2 21 1 22 22 23
REMARK H PARENT 7 13 22 24
REMARK Flexibility Score: inf
ROOT
ATOM      1  C   UNL     1     -13.126 -29.616 -11.577  1.00  0.00     0.010 C 
ENDROOT
BRANCH   1   2
ATOM      2  C   UNL     1     -14.335 -28.745 -11.186  1.00  0.00     0.005 C 
BRANCH   2   3
ATOM      3  C   UNL     1     -15.089 -28.120 -12.373  1.00  0.00     0.027 C 
BRANCH   3   4
ATOM      4  C   UNL     1     -15.264 -26.629 -12.221  1.00  0.00    -0.031 C 
ATOM      5  C   UNL     1     -14.460 -25.660 -12.709  1.00  0.00    -0.028 C 
BRANCH   5   6
ATOM      6  C   UNL     1     -13.240 -25.811 -13.604  1.00  0.00     0.005 C 
ATOM      7  C   UNL     1     -11.984 -26.287 -12.862  1.00  0.00     0.012 C 
ATOM      8  C   UNL     1     -13.531 -26.644 -14.858  1.00  0.00     0.012 C 
ENDBRANCH   5   6
ENDBRANCH   3   4
ENDBRANCH   2   3
ENDBRANCH   1   2
BRANCH   1   9
ATOM      9  C   UNL     1     -12.392 -30.206 -10.366  1.00  0.00     0.100 C 
BRANCH   9  10
ATOM     10  C   UNL     1     -12.203 -31.683 -10.539  1.00  0.00     0.220 C 
ATOM     11  O   UNL     1     -11.034 -32.152 -10.615  1.00  0.00    -0.275 OA
ATOM     12  N   UNL     1     -13.341 -32.548 -10.662  1.00  0.00    -0.352 N 
ATOM     13  H   UNL     1     -14.300 -32.138 -10.608  1.00  0.00     0.163 HD
BRANCH  12  14
ATOM     14  C   UNL     1     -13.215 -33.982 -10.917  1.00  0.00     0.151 C 
BRANCH  14  15
ATOM     15  C   UNL     1     -14.058 -34.388 -12.097  1.00  0.00    -0.025 A 
ATOM     16  C   UNL     1     -14.944 -35.472 -11.990  1.00  0.00     0.056 A 
ATOM     17  C   UNL     1     -13.951 -33.703 -13.316  1.00  0.00     0.009 A 
ATOM     18  C   UNL     1     -15.719 -35.877 -13.097  1.00  0.00     0.160 A 
ATOM     19  C   UNL     1     -14.715 -34.098 -14.415  1.00  0.00     0.050 A 
ATOM     20  C   UNL     1     -15.596 -35.180 -14.314  1.00  0.00     0.157 A 
BRANCH  18  21
ATOM     21  O   UNL     1     -16.610 -36.961 -13.024  1.00  0.00    -0.493 OA
ATOM     22  C   UNL     1     -17.937 -36.883 -12.515  1.00  0.00     0.278 C 
ENDBRANCH  18  21
BRANCH  20  23
ATOM     23  O   UNL     1     -16.339 -35.548 -15.434  1.00  0.00    -0.504 OA
ATOM     24  H   UNL     1     -16.453 -36.515 -15.713  1.00  0.00     0.293 HD
ENDBRANCH  20  23
ENDBRANCH  14  15
ENDBRANCH  12  14
ENDBRANCH   9  10
ENDBRANCH   1   9
TORSDOF 10
ENDMDL
MODEL 6
REMARK VINA RESULT:    -6.663      1.853      3.240
REMARK INTER + INTRA:         -11.272
REMARK INTER:                 -10.330
REMARK INTRA:                  -0.941
REMARK UNBOUND:                -0.909
REMARK SMILES COc1cc(CNC(=O)CCCCC=CC(C)C)ccc1O
REMARK SMILES IDX 11 1 12 2 13 3 14 4 15 5 16 6 17 7 18 8 10 9 8 10 9 11 7 12
REMARK SMILES IDX 6 14 5 15 4 16 19 17 3 18 20 19 21 20 2 21 1 22 22 23
REMARK H PARENT 7 13 22 24
REMARK Flexibility Score: inf
ROOT
ATOM      1  C   UNL     1     -15.034 -28.670 -12.454  1.00  0.00     0.010 C 
ENDROOT
BRANCH   1   2
ATOM      2  C   UNL     1     -15.752 -27.319 -12.633  1.00  0.00     0.005 C 
BRANCH   2   3
ATOM      3  C   UNL     1     -14.992 -26.106 -12.070  1.00  0.00     0.027 C 
BRANCH   3   4
ATOM      4  C   UNL     1     -14.769 -25.036 -13.111  1.00  0.00    -0.031 C 
ATOM      5  C   UNL     1     -13.742 -24.951 -13.985  1.00  0.00    -0.028 C 
BRANCH   5   6
ATOM      6  C   UNL     1     -12.612 -25.942 -14.209  1.00  0.00     0.005 C 
ATOM      7  C   UNL     1     -11.808 -26.261 -12.942  1.00  0.00     0.012 C 
ATOM      8  C   UNL     1     -13.076 -27.206 -14.943  1.00  0.00     0.012 C 
ENDBRANCH   5   6
ENDBRANCH   3   4
ENDBRANCH   2   3
ENDBRANCH   1   2
BRANCH   1   9
ATOM      9  C   UNL     1     -14.381 -28.827 -11.075  1.00  0.00     0.100 C 
BRANCH   9  10
ATOM     10  C   UNL     1     -13.221 -29.774 -11.153  1.00  0.00     0.220 C 
ATOM     11  O   UNL     1     -12.386 -29.652 -12.091  1.00  0.00    -0.275 OA
ATOM     12  N   UNL     1     -13.088 -30.835 -10.196  1.00  0.00    -0.352 N 
ATOM     13  H   UNL     1     -13.796 -30.925  -9.434  1.00  0.00     0.163 HD
BRANCH  12  14
ATOM     14  C   UNL     1     -12.025 -31.836 -10.275  1.00  0.00     0.151 C 
BRANCH  14  15
ATOM     15  C   UNL     1     -12.591 -33.183 -10.639  1.00  0.00    -0.025 A 
ATOM     16  C   UNL     1     -13.609 -33.282 -11.601  1.00  0.00     0.056 A 
ATOM     17  C   UNL     1     -12.123 -34.345 -10.008  1.00  0.00     0.009 A 
ATOM     18  C   UNL     1     -14.165 -34.537 -11.931  1.00  0.00     0.160 A 
ATOM     19  C   UNL     1     -12.668 -35.589 -10.330  1.00  0.00     0.050 A 
ATOM     20  C   UNL     1     -13.685 -35.691 -11.285  1.00  0.00     0.157 A 
BRANCH  18  21
ATOM     21  O   UNL     1     -15.187 -34.669 -12.885  1.00  0.00    -0.493 OA
ATOM     22  C   UNL     1     -14.973 -34.844 -14.281  1.00  0.00     0.278 C 
ENDBRANCH  18  21
BRANCH  20  23
ATOM     23  O   UNL     1     -14.207 -36.950 -11.578  1.00  0.00    -0.504 OA
ATOM     24  H   UNL     1     -14.113 -37.376 -12.492  1.00  0.00     0.293 HD
ENDBRANCH  20  23
ENDBRANCH  14  15
ENDBRANCH  12  14
ENDBRANCH   9  10
ENDBRANCH   1   9
TORSDOF 10
ENDMDL
MODEL 7
REMARK VINA RESULT:    -6.621      2.257      3.526
REMARK INTER + INTRA:         -11.206
REMARK INTER:                  -9.954
REMARK INTRA:                  -1.252
REMARK UNBOUND:                -0.909
REMARK SMILES COc1cc(CNC(=O)CCCCC=CC(C)C)ccc1O
REMARK SMILES IDX 11 1 12 2 13 3 14 4 15 5 16 6 17 7 18 8 10 9 8 10 9 11 7 12
REMARK SMILES IDX 6 14 5 15 4 16 19 17 3 18 20 19 21 20 2 21 1 22 22 23
REMARK H PARENT 7 13 22 24
REMARK Flexibility Score: inf
ROOT
ATOM      1  C   UNL     1     -10.098 -26.755 -11.008  1.00  0.00     0.010 C 
ENDROOT
BRANCH   1   2
ATOM      2  C   UNL     1     -11.453 -26.994 -11.701  1.00  0.00     0.005 C 
BRANCH   2   3
ATOM      3  C   UNL     1     -11.657 -26.206 -13.006  1.00  0.00     0.027 C 
BRANCH   3   4
ATOM      4  C   UNL     1     -12.530 -26.943 -13.991  1.00  0.00    -0.031 C 
ATOM      5  C   UNL     1     -13.880 -26.940 -14.045  1.00  0.00    -0.028 C 
BRANCH   5   6
ATOM      6  C   UNL     1     -14.854 -26.132 -13.203  1.00  0.00     0.005 C 
ATOM      7  C   UNL     1     -14.878 -26.538 -11.724  1.00  0.00     0.012 C 
ATOM      8  C   UNL     1     -14.681 -24.620 -13.393  1.00  0.00     0.012 C 
ENDBRANCH   5   6
ENDBRANCH   3   4
ENDBRANCH   2   3
ENDBRANCH   1   2
BRANCH   1   9
ATOM      9  C   UNL     1      -9.877 -27.659  -9.788  1.00  0.00     0.100 C 
BRANCH   9  10
ATOM     10  C   UNL     1     -10.006 -29.101 -10.178  1.00  0.00     0.220 C 
ATOM     11  O   UNL     1      -9.166 -29.602 -10.975  1.00  0.00    -0.275 OA
ATOM     12  N   UNL     1     -11.098 -29.889  -9.684  1.00  0.00    -0.352 N 
ATOM     13  H   UNL     1     -11.788 -29.451  -9.034  1.00  0.00     0.163 HD
BRANCH  12  14
ATOM     14  C   UNL     1     -11.320 -31.274 -10.098  1.00  0.00     0.151 C 
BRANCH  14  15
ATOM     15  C   UNL     1     -12.371 -31.345 -11.173  1.00  0.00    -0.025 A 
ATOM     16  C   UNL     1     -12.746 -32.587 -11.710  1.00  0.00     0.056 A 
ATOM     17  C   UNL     1     -12.968 -30.174 -11.663  1.00  0.00     0.009 A 
ATOM     18  C   UNL     1     -13.711 -32.663 -12.736  1.00  0.00     0.160 A 
ATOM     19  C   UNL     1     -13.923 -30.242 -12.678  1.00  0.00     0.050 A 
ATOM     20  C   UNL     1     -14.297 -31.478 -13.217  1.00  0.00     0.157 A 
BRANCH  18  21
ATOM     21  O   UNL     1     -14.105 -33.890 -13.297  1.00  0.00    -0.493 OA
ATOM     22  C   UNL     1     -14.343 -35.079 -12.553  1.00  0.00     0.278 C 
ENDBRANCH  18  21
BRANCH  20  23
ATOM     23  O   UNL     1     -15.252 -31.506 -14.233  1.00  0.00    -0.504 OA
ATOM     24  H   UNL     1     -15.338 -30.761 -14.913  1.00  0.00     0.293 HD
ENDBRANCH  20  23
ENDBRANCH  14  15
ENDBRANCH  12  14
ENDBRANCH   9  10
ENDBRANCH   1   9
TORSDOF 10
ENDMDL
MODEL 8
REMARK VINA RESULT:    -6.548      1.213      2.089
REMARK INTER + INTRA:         -11.093
REMARK INTER:                 -10.399
REMARK INTRA:                  -0.694
REMARK UNBOUND:                -0.909
REMARK SMILES COc1cc(CNC(=O)CCCCC=CC(C)C)ccc1O
REMARK SMILES IDX 11 1 12 2 13 3 14 4 15 5 16 6 17 7 18 8 10 9 8 10 9 11 7 12
REMARK SMILES IDX 6 14 5 15 4 16 19 17 3 18 20 19 21 20 2 21 1 22 22 23
REMARK H PARENT 7 13 22 24
REMARK Flexibility Score: inf
ROOT
ATOM      1  C   UNL     1     -13.617 -30.381 -10.146  1.00  0.00     0.010 C 
ENDROOT
BRANCH   1   2
ATOM      2  C   UNL     1     -13.401 -29.203 -11.115  1.00  0.00     0.005 C 
BRANCH   2   3
ATOM      3  C   UNL     1     -14.134 -29.333 -12.461  1.00  0.00     0.027 C 
BRANCH   3   4
ATOM      4  C   UNL     1     -15.341 -28.430 -12.546  1.00  0.00    -0.031 C 
ATOM      5  C   UNL     1     -15.358 -27.123 -12.883  1.00  0.00    -0.028 C 
BRANCH   5   6
ATOM      6  C   UNL     1     -14.200 -26.255 -13.350  1.00  0.00     0.005 C 
ATOM      7  C   UNL     1     -13.535 -26.753 -14.640  1.00  0.00     0.012 C 
ATOM      8  C   UNL     1     -14.569 -24.768 -13.416  1.00  0.00     0.012 C 
ENDBRANCH   5   6
ENDBRANCH   3   4
ENDBRANCH   2   3
ENDBRANCH   1   2
BRANCH   1   9
ATOM      9  C   UNL     1     -12.309 -30.919  -9.550  1.00  0.00     0.100 C 
BRANCH   9  10
ATOM     10  C   UNL     1     -11.870 -32.151 -10.283  1.00  0.00     0.220 C 
ATOM     11  O   UNL     1     -10.688 -32.567 -10.137  1.00  0.00    -0.275 OA
ATOM     12  N   UNL     1     -12.771 -32.822 -11.175  1.00  0.00    -0.352 N 
ATOM     13  H   UNL     1     -13.742 -32.454 -11.289  1.00  0.00     0.163 HD
BRANCH  12  14
ATOM     14  C   UNL     1     -12.370 -33.976 -11.978  1.00  0.00     0.151 C 
BRANCH  14  15
ATOM     15  C   UNL     1     -13.570 -34.622 -12.616  1.00  0.00    -0.025 A 
ATOM     16  C   UNL     1     -13.498 -35.089 -13.939  1.00  0.00     0.056 A 
ATOM     17  C   UNL     1     -14.775 -34.742 -11.907  1.00  0.00     0.009 A 
ATOM     18  C   UNL     1     -14.625 -35.672 -14.556  1.00  0.00     0.160 A 
ATOM     19  C   UNL     1     -15.893 -35.318 -12.512  1.00  0.00     0.050 A 
ATOM     20  C   UNL     1     -15.826 -35.782 -13.830  1.00  0.00     0.157 A 
BRANCH  18  21
ATOM     21  O   UNL     1     -14.587 -36.145 -15.878  1.00  0.00    -0.493 OA
ATOM     22  C   UNL     1     -14.116 -35.395 -16.992  1.00  0.00     0.278 C 
ENDBRANCH  18  21
BRANCH  20  23
ATOM     23  O   UNL     1     -16.964 -36.348 -14.401  1.00  0.00    -0.504 OA
ATOM     24  H   UNL     1     -17.140 -36.319 -15.398  1.00  0.00     0.293 HD
ENDBRANCH  20  23
ENDBRANCH  14  15
ENDBRANCH  12  14
ENDBRANCH   9  10
ENDBRANCH   1   9
TORSDOF 10
ENDMDL
MODEL 9
REMARK VINA RESULT:    -6.427      3.074      6.626
REMARK INTER + INTRA:         -10.904
REMARK INTER:                  -9.323
REMARK INTRA:                  -1.582
REMARK UNBOUND:                -0.909
REMARK SMILES COc1cc(CNC(=O)CCCCC=CC(C)C)ccc1O
REMARK SMILES IDX 11 1 12 2 13 3 14 4 15 5 16 6 17 7 18 8 10 9 8 10 9 11 7 12
REMARK SMILES IDX 6 14 5 15 4 16 19 17 3 18 20 19 21 20 2 21 1 22 22 23
REMARK H PARENT 7 13 22 24
REMARK Flexibility Score: inf
ROOT
ATOM      1  C   UNL     1      -9.358 -32.557  -8.364  1.00  0.00     0.010 C 
ENDROOT
BRANCH   1   2
ATOM      2  C   UNL     1      -9.732 -33.762  -9.248  1.00  0.00     0.005 C 
BRANCH   2   3
ATOM      3  C   UNL     1     -11.230 -34.110  -9.263  1.00  0.00     0.027 C 
BRANCH   3   4
ATOM      4  C   UNL     1     -11.621 -34.911 -10.480  1.00  0.00    -0.031 C 
ATOM      5  C   UNL     1     -12.176 -34.445 -11.619  1.00  0.00    -0.028 C 
BRANCH   5   6
ATOM      6  C   UNL     1     -12.462 -33.003 -12.005  1.00  0.00     0.005 C 
ATOM      7  C   UNL     1     -11.279 -32.297 -12.681  1.00  0.00     0.012 C 
ATOM      8  C   UNL     1     -13.766 -32.854 -12.800  1.00  0.00     0.012 C 
ENDBRANCH   5   6
ENDBRANCH   3   4
ENDBRANCH   2   3
ENDBRANCH   1   2
BRANCH   1   9
ATOM      9  C   UNL     1     -10.576 -31.747  -7.902  1.00  0.00     0.100 C 
BRANCH   9  10
ATOM     10  C   UNL     1     -10.547 -30.373  -8.503  1.00  0.00     0.220 C 
ATOM     11  O   UNL     1     -10.398 -29.373  -7.749  1.00  0.00    -0.275 OA
ATOM     12  N   UNL     1     -10.732 -30.197  -9.915  1.00  0.00    -0.352 N 
ATOM     13  H   UNL     1     -10.865 -31.038 -10.519  1.00  0.00     0.163 HD
BRANCH  12  14
ATOM     14  C   UNL     1     -10.797 -28.878 -10.541  1.00  0.00     0.151 C 
BRANCH  14  15
ATOM     15  C   UNL     1     -12.130 -28.673 -11.211  1.00  0.00    -0.025 A 
ATOM     16  C   UNL     1     -12.322 -27.584 -12.077  1.00  0.00     0.056 A 
ATOM     17  C   UNL     1     -13.194 -29.551 -10.960  1.00  0.00     0.009 A 
ATOM     18  C   UNL     1     -13.575 -27.368 -12.689  1.00  0.00     0.160 A 
ATOM     19  C   UNL     1     -14.436 -29.343 -11.563  1.00  0.00     0.050 A 
ATOM     20  C   UNL     1     -14.632 -28.258 -12.424  1.00  0.00     0.157 A 
BRANCH  18  21
ATOM     21  O   UNL     1     -13.801 -26.286 -13.557  1.00  0.00    -0.493 OA
ATOM     22  C   UNL     1     -14.395 -25.051 -13.171  1.00  0.00     0.278 C 
ENDBRANCH  18  21
BRANCH  20  23
ATOM     23  O   UNL     1     -15.887 -28.080 -13.004  1.00  0.00    -0.504 OA
ATOM     24  H   UNL     1     -16.021 -27.532 -13.845  1.00  0.00     0.293 HD
ENDBRANCH  20  23
ENDBRANCH  14  15
ENDBRANCH  12  14
ENDBRANCH   9  10
ENDBRANCH   1   9
TORSDOF 10
ENDMDL
