MODEL 1
REMARK VINA RESULT:    -3.070      0.000      0.000
REMARK INTER + INTRA:          -3.959
REMARK INTER:                  -3.787
REMARK INTRA:                  -0.172
REMARK UNBOUND:                -0.172
REMARK SMILES CCCCCC(=O)[O-]
REMARK SMILES IDX 4 1 5 2 6 3 7 4 8 5 3 6 2 7 1 8
REMARK H PARENT
REMARK Flexibility Score: inf
ROOT
ATOM      1  C   UNL     1      -7.324 -65.741   0.690  1.00  0.00     0.006 C 
ENDROOT
BRANCH   1   2
ATOM      2  C   UNL     1      -6.803 -65.366  -0.703  1.00  0.00     0.053 C 
BRANCH   2   3
ATOM      3  C   UNL     1      -5.489 -66.030  -0.966  1.00  0.00     0.041 C 
ATOM      4  O   UNL     1      -4.448 -65.630  -0.381  1.00  0.00    -0.550 OA
ATOM      5  O   UNL     1      -5.404 -67.057  -1.898  1.00  0.00    -0.550 OA
ENDBRANCH   2   3
ENDBRANCH   1   2
BRANCH   1   6
ATOM      6  C   UNL     1      -8.484 -66.750   0.643  1.00  0.00     0.000 C 
BRANCH   6   7
ATOM      7  C   UNL     1      -9.041 -67.031  -0.764  1.00  0.00    -0.003 C 
ATOM      8  C   UNL     1      -9.226 -68.521  -1.048  1.00  0.00     0.004 C 
ENDBRANCH   6   7
ENDBRANCH   1   6
TORSDOF 4
ENDMDL
MODEL 2
REMARK VINA RESULT:    -3.044      9.110     10.156
REMARK INTER + INTRA:          -3.928
REMARK INTER:                  -3.799
REMARK INTRA:                  -0.129
REMARK UNBOUND:                -0.172
REMARK SMILES CCCCCC(=O)[O-]
REMARK SMILES IDX 4 1 5 2 6 3 7 4 8 5 3 6 2 7 1 8
REMARK H PARENT
REMARK Flexibility Score: inf
ROOT
ATOM      1  C   UNL     1     -10.086 -73.378   5.935  1.00  0.00     0.006 C 
ENDROOT
BRANCH   1   2
ATOM      2  C   UNL     1     -11.343 -73.178   5.079  1.00  0.00     0.053 C 
BRANCH   2   3
ATOM      3  C   UNL     1     -12.519 -72.852   5.944  1.00  0.00     0.041 C 
ATOM      4  O   UNL     1     -13.368 -73.740   6.220  1.00  0.00    -0.550 OA
ATOM      5  O   UNL     1     -12.705 -71.554   6.403  1.00  0.00    -0.550 OA
ENDBRANCH   2   3
ENDBRANCH   1   2
BRANCH   1   6
ATOM      6  C   UNL     1      -9.039 -72.269   5.731  1.00  0.00     0.000 C 
BRANCH   6   7
ATOM      7  C   UNL     1      -8.952 -71.718   4.297  1.00  0.00    -0.003 C 
ATOM      8  C   UNL     1      -8.180 -72.636   3.350  1.00  0.00     0.004 C 
ENDBRANCH   6   7
ENDBRANCH   1   6
TORSDOF 4
ENDMDL
MODEL 3
REMARK VINA RESULT:    -3.027      8.507      9.370
REMARK INTER + INTRA:          -3.907
REMARK INTER:                  -3.794
REMARK INTRA:                  -0.112
REMARK UNBOUND:                -0.172
REMARK SMILES CCCCCC(=O)[O-]
REMARK SMILES IDX 4 1 5 2 6 3 7 4 8 5 3 6 2 7 1 8
REMARK H PARENT
REMARK Flexibility Score: inf
ROOT
ATOM      1  C   UNL     1      -9.824 -73.544   6.011  1.00  0.00     0.006 C 
ENDROOT
BRANCH   1   2
ATOM      2  C   UNL     1      -8.521 -72.953   5.461  1.00  0.00     0.053 C 
BRANCH   2   3
ATOM      3  C   UNL     1      -8.271 -73.441   4.069  1.00  0.00     0.041 C 
ATOM      4  O   UNL     1      -8.014 -74.656   3.860  1.00  0.00    -0.550 OA
ATOM      5  O   UNL     1      -8.271 -72.545   3.007  1.00  0.00    -0.550 OA
ENDBRANCH   2   3
ENDBRANCH   1   2
BRANCH   1   6
ATOM      6  C   UNL     1     -11.063 -73.119   5.203  1.00  0.00     0.000 C 
BRANCH   6   7
ATOM      7  C   UNL     1     -12.158 -72.413   6.023  1.00  0.00    -0.003 C 
ATOM      8  C   UNL     1     -13.399 -73.279   6.234  1.00  0.00     0.004 C 
ENDBRANCH   6   7
ENDBRANCH   1   6
TORSDOF 4
ENDMDL
MODEL 4
REMARK VINA RESULT:    -2.969      9.210     10.201
REMARK INTER + INTRA:          -3.834
REMARK INTER:                  -3.739
REMARK INTRA:                  -0.095
REMARK UNBOUND:                -0.172
REMARK SMILES CCCCCC(=O)[O-]
REMARK SMILES IDX 4 1 5 2 6 3 7 4 8 5 3 6 2 7 1 8
REMARK H PARENT
REMARK Flexibility Score: inf
ROOT
ATOM      1  C   UNL     1     -10.153 -72.456   5.716  1.00  0.00     0.006 C 
ENDROOT
BRANCH   1   2
ATOM      2  C   UNL     1     -11.459 -73.197   5.400  1.00  0.00     0.053 C 
BRANCH   2   3
ATOM      3  C   UNL     1     -12.615 -72.528   6.075  1.00  0.00     0.041 C 
ATOM      4  O   UNL     1     -12.521 -71.332   6.457  1.00  0.00    -0.550 OA
ATOM      5  O   UNL     1     -13.780 -73.243   6.327  1.00  0.00    -0.550 OA
ENDBRANCH   2   3
ENDBRANCH   1   2
BRANCH   1   6
ATOM      6  C   UNL     1      -8.915 -73.365   5.632  1.00  0.00     0.000 C 
BRANCH   6   7
ATOM      7  C   UNL     1      -8.345 -73.551   4.214  1.00  0.00    -0.003 C 
ATOM      8  C   UNL     1      -8.506 -72.310   3.337  1.00  0.00     0.004 C 
ENDBRANCH   6   7
ENDBRANCH   1   6
TORSDOF 4
ENDMDL
MODEL 5
REMARK VINA RESULT:    -2.935      1.366      1.975
REMARK INTER + INTRA:          -3.793
REMARK INTER:                  -3.726
REMARK INTRA:                  -0.067
REMARK UNBOUND:                -0.172
REMARK SMILES CCCCCC(=O)[O-]
REMARK SMILES IDX 4 1 5 2 6 3 7 4 8 5 3 6 2 7 1 8
REMARK H PARENT
REMARK Flexibility Score: inf
ROOT
ATOM      1  C   UNL     1      -6.460 -65.539  -1.059  1.00  0.00     0.006 C 
ENDROOT
BRANCH   1   2
ATOM      2  C   UNL     1      -5.087 -66.217  -1.144  1.00  0.00     0.053 C 
BRANCH   2   3
ATOM      3  C   UNL     1      -4.688 -66.415  -2.572  1.00  0.00     0.041 C 
ATOM      4  O   UNL     1      -4.736 -67.561  -3.090  1.00  0.00    -0.550 OA
ATOM      5  O   UNL     1      -4.214 -65.341  -3.316  1.00  0.00    -0.550 OA
ENDBRANCH   2   3
ENDBRANCH   1   2
BRANCH   1   6
ATOM      6  C   UNL     1      -7.434 -66.273  -0.121  1.00  0.00     0.000 C 
BRANCH   6   7
ATOM      7  C   UNL     1      -8.844 -66.493  -0.697  1.00  0.00    -0.003 C 
ATOM      8  C   UNL     1      -9.222 -67.970  -0.801  1.00  0.00     0.004 C 
ENDBRANCH   6   7
ENDBRANCH   1   6
TORSDOF 4
ENDMDL
MODEL 6
REMARK VINA RESULT:    -2.927      2.667      4.071
REMARK INTER + INTRA:          -3.783
REMARK INTER:                  -3.728
REMARK INTRA:                  -0.055
REMARK UNBOUND:                -0.172
REMARK SMILES CCCCCC(=O)[O-]
REMARK SMILES IDX 4 1 5 2 6 3 7 4 8 5 3 6 2 7 1 8
REMARK H PARENT
REMARK Flexibility Score: inf
ROOT
ATOM      1  C   UNL     1      -6.016 -65.541  -1.186  1.00  0.00     0.006 C 
ENDROOT
BRANCH   1   2
ATOM      2  C   UNL     1      -7.052 -66.100  -0.202  1.00  0.00     0.053 C 
BRANCH   2   3
ATOM      3  C   UNL     1      -8.433 -65.953  -0.757  1.00  0.00     0.041 C 
ATOM      4  O   UNL     1      -8.836 -64.833  -1.168  1.00  0.00    -0.550 OA
ATOM      5  O   UNL     1      -9.295 -67.043  -0.773  1.00  0.00    -0.550 OA
ENDBRANCH   2   3
ENDBRANCH   1   2
BRANCH   1   6
ATOM      6  C   UNL     1      -5.163 -66.639  -1.845  1.00  0.00     0.000 C 
BRANCH   6   7
ATOM      7  C   UNL     1      -4.412 -66.198  -3.115  1.00  0.00    -0.003 C 
ATOM      8  C   UNL     1      -4.209 -67.336  -4.114  1.00  0.00     0.004 C 
ENDBRANCH   6   7
ENDBRANCH   1   6
TORSDOF 4
ENDMDL
MODEL 7
REMARK VINA RESULT:    -2.906      2.469      3.950
REMARK INTER + INTRA:          -3.757
REMARK INTER:                  -3.633
REMARK INTRA:                  -0.124
REMARK UNBOUND:                -0.172
REMARK SMILES CCCCCC(=O)[O-]
REMARK SMILES IDX 4 1 5 2 6 3 7 4 8 5 3 6 2 7 1 8
REMARK H PARENT
REMARK Flexibility Score: inf
ROOT
ATOM      1  C   UNL     1      -6.379 -65.676  -0.045  1.00  0.00     0.006 C 
ENDROOT
BRANCH   1   2
ATOM      2  C   UNL     1      -7.676 -65.891  -0.835  1.00  0.00     0.053 C 
BRANCH   2   3
ATOM      3  C   UNL     1      -8.582 -66.833  -0.108  1.00  0.00     0.041 C 
ATOM      4  O   UNL     1      -9.386 -67.560  -0.748  1.00  0.00    -0.550 OA
ATOM      5  O   UNL     1      -8.576 -66.870   1.281  1.00  0.00    -0.550 OA
ENDBRANCH   2   3
ENDBRANCH   1   2
BRANCH   1   6
ATOM      6  C   UNL     1      -5.117 -65.820  -0.913  1.00  0.00     0.000 C 
BRANCH   6   7
ATOM      7  C   UNL     1      -5.194 -66.919  -1.988  1.00  0.00    -0.003 C 
ATOM      8  C   UNL     1      -4.388 -66.584  -3.243  1.00  0.00     0.004 C 
ENDBRANCH   6   7
ENDBRANCH   1   6
TORSDOF 4
ENDMDL
MODEL 8
REMARK VINA RESULT:    -2.893      1.788      1.967
REMARK INTER + INTRA:          -3.742
REMARK INTER:                  -3.563
REMARK INTRA:                  -0.179
REMARK UNBOUND:                -0.172
REMARK SMILES CCCCCC(=O)[O-]
REMARK SMILES IDX 4 1 5 2 6 3 7 4 8 5 3 6 2 7 1 8
REMARK H PARENT
REMARK Flexibility Score: inf
ROOT
ATOM      1  C   UNL     1      -7.502 -65.724   0.576  1.00  0.00     0.006 C 
ENDROOT
BRANCH   1   2
ATOM      2  C   UNL     1      -6.641 -65.737  -0.693  1.00  0.00     0.053 C 
BRANCH   2   3
ATOM      3  C   UNL     1      -6.793 -64.450  -1.441  1.00  0.00     0.041 C 
ATOM      4  O   UNL     1      -7.906 -63.864  -1.475  1.00  0.00    -0.550 OA
ATOM      5  O   UNL     1      -5.716 -63.925  -2.144  1.00  0.00    -0.550 OA
ENDBRANCH   2   3
ENDBRANCH   1   2
BRANCH   1   6
ATOM      6  C   UNL     1      -8.551 -66.849   0.600  1.00  0.00     0.000 C 
BRANCH   6   7
ATOM      7  C   UNL     1      -9.172 -67.184  -0.768  1.00  0.00    -0.003 C 
ATOM      8  C   UNL     1      -9.172 -68.681  -1.073  1.00  0.00     0.004 C 
ENDBRANCH   6   7
ENDBRANCH   1   6
TORSDOF 4
ENDMDL
MODEL 9
REMARK VINA RESULT:    -2.883      2.960      3.430
REMARK INTER + INTRA:          -3.729
REMARK INTER:                  -3.550
REMARK INTRA:                  -0.178
REMARK UNBOUND:                -0.172
REMARK SMILES CCCCCC(=O)[O-]
REMARK SMILES IDX 4 1 5 2 6 3 7 4 8 5 3 6 2 7 1 8
REMARK H PARENT
REMARK Flexibility Score: inf
ROOT
ATOM      1  C   UNL     1      -7.169 -65.713   0.544  1.00  0.00     0.006 C 
ENDROOT
BRANCH   1   2
ATOM      2  C   UNL     1      -8.372 -65.276   1.390  1.00  0.00     0.053 C 
BRANCH   2   3
ATOM      3  C   UNL     1      -8.284 -65.859   2.765  1.00  0.00     0.041 C 
ATOM      4  O   UNL     1      -8.085 -65.111   3.758  1.00  0.00    -0.550 OA
ATOM      5  O   UNL     1      -8.371 -67.234   2.944  1.00  0.00    -0.550 OA
ENDBRANCH   2   3
ENDBRANCH   1   2
BRANCH   1   6
ATOM      6  C   UNL     1      -7.566 -66.607  -0.644  1.00  0.00     0.000 C 
BRANCH   6   7
ATOM      7  C   UNL     1      -9.054 -66.995  -0.692  1.00  0.00    -0.003 C 
ATOM      8  C   UNL     1      -9.277 -68.468  -1.033  1.00  0.00     0.004 C 
ENDBRANCH   6   7
ENDBRANCH   1   6
TORSDOF 4
ENDMDL
