MODEL 1
REMARK VINA RESULT:    -6.605      0.000      0.000
REMARK INTER + INTRA:          -6.798
REMARK INTER:                  -6.798
REMARK INTRA:                   0.000
REMARK UNBOUND:                 0.000
REMARK SMILES O=c1ccc2ccc(O)cc2o1
REMARK SMILES IDX 6 1 7 2 8 3 10 4 11 5 5 6 4 7 3 8 2 9 1 10 12 11 9 12
REMARK H PARENT 9 13
REMARK Flexibility Score: inf
ROOT
ATOM      1  C   UNL     1       6.643   2.715   9.591  1.00  0.00     0.016 A 
ATOM      2  C   UNL     1       7.335   1.669  10.211  1.00  0.00     0.047 A 
ATOM      3  C   UNL     1       8.242   1.938  11.246  1.00  0.00     0.119 A 
ATOM      4  C   UNL     1       8.456   3.257  11.663  1.00  0.00     0.094 A 
ATOM      5  C   UNL     1       7.769   4.310  11.049  1.00  0.00     0.142 A 
ATOM      6  C   UNL     1       6.855   4.036  10.006  1.00  0.00     0.018 A 
ATOM      7  C   UNL     1       6.182   5.108   9.413  1.00  0.00     0.019 A 
ATOM      8  C   UNL     1       6.429   6.405   9.862  1.00  0.00     0.094 A 
ATOM      9  C   UNL     1       7.347   6.600  10.900  1.00  0.00     0.336 A 
ATOM     10  O   UNL     1       7.584   7.763  11.319  1.00  0.00    -0.246 OA
ATOM     11  O   UNL     1       7.975   5.562  11.448  1.00  0.00    -0.423 OA
ENDROOT
BRANCH   3  12
ATOM     12  O   UNL     1       8.936   0.901  11.867  1.00  0.00    -0.508 OA
ATOM     13  H   UNL     1       9.801   0.538  11.484  1.00  0.00     0.293 HD
ENDBRANCH   3  12
TORSDOF 1
ENDMDL
MODEL 2
REMARK VINA RESULT:    -6.469      0.785      4.221
REMARK INTER + INTRA:          -6.658
REMARK INTER:                  -6.658
REMARK INTRA:                   0.000
REMARK UNBOUND:                 0.000
REMARK SMILES O=c1ccc2ccc(O)cc2o1
REMARK SMILES IDX 6 1 7 2 8 3 10 4 11 5 5 6 4 7 3 8 2 9 1 10 12 11 9 12
REMARK H PARENT 9 13
REMARK Flexibility Score: inf
ROOT
ATOM      1  C   UNL     1       6.141   4.996   9.415  1.00  0.00     0.016 A 
ATOM      2  C   UNL     1       6.398   6.307   9.830  1.00  0.00     0.047 A 
ATOM      3  C   UNL     1       7.372   6.561  10.807  1.00  0.00     0.119 A 
ATOM      4  C   UNL     1       8.091   5.500  11.369  1.00  0.00     0.094 A 
ATOM      5  C   UNL     1       7.841   4.185  10.961  1.00  0.00     0.142 A 
ATOM      6  C   UNL     1       6.859   3.932   9.977  1.00  0.00     0.018 A 
ATOM      7  C   UNL     1       6.632   2.609   9.588  1.00  0.00     0.019 A 
ATOM      8  C   UNL     1       7.373   1.585  10.177  1.00  0.00     0.094 A 
ATOM      9  C   UNL     1       8.329   1.911  11.145  1.00  0.00     0.336 A 
ATOM     10  O   UNL     1       9.008   1.001  11.689  1.00  0.00    -0.246 OA
ATOM     11  O   UNL     1       8.526   3.180  11.498  1.00  0.00    -0.423 OA
ENDROOT
BRANCH   3  12
ATOM     12  O   UNL     1       7.633   7.865  11.226  1.00  0.00    -0.508 OA
ATOM     13  H   UNL     1       6.902   8.456  11.605  1.00  0.00     0.293 HD
ENDBRANCH   3  12
TORSDOF 1
ENDMDL
MODEL 3
REMARK VINA RESULT:    -6.132      1.462      2.247
REMARK INTER + INTRA:          -6.311
REMARK INTER:                  -6.311
REMARK INTRA:                   0.000
REMARK UNBOUND:                 0.000
REMARK SMILES O=c1ccc2ccc(O)cc2o1
REMARK SMILES IDX 6 1 7 2 8 3 10 4 11 5 5 6 4 7 3 8 2 9 1 10 12 11 9 12
REMARK H PARENT 9 13
REMARK Flexibility Score: inf
ROOT
ATOM      1  C   UNL     1       8.468   3.540  11.560  1.00  0.00     0.016 A 
ATOM      2  C   UNL     1       8.144   2.269  11.071  1.00  0.00     0.047 A 
ATOM      3  C   UNL     1       7.176   2.124  10.067  1.00  0.00     0.119 A 
ATOM      4  C   UNL     1       6.530   3.254   9.551  1.00  0.00     0.094 A 
ATOM      5  C   UNL     1       6.847   4.528  10.033  1.00  0.00     0.142 A 
ATOM      6  C   UNL     1       7.823   4.672  11.045  1.00  0.00     0.018 A 
ATOM      7  C   UNL     1       8.119   5.958  11.507  1.00  0.00     0.019 A 
ATOM      8  C   UNL     1       7.449   7.052  10.962  1.00  0.00     0.094 A 
ATOM      9  C   UNL     1       6.495   6.834   9.962  1.00  0.00     0.336 A 
ATOM     10  O   UNL     1       5.878   7.809   9.458  1.00  0.00    -0.246 OA
ATOM     11  O   UNL     1       6.231   5.599   9.540  1.00  0.00    -0.423 OA
ENDROOT
BRANCH   3  12
ATOM     12  O   UNL     1       6.848   0.862   9.576  1.00  0.00    -0.508 OA
ATOM     13  H   UNL     1       6.105   0.310   9.987  1.00  0.00     0.293 HD
ENDBRANCH   3  12
TORSDOF 1
ENDMDL
MODEL 4
REMARK VINA RESULT:    -5.696      1.618      4.800
REMARK INTER + INTRA:          -5.863
REMARK INTER:                  -5.863
REMARK INTRA:                   0.000
REMARK UNBOUND:                 0.000
REMARK SMILES O=c1ccc2ccc(O)cc2o1
REMARK SMILES IDX 6 1 7 2 8 3 10 4 11 5 5 6 4 7 3 8 2 9 1 10 12 11 9 12
REMARK H PARENT 9 13
REMARK Flexibility Score: inf
ROOT
ATOM      1  C   UNL     1       8.125   6.128  11.502  1.00  0.00     0.016 A 
ATOM      2  C   UNL     1       7.480   7.252  10.974  1.00  0.00     0.047 A 
ATOM      3  C   UNL     1       6.520   7.105   9.961  1.00  0.00     0.119 A 
ATOM      4  C   UNL     1       6.205   5.830   9.476  1.00  0.00     0.094 A 
ATOM      5  C   UNL     1       6.845   4.701   9.998  1.00  0.00     0.142 A 
ATOM      6  C   UNL     1       7.811   4.851  11.018  1.00  0.00     0.018 A 
ATOM      7  C   UNL     1       8.432   3.704  11.521  1.00  0.00     0.019 A 
ATOM      8  C   UNL     1       8.085   2.456  11.005  1.00  0.00     0.094 A 
ATOM      9  C   UNL     1       7.119   2.384   9.996  1.00  0.00     0.336 A 
ATOM     10  O   UNL     1       6.792   1.265   9.517  1.00  0.00    -0.246 OA
ATOM     11  O   UNL     1       6.542   3.491   9.535  1.00  0.00    -0.423 OA
ENDROOT
BRANCH   3  12
ATOM     12  O   UNL     1       5.875   8.221   9.430  1.00  0.00    -0.508 OA
ATOM     13  H   UNL     1       5.221   8.765   9.979  1.00  0.00     0.293 HD
ENDBRANCH   3  12
TORSDOF 1
ENDMDL
MODEL 5
REMARK VINA RESULT:    -5.242     12.106     13.471
REMARK INTER + INTRA:          -5.395
REMARK INTER:                  -5.395
REMARK INTRA:                   0.000
REMARK UNBOUND:                 0.000
REMARK SMILES O=c1ccc2ccc(O)cc2o1
REMARK SMILES IDX 6 1 7 2 8 3 10 4 11 5 5 6 4 7 3 8 2 9 1 10 12 11 9 12
REMARK H PARENT 9 13
REMARK Flexibility Score: inf
ROOT
ATOM      1  C   UNL     1       8.603  -5.446  19.132  1.00  0.00     0.016 A 
ATOM      2  C   UNL     1       8.563  -6.822  19.382  1.00  0.00     0.047 A 
ATOM      3  C   UNL     1       9.697  -7.484  19.874  1.00  0.00     0.119 A 
ATOM      4  C   UNL     1      10.874  -6.767  20.116  1.00  0.00     0.094 A 
ATOM      5  C   UNL     1      10.924  -5.391  19.869  1.00  0.00     0.142 A 
ATOM      6  C   UNL     1       9.780  -4.726  19.373  1.00  0.00     0.018 A 
ATOM      7  C   UNL     1       9.859  -3.350  19.137  1.00  0.00     0.019 A 
ATOM      8  C   UNL     1      11.054  -2.679  19.393  1.00  0.00     0.094 A 
ATOM      9  C   UNL     1      12.147  -3.403  19.884  1.00  0.00     0.336 A 
ATOM     10  O   UNL     1      13.235  -2.815  20.122  1.00  0.00    -0.246 OA
ATOM     11  O   UNL     1      12.045  -4.712  20.101  1.00  0.00    -0.423 OA
ENDROOT
BRANCH   3  12
ATOM     12  O   UNL     1       9.664  -8.855  20.124  1.00  0.00    -0.508 OA
ATOM     13  H   UNL     1      10.220  -9.506  19.583  1.00  0.00     0.293 HD
ENDBRANCH   3  12
TORSDOF 1
ENDMDL
MODEL 6
REMARK VINA RESULT:    -5.143     10.694     12.906
REMARK INTER + INTRA:          -5.294
REMARK INTER:                  -5.294
REMARK INTRA:                   0.000
REMARK UNBOUND:                 0.000
REMARK SMILES O=c1ccc2ccc(O)cc2o1
REMARK SMILES IDX 6 1 7 2 8 3 10 4 11 5 5 6 4 7 3 8 2 9 1 10 12 11 9 12
REMARK H PARENT 9 13
REMARK Flexibility Score: inf
ROOT
ATOM      1  C   UNL     1      11.248  -5.463  19.883  1.00  0.00     0.016 A 
ATOM      2  C   UNL     1      11.048  -6.827  20.123  1.00  0.00     0.047 A 
ATOM      3  C   UNL     1       9.805  -7.417  19.851  1.00  0.00     0.119 A 
ATOM      4  C   UNL     1       8.760  -6.641  19.337  1.00  0.00     0.094 A 
ATOM      5  C   UNL     1       8.951  -5.276  19.093  1.00  0.00     0.142 A 
ATOM      6  C   UNL     1      10.204  -4.684  19.368  1.00  0.00     0.018 A 
ATOM      7  C   UNL     1      10.365  -3.319  19.113  1.00  0.00     0.019 A 
ATOM      8  C   UNL     1       9.295  -2.587  18.602  1.00  0.00     0.094 A 
ATOM      9  C   UNL     1       8.083  -3.241  18.354  1.00  0.00     0.336 A 
ATOM     10  O   UNL     1       7.104  -2.597  17.892  1.00  0.00    -0.246 OA
ATOM     11  O   UNL     1       7.956  -4.541  18.605  1.00  0.00    -0.423 OA
ENDROOT
BRANCH   3  12
ATOM     12  O   UNL     1       9.598  -8.775  20.089  1.00  0.00    -0.508 OA
ATOM     13  H   UNL     1       9.615  -9.453  19.337  1.00  0.00     0.293 HD
ENDBRANCH   3  12
TORSDOF 1
ENDMDL
MODEL 7
REMARK VINA RESULT:    -5.031     11.425     13.255
REMARK INTER + INTRA:          -5.178
REMARK INTER:                  -5.178
REMARK INTRA:                   0.000
REMARK UNBOUND:                 0.000
REMARK SMILES O=c1ccc2ccc(O)cc2o1
REMARK SMILES IDX 6 1 7 2 8 3 10 4 11 5 5 6 4 7 3 8 2 9 1 10 12 11 9 12
REMARK H PARENT 9 13
REMARK Flexibility Score: inf
ROOT
ATOM      1  C   UNL     1      11.073  -6.767  20.116  1.00  0.00     0.016 A 
ATOM      2  C   UNL     1       9.866  -7.474  20.080  1.00  0.00     0.047 A 
ATOM      3  C   UNL     1       8.681  -6.829  19.695  1.00  0.00     0.119 A 
ATOM      4  C   UNL     1       8.704  -5.474  19.345  1.00  0.00     0.094 A 
ATOM      5  C   UNL     1       9.906  -4.759  19.379  1.00  0.00     0.142 A 
ATOM      6  C   UNL     1      11.099  -5.410  19.767  1.00  0.00     0.018 A 
ATOM      7  C   UNL     1      12.284  -4.670  19.789  1.00  0.00     0.019 A 
ATOM      8  C   UNL     1      12.257  -3.323  19.433  1.00  0.00     0.094 A 
ATOM      9  C   UNL     1      11.039  -2.744  19.059  1.00  0.00     0.336 A 
ATOM     10  O   UNL     1      10.994  -1.529  18.733  1.00  0.00    -0.246 OA
ATOM     11  O   UNL     1       9.924  -3.471  19.045  1.00  0.00    -0.423 OA
ENDROOT
BRANCH   3  12
ATOM     12  O   UNL     1       7.475  -7.528  19.658  1.00  0.00    -0.508 OA
ATOM     13  H   UNL     1       6.592  -7.070  19.850  1.00  0.00     0.293 HD
ENDBRANCH   3  12
TORSDOF 1
ENDMDL
MODEL 8
REMARK VINA RESULT:    -4.503      9.511     12.347
REMARK INTER + INTRA:          -4.635
REMARK INTER:                  -4.635
REMARK INTRA:                   0.000
REMARK UNBOUND:                 0.000
REMARK SMILES O=c1ccc2ccc(O)cc2o1
REMARK SMILES IDX 6 1 7 2 8 3 10 4 11 5 5 6 4 7 3 8 2 9 1 10 12 11 9 12
REMARK H PARENT 9 13
REMARK Flexibility Score: inf
ROOT
ATOM      1  C   UNL     1      12.102  -2.903  18.754  1.00  0.00     0.016 A 
ATOM      2  C   UNL     1      11.854  -1.836  17.883  1.00  0.00     0.047 A 
ATOM      3  C   UNL     1      10.601  -1.705  17.265  1.00  0.00     0.119 A 
ATOM      4  C   UNL     1       9.595  -2.644  17.519  1.00  0.00     0.094 A 
ATOM      5  C   UNL     1       9.834  -3.715  18.387  1.00  0.00     0.142 A 
ATOM      6  C   UNL     1      11.096  -3.845  19.009  1.00  0.00     0.018 A 
ATOM      7  C   UNL     1      11.304  -4.923  19.873  1.00  0.00     0.019 A 
ATOM      8  C   UNL     1      10.272  -5.834  20.094  1.00  0.00     0.094 A 
ATOM      9  C   UNL     1       9.048  -5.641  19.444  1.00  0.00     0.336 A 
ATOM     10  O   UNL     1       8.103  -6.452  19.630  1.00  0.00    -0.246 OA
ATOM     11  O   UNL     1       8.875  -4.605  18.626  1.00  0.00    -0.423 OA
ENDROOT
BRANCH   3  12
ATOM     12  O   UNL     1      10.348  -0.645  16.396  1.00  0.00    -0.508 OA
ATOM     13  H   UNL     1       9.517  -0.074  16.486  1.00  0.00     0.293 HD
ENDBRANCH   3  12
TORSDOF 1
ENDMDL
MODEL 9
REMARK VINA RESULT:    -4.493      8.192     10.817
REMARK INTER + INTRA:          -4.624
REMARK INTER:                  -4.624
REMARK INTRA:                   0.000
REMARK UNBOUND:                 0.000
REMARK SMILES O=c1ccc2ccc(O)cc2o1
REMARK SMILES IDX 6 1 7 2 8 3 10 4 11 5 5 6 4 7 3 8 2 9 1 10 12 11 9 12
REMARK H PARENT 9 13
REMARK Flexibility Score: inf
ROOT
ATOM      1  C   UNL     1       7.778  -3.590  17.012  1.00  0.00     0.016 A 
ATOM      2  C   UNL     1       7.754  -2.864  15.817  1.00  0.00     0.047 A 
ATOM      3  C   UNL     1       8.850  -2.070  15.450  1.00  0.00     0.119 A 
ATOM      4  C   UNL     1       9.973  -2.002  16.282  1.00  0.00     0.094 A 
ATOM      5  C   UNL     1      10.007  -2.725  17.480  1.00  0.00     0.142 A 
ATOM      6  C   UNL     1       8.901  -3.524  17.847  1.00  0.00     0.018 A 
ATOM      7  C   UNL     1       8.964  -4.235  19.049  1.00  0.00     0.019 A 
ATOM      8  C   UNL     1      10.104  -4.136  19.845  1.00  0.00     0.094 A 
ATOM      9  C   UNL     1      11.161  -3.325  19.418  1.00  0.00     0.336 A 
ATOM     10  O   UNL     1      12.199  -3.222  20.122  1.00  0.00    -0.246 OA
ATOM     11  O   UNL     1      11.076  -2.658  18.269  1.00  0.00    -0.423 OA
ENDROOT
BRANCH   3  12
ATOM     12  O   UNL     1       8.833  -1.344  14.260  1.00  0.00    -0.508 OA
ATOM     13  H   UNL     1       8.266  -1.632  13.472  1.00  0.00     0.293 HD
ENDBRANCH   3  12
TORSDOF 1
ENDMDL
