MODEL 1
REMARK VINA RESULT:    -4.269      0.000      0.000
REMARK INTER + INTRA:          -4.269
REMARK INTER:                  -4.269
REMARK INTRA:                   0.000
REMARK UNBOUND:                 0.000
REMARK SMILES CC1=CC[C@@H]2[C@@H](C1)C2(C)C
REMARK SMILES IDX 1 1 2 2 3 3 4 4 5 5 6 6 7 7 8 8 9 9 10 10
REMARK H PARENT
REMARK Flexibility Score: inf
ROOT
ATOM      1  C   UNL     1      31.172   6.805  36.745  1.00  0.00     0.039 C 
ATOM      2  C   UNL     1      31.265   7.431  35.383  1.00  0.00    -0.077 C 
ATOM      3  C   UNL     1      31.404   6.632  34.284  1.00  0.00    -0.028 C 
ATOM      4  C   UNL     1      31.530   7.210  32.876  1.00  0.00     0.031 C 
ATOM      5  C   UNL     1      32.042   8.649  33.001  1.00  0.00     0.003 C 
ATOM      6  C   UNL     1      30.873   9.318  33.818  1.00  0.00     0.003 C 
ATOM      7  C   UNL     1      31.267   8.959  35.255  1.00  0.00     0.034 C 
ATOM      8  C   UNL     1      31.524  10.027  32.652  1.00  0.00    -0.029 C 
ATOM      9  C   UNL     1      32.416  11.217  33.014  1.00  0.00     0.012 C 
ATOM     10  C   UNL     1      30.715  10.119  31.355  1.00  0.00     0.012 C 
ENDROOT
TORSDOF 0
ENDMDL
MODEL 2
REMARK VINA RESULT:    -4.192      1.121      4.637
REMARK INTER + INTRA:          -4.192
REMARK INTER:                  -4.192
REMARK INTRA:                   0.000
REMARK UNBOUND:                 0.000
REMARK SMILES CC1=CC[C@@H]2[C@@H](C1)C2(C)C
REMARK SMILES IDX 1 1 2 2 3 3 4 4 5 5 6 6 7 7 8 8 9 9 10 10
REMARK H PARENT
REMARK Flexibility Score: inf
ROOT
ATOM      1  C   UNL     1      30.414  11.949  29.828  1.00  0.00     0.039 C 
ATOM      2  C   UNL     1      30.910  11.273  31.075  1.00  0.00    -0.077 C 
ATOM      3  C   UNL     1      31.796  11.923  31.884  1.00  0.00    -0.028 C 
ATOM      4  C   UNL     1      32.356  11.278  33.151  1.00  0.00     0.031 C 
ATOM      5  C   UNL     1      32.241   9.758  32.996  1.00  0.00     0.003 C 
ATOM      6  C   UNL     1      30.680   9.582  32.878  1.00  0.00     0.003 C 
ATOM      7  C   UNL     1      30.461   9.839  31.383  1.00  0.00     0.034 C 
ATOM      8  C   UNL     1      31.518   8.640  33.713  1.00  0.00    -0.029 C 
ATOM      9  C   UNL     1      31.688   7.227  33.147  1.00  0.00     0.012 C 
ATOM     10  C   UNL     1      31.419   8.784  35.234  1.00  0.00     0.012 C 
ENDROOT
TORSDOF 0
ENDMDL
MODEL 3
REMARK VINA RESULT:    -3.995      4.274      5.871
REMARK INTER + INTRA:          -3.995
REMARK INTER:                  -3.995
REMARK INTRA:                   0.000
REMARK UNBOUND:                 0.000
REMARK SMILES CC1=CC[C@@H]2[C@@H](C1)C2(C)C
REMARK SMILES IDX 1 1 2 2 3 3 4 4 5 5 6 6 7 7 8 8 9 9 10 10
REMARK H PARENT
REMARK Flexibility Score: inf
ROOT
ATOM      1  C   UNL     1      30.751   8.865  31.693  1.00  0.00     0.039 C 
ATOM      2  C   UNL     1      30.714   8.140  30.378  1.00  0.00    -0.077 C 
ATOM      3  C   UNL     1      31.266   6.895  30.282  1.00  0.00    -0.028 C 
ATOM      4  C   UNL     1      31.282   6.118  28.966  1.00  0.00     0.031 C 
ATOM      5  C   UNL     1      31.159   7.129  27.821  1.00  0.00     0.003 C 
ATOM      6  C   UNL     1      29.748   7.760  28.123  1.00  0.00     0.003 C 
ATOM      7  C   UNL     1      30.114   8.837  29.150  1.00  0.00     0.034 C 
ATOM      8  C   UNL     1      30.168   7.408  26.713  1.00  0.00    -0.029 C 
ATOM      9  C   UNL     1      30.468   8.597  25.795  1.00  0.00     0.012 C 
ATOM     10  C   UNL     1      29.517   6.174  26.082  1.00  0.00     0.012 C 
ENDROOT
TORSDOF 0
ENDMDL
MODEL 4
REMARK VINA RESULT:    -3.943      1.117      4.033
REMARK INTER + INTRA:          -3.943
REMARK INTER:                  -3.943
REMARK INTRA:                   0.000
REMARK UNBOUND:                 0.000
REMARK SMILES CC1=CC[C@@H]2[C@@H](C1)C2(C)C
REMARK SMILES IDX 1 1 2 2 3 3 4 4 5 5 6 6 7 7 8 8 9 9 10 10
REMARK H PARENT
REMARK Flexibility Score: inf
ROOT
ATOM      1  C   UNL     1      32.350  11.260  33.011  1.00  0.00     0.039 C 
ATOM      2  C   UNL     1      31.979   9.955  33.655  1.00  0.00    -0.077 C 
ATOM      3  C   UNL     1      32.022   8.806  32.918  1.00  0.00    -0.028 C 
ATOM      4  C   UNL     1      31.632   7.452  33.509  1.00  0.00     0.031 C 
ATOM      5  C   UNL     1      30.708   7.709  34.704  1.00  0.00     0.003 C 
ATOM      6  C   UNL     1      31.663   8.522  35.657  1.00  0.00     0.003 C 
ATOM      7  C   UNL     1      31.494   9.943  35.110  1.00  0.00     0.034 C 
ATOM      8  C   UNL     1      30.748   7.443  36.193  1.00  0.00    -0.029 C 
ATOM      9  C   UNL     1      29.556   7.934  37.019  1.00  0.00     0.012 C 
ATOM     10  C   UNL     1      31.402   6.122  36.610  1.00  0.00     0.012 C 
ENDROOT
TORSDOF 0
ENDMDL
MODEL 5
REMARK VINA RESULT:    -3.905      4.904      6.770
REMARK INTER + INTRA:          -3.905
REMARK INTER:                  -3.905
REMARK INTRA:                   0.000
REMARK UNBOUND:                 0.000
REMARK SMILES CC1=CC[C@@H]2[C@@H](C1)C2(C)C
REMARK SMILES IDX 1 1 2 2 3 3 4 4 5 5 6 6 7 7 8 8 9 9 10 10
REMARK H PARENT
REMARK Flexibility Score: inf
ROOT
ATOM      1  C   UNL     1      31.268   6.876  30.969  1.00  0.00     0.039 C 
ATOM      2  C   UNL     1      30.856   7.341  29.602  1.00  0.00    -0.077 C 
ATOM      3  C   UNL     1      30.119   8.483  29.474  1.00  0.00    -0.028 C 
ATOM      4  C   UNL     1      29.649   8.994  28.114  1.00  0.00     0.031 C 
ATOM      5  C   UNL     1      29.621   7.804  27.149  1.00  0.00     0.003 C 
ATOM      6  C   UNL     1      31.140   7.387  27.136  1.00  0.00     0.003 C 
ATOM      7  C   UNL     1      31.216   6.491  28.376  1.00  0.00     0.034 C 
ATOM      8  C   UNL     1      30.323   7.423  25.864  1.00  0.00    -0.029 C 
ATOM      9  C   UNL     1      29.976   6.060  25.260  1.00  0.00     0.012 C 
ATOM     10  C   UNL     1      30.598   8.577  24.894  1.00  0.00     0.012 C 
ENDROOT
TORSDOF 0
ENDMDL
MODEL 6
REMARK VINA RESULT:    -3.813      1.327      3.430
REMARK INTER + INTRA:          -3.813
REMARK INTER:                  -3.813
REMARK INTRA:                   0.000
REMARK UNBOUND:                 0.000
REMARK SMILES CC1=CC[C@@H]2[C@@H](C1)C2(C)C
REMARK SMILES IDX 1 1 2 2 3 3 4 4 5 5 6 6 7 7 8 8 9 9 10 10
REMARK H PARENT
REMARK Flexibility Score: inf
ROOT
ATOM      1  C   UNL     1      31.242   7.508  31.185  1.00  0.00     0.039 C 
ATOM      2  C   UNL     1      31.247   7.826  32.653  1.00  0.00    -0.077 C 
ATOM      3  C   UNL     1      31.352   6.811  33.560  1.00  0.00    -0.028 C 
ATOM      4  C   UNL     1      31.336   7.069  35.065  1.00  0.00     0.031 C 
ATOM      5  C   UNL     1      30.634   8.409  35.307  1.00  0.00     0.003 C 
ATOM      6  C   UNL     1      31.594   9.397  34.544  1.00  0.00     0.003 C 
ATOM      7  C   UNL     1      31.068   9.280  33.109  1.00  0.00     0.034 C 
ATOM      8  C   UNL     1      31.013   9.750  35.895  1.00  0.00    -0.029 C 
ATOM      9  C   UNL     1      29.938  10.840  35.889  1.00  0.00     0.012 C 
ATOM     10  C   UNL     1      31.964   9.700  37.094  1.00  0.00     0.012 C 
ENDROOT
TORSDOF 0
ENDMDL
MODEL 7
REMARK VINA RESULT:    -3.813      1.488      4.302
REMARK INTER + INTRA:          -3.813
REMARK INTER:                  -3.813
REMARK INTRA:                   0.000
REMARK UNBOUND:                 0.000
REMARK SMILES CC1=CC[C@@H]2[C@@H](C1)C2(C)C
REMARK SMILES IDX 1 1 2 2 3 3 4 4 5 5 6 6 7 7 8 8 9 9 10 10
REMARK H PARENT
REMARK Flexibility Score: inf
ROOT
ATOM      1  C   UNL     1      32.308  12.282  31.307  1.00  0.00     0.039 C 
ATOM      2  C   UNL     1      31.730  11.360  32.342  1.00  0.00    -0.077 C 
ATOM      3  C   UNL     1      30.440  10.930  32.215  1.00  0.00    -0.028 C 
ATOM      4  C   UNL     1      29.789  10.012  33.248  1.00  0.00     0.031 C 
ATOM      5  C   UNL     1      30.546  10.180  34.570  1.00  0.00     0.003 C 
ATOM      6  C   UNL     1      31.985   9.688  34.160  1.00  0.00     0.003 C 
ATOM      7  C   UNL     1      32.579  10.967  33.558  1.00  0.00     0.034 C 
ATOM      8  C   UNL     1      31.363   9.290  35.480  1.00  0.00    -0.029 C 
ATOM      9  C   UNL     1      31.973   9.942  36.724  1.00  0.00     0.012 C 
ATOM     10  C   UNL     1      30.871   7.845  35.608  1.00  0.00     0.012 C 
ENDROOT
TORSDOF 0
ENDMDL
MODEL 8
REMARK VINA RESULT:    -3.769      2.385      4.270
REMARK INTER + INTRA:          -3.769
REMARK INTER:                  -3.769
REMARK INTRA:                   0.000
REMARK UNBOUND:                 0.000
REMARK SMILES CC1=CC[C@@H]2[C@@H](C1)C2(C)C
REMARK SMILES IDX 1 1 2 2 3 3 4 4 5 5 6 6 7 7 8 8 9 9 10 10
REMARK H PARENT
REMARK Flexibility Score: inf
ROOT
ATOM      1  C   UNL     1      30.877   6.444  28.807  1.00  0.00     0.039 C 
ATOM      2  C   UNL     1      30.676   7.621  29.719  1.00  0.00    -0.077 C 
ATOM      3  C   UNL     1      30.018   8.724  29.256  1.00  0.00    -0.028 C 
ATOM      4  C   UNL     1      29.806   9.961  30.127  1.00  0.00     0.031 C 
ATOM      5  C   UNL     1      30.878   9.957  31.221  1.00  0.00     0.003 C 
ATOM      6  C   UNL     1      30.528   8.625  31.984  1.00  0.00     0.003 C 
ATOM      7  C   UNL     1      31.269   7.588  31.133  1.00  0.00     0.034 C 
ATOM      8  C   UNL     1      30.896   9.887  32.732  1.00  0.00    -0.029 C 
ATOM      9  C   UNL     1      32.268   9.879  33.411  1.00  0.00     0.012 C 
ATOM     10  C   UNL     1      29.760  10.630  33.441  1.00  0.00     0.012 C 
ENDROOT
TORSDOF 0
ENDMDL
MODEL 9
REMARK VINA RESULT:    -3.713      1.011      2.270
REMARK INTER + INTRA:          -3.713
REMARK INTER:                  -3.713
REMARK INTRA:                   0.000
REMARK UNBOUND:                 0.000
REMARK SMILES CC1=CC[C@@H]2[C@@H](C1)C2(C)C
REMARK SMILES IDX 1 1 2 2 3 3 4 4 5 5 6 6 7 7 8 8 9 9 10 10
REMARK H PARENT
REMARK Flexibility Score: inf
ROOT
ATOM      1  C   UNL     1      29.931   6.167  36.483  1.00  0.00     0.039 C 
ATOM      2  C   UNL     1      30.535   7.355  35.792  1.00  0.00    -0.077 C 
ATOM      3  C   UNL     1      30.846   8.469  36.518  1.00  0.00    -0.028 C 
ATOM      4  C   UNL     1      31.438   9.718  35.868  1.00  0.00     0.031 C 
ATOM      5  C   UNL     1      31.059   9.700  34.383  1.00  0.00     0.003 C 
ATOM      6  C   UNL     1      31.776   8.382  33.902  1.00  0.00     0.003 C 
ATOM      7  C   UNL     1      30.732   7.322  34.271  1.00  0.00     0.034 C 
ATOM      8  C   UNL     1      31.803   9.643  33.067  1.00  0.00    -0.029 C 
ATOM      9  C   UNL     1      30.957   9.611  31.791  1.00  0.00     0.012 C 
ATOM     10  C   UNL     1      33.124  10.416  33.021  1.00  0.00     0.012 C 
ENDROOT
TORSDOF 0
ENDMDL
