MODEL 1
REMARK VINA RESULT:    -4.443      0.000      0.000
REMARK INTER + INTRA:         -10.365
REMARK INTER:                  -8.340
REMARK INTRA:                  -2.025
REMARK UNBOUND:                -2.025
REMARK SMILES CCCCCCCCC=CCCCCCCCC(=O)[O-]
REMARK SMILES IDX 10 1 9 2 11 3 12 4 13 5 14 6 15 7 16 8 17 9 18 10 19 11
REMARK SMILES IDX 20 12 8 13 7 14 6 15 5 16 4 17 3 18 2 19 1 20
REMARK H PARENT
REMARK Flexibility Score: inf
ROOT
ATOM      1  C   UNL     1      17.474  30.013  33.335  1.00  0.00    -0.031 C 
ATOM      2  C   UNL     1      16.913  28.874  32.888  1.00  0.00    -0.031 C 
ENDROOT
BRANCH   1   3
ATOM      3  C   UNL     1      17.801  30.322  34.777  1.00  0.00     0.027 C 
BRANCH   3   4
ATOM      4  C   UNL     1      19.289  30.665  34.977  1.00  0.00     0.004 C 
BRANCH   4   5
ATOM      5  C   UNL     1      20.108  30.784  33.679  1.00  0.00     0.000 C 
BRANCH   5   6
ATOM      6  C   UNL     1      20.479  32.239  33.336  1.00  0.00     0.000 C 
BRANCH   6   7
ATOM      7  C   UNL     1      19.879  32.701  31.999  1.00  0.00     0.000 C 
BRANCH   7   8
ATOM      8  C   UNL     1      20.809  32.421  30.808  1.00  0.00     0.006 C 
BRANCH   8   9
ATOM      9  C   UNL     1      21.344  33.726  30.210  1.00  0.00     0.053 C 
BRANCH   9  10
ATOM     10  C   UNL     1      21.874  33.493  28.831  1.00  0.00     0.041 C 
ATOM     11  O   UNL     1      22.307  34.460  28.149  1.00  0.00    -0.550 OA
ATOM     12  O   UNL     1      21.846  32.219  28.278  1.00  0.00    -0.550 OA
ENDBRANCH   9  10
ENDBRANCH   8   9
ENDBRANCH   7   8
ENDBRANCH   6   7
ENDBRANCH   5   6
ENDBRANCH   4   5
ENDBRANCH   3   4
ENDBRANCH   1   3
BRANCH   2  13
ATOM     13  C   UNL     1      16.507  27.700  33.742  1.00  0.00     0.027 C 
BRANCH  13  14
ATOM     14  C   UNL     1      17.146  26.368  33.308  1.00  0.00     0.004 C 
BRANCH  14  15
ATOM     15  C   UNL     1      18.301  25.896  34.213  1.00  0.00     0.000 C 
BRANCH  15  16
ATOM     16  C   UNL     1      18.334  26.615  35.571  1.00  0.00     0.000 C 
BRANCH  16  17
ATOM     17  C   UNL     1      19.718  27.211  35.851  1.00  0.00    -0.000 C 
BRANCH  17  18
ATOM     18  C   UNL     1      20.618  27.108  34.610  1.00  0.00    -0.000 C 
BRANCH  18  19
ATOM     19  C   UNL     1      22.105  26.959  34.966  1.00  0.00    -0.003 C 
ATOM     20  C   UNL     1      22.713  25.663  34.431  1.00  0.00     0.004 C 
ENDBRANCH  18  19
ENDBRANCH  17  18
ENDBRANCH  16  17
ENDBRANCH  15  16
ENDBRANCH  14  15
ENDBRANCH  13  14
ENDBRANCH   2  13
TORSDOF 15
ENDMDL
MODEL 2
REMARK VINA RESULT:    -4.239     13.571     15.990
REMARK INTER + INTRA:          -9.980
REMARK INTER:                  -7.908
REMARK INTRA:                  -2.072
REMARK UNBOUND:                -2.025
REMARK SMILES CCCCCCCCC=CCCCCCCCC(=O)[O-]
REMARK SMILES IDX 10 1 9 2 11 3 12 4 13 5 14 6 15 7 16 8 17 9 18 10 19 11
REMARK SMILES IDX 20 12 8 13 7 14 6 15 5 16 4 17 3 18 2 19 1 20
REMARK H PARENT
REMARK Flexibility Score: inf
ROOT
ATOM      1  C   UNL     1      18.332  21.409  22.053  1.00  0.00    -0.031 C 
ATOM      2  C   UNL     1      17.128  21.827  21.619  1.00  0.00    -0.031 C 
ENDROOT
BRANCH   1   3
ATOM      3  C   UNL     1      19.614  21.449  21.255  1.00  0.00     0.027 C 
BRANCH   3   4
ATOM      4  C   UNL     1      20.222  20.048  21.057  1.00  0.00     0.004 C 
BRANCH   4   5
ATOM      5  C   UNL     1      21.536  19.796  21.821  1.00  0.00     0.000 C 
BRANCH   5   6
ATOM      6  C   UNL     1      21.320  19.597  23.332  1.00  0.00     0.000 C 
BRANCH   6   7
ATOM      7  C   UNL     1      20.167  18.629  23.641  1.00  0.00     0.000 C 
BRANCH   7   8
ATOM      8  C   UNL     1      19.299  19.102  24.817  1.00  0.00     0.006 C 
BRANCH   8   9
ATOM      9  C   UNL     1      19.845  20.404  25.413  1.00  0.00     0.053 C 
BRANCH   9  10
ATOM     10  C   UNL     1      18.727  21.344  25.733  1.00  0.00     0.041 C 
ATOM     11  O   UNL     1      17.705  20.928  26.340  1.00  0.00    -0.550 OA
ATOM     12  O   UNL     1      18.788  22.669  25.317  1.00  0.00    -0.550 OA
ENDBRANCH   9  10
ENDBRANCH   8   9
ENDBRANCH   7   8
ENDBRANCH   6   7
ENDBRANCH   5   6
ENDBRANCH   4   5
ENDBRANCH   3   4
ENDBRANCH   1   3
BRANCH   2  13
ATOM     13  C   UNL     1      16.838  22.409  20.259  1.00  0.00     0.027 C 
BRANCH  13  14
ATOM     14  C   UNL     1      16.542  21.349  19.182  1.00  0.00     0.004 C 
BRANCH  14  15
ATOM     15  C   UNL     1      17.640  21.212  18.110  1.00  0.00     0.000 C 
BRANCH  15  16
ATOM     16  C   UNL     1      18.417  22.517  17.875  1.00  0.00     0.000 C 
BRANCH  16  17
ATOM     17  C   UNL     1      18.428  22.897  16.389  1.00  0.00    -0.000 C 
BRANCH  17  18
ATOM     18  C   UNL     1      17.564  24.141  16.137  1.00  0.00    -0.000 C 
BRANCH  18  19
ATOM     19  C   UNL     1      17.145  24.845  17.438  1.00  0.00    -0.003 C 
ATOM     20  C   UNL     1      17.031  26.361  17.278  1.00  0.00     0.004 C 
ENDBRANCH  18  19
ENDBRANCH  17  18
ENDBRANCH  16  17
ENDBRANCH  15  16
ENDBRANCH  14  15
ENDBRANCH  13  14
ENDBRANCH   2  13
TORSDOF 15
ENDMDL
MODEL 3
REMARK VINA RESULT:    -4.227     12.724     15.256
REMARK INTER + INTRA:          -9.958
REMARK INTER:                  -7.550
REMARK INTRA:                  -2.408
REMARK UNBOUND:                -2.025
REMARK SMILES CCCCCCCCC=CCCCCCCCC(=O)[O-]
REMARK SMILES IDX 10 1 9 2 11 3 12 4 13 5 14 6 15 7 16 8 17 9 18 10 19 11
REMARK SMILES IDX 20 12 8 13 7 14 6 15 5 16 4 17 3 18 2 19 1 20
REMARK H PARENT
REMARK Flexibility Score: inf
ROOT
ATOM      1  C   UNL     1      21.543  19.489  22.138  1.00  0.00    -0.031 C 
ATOM      2  C   UNL     1      21.026  20.080  21.044  1.00  0.00    -0.031 C 
ENDROOT
BRANCH   1   3
ATOM      3  C   UNL     1      21.102  19.742  23.560  1.00  0.00     0.027 C 
BRANCH   3   4
ATOM      4  C   UNL     1      20.516  18.481  24.222  1.00  0.00     0.004 C 
BRANCH   4   5
ATOM      5  C   UNL     1      19.502  17.707  23.361  1.00  0.00     0.000 C 
BRANCH   5   6
ATOM      6  C   UNL     1      18.063  17.800  23.902  1.00  0.00     0.000 C 
BRANCH   6   7
ATOM      7  C   UNL     1      18.017  17.957  25.430  1.00  0.00     0.000 C 
BRANCH   7   8
ATOM      8  C   UNL     1      17.329  19.259  25.869  1.00  0.00     0.006 C 
BRANCH   8   9
ATOM      9  C   UNL     1      18.357  20.290  26.344  1.00  0.00     0.053 C 
BRANCH   9  10
ATOM     10  C   UNL     1      18.084  21.626  25.729  1.00  0.00     0.041 C 
ATOM     11  O   UNL     1      19.039  22.349  25.339  1.00  0.00    -0.550 OA
ATOM     12  O   UNL     1      16.780  22.095  25.630  1.00  0.00    -0.550 OA
ENDBRANCH   9  10
ENDBRANCH   8   9
ENDBRANCH   7   8
ENDBRANCH   6   7
ENDBRANCH   5   6
ENDBRANCH   4   5
ENDBRANCH   3   4
ENDBRANCH   1   3
BRANCH   2  13
ATOM     13  C   UNL     1      19.918  21.102  21.037  1.00  0.00     0.027 C 
BRANCH  13  14
ATOM     14  C   UNL     1      18.507  20.485  21.030  1.00  0.00     0.004 C 
BRANCH  14  15
ATOM     15  C   UNL     1      17.622  20.916  22.215  1.00  0.00     0.000 C 
BRANCH  15  16
ATOM     16  C   UNL     1      16.883  22.240  21.965  1.00  0.00     0.000 C 
BRANCH  16  17
ATOM     17  C   UNL     1      16.022  22.165  20.698  1.00  0.00    -0.000 C 
BRANCH  17  18
ATOM     18  C   UNL     1      16.394  23.288  19.719  1.00  0.00    -0.000 C 
BRANCH  18  19
ATOM     19  C   UNL     1      16.640  22.773  18.292  1.00  0.00    -0.003 C 
ATOM     20  C   UNL     1      18.118  22.509  18.006  1.00  0.00     0.004 C 
ENDBRANCH  18  19
ENDBRANCH  17  18
ENDBRANCH  16  17
ENDBRANCH  15  16
ENDBRANCH  14  15
ENDBRANCH  13  14
ENDBRANCH   2  13
TORSDOF 15
ENDMDL
MODEL 4
REMARK VINA RESULT:    -4.200     13.109     14.577
REMARK INTER + INTRA:          -9.907
REMARK INTER:                  -7.279
REMARK INTRA:                  -2.629
REMARK UNBOUND:                -2.025
REMARK SMILES CCCCCCCCC=CCCCCCCCC(=O)[O-]
REMARK SMILES IDX 10 1 9 2 11 3 12 4 13 5 14 6 15 7 16 8 17 9 18 10 19 11
REMARK SMILES IDX 20 12 8 13 7 14 6 15 5 16 4 17 3 18 2 19 1 20
REMARK H PARENT
REMARK Flexibility Score: inf
ROOT
ATOM      1  C   UNL     1      18.434  22.005  24.520  1.00  0.00    -0.031 C 
ATOM      2  C   UNL     1      18.475  21.218  25.612  1.00  0.00    -0.031 C 
ENDROOT
BRANCH   1   3
ATOM      3  C   UNL     1      17.243  22.178  23.608  1.00  0.00     0.027 C 
BRANCH   3   4
ATOM      4  C   UNL     1      17.537  21.714  22.170  1.00  0.00     0.004 C 
BRANCH   4   5
ATOM      5  C   UNL     1      19.032  21.607  21.815  1.00  0.00     0.000 C 
BRANCH   5   6
ATOM      6  C   UNL     1      19.279  21.465  20.302  1.00  0.00     0.000 C 
BRANCH   6   7
ATOM      7  C   UNL     1      18.244  20.557  19.618  1.00  0.00     0.000 C 
BRANCH   7   8
ATOM      8  C   UNL     1      17.821  21.080  18.237  1.00  0.00     0.006 C 
BRANCH   8   9
ATOM      9  C   UNL     1      17.590  22.594  18.271  1.00  0.00     0.053 C 
BRANCH   9  10
ATOM     10  C   UNL     1      18.295  23.259  17.131  1.00  0.00     0.041 C 
ATOM     11  O   UNL     1      18.266  24.513  17.014  1.00  0.00    -0.550 OA
ATOM     12  O   UNL     1      18.942  22.493  16.169  1.00  0.00    -0.550 OA
ENDBRANCH   9  10
ENDBRANCH   8   9
ENDBRANCH   7   8
ENDBRANCH   6   7
ENDBRANCH   5   6
ENDBRANCH   4   5
ENDBRANCH   3   4
ENDBRANCH   1   3
BRANCH   2  13
ATOM     13  C   UNL     1      17.342  20.363  26.122  1.00  0.00     0.027 C 
BRANCH  13  14
ATOM     14  C   UNL     1      17.260  18.979  25.451  1.00  0.00     0.004 C 
BRANCH  14  15
ATOM     15  C   UNL     1      18.606  18.459  24.909  1.00  0.00     0.000 C 
BRANCH  15  16
ATOM     16  C   UNL     1      18.613  18.287  23.382  1.00  0.00     0.000 C 
BRANCH  16  17
ATOM     17  C   UNL     1      20.041  18.332  22.824  1.00  0.00    -0.000 C 
BRANCH  17  18
ATOM     18  C   UNL     1      20.967  19.122  23.761  1.00  0.00    -0.000 C 
BRANCH  18  19
ATOM     19  C   UNL     1      22.086  19.857  23.006  1.00  0.00    -0.003 C 
ATOM     20  C   UNL     1      22.144  19.481  21.525  1.00  0.00     0.004 C 
ENDBRANCH  18  19
ENDBRANCH  17  18
ENDBRANCH  16  17
ENDBRANCH  15  16
ENDBRANCH  14  15
ENDBRANCH  13  14
ENDBRANCH   2  13
TORSDOF 15
ENDMDL
MODEL 5
REMARK VINA RESULT:    -4.174      3.634      8.271
REMARK INTER + INTRA:          -9.858
REMARK INTER:                  -8.071
REMARK INTRA:                  -1.787
REMARK UNBOUND:                -2.025
REMARK SMILES CCCCCCCCC=CCCCCCCCC(=O)[O-]
REMARK SMILES IDX 10 1 9 2 11 3 12 4 13 5 14 6 15 7 16 8 17 9 18 10 19 11
REMARK SMILES IDX 20 12 8 13 7 14 6 15 5 16 4 17 3 18 2 19 1 20
REMARK H PARENT
REMARK Flexibility Score: inf
ROOT
ATOM      1  C   UNL     1      20.225  32.237  32.157  1.00  0.00    -0.031 C 
ATOM      2  C   UNL     1      21.096  32.591  31.192  1.00  0.00    -0.031 C 
ENDROOT
BRANCH   1   3
ATOM      3  C   UNL     1      18.820  31.733  31.927  1.00  0.00     0.027 C 
BRANCH   3   4
ATOM      4  C   UNL     1      18.149  31.263  33.231  1.00  0.00     0.004 C 
BRANCH   4   5
ATOM      5  C   UNL     1      19.122  30.849  34.350  1.00  0.00     0.000 C 
BRANCH   5   6
ATOM      6  C   UNL     1      19.219  29.322  34.523  1.00  0.00     0.000 C 
BRANCH   6   7
ATOM      7  C   UNL     1      20.670  28.836  34.671  1.00  0.00     0.000 C 
BRANCH   7   8
ATOM      8  C   UNL     1      20.758  27.392  35.187  1.00  0.00     0.006 C 
BRANCH   8   9
ATOM      9  C   UNL     1      21.399  26.473  34.141  1.00  0.00     0.053 C 
BRANCH   9  10
ATOM     10  C   UNL     1      22.710  25.950  34.635  1.00  0.00     0.041 C 
ATOM     11  O   UNL     1      23.424  25.229  33.888  1.00  0.00    -0.550 OA
ATOM     12  O   UNL     1      23.122  26.214  35.935  1.00  0.00    -0.550 OA
ENDBRANCH   9  10
ENDBRANCH   8   9
ENDBRANCH   7   8
ENDBRANCH   6   7
ENDBRANCH   5   6
ENDBRANCH   4   5
ENDBRANCH   3   4
ENDBRANCH   1   3
BRANCH   2  13
ATOM     13  C   UNL     1      20.828  32.551  29.709  1.00  0.00     0.027 C 
BRANCH  13  14
ATOM     14  C   UNL     1      21.827  33.377  28.877  1.00  0.00     0.004 C 
BRANCH  14  15
ATOM     15  C   UNL     1      22.125  34.776  29.453  1.00  0.00     0.000 C 
BRANCH  15  16
ATOM     16  C   UNL     1      21.159  35.856  28.940  1.00  0.00     0.000 C 
BRANCH  16  17
ATOM     17  C   UNL     1      19.991  36.063  29.912  1.00  0.00    -0.000 C 
BRANCH  17  18
ATOM     18  C   UNL     1      18.660  35.667  29.256  1.00  0.00    -0.000 C 
BRANCH  18  19
ATOM     19  C   UNL     1      17.754  34.856  30.196  1.00  0.00    -0.003 C 
ATOM     20  C   UNL     1      17.905  35.268  31.661  1.00  0.00     0.004 C 
ENDBRANCH  18  19
ENDBRANCH  17  18
ENDBRANCH  16  17
ENDBRANCH  15  16
ENDBRANCH  14  15
ENDBRANCH  13  14
ENDBRANCH   2  13
TORSDOF 15
ENDMDL
MODEL 6
REMARK VINA RESULT:    -4.144     12.524     14.975
REMARK INTER + INTRA:          -9.802
REMARK INTER:                  -7.005
REMARK INTRA:                  -2.797
REMARK UNBOUND:                -2.025
REMARK SMILES CCCCCCCCC=CCCCCCCCC(=O)[O-]
REMARK SMILES IDX 10 1 9 2 11 3 12 4 13 5 14 6 15 7 16 8 17 9 18 10 19 11
REMARK SMILES IDX 20 12 8 13 7 14 6 15 5 16 4 17 3 18 2 19 1 20
REMARK H PARENT
REMARK Flexibility Score: inf
ROOT
ATOM      1  C   UNL     1      18.471  20.419  26.376  1.00  0.00    -0.031 C 
ATOM      2  C   UNL     1      18.975  21.400  25.604  1.00  0.00    -0.031 C 
ENDROOT
BRANCH   1   3
ATOM      3  C   UNL     1      17.006  20.078  26.514  1.00  0.00     0.027 C 
BRANCH   3   4
ATOM      4  C   UNL     1      16.649  18.749  25.824  1.00  0.00     0.004 C 
BRANCH   4   5
ATOM      5  C   UNL     1      16.240  18.875  24.345  1.00  0.00     0.000 C 
BRANCH   5   6
ATOM      6  C   UNL     1      17.337  18.395  23.378  1.00  0.00     0.000 C 
BRANCH   6   7
ATOM      7  C   UNL     1      18.427  17.573  24.084  1.00  0.00     0.000 C 
BRANCH   7   8
ATOM      8  C   UNL     1      19.828  18.177  23.906  1.00  0.00     0.006 C 
BRANCH   8   9
ATOM      9  C   UNL     1      20.047  18.642  22.463  1.00  0.00     0.053 C 
BRANCH   9  10
ATOM     10  C   UNL     1      21.080  19.722  22.410  1.00  0.00     0.041 C 
ATOM     11  O   UNL     1      21.466  20.280  23.472  1.00  0.00    -0.550 OA
ATOM     12  O   UNL     1      21.582  20.150  21.187  1.00  0.00    -0.550 OA
ENDBRANCH   9  10
ENDBRANCH   8   9
ENDBRANCH   7   8
ENDBRANCH   6   7
ENDBRANCH   5   6
ENDBRANCH   4   5
ENDBRANCH   3   4
ENDBRANCH   1   3
BRANCH   2  13
ATOM     13  C   UNL     1      18.171  22.339  24.739  1.00  0.00     0.027 C 
BRANCH  13  14
ATOM     14  C   UNL     1      18.174  21.960  23.246  1.00  0.00     0.004 C 
BRANCH  14  15
ATOM     15  C   UNL     1      16.796  22.065  22.565  1.00  0.00     0.000 C 
BRANCH  15  16
ATOM     16  C   UNL     1      16.857  21.842  21.045  1.00  0.00     0.000 C 
BRANCH  16  17
ATOM     17  C   UNL     1      18.154  21.131  20.640  1.00  0.00    -0.000 C 
BRANCH  17  18
ATOM     18  C   UNL     1      18.614  21.588  19.248  1.00  0.00    -0.000 C 
BRANCH  18  19
ATOM     19  C   UNL     1      17.468  22.169  18.406  1.00  0.00    -0.003 C 
ATOM     20  C   UNL     1      17.882  23.417  17.627  1.00  0.00     0.004 C 
ENDBRANCH  18  19
ENDBRANCH  17  18
ENDBRANCH  16  17
ENDBRANCH  15  16
ENDBRANCH  14  15
ENDBRANCH  13  14
ENDBRANCH   2  13
TORSDOF 15
ENDMDL
MODEL 7
REMARK VINA RESULT:    -4.134      4.767      7.243
REMARK INTER + INTRA:          -9.783
REMARK INTER:                  -7.050
REMARK INTRA:                  -2.733
REMARK UNBOUND:                -2.025
REMARK SMILES CCCCCCCCC=CCCCCCCCC(=O)[O-]
REMARK SMILES IDX 10 1 9 2 11 3 12 4 13 5 14 6 15 7 16 8 17 9 18 10 19 11
REMARK SMILES IDX 20 12 8 13 7 14 6 15 5 16 4 17 3 18 2 19 1 20
REMARK H PARENT
REMARK Flexibility Score: inf
ROOT
ATOM      1  C   UNL     1      21.061  32.629  31.191  1.00  0.00    -0.031 C 
ATOM      2  C   UNL     1      20.091  32.461  32.109  1.00  0.00    -0.031 C 
ENDROOT
BRANCH   1   3
ATOM      3  C   UNL     1      20.861  32.621  29.693  1.00  0.00     0.027 C 
BRANCH   3   4
ATOM      4  C   UNL     1      21.886  33.509  28.963  1.00  0.00     0.004 C 
BRANCH   4   5
ATOM      5  C   UNL     1      21.504  34.998  28.870  1.00  0.00     0.000 C 
BRANCH   5   6
ATOM      6  C   UNL     1      22.730  35.927  28.802  1.00  0.00     0.000 C 
BRANCH   6   7
ATOM      7  C   UNL     1      23.522  35.957  30.119  1.00  0.00     0.000 C 
BRANCH   7   8
ATOM      8  C   UNL     1      24.997  36.333  29.912  1.00  0.00     0.006 C 
BRANCH   8   9
ATOM      9  C   UNL     1      25.234  36.863  28.495  1.00  0.00     0.053 C 
BRANCH   9  10
ATOM     10  C   UNL     1      26.403  36.174  27.865  1.00  0.00     0.041 C 
ATOM     11  O   UNL     1      27.411  35.876  28.560  1.00  0.00    -0.550 OA
ATOM     12  O   UNL     1      26.403  35.904  26.502  1.00  0.00    -0.550 OA
ENDBRANCH   9  10
ENDBRANCH   8   9
ENDBRANCH   7   8
ENDBRANCH   6   7
ENDBRANCH   5   6
ENDBRANCH   4   5
ENDBRANCH   3   4
ENDBRANCH   1   3
BRANCH   2  13
ATOM     13  C   UNL     1      18.631  32.231  31.814  1.00  0.00     0.027 C 
BRANCH  13  14
ATOM     14  C   UNL     1      17.781  33.515  31.858  1.00  0.00     0.004 C 
BRANCH  14  15
ATOM     15  C   UNL     1      17.695  34.264  30.514  1.00  0.00     0.000 C 
BRANCH  15  16
ATOM     16  C   UNL     1      18.322  35.666  30.564  1.00  0.00     0.000 C 
BRANCH  16  17
ATOM     17  C   UNL     1      18.822  36.000  31.975  1.00  0.00    -0.000 C 
BRANCH  17  18
ATOM     18  C   UNL     1      20.331  36.289  31.964  1.00  0.00    -0.000 C 
BRANCH  18  19
ATOM     19  C   UNL     1      21.007  35.959  33.304  1.00  0.00    -0.003 C 
ATOM     20  C   UNL     1      20.033  35.376  34.329  1.00  0.00     0.004 C 
ENDBRANCH  18  19
ENDBRANCH  17  18
ENDBRANCH  16  17
ENDBRANCH  15  16
ENDBRANCH  14  15
ENDBRANCH  13  14
ENDBRANCH   2  13
TORSDOF 15
ENDMDL
MODEL 8
REMARK VINA RESULT:    -4.095     17.277     19.325
REMARK INTER + INTRA:          -9.710
REMARK INTER:                  -7.205
REMARK INTRA:                  -2.505
REMARK UNBOUND:                -2.025
REMARK SMILES CCCCCCCCC=CCCCCCCCC(=O)[O-]
REMARK SMILES IDX 10 1 9 2 11 3 12 4 13 5 14 6 15 7 16 8 17 9 18 10 19 11
REMARK SMILES IDX 20 12 8 13 7 14 6 15 5 16 4 17 3 18 2 19 1 20
REMARK H PARENT
REMARK Flexibility Score: inf
ROOT
ATOM      1  C   UNL     1      31.664  32.397  20.728  1.00  0.00    -0.031 C 
ATOM      2  C   UNL     1      32.299  32.752  21.860  1.00  0.00    -0.031 C 
ENDROOT
BRANCH   1   3
ATOM      3  C   UNL     1      32.319  31.796  19.507  1.00  0.00     0.027 C 
BRANCH   3   4
ATOM      4  C   UNL     1      32.005  32.590  18.225  1.00  0.00     0.004 C 
BRANCH   4   5
ATOM      5  C   UNL     1      30.775  33.512  18.317  1.00  0.00     0.000 C 
BRANCH   5   6
ATOM      6  C   UNL     1      30.379  34.118  16.959  1.00  0.00     0.000 C 
BRANCH   6   7
ATOM      7  C   UNL     1      29.429  33.210  16.161  1.00  0.00     0.000 C 
BRANCH   7   8
ATOM      8  C   UNL     1      28.423  32.476  17.061  1.00  0.00     0.006 C 
BRANCH   8   9
ATOM      9  C   UNL     1      28.441  30.968  16.787  1.00  0.00     0.053 C 
BRANCH   9  10
ATOM     10  C   UNL     1      28.209  30.203  18.051  1.00  0.00     0.041 C 
ATOM     11  O   UNL     1      29.091  30.185  18.951  1.00  0.00    -0.550 OA
ATOM     12  O   UNL     1      27.042  29.468  18.218  1.00  0.00    -0.550 OA
ENDBRANCH   9  10
ENDBRANCH   8   9
ENDBRANCH   7   8
ENDBRANCH   6   7
ENDBRANCH   5   6
ENDBRANCH   4   5
ENDBRANCH   3   4
ENDBRANCH   1   3
BRANCH   2  13
ATOM     13  C   UNL     1      33.779  32.617  22.117  1.00  0.00     0.027 C 
BRANCH  13  14
ATOM     14  C   UNL     1      34.259  33.362  23.377  1.00  0.00     0.004 C 
BRANCH  14  15
ATOM     15  C   UNL     1      35.302  34.463  23.102  1.00  0.00     0.000 C 
BRANCH  15  16
ATOM     16  C   UNL     1      35.880  34.402  21.679  1.00  0.00     0.000 C 
BRANCH  16  17
ATOM     17  C   UNL     1      35.378  35.573  20.825  1.00  0.00    -0.000 C 
BRANCH  17  18
ATOM     18  C   UNL     1      34.697  35.063  19.546  1.00  0.00    -0.000 C 
BRANCH  18  19
ATOM     19  C   UNL     1      33.406  35.828  19.217  1.00  0.00    -0.003 C 
ATOM     20  C   UNL     1      32.567  36.130  20.459  1.00  0.00     0.004 C 
ENDBRANCH  18  19
ENDBRANCH  17  18
ENDBRANCH  16  17
ENDBRANCH  15  16
ENDBRANCH  14  15
ENDBRANCH  13  14
ENDBRANCH   2  13
TORSDOF 15
ENDMDL
