MODEL 1
REMARK VINA RESULT:    -4.496      0.000      0.000
REMARK INTER + INTRA:          -4.759
REMARK INTER:                  -4.759
REMARK INTRA:                   0.000
REMARK UNBOUND:                 0.000
REMARK SMILES O=c1ccc2cc(O)c(O)cc2o1
REMARK SMILES IDX 4 1 3 2 2 3 1 4 13 5 12 6 11 7 9 8 7 9 6 10 5 11 8 12 10 14
REMARK H PARENT 8 13 10 15
REMARK Flexibility Score: inf
ROOT
ATOM      1  C   UNL     1      -5.371  -1.288  -9.905  1.00  0.00     0.019 A 
ATOM      2  C   UNL     1      -4.098  -0.894  -9.492  1.00  0.00     0.094 A 
ATOM      3  C   UNL     1      -3.951   0.316  -8.806  1.00  0.00     0.336 A 
ATOM      4  O   UNL     1      -2.810   0.688  -8.426  1.00  0.00    -0.246 OA
ATOM      5  O   UNL     1      -5.012   1.079  -8.554  1.00  0.00    -0.423 OA
ATOM      6  C   UNL     1      -6.242   0.742  -8.929  1.00  0.00     0.142 A 
ATOM      7  C   UNL     1      -7.319   1.584  -8.635  1.00  0.00     0.098 A 
ATOM      8  C   UNL     1      -8.619   1.234  -9.029  1.00  0.00     0.161 A 
ATOM      9  C   UNL     1      -8.842   0.030  -9.722  1.00  0.00     0.158 A 
ATOM     10  C   UNL     1      -7.765  -0.815 -10.019  1.00  0.00     0.062 A 
ATOM     11  C   UNL     1      -6.466  -0.466  -9.625  1.00  0.00     0.022 A 
ENDROOT
BRANCH   9  12
ATOM     12  O   UNL     1     -10.125  -0.342 -10.125  1.00  0.00    -0.504 OA
ATOM     13  H   UNL     1     -10.342  -1.285 -10.424  1.00  0.00     0.293 HD
ENDBRANCH   9  12
BRANCH   8  14
ATOM     14  O   UNL     1      -9.689   2.077  -8.733  1.00  0.00    -0.504 OA
ATOM     15  H   UNL     1     -10.416   2.271  -9.412  1.00  0.00     0.293 HD
ENDBRANCH   8  14
TORSDOF 2
ENDMDL
MODEL 2
REMARK VINA RESULT:    -4.326      1.685      4.710
REMARK INTER + INTRA:          -4.579
REMARK INTER:                  -4.579
REMARK INTRA:                   0.000
REMARK UNBOUND:                 0.000
REMARK SMILES O=c1ccc2cc(O)c(O)cc2o1
REMARK SMILES IDX 4 1 3 2 2 3 1 4 13 5 12 6 11 7 9 8 7 9 6 10 5 11 8 12 10 14
REMARK H PARENT 8 13 10 15
REMARK Flexibility Score: inf
ROOT
ATOM      1  C   UNL     1      -9.365   0.892  -8.999  1.00  0.00     0.019 A 
ATOM      2  C   UNL     1      -9.963  -0.311  -9.378  1.00  0.00     0.094 A 
ATOM      3  C   UNL     1      -9.148  -1.380  -9.765  1.00  0.00     0.336 A 
ATOM      4  O   UNL     1      -9.669  -2.473 -10.111  1.00  0.00    -0.246 OA
ATOM      5  O   UNL     1      -7.824  -1.250  -9.771  1.00  0.00    -0.423 OA
ATOM      6  C   UNL     1      -7.213  -0.123  -9.417  1.00  0.00     0.142 A 
ATOM      7  C   UNL     1      -5.818  -0.045  -9.443  1.00  0.00     0.098 A 
ATOM      8  C   UNL     1      -5.169   1.142  -9.071  1.00  0.00     0.161 A 
ATOM      9  C   UNL     1      -5.924   2.259  -8.670  1.00  0.00     0.158 A 
ATOM     10  C   UNL     1      -7.322   2.184  -8.644  1.00  0.00     0.062 A 
ATOM     11  C   UNL     1      -7.971   0.998  -9.015  1.00  0.00     0.022 A 
ENDROOT
BRANCH   9  12
ATOM     12  O   UNL     1      -5.303   3.451  -8.295  1.00  0.00    -0.504 OA
ATOM     13  H   UNL     1      -4.650   3.931  -8.902  1.00  0.00     0.293 HD
ENDBRANCH   9  12
BRANCH   8  14
ATOM     14  O   UNL     1      -3.777   1.215  -9.098  1.00  0.00    -0.504 OA
ATOM     15  H   UNL     1      -3.278   1.542  -9.917  1.00  0.00     0.293 HD
ENDBRANCH   8  14
TORSDOF 2
ENDMDL
MODEL 3
REMARK VINA RESULT:    -4.323      1.099      4.509
REMARK INTER + INTRA:          -4.576
REMARK INTER:                  -4.576
REMARK INTRA:                   0.000
REMARK UNBOUND:                 0.000
REMARK SMILES O=c1ccc2cc(O)c(O)cc2o1
REMARK SMILES IDX 4 1 3 2 2 3 1 4 13 5 12 6 11 7 9 8 7 9 6 10 5 11 8 12 10 14
REMARK H PARENT 8 13 10 15
REMARK Flexibility Score: inf
ROOT
ATOM      1  C   UNL     1      -8.185  -0.888  -9.983  1.00  0.00     0.019 A 
ATOM      2  C   UNL     1      -9.303  -0.190  -9.525  1.00  0.00     0.094 A 
ATOM      3  C   UNL     1      -9.121   0.875  -8.636  1.00  0.00     0.336 A 
ATOM      4  O   UNL     1     -10.117   1.517  -8.212  1.00  0.00    -0.246 OA
ATOM      5  O   UNL     1      -7.898   1.214  -8.234  1.00  0.00    -0.423 OA
ATOM      6  C   UNL     1      -6.806   0.575  -8.646  1.00  0.00     0.142 A 
ATOM      7  C   UNL     1      -5.547   0.977  -8.190  1.00  0.00     0.098 A 
ATOM      8  C   UNL     1      -4.392   0.307  -8.620  1.00  0.00     0.161 A 
ATOM      9  C   UNL     1      -4.500  -0.773  -9.515  1.00  0.00     0.158 A 
ATOM     10  C   UNL     1      -5.760  -1.178  -9.973  1.00  0.00     0.062 A 
ATOM     11  C   UNL     1      -6.914  -0.508  -9.544  1.00  0.00     0.022 A 
ENDROOT
BRANCH   9  12
ATOM     12  O   UNL     1      -3.367  -1.456  -9.958  1.00  0.00    -0.504 OA
ATOM     13  H   UNL     1      -2.734  -1.060 -10.643  1.00  0.00     0.293 HD
ENDBRANCH   9  12
BRANCH   8  14
ATOM     14  O   UNL     1      -3.139   0.712  -8.163  1.00  0.00    -0.504 OA
ATOM     15  H   UNL     1      -2.420   0.040  -7.918  1.00  0.00     0.293 HD
ENDBRANCH   8  14
TORSDOF 2
ENDMDL
MODEL 4
REMARK VINA RESULT:    -4.263      2.447      4.400
REMARK INTER + INTRA:          -4.512
REMARK INTER:                  -4.512
REMARK INTRA:                   0.000
REMARK UNBOUND:                 0.000
REMARK SMILES O=c1ccc2cc(O)c(O)cc2o1
REMARK SMILES IDX 4 1 3 2 2 3 1 4 13 5 12 6 11 7 9 8 7 9 6 10 5 11 8 12 10 14
REMARK H PARENT 8 13 10 15
REMARK Flexibility Score: inf
ROOT
ATOM      1  C   UNL     1      -6.773   0.468  -9.666  1.00  0.00     0.019 A 
ATOM      2  C   UNL     1      -6.675   1.805  -9.280  1.00  0.00     0.094 A 
ATOM      3  C   UNL     1      -5.484   2.258  -8.703  1.00  0.00     0.336 A 
ATOM      4  O   UNL     1      -5.376   3.461  -8.348  1.00  0.00    -0.246 OA
ATOM      5  O   UNL     1      -4.462   1.424  -8.525  1.00  0.00    -0.423 OA
ATOM      6  C   UNL     1      -4.514   0.143  -8.878  1.00  0.00     0.142 A 
ATOM      7  C   UNL     1      -3.408  -0.686  -8.667  1.00  0.00     0.098 A 
ATOM      8  C   UNL     1      -3.457  -2.039  -9.038  1.00  0.00     0.161 A 
ATOM      9  C   UNL     1      -4.623  -2.564  -9.625  1.00  0.00     0.158 A 
ATOM     10  C   UNL     1      -5.732  -1.736  -9.837  1.00  0.00     0.062 A 
ATOM     11  C   UNL     1      -5.683  -0.385  -9.467  1.00  0.00     0.022 A 
ENDROOT
BRANCH   9  12
ATOM     12  O   UNL     1      -4.697  -3.905 -10.002  1.00  0.00    -0.504 OA
ATOM     13  H   UNL     1      -3.974  -4.349 -10.554  1.00  0.00     0.293 HD
ENDBRANCH   9  12
BRANCH   8  14
ATOM     14  O   UNL     1      -2.351  -2.861  -8.825  1.00  0.00    -0.504 OA
ATOM     15  H   UNL     1      -2.113  -3.202  -7.901  1.00  0.00     0.293 HD
ENDBRANCH   8  14
TORSDOF 2
ENDMDL
MODEL 5
REMARK VINA RESULT:    -4.204      1.483      1.985
REMARK INTER + INTRA:          -4.450
REMARK INTER:                  -4.450
REMARK INTRA:                   0.000
REMARK UNBOUND:                 0.000
REMARK SMILES O=c1ccc2cc(O)c(O)cc2o1
REMARK SMILES IDX 4 1 3 2 2 3 1 4 13 5 12 6 11 7 9 8 7 9 6 10 5 11 8 12 10 14
REMARK H PARENT 8 13 10 15
REMARK Flexibility Score: inf
ROOT
ATOM      1  C   UNL     1      -4.380   1.614 -10.094  1.00  0.00     0.019 A 
ATOM      2  C   UNL     1      -3.329   0.840  -9.601  1.00  0.00     0.094 A 
ATOM      3  C   UNL     1      -3.605  -0.164  -8.667  1.00  0.00     0.336 A 
ATOM      4  O   UNL     1      -2.671  -0.873  -8.211  1.00  0.00    -0.246 OA
ATOM      5  O   UNL     1      -4.853  -0.375  -8.256  1.00  0.00    -0.423 OA
ATOM      6  C   UNL     1      -5.884   0.340  -8.699  1.00  0.00     0.142 A 
ATOM      7  C   UNL     1      -7.174   0.073  -8.231  1.00  0.00     0.098 A 
ATOM      8  C   UNL     1      -8.265   0.823  -8.695  1.00  0.00     0.161 A 
ATOM      9  C   UNL     1      -8.061   1.849  -9.636  1.00  0.00     0.158 A 
ATOM     10  C   UNL     1      -6.770   2.120 -10.106  1.00  0.00     0.062 A 
ATOM     11  C   UNL     1      -5.680   1.370  -9.643  1.00  0.00     0.022 A 
ENDROOT
BRANCH   9  12
ATOM     12  O   UNL     1      -9.128   2.611 -10.113  1.00  0.00    -0.504 OA
ATOM     13  H   UNL     1      -8.990   3.507 -10.564  1.00  0.00     0.293 HD
ENDBRANCH   9  12
BRANCH   8  14
ATOM     14  O   UNL     1      -9.549   0.553  -8.225  1.00  0.00    -0.504 OA
ATOM     15  H   UNL     1     -10.367   0.681  -8.810  1.00  0.00     0.293 HD
ENDBRANCH   8  14
TORSDOF 2
ENDMDL
MODEL 6
REMARK VINA RESULT:    -4.136      2.245      3.552
REMARK INTER + INTRA:          -4.378
REMARK INTER:                  -4.378
REMARK INTRA:                   0.000
REMARK UNBOUND:                 0.000
REMARK SMILES O=c1ccc2cc(O)c(O)cc2o1
REMARK SMILES IDX 4 1 3 2 2 3 1 4 13 5 12 6 11 7 9 8 7 9 6 10 5 11 8 12 10 14
REMARK H PARENT 8 13 10 15
REMARK Flexibility Score: inf
ROOT
ATOM      1  C   UNL     1      -3.002  -1.285  -9.005  1.00  0.00     0.019 A 
ATOM      2  C   UNL     1      -3.090  -2.627  -9.376  1.00  0.00     0.094 A 
ATOM      3  C   UNL     1      -4.331  -3.143  -9.764  1.00  0.00     0.336 A 
ATOM      4  O   UNL     1      -4.431  -4.351 -10.103  1.00  0.00    -0.246 OA
ATOM      5  O   UNL     1      -5.410  -2.364  -9.777  1.00  0.00    -0.423 OA
ATOM      6  C   UNL     1      -5.370  -1.080  -9.431  1.00  0.00     0.142 A 
ATOM      7  C   UNL     1      -6.537  -0.310  -9.464  1.00  0.00     0.098 A 
ATOM      8  C   UNL     1      -6.501   1.044  -9.100  1.00  0.00     0.161 A 
ATOM      9  C   UNL     1      -5.287   1.631  -8.699  1.00  0.00     0.158 A 
ATOM     10  C   UNL     1      -4.117   0.862  -8.664  1.00  0.00     0.062 A 
ATOM     11  C   UNL     1      -4.153  -0.491  -9.029  1.00  0.00     0.022 A 
ENDROOT
BRANCH   9  12
ATOM     12  O   UNL     1      -5.224   2.975  -8.332  1.00  0.00    -0.504 OA
ATOM     13  H   UNL     1      -4.676   3.292  -7.541  1.00  0.00     0.293 HD
ENDBRANCH   9  12
BRANCH   8  14
ATOM     14  O   UNL     1      -7.667   1.808  -9.135  1.00  0.00    -0.504 OA
ATOM     15  H   UNL     1      -8.553   1.439  -8.809  1.00  0.00     0.293 HD
ENDBRANCH   8  14
TORSDOF 2
ENDMDL
MODEL 7
REMARK VINA RESULT:    -4.054      1.741      2.717
REMARK INTER + INTRA:          -4.291
REMARK INTER:                  -4.291
REMARK INTRA:                   0.000
REMARK UNBOUND:                 0.000
REMARK SMILES O=c1ccc2cc(O)c(O)cc2o1
REMARK SMILES IDX 4 1 3 2 2 3 1 4 13 5 12 6 11 7 9 8 7 9 6 10 5 11 8 12 10 14
REMARK H PARENT 8 13 10 15
REMARK Flexibility Score: inf
ROOT
ATOM      1  C   UNL     1      -5.991  -2.064 -10.125  1.00  0.00     0.019 A 
ATOM      2  C   UNL     1      -4.873  -2.893 -10.034  1.00  0.00     0.094 A 
ATOM      3  C   UNL     1      -3.688  -2.377  -9.499  1.00  0.00     0.336 A 
ATOM      4  O   UNL     1      -2.668  -3.109  -9.409  1.00  0.00    -0.246 OA
ATOM      5  O   UNL     1      -3.631  -1.114  -9.084  1.00  0.00    -0.423 OA
ATOM      6  C   UNL     1      -4.673  -0.290  -9.152  1.00  0.00     0.142 A 
ATOM      7  C   UNL     1      -4.554   1.028  -8.699  1.00  0.00     0.098 A 
ATOM      8  C   UNL     1      -5.649   1.901  -8.769  1.00  0.00     0.161 A 
ATOM      9  C   UNL     1      -6.874   1.451  -9.296  1.00  0.00     0.158 A 
ATOM     10  C   UNL     1      -6.995   0.132  -9.750  1.00  0.00     0.062 A 
ATOM     11  C   UNL     1      -5.901  -0.741  -9.680  1.00  0.00     0.022 A 
ENDROOT
BRANCH   9  12
ATOM     12  O   UNL     1      -7.978   2.299  -9.377  1.00  0.00    -0.504 OA
ATOM     13  H   UNL     1      -8.523   2.393 -10.225  1.00  0.00     0.293 HD
ENDBRANCH   9  12
BRANCH   8  14
ATOM     14  O   UNL     1      -5.525   3.214  -8.317  1.00  0.00    -0.504 OA
ATOM     15  H   UNL     1      -5.084   3.931  -8.881  1.00  0.00     0.293 HD
ENDBRANCH   8  14
TORSDOF 2
ENDMDL
MODEL 8
REMARK VINA RESULT:    -3.978      1.658      5.038
REMARK INTER + INTRA:          -4.211
REMARK INTER:                  -4.211
REMARK INTRA:                   0.000
REMARK UNBOUND:                 0.000
REMARK SMILES O=c1ccc2cc(O)c(O)cc2o1
REMARK SMILES IDX 4 1 3 2 2 3 1 4 13 5 12 6 11 7 9 8 7 9 6 10 5 11 8 12 10 14
REMARK H PARENT 8 13 10 15
REMARK Flexibility Score: inf
ROOT
ATOM      1  C   UNL     1      -6.091   2.351 -10.097  1.00  0.00     0.019 A 
ATOM      2  C   UNL     1      -7.407   2.339  -9.633  1.00  0.00     0.094 A 
ATOM      3  C   UNL     1      -7.806   1.328  -8.753  1.00  0.00     0.336 A 
ATOM      4  O   UNL     1      -8.989   1.300  -8.323  1.00  0.00    -0.246 OA
ATOM      5  O   UNL     1      -6.943   0.391  -8.367  1.00  0.00    -0.423 OA
ATOM      6  C   UNL     1      -5.680   0.365  -8.786  1.00  0.00     0.142 A 
ATOM      7  C   UNL     1      -4.818  -0.643  -8.346  1.00  0.00     0.098 A 
ATOM      8  C   UNL     1      -3.486  -0.676  -8.784  1.00  0.00     0.161 A 
ATOM      9  C   UNL     1      -3.014   0.310  -9.670  1.00  0.00     0.158 A 
ATOM     10  C   UNL     1      -3.876   1.322 -10.112  1.00  0.00     0.062 A 
ATOM     11  C   UNL     1      -5.207   1.355  -9.674  1.00  0.00     0.022 A 
ENDROOT
BRANCH   9  12
ATOM     12  O   UNL     1      -1.694   0.301 -10.121  1.00  0.00    -0.504 OA
ATOM     13  H   UNL     1      -0.932  -0.040  -9.548  1.00  0.00     0.293 HD
ENDBRANCH   9  12
BRANCH   8  14
ATOM     14  O   UNL     1      -2.630  -1.684  -8.342  1.00  0.00    -0.504 OA
ATOM     15  H   UNL     1      -2.828  -2.663  -8.515  1.00  0.00     0.293 HD
ENDBRANCH   8  14
TORSDOF 2
ENDMDL
MODEL 9
REMARK VINA RESULT:    -3.084      1.738      2.054
REMARK INTER + INTRA:          -3.265
REMARK INTER:                  -3.265
REMARK INTRA:                   0.000
REMARK UNBOUND:                 0.000
REMARK SMILES O=c1ccc2cc(O)c(O)cc2o1
REMARK SMILES IDX 4 1 3 2 2 3 1 4 13 5 12 6 11 7 9 8 7 9 6 10 5 11 8 12 10 14
REMARK H PARENT 8 13 10 15
REMARK Flexibility Score: inf
ROOT
ATOM      1  C   UNL     1      -4.222  -0.428  -8.255  1.00  0.00     0.019 A 
ATOM      2  C   UNL     1      -2.924  -0.271  -8.742  1.00  0.00     0.094 A 
ATOM      3  C   UNL     1      -2.667   0.743  -9.671  1.00  0.00     0.336 A 
ATOM      4  O   UNL     1      -1.502   0.901 -10.122  1.00  0.00    -0.246 OA
ATOM      5  O   UNL     1      -3.647   1.543 -10.083  1.00  0.00    -0.423 OA
ATOM      6  C   UNL     1      -4.898   1.428  -9.645  1.00  0.00     0.142 A 
ATOM      7  C   UNL     1      -5.887   2.298 -10.113  1.00  0.00     0.098 A 
ATOM      8  C   UNL     1      -7.207   2.181  -9.655  1.00  0.00     0.161 A 
ATOM      9  C   UNL     1      -7.539   1.184  -8.719  1.00  0.00     0.158 A 
ATOM     10  C   UNL     1      -6.551   0.310  -8.248  1.00  0.00     0.062 A 
ATOM     11  C   UNL     1      -5.231   0.428  -8.706  1.00  0.00     0.022 A 
ENDROOT
BRANCH   9  12
ATOM     12  O   UNL     1      -8.845   1.046  -8.247  1.00  0.00    -0.504 OA
ATOM     13  H   UNL     1      -9.107   0.314  -7.598  1.00  0.00     0.293 HD
ENDBRANCH   9  12
BRANCH   8  14
ATOM     14  O   UNL     1      -8.189   3.051 -10.125  1.00  0.00    -0.504 OA
ATOM     15  H   UNL     1      -8.324   3.970  -9.718  1.00  0.00     0.293 HD
ENDBRANCH   8  14
TORSDOF 2
ENDMDL
