MODEL 1
REMARK VINA RESULT:    -5.738      0.000      0.000
REMARK INTER + INTRA:          -6.368
REMARK INTER:                  -6.241
REMARK INTRA:                  -0.127
REMARK UNBOUND:                -0.127
REMARK SMILES Cc1ccc(C(C)C)cc1O
REMARK SMILES IDX 1 1 2 2 10 3 9 4 5 5 4 6 3 7 11 8 6 10 7 11 8 12
REMARK H PARENT 11 9
REMARK Flexibility Score: inf
ROOT
ATOM      1  C   UNL     1       2.026   5.121 -29.566  1.00  0.00     0.048 C 
ATOM      2  C   UNL     1       3.393   5.133 -30.189  1.00  0.00    -0.009 A 
ATOM      3  C   UNL     1       3.876   3.999 -30.863  1.00  0.00     0.118 A 
ATOM      4  C   UNL     1       5.153   4.018 -31.442  1.00  0.00     0.050 A 
ATOM      5  C   UNL     1       5.961   5.166 -31.357  1.00  0.00    -0.042 A 
ATOM      6  C   UNL     1       5.470   6.295 -30.682  1.00  0.00     0.004 A 
ATOM      7  C   UNL     1       4.199   6.280 -30.104  1.00  0.00     0.007 A 
ENDROOT
BRANCH   3   8
ATOM      8  O   UNL     1       3.084   2.852 -30.955  1.00  0.00    -0.508 OA
ATOM      9  H   UNL     1       2.755   2.505 -31.848  1.00  0.00     0.293 HD
ENDBRANCH   3   8
BRANCH   5  10
ATOM     10  C   UNL     1       7.345   5.198 -31.981  1.00  0.00     0.013 C 
ATOM     11  C   UNL     1       7.368   4.444 -33.315  1.00  0.00     0.012 C 
ATOM     12  C   UNL     1       7.841   6.638 -32.153  1.00  0.00     0.012 C 
ENDBRANCH   5  10
TORSDOF 2
ENDMDL
MODEL 2
REMARK VINA RESULT:    -5.358      1.460      4.263
REMARK INTER + INTRA:          -5.954
REMARK INTER:                  -5.826
REMARK INTRA:                  -0.128
REMARK UNBOUND:                -0.127
REMARK SMILES Cc1ccc(C(C)C)cc1O
REMARK SMILES IDX 1 1 2 2 10 3 9 4 5 5 4 6 3 7 11 8 6 10 7 11 8 12
REMARK H PARENT 11 9
REMARK Flexibility Score: inf
ROOT
ATOM      1  C   UNL     1       7.896   5.008 -32.609  1.00  0.00     0.048 C 
ATOM      2  C   UNL     1       6.548   4.909 -31.952  1.00  0.00    -0.009 A 
ATOM      3  C   UNL     1       5.879   3.675 -31.891  1.00  0.00     0.118 A 
ATOM      4  C   UNL     1       4.621   3.590 -31.276  1.00  0.00     0.050 A 
ATOM      5  C   UNL     1       4.018   4.731 -30.715  1.00  0.00    -0.042 A 
ATOM      6  C   UNL     1       4.696   5.959 -30.782  1.00  0.00     0.004 A 
ATOM      7  C   UNL     1       5.948   6.048 -31.393  1.00  0.00     0.007 A 
ENDROOT
BRANCH   3   8
ATOM      8  O   UNL     1       6.465   2.535 -32.443  1.00  0.00    -0.508 OA
ATOM      9  H   UNL     1       7.301   2.123 -32.047  1.00  0.00     0.293 HD
ENDBRANCH   3   8
BRANCH   5  10
ATOM     10  C   UNL     1       2.658   4.650 -30.047  1.00  0.00     0.013 C 
ATOM     11  C   UNL     1       2.618   5.498 -28.770  1.00  0.00     0.012 C 
ATOM     12  C   UNL     1       1.542   5.059 -31.015  1.00  0.00     0.012 C 
ENDBRANCH   5  10
TORSDOF 2
ENDMDL
MODEL 3
REMARK VINA RESULT:    -5.328      1.853      4.716
REMARK INTER + INTRA:          -5.922
REMARK INTER:                  -5.821
REMARK INTRA:                  -0.101
REMARK UNBOUND:                -0.127
REMARK SMILES Cc1ccc(C(C)C)cc1O
REMARK SMILES IDX 1 1 2 2 10 3 9 4 5 5 4 6 3 7 11 8 6 10 7 11 8 12
REMARK H PARENT 11 9
REMARK Flexibility Score: inf
ROOT
ATOM      1  C   UNL     1       7.507   4.760 -32.607  1.00  0.00     0.048 C 
ATOM      2  C   UNL     1       6.181   4.761 -31.902  1.00  0.00    -0.009 A 
ATOM      3  C   UNL     1       5.683   5.943 -31.330  1.00  0.00     0.118 A 
ATOM      4  C   UNL     1       4.444   5.936 -30.673  1.00  0.00     0.050 A 
ATOM      5  C   UNL     1       3.688   4.753 -30.581  1.00  0.00    -0.042 A 
ATOM      6  C   UNL     1       4.195   3.577 -31.156  1.00  0.00     0.004 A 
ATOM      7  C   UNL     1       5.428   3.580 -31.810  1.00  0.00     0.007 A 
ENDROOT
BRANCH   3   8
ATOM      8  O   UNL     1       6.422   7.125 -31.414  1.00  0.00    -0.508 OA
ATOM      9  H   UNL     1       6.980   7.458 -30.637  1.00  0.00     0.293 HD
ENDBRANCH   3   8
BRANCH   5  10
ATOM     10  C   UNL     1       2.345   4.734 -29.872  1.00  0.00     0.013 C 
ATOM     11  C   UNL     1       2.380   5.588 -28.599  1.00  0.00     0.012 C 
ATOM     12  C   UNL     1       1.220   5.187 -30.809  1.00  0.00     0.012 C 
ENDBRANCH   5  10
TORSDOF 2
ENDMDL
MODEL 4
REMARK VINA RESULT:    -5.279      1.706      4.315
REMARK INTER + INTRA:          -5.869
REMARK INTER:                  -5.742
REMARK INTRA:                  -0.128
REMARK UNBOUND:                -0.127
REMARK SMILES Cc1ccc(C(C)C)cc1O
REMARK SMILES IDX 1 1 2 2 10 3 9 4 5 5 4 6 3 7 11 8 6 10 7 11 8 12
REMARK H PARENT 11 9
REMARK Flexibility Score: inf
ROOT
ATOM      1  C   UNL     1       8.426   6.338 -32.404  1.00  0.00     0.048 C 
ATOM      2  C   UNL     1       7.141   5.807 -31.834  1.00  0.00    -0.009 A 
ATOM      3  C   UNL     1       6.755   4.477 -32.076  1.00  0.00     0.118 A 
ATOM      4  C   UNL     1       5.555   3.989 -31.541  1.00  0.00     0.050 A 
ATOM      5  C   UNL     1       4.728   4.816 -30.760  1.00  0.00    -0.042 A 
ATOM      6  C   UNL     1       5.123   6.143 -30.525  1.00  0.00     0.004 A 
ATOM      7  C   UNL     1       6.317   6.634 -31.056  1.00  0.00     0.007 A 
ENDROOT
BRANCH   3   8
ATOM      8  O   UNL     1       7.566   3.644 -32.849  1.00  0.00    -0.508 OA
ATOM      9  H   UNL     1       8.401   3.214 -32.469  1.00  0.00     0.293 HD
ENDBRANCH   3   8
BRANCH   5  10
ATOM     10  C   UNL     1       3.426   4.297 -30.176  1.00  0.00     0.013 C 
ATOM     11  C   UNL     1       2.600   5.437 -29.569  1.00  0.00     0.012 C 
ATOM     12  C   UNL     1       2.616   3.529 -31.226  1.00  0.00     0.012 C 
ENDBRANCH   5  10
TORSDOF 2
ENDMDL
MODEL 5
REMARK VINA RESULT:    -5.202      1.534      2.133
REMARK INTER + INTRA:          -5.785
REMARK INTER:                  -5.663
REMARK INTRA:                  -0.122
REMARK UNBOUND:                -0.127
REMARK SMILES Cc1ccc(C(C)C)cc1O
REMARK SMILES IDX 1 1 2 2 10 3 9 4 5 5 4 6 3 7 11 8 6 10 7 11 8 12
REMARK H PARENT 11 9
REMARK Flexibility Score: inf
ROOT
ATOM      1  C   UNL     1       2.763   4.482 -29.887  1.00  0.00     0.048 C 
ATOM      2  C   UNL     1       4.095   4.657 -30.559  1.00  0.00    -0.009 A 
ATOM      3  C   UNL     1       4.742   5.904 -30.536  1.00  0.00     0.118 A 
ATOM      4  C   UNL     1       5.986   6.060 -31.165  1.00  0.00     0.050 A 
ATOM      5  C   UNL     1       6.598   4.977 -31.822  1.00  0.00    -0.042 A 
ATOM      6  C   UNL     1       5.943   3.735 -31.839  1.00  0.00     0.004 A 
ATOM      7  C   UNL     1       4.705   3.576 -31.214  1.00  0.00     0.007 A 
ENDROOT
BRANCH   3   8
ATOM      8  O   UNL     1       4.146   6.988 -29.888  1.00  0.00    -0.508 OA
ATOM      9  H   UNL     1       4.687   7.630 -29.322  1.00  0.00     0.293 HD
ENDBRANCH   3   8
BRANCH   5  10
ATOM     10  C   UNL     1       7.944   5.134 -32.506  1.00  0.00     0.013 C 
ATOM     11  C   UNL     1       7.923   4.527 -33.914  1.00  0.00     0.012 C 
ATOM     12  C   UNL     1       8.375   6.605 -32.547  1.00  0.00     0.012 C 
ENDBRANCH   5  10
TORSDOF 2
ENDMDL
MODEL 6
REMARK VINA RESULT:    -5.142      2.455      4.621
REMARK INTER + INTRA:          -5.720
REMARK INTER:                  -5.592
REMARK INTRA:                  -0.128
REMARK UNBOUND:                -0.127
REMARK SMILES Cc1ccc(C(C)C)cc1O
REMARK SMILES IDX 1 1 2 2 10 3 9 4 5 5 4 6 3 7 11 8 6 10 7 11 8 12
REMARK H PARENT 11 9
REMARK Flexibility Score: inf
ROOT
ATOM      1  C   UNL     1       5.352   3.251 -34.700  1.00  0.00     0.048 C 
ATOM      2  C   UNL     1       4.559   3.597 -33.471  1.00  0.00    -0.009 A 
ATOM      3  C   UNL     1       5.081   3.333 -32.194  1.00  0.00     0.118 A 
ATOM      4  C   UNL     1       4.336   3.658 -31.052  1.00  0.00     0.050 A 
ATOM      5  C   UNL     1       3.065   4.251 -31.169  1.00  0.00    -0.042 A 
ATOM      6  C   UNL     1       2.553   4.511 -32.450  1.00  0.00     0.004 A 
ATOM      7  C   UNL     1       3.292   4.188 -33.590  1.00  0.00     0.007 A 
ENDROOT
BRANCH   3   8
ATOM      8  O   UNL     1       6.340   2.745 -32.062  1.00  0.00    -0.508 OA
ATOM      9  H   UNL     1       7.049   2.841 -32.780  1.00  0.00     0.293 HD
ENDBRANCH   3   8
BRANCH   5  10
ATOM     10  C   UNL     1       2.250   4.607 -29.939  1.00  0.00     0.013 C 
ATOM     11  C   UNL     1       3.066   5.463 -28.964  1.00  0.00     0.012 C 
ATOM     12  C   UNL     1       0.943   5.309 -30.327  1.00  0.00     0.012 C 
ENDBRANCH   5  10
TORSDOF 2
ENDMDL
MODEL 7
REMARK VINA RESULT:    -4.807      1.547      2.478
REMARK INTER + INTRA:          -5.356
REMARK INTER:                  -5.256
REMARK INTRA:                  -0.099
REMARK UNBOUND:                -0.127
REMARK SMILES Cc1ccc(C(C)C)cc1O
REMARK SMILES IDX 1 1 2 2 10 3 9 4 5 5 4 6 3 7 11 8 6 10 7 11 8 12
REMARK H PARENT 11 9
REMARK Flexibility Score: inf
ROOT
ATOM      1  C   UNL     1       4.081   3.965 -30.633  1.00  0.00     0.048 C 
ATOM      2  C   UNL     1       5.256   4.734 -31.165  1.00  0.00    -0.009 A 
ATOM      3  C   UNL     1       6.277   4.072 -31.868  1.00  0.00     0.118 A 
ATOM      4  C   UNL     1       7.371   4.798 -32.362  1.00  0.00     0.050 A 
ATOM      5  C   UNL     1       7.459   6.187 -32.163  1.00  0.00    -0.042 A 
ATOM      6  C   UNL     1       6.434   6.839 -31.459  1.00  0.00     0.004 A 
ATOM      7  C   UNL     1       5.343   6.121 -30.966  1.00  0.00     0.007 A 
ENDROOT
BRANCH   3   8
ATOM      8  O   UNL     1       6.203   2.694 -32.073  1.00  0.00    -0.508 OA
ATOM      9  H   UNL     1       6.947   2.072 -31.777  1.00  0.00     0.293 HD
ENDBRANCH   3   8
BRANCH   5  10
ATOM     10  C   UNL     1       8.639   6.982 -32.694  1.00  0.00     0.013 C 
ATOM     11  C   UNL     1       9.899   6.725 -31.859  1.00  0.00     0.012 C 
ATOM     12  C   UNL     1       8.888   6.678 -34.175  1.00  0.00     0.012 C 
ENDBRANCH   5  10
TORSDOF 2
ENDMDL
MODEL 8
REMARK VINA RESULT:    -4.780      2.009      4.589
REMARK INTER + INTRA:          -5.327
REMARK INTER:                  -5.213
REMARK INTRA:                  -0.114
REMARK UNBOUND:                -0.127
REMARK SMILES Cc1ccc(C(C)C)cc1O
REMARK SMILES IDX 1 1 2 2 10 3 9 4 5 5 4 6 3 7 11 8 6 10 7 11 8 12
REMARK H PARENT 11 9
REMARK Flexibility Score: inf
ROOT
ATOM      1  C   UNL     1       8.601   6.165 -32.271  1.00  0.00     0.048 C 
ATOM      2  C   UNL     1       7.317   5.397 -32.140  1.00  0.00    -0.009 A 
ATOM      3  C   UNL     1       6.304   5.850 -31.278  1.00  0.00     0.118 A 
ATOM      4  C   UNL     1       5.108   5.128 -31.162  1.00  0.00     0.050 A 
ATOM      5  C   UNL     1       4.907   3.948 -31.902  1.00  0.00    -0.042 A 
ATOM      6  C   UNL     1       5.926   3.503 -32.760  1.00  0.00     0.004 A 
ATOM      7  C   UNL     1       7.118   4.220 -32.879  1.00  0.00     0.007 A 
ENDROOT
BRANCH   3   8
ATOM      8  O   UNL     1       6.489   7.019 -30.538  1.00  0.00    -0.508 OA
ATOM      9  H   UNL     1       6.883   6.999 -29.605  1.00  0.00     0.293 HD
ENDBRANCH   3   8
BRANCH   5  10
ATOM     10  C   UNL     1       3.616   3.159 -31.783  1.00  0.00     0.013 C 
ATOM     11  C   UNL     1       2.746   3.691 -30.639  1.00  0.00     0.012 C 
ATOM     12  C   UNL     1       2.845   3.159 -33.108  1.00  0.00     0.012 C 
ENDBRANCH   5  10
TORSDOF 2
ENDMDL
MODEL 9
REMARK VINA RESULT:    -4.674      2.163      4.698
REMARK INTER + INTRA:          -5.211
REMARK INTER:                  -5.085
REMARK INTRA:                  -0.125
REMARK UNBOUND:                -0.127
REMARK SMILES Cc1ccc(C(C)C)cc1O
REMARK SMILES IDX 1 1 2 2 10 3 9 4 5 5 4 6 3 7 11 8 6 10 7 11 8 12
REMARK H PARENT 11 9
REMARK Flexibility Score: inf
ROOT
ATOM      1  C   UNL     1       8.748   4.657 -33.579  1.00  0.00     0.048 C 
ATOM      2  C   UNL     1       7.433   4.769 -32.861  1.00  0.00    -0.009 A 
ATOM      3  C   UNL     1       7.251   5.741 -31.864  1.00  0.00     0.118 A 
ATOM      4  C   UNL     1       6.021   5.839 -31.198  1.00  0.00     0.050 A 
ATOM      5  C   UNL     1       4.960   4.972 -31.519  1.00  0.00    -0.042 A 
ATOM      6  C   UNL     1       5.153   4.004 -32.517  1.00  0.00     0.004 A 
ATOM      7  C   UNL     1       6.376   3.902 -33.183  1.00  0.00     0.007 A 
ENDROOT
BRANCH   3   8
ATOM      8  O   UNL     1       8.294   6.608 -31.535  1.00  0.00    -0.508 OA
ATOM      9  H   UNL     1       8.478   6.877 -30.575  1.00  0.00     0.293 HD
ENDBRANCH   3   8
BRANCH   5  10
ATOM     10  C   UNL     1       3.624   5.069 -30.804  1.00  0.00     0.013 C 
ATOM     11  C   UNL     1       2.961   3.692 -30.683  1.00  0.00     0.012 C 
ATOM     12  C   UNL     1       3.779   5.729 -29.430  1.00  0.00     0.012 C 
ENDBRANCH   5  10
TORSDOF 2
ENDMDL
