MODEL 1
REMARK VINA RESULT:    -3.472      0.000      0.000
REMARK INTER + INTRA:          -4.684
REMARK INTER:                  -4.284
REMARK INTRA:                  -0.399
REMARK UNBOUND:                -0.399
REMARK SMILES C=CC[C@H](C)C(=O)CC
REMARK SMILES IDX 4 1 5 2 6 3 7 4 8 5 9 6 3 7 2 8 1 9
REMARK H PARENT
REMARK Flexibility Score: inf
ROOT
ATOM      1  C   UNL     1      79.388  15.560   1.317  1.00  0.00     0.057 C 
ATOM      2  C   UNL     1      79.230  14.486   0.232  1.00  0.00     0.016 C 
ENDROOT
BRANCH   1   3
ATOM      3  C   UNL     1      79.453  14.932   2.695  1.00  0.00     0.135 C 
ATOM      4  O   UNL     1      80.386  14.197   2.986  1.00  0.00    -0.299 OA
BRANCH   3   5
ATOM      5  C   UNL     1      78.393  15.209   3.729  1.00  0.00     0.072 C 
ATOM      6  C   UNL     1      78.930  16.130   4.820  1.00  0.00     0.012 C 
ENDBRANCH   3   5
ENDBRANCH   1   3
BRANCH   1   7
ATOM      7  C   UNL     1      78.297  16.651   1.238  1.00  0.00     0.038 C 
BRANCH   7   8
ATOM      8  C   UNL     1      78.844  18.055   1.160  1.00  0.00    -0.034 C 
ATOM      9  C   UNL     1      79.987  18.402   1.756  1.00  0.00     0.004 C 
ENDBRANCH   7   8
ENDBRANCH   1   7
TORSDOF 4
ENDMDL
MODEL 2
REMARK VINA RESULT:    -3.304      1.980      3.833
REMARK INTER + INTRA:          -4.476
REMARK INTER:                  -4.039
REMARK INTRA:                  -0.436
REMARK UNBOUND:                -0.399
REMARK SMILES C=CC[C@H](C)C(=O)CC
REMARK SMILES IDX 4 1 5 2 6 3 7 4 8 5 9 6 3 7 2 8 1 9
REMARK H PARENT
REMARK Flexibility Score: inf
ROOT
ATOM      1  C   UNL     1      79.599  16.986   2.117  1.00  0.00     0.057 C 
ATOM      2  C   UNL     1      80.219  18.388   2.047  1.00  0.00     0.016 C 
ENDROOT
BRANCH   1   3
ATOM      3  C   UNL     1      78.367  16.894   1.238  1.00  0.00     0.135 C 
ATOM      4  O   UNL     1      77.744  17.907   0.954  1.00  0.00    -0.299 OA
BRANCH   3   5
ATOM      5  C   UNL     1      77.898  15.572   0.689  1.00  0.00     0.072 C 
ATOM      6  C   UNL     1      79.052  14.819   0.035  1.00  0.00     0.012 C 
ENDBRANCH   3   5
ENDBRANCH   1   3
BRANCH   1   7
ATOM      7  C   UNL     1      79.301  16.539   3.566  1.00  0.00     0.038 C 
BRANCH   7   8
ATOM      8  C   UNL     1      80.184  15.416   4.051  1.00  0.00    -0.034 C 
ATOM      9  C   UNL     1      80.241  14.240   3.422  1.00  0.00     0.004 C 
ENDBRANCH   7   8
ENDBRANCH   1   7
TORSDOF 4
ENDMDL
MODEL 3
REMARK VINA RESULT:    -3.282      1.574      3.388
REMARK INTER + INTRA:          -4.448
REMARK INTER:                  -4.048
REMARK INTRA:                  -0.400
REMARK UNBOUND:                -0.399
REMARK SMILES C=CC[C@H](C)C(=O)CC
REMARK SMILES IDX 4 1 5 2 6 3 7 4 8 5 9 6 3 7 2 8 1 9
REMARK H PARENT
REMARK Flexibility Score: inf
ROOT
ATOM      1  C   UNL     1      80.142  15.050   2.720  1.00  0.00     0.057 C 
ATOM      2  C   UNL     1      80.484  14.545   4.129  1.00  0.00     0.016 C 
ENDROOT
BRANCH   1   3
ATOM      3  C   UNL     1      79.283  16.298   2.786  1.00  0.00     0.135 C 
ATOM      4  O   UNL     1      78.203  16.265   3.359  1.00  0.00    -0.299 OA
BRANCH   3   5
ATOM      5  C   UNL     1      79.741  17.592   2.168  1.00  0.00     0.072 C 
ATOM      6  C   UNL     1      78.735  18.084   1.132  1.00  0.00     0.012 C 
ENDBRANCH   3   5
ENDBRANCH   1   3
BRANCH   1   7
ATOM      7  C   UNL     1      79.497  13.959   1.836  1.00  0.00     0.038 C 
BRANCH   7   8
ATOM      8  C   UNL     1      79.304  14.374   0.399  1.00  0.00    -0.034 C 
ATOM      9  C   UNL     1      78.090  14.563  -0.124  1.00  0.00     0.004 C 
ENDBRANCH   7   8
ENDBRANCH   1   7
TORSDOF 4
ENDMDL
MODEL 4
REMARK VINA RESULT:    -3.270      0.911      2.678
REMARK INTER + INTRA:          -4.433
REMARK INTER:                  -4.008
REMARK INTRA:                  -0.425
REMARK UNBOUND:                -0.399
REMARK SMILES C=CC[C@H](C)C(=O)CC
REMARK SMILES IDX 4 1 5 2 6 3 7 4 8 5 9 6 3 7 2 8 1 9
REMARK H PARENT
REMARK Flexibility Score: inf
ROOT
ATOM      1  C   UNL     1      78.871  16.102   2.601  1.00  0.00     0.057 C 
ATOM      2  C   UNL     1      78.296  16.102   4.024  1.00  0.00     0.016 C 
ENDROOT
BRANCH   1   3
ATOM      3  C   UNL     1      79.558  14.786   2.294  1.00  0.00     0.135 C 
ATOM      4  O   UNL     1      80.536  14.443   2.944  1.00  0.00    -0.299 OA
BRANCH   3   5
ATOM      5  C   UNL     1      79.049  13.875   1.208  1.00  0.00     0.072 C 
ATOM      6  C   UNL     1      78.974  14.612  -0.125  1.00  0.00     0.012 C 
ENDBRANCH   3   5
ENDBRANCH   1   3
BRANCH   1   7
ATOM      7  C   UNL     1      79.801  17.307   2.334  1.00  0.00     0.038 C 
BRANCH   7   8
ATOM      8  C   UNL     1      79.257  18.285   1.323  1.00  0.00    -0.034 C 
ATOM      9  C   UNL     1      77.992  18.233   0.899  1.00  0.00     0.004 C 
ENDBRANCH   7   8
ENDBRANCH   1   7
TORSDOF 4
ENDMDL
MODEL 5
REMARK VINA RESULT:    -3.248      1.470      1.729
REMARK INTER + INTRA:          -4.407
REMARK INTER:                  -4.199
REMARK INTRA:                  -0.208
REMARK UNBOUND:                -0.399
REMARK SMILES C=CC[C@H](C)C(=O)CC
REMARK SMILES IDX 4 1 5 2 6 3 7 4 8 5 9 6 3 7 2 8 1 9
REMARK H PARENT
REMARK Flexibility Score: inf
ROOT
ATOM      1  C   UNL     1      79.701  16.050   1.990  1.00  0.00     0.057 C 
ATOM      2  C   UNL     1      79.012  15.279   0.856  1.00  0.00     0.016 C 
ENDROOT
BRANCH   1   3
ATOM      3  C   UNL     1      79.179  15.607   3.343  1.00  0.00     0.135 C 
ATOM      4  O   UNL     1      78.008  15.798   3.636  1.00  0.00    -0.299 OA
BRANCH   3   5
ATOM      5  C   UNL     1      80.075  14.914   4.336  1.00  0.00     0.072 C 
ATOM      6  C   UNL     1      79.490  14.997   5.742  1.00  0.00     0.012 C 
ENDBRANCH   3   5
ENDBRANCH   1   3
BRANCH   1   7
ATOM      7  C   UNL     1      79.603  17.582   1.815  1.00  0.00     0.038 C 
BRANCH   7   8
ATOM      8  C   UNL     1      78.656  18.012   0.722  1.00  0.00    -0.034 C 
ATOM      9  C   UNL     1      77.561  18.730   0.979  1.00  0.00     0.004 C 
ENDBRANCH   7   8
ENDBRANCH   1   7
TORSDOF 4
ENDMDL
MODEL 6
REMARK VINA RESULT:    -3.177     18.942     20.331
REMARK INTER + INTRA:          -4.320
REMARK INTER:                  -4.008
REMARK INTRA:                  -0.311
REMARK UNBOUND:                -0.399
REMARK SMILES C=CC[C@H](C)C(=O)CC
REMARK SMILES IDX 4 1 5 2 6 3 7 4 8 5 9 6 3 7 2 8 1 9
REMARK H PARENT
REMARK Flexibility Score: inf
ROOT
ATOM      1  C   UNL     1      89.487  26.657  14.929  1.00  0.00     0.057 C 
ATOM      2  C   UNL     1      88.402  26.634  13.843  1.00  0.00     0.016 C 
ENDROOT
BRANCH   1   3
ATOM      3  C   UNL     1      88.883  26.438  16.302  1.00  0.00     0.135 C 
ATOM      4  O   UNL     1      87.956  25.652  16.442  1.00  0.00    -0.299 OA
BRANCH   3   5
ATOM      5  C   UNL     1      89.416  27.159  17.512  1.00  0.00     0.072 C 
ATOM      6  C   UNL     1      88.364  28.102  18.087  1.00  0.00     0.012 C 
ENDBRANCH   3   5
ENDBRANCH   1   3
BRANCH   1   7
ATOM      7  C   UNL     1      90.349  27.939  14.883  1.00  0.00     0.038 C 
BRANCH   7   8
ATOM      8  C   UNL     1      91.774  27.700  14.450  1.00  0.00    -0.034 C 
ATOM      9  C   UNL     1      92.125  26.629  13.735  1.00  0.00     0.004 C 
ENDBRANCH   7   8
ENDBRANCH   1   7
TORSDOF 4
ENDMDL
MODEL 7
REMARK VINA RESULT:    -3.176      1.798      4.013
REMARK INTER + INTRA:          -4.318
REMARK INTER:                  -4.058
REMARK INTRA:                  -0.260
REMARK UNBOUND:                -0.399
REMARK SMILES C=CC[C@H](C)C(=O)CC
REMARK SMILES IDX 4 1 5 2 6 3 7 4 8 5 9 6 3 7 2 8 1 9
REMARK H PARENT
REMARK Flexibility Score: inf
ROOT
ATOM      1  C   UNL     1      79.170  16.065   3.180  1.00  0.00     0.057 C 
ATOM      2  C   UNL     1      80.100  14.965   2.651  1.00  0.00     0.016 C 
ENDROOT
BRANCH   1   3
ATOM      3  C   UNL     1      79.805  17.433   3.026  1.00  0.00     0.135 C 
ATOM      4  O   UNL     1      80.307  17.983   3.996  1.00  0.00    -0.299 OA
BRANCH   3   5
ATOM      5  C   UNL     1      79.847  18.128   1.691  1.00  0.00     0.072 C 
ATOM      6  C   UNL     1      78.483  18.075   1.010  1.00  0.00     0.012 C 
ENDBRANCH   3   5
ENDBRANCH   1   3
BRANCH   1   7
ATOM      7  C   UNL     1      78.710  15.809   4.632  1.00  0.00     0.038 C 
BRANCH   7   8
ATOM      8  C   UNL     1      79.429  14.668   5.308  1.00  0.00    -0.034 C 
ATOM      9  C   UNL     1      79.668  14.663   6.621  1.00  0.00     0.004 C 
ENDBRANCH   7   8
ENDBRANCH   1   7
TORSDOF 4
ENDMDL
MODEL 8
REMARK VINA RESULT:    -3.161      1.614      3.340
REMARK INTER + INTRA:          -4.299
REMARK INTER:                  -3.866
REMARK INTRA:                  -0.433
REMARK UNBOUND:                -0.399
REMARK SMILES C=CC[C@H](C)C(=O)CC
REMARK SMILES IDX 4 1 5 2 6 3 7 4 8 5 9 6 3 7 2 8 1 9
REMARK H PARENT
REMARK Flexibility Score: inf
ROOT
ATOM      1  C   UNL     1      78.338  15.236   2.323  1.00  0.00     0.057 C 
ATOM      2  C   UNL     1      77.151  14.278   2.153  1.00  0.00     0.016 C 
ENDROOT
BRANCH   1   3
ATOM      3  C   UNL     1      78.598  16.009   1.044  1.00  0.00     0.135 C 
ATOM      4  O   UNL     1      78.796  15.406  -0.002  1.00  0.00    -0.299 OA
BRANCH   3   5
ATOM      5  C   UNL     1      78.601  17.515   1.030  1.00  0.00     0.072 C 
ATOM      6  C   UNL     1      79.842  18.059   1.730  1.00  0.00     0.012 C 
ENDBRANCH   3   5
ENDBRANCH   1   3
BRANCH   1   7
ATOM      7  C   UNL     1      79.612  14.523   2.827  1.00  0.00     0.038 C 
BRANCH   7   8
ATOM      8  C   UNL     1      80.123  15.047   4.146  1.00  0.00    -0.034 C 
ATOM      9  C   UNL     1      79.362  15.790   4.954  1.00  0.00     0.004 C 
ENDBRANCH   7   8
ENDBRANCH   1   7
TORSDOF 4
ENDMDL
MODEL 9
REMARK VINA RESULT:    -3.071      1.112      3.389
REMARK INTER + INTRA:          -4.188
REMARK INTER:                  -3.872
REMARK INTRA:                  -0.317
REMARK UNBOUND:                -0.399
REMARK SMILES C=CC[C@H](C)C(=O)CC
REMARK SMILES IDX 4 1 5 2 6 3 7 4 8 5 9 6 3 7 2 8 1 9
REMARK H PARENT
REMARK Flexibility Score: inf
ROOT
ATOM      1  C   UNL     1      79.711  16.332   2.617  1.00  0.00     0.057 C 
ATOM      2  C   UNL     1      79.601  17.567   1.713  1.00  0.00     0.016 C 
ENDROOT
BRANCH   1   3
ATOM      3  C   UNL     1      79.708  15.058   1.797  1.00  0.00     0.135 C 
ATOM      4  O   UNL     1      80.272  14.058   2.221  1.00  0.00    -0.299 OA
BRANCH   3   5
ATOM      5  C   UNL     1      79.008  14.989   0.466  1.00  0.00     0.072 C 
ATOM      6  C   UNL     1      77.607  14.404   0.621  1.00  0.00     0.012 C 
ENDBRANCH   3   5
ENDBRANCH   1   3
BRANCH   1   7
ATOM      7  C   UNL     1      78.629  16.303   3.720  1.00  0.00     0.038 C 
BRANCH   7   8
ATOM      8  C   UNL     1      79.172  16.034   5.101  1.00  0.00    -0.034 C 
ATOM      9  C   UNL     1      79.304  14.794   5.579  1.00  0.00     0.004 C 
ENDBRANCH   7   8
ENDBRANCH   1   7
TORSDOF 4
ENDMDL
