MODEL 1
REMARK VINA RESULT:    -3.998      0.000      0.000
REMARK INTER + INTRA:          -5.908
REMARK INTER:                  -5.400
REMARK INTRA:                  -0.508
REMARK UNBOUND:                -0.508
REMARK SMILES [NH3+]CCCC[C@H]([NH3+])C(=O)[O-]
REMARK SMILES IDX 4 1 3 2 2 3 1 4 5 8 6 9 7 10 8 14 9 15 10 16
REMARK H PARENT 1 5 1 6 1 7 7 11 7 12 7 13
REMARK Flexibility Score: inf
ROOT
ATOM      1  C   UNL     1      -1.041  62.846  32.229  1.00  0.00     0.012 C 
ENDROOT
BRANCH   1   2
ATOM      2  C   UNL     1      -1.966  61.658  32.528  1.00  0.00     0.061 C 
BRANCH   2   3
ATOM      3  C   UNL     1      -3.375  62.137  32.905  1.00  0.00     0.258 C 
BRANCH   3   4
ATOM      4  N   UNL     1      -4.371  61.626  31.964  1.00  0.00    -0.358 N 
ATOM      5  H   UNL     1      -3.895  61.009  31.265  1.00  0.00     0.344 HD
ATOM      6  H   UNL     1      -4.828  62.419  31.459  1.00  0.00     0.344 HD
ATOM      7  H   UNL     1      -5.092  61.065  32.473  1.00  0.00     0.344 HD
ENDBRANCH   3   4
ENDBRANCH   2   3
ENDBRANCH   1   2
BRANCH   1   8
ATOM      8  C   UNL     1      -1.394  63.563  30.912  1.00  0.00     0.072 C 
BRANCH   8   9
ATOM      9  C   UNL     1      -1.225  62.691  29.646  1.00  0.00     0.227 C 
BRANCH   9  10
ATOM     10  N   UNL     1      -0.271  63.314  28.721  1.00  0.00    -0.350 N 
ATOM     11  H   UNL     1       0.496  63.795  29.247  1.00  0.00     0.345 HD
ATOM     12  H   UNL     1       0.149  62.585  28.099  1.00  0.00     0.345 HD
ATOM     13  H   UNL     1      -0.764  64.012  28.118  1.00  0.00     0.345 HD
ENDBRANCH   9  10
BRANCH   9  14
ATOM     14  C   UNL     1      -2.545  62.467  28.954  1.00  0.00     0.099 C 
ATOM     15  O   UNL     1      -2.635  61.651  27.998  1.00  0.00    -0.544 OA
ATOM     16  O   UNL     1      -3.671  63.171  29.363  1.00  0.00    -0.544 OA
ENDBRANCH   9  14
ENDBRANCH   8   9
ENDBRANCH   1   8
TORSDOF 7
ENDMDL
MODEL 2
REMARK VINA RESULT:    -3.893     10.252     11.063
REMARK INTER + INTRA:          -5.766
REMARK INTER:                  -5.621
REMARK INTRA:                  -0.145
REMARK UNBOUND:                -0.508
REMARK SMILES [NH3+]CCCC[C@H]([NH3+])C(=O)[O-]
REMARK SMILES IDX 4 1 3 2 2 3 1 4 5 8 6 9 7 10 8 14 9 15 10 16
REMARK H PARENT 1 5 1 6 1 7 7 11 7 12 7 13
REMARK Flexibility Score: inf
ROOT
ATOM      1  C   UNL     1       8.282  65.668  34.195  1.00  0.00     0.012 C 
ENDROOT
BRANCH   1   2
ATOM      2  C   UNL     1       8.048  67.037  33.540  1.00  0.00     0.061 C 
BRANCH   2   3
ATOM      3  C   UNL     1       6.963  66.951  32.458  1.00  0.00     0.258 C 
BRANCH   3   4
ATOM      4  N   UNL     1       5.986  68.028  32.609  1.00  0.00    -0.358 N 
ATOM      5  H   UNL     1       5.307  67.770  33.362  1.00  0.00     0.344 HD
ATOM      6  H   UNL     1       5.463  68.167  31.714  1.00  0.00     0.344 HD
ATOM      7  H   UNL     1       6.469  68.916  32.880  1.00  0.00     0.344 HD
ENDBRANCH   3   4
ENDBRANCH   2   3
ENDBRANCH   1   2
BRANCH   1   8
ATOM      8  C   UNL     1       7.135  64.674  33.934  1.00  0.00     0.072 C 
BRANCH   8   9
ATOM      9  C   UNL     1       7.262  63.337  34.701  1.00  0.00     0.227 C 
BRANCH   9  10
ATOM     10  N   UNL     1       8.325  63.427  35.709  1.00  0.00    -0.350 N 
ATOM     11  H   UNL     1       7.920  63.450  36.674  1.00  0.00     0.345 HD
ATOM     12  H   UNL     1       8.963  62.602  35.627  1.00  0.00     0.345 HD
ATOM     13  H   UNL     1       8.891  64.293  35.553  1.00  0.00     0.345 HD
ENDBRANCH   9  10
BRANCH   9  14
ATOM     14  C   UNL     1       7.534  62.190  33.762  1.00  0.00     0.099 C 
ATOM     15  O   UNL     1       6.653  61.314  33.552  1.00  0.00    -0.544 OA
ATOM     16  O   UNL     1       8.767  62.088  33.130  1.00  0.00    -0.544 OA
ENDBRANCH   9  14
ENDBRANCH   8   9
ENDBRANCH   1   8
TORSDOF 7
ENDMDL
MODEL 3
REMARK VINA RESULT:    -3.837     10.860     11.533
REMARK INTER + INTRA:          -5.691
REMARK INTER:                  -5.465
REMARK INTRA:                  -0.226
REMARK UNBOUND:                -0.508
REMARK SMILES [NH3+]CCCC[C@H]([NH3+])C(=O)[O-]
REMARK SMILES IDX 4 1 3 2 2 3 1 4 5 8 6 9 7 10 8 14 9 15 10 16
REMARK H PARENT 1 5 1 6 1 7 7 11 7 12 7 13
REMARK Flexibility Score: inf
ROOT
ATOM      1  C   UNL     1       6.945  64.363  34.260  1.00  0.00     0.012 C 
ENDROOT
BRANCH   1   2
ATOM      2  C   UNL     1       8.291  63.740  34.656  1.00  0.00     0.061 C 
BRANCH   2   3
ATOM      3  C   UNL     1       9.038  63.212  33.422  1.00  0.00     0.258 C 
BRANCH   3   4
ATOM      4  N   UNL     1       8.361  62.045  32.860  1.00  0.00    -0.358 N 
ATOM      5  H   UNL     1       7.437  61.923  33.336  1.00  0.00     0.344 HD
ATOM      6  H   UNL     1       8.937  61.186  33.015  1.00  0.00     0.344 HD
ATOM      7  H   UNL     1       8.197  62.182  31.836  1.00  0.00     0.344 HD
ENDBRANCH   3   4
ENDBRANCH   2   3
ENDBRANCH   1   2
BRANCH   1   8
ATOM      8  C   UNL     1       7.067  65.365  33.097  1.00  0.00     0.072 C 
BRANCH   8   9
ATOM      9  C   UNL     1       7.024  66.850  33.528  1.00  0.00     0.227 C 
BRANCH   9  10
ATOM     10  N   UNL     1       6.266  67.642  32.552  1.00  0.00    -0.350 N 
ATOM     11  H   UNL     1       5.909  67.035  31.778  1.00  0.00     0.345 HD
ATOM     12  H   UNL     1       5.455  68.105  33.024  1.00  0.00     0.345 HD
ATOM     13  H   UNL     1       6.878  68.389  32.149  1.00  0.00     0.345 HD
ENDBRANCH   9  10
BRANCH   9  14
ATOM     14  C   UNL     1       8.412  67.415  33.688  1.00  0.00     0.099 C 
ATOM     15  O   UNL     1       9.370  66.956  33.010  1.00  0.00    -0.544 OA
ATOM     16  O   UNL     1       8.644  68.440  34.596  1.00  0.00    -0.544 OA
ENDBRANCH   9  14
ENDBRANCH   8   9
ENDBRANCH   1   8
TORSDOF 7
ENDMDL
MODEL 4
REMARK VINA RESULT:    -3.813      2.974      4.825
REMARK INTER + INTRA:          -5.658
REMARK INTER:                  -5.507
REMARK INTRA:                  -0.151
REMARK UNBOUND:                -0.508
REMARK SMILES [NH3+]CCCC[C@H]([NH3+])C(=O)[O-]
REMARK SMILES IDX 4 1 3 2 2 3 1 4 5 8 6 9 7 10 8 14 9 15 10 16
REMARK H PARENT 1 5 1 6 1 7 7 11 7 12 7 13
REMARK Flexibility Score: inf
ROOT
ATOM      1  C   UNL     1      -2.398  62.279  31.025  1.00  0.00     0.012 C 
ENDROOT
BRANCH   1   2
ATOM      2  C   UNL     1      -2.027  62.536  29.558  1.00  0.00     0.061 C 
BRANCH   2   3
ATOM      3  C   UNL     1      -1.007  63.678  29.440  1.00  0.00     0.258 C 
BRANCH   3   4
ATOM      4  N   UNL     1       0.017  63.365  28.444  1.00  0.00    -0.358 N 
ATOM      5  H   UNL     1       0.529  64.242  28.193  1.00  0.00     0.344 HD
ATOM      6  H   UNL     1      -0.427  62.974  27.582  1.00  0.00     0.344 HD
ATOM      7  H   UNL     1       0.700  62.675  28.835  1.00  0.00     0.344 HD
ENDBRANCH   3   4
ENDBRANCH   2   3
ENDBRANCH   1   2
BRANCH   1   8
ATOM      8  C   UNL     1      -1.374  62.867  32.015  1.00  0.00     0.072 C 
BRANCH   8   9
ATOM      9  C   UNL     1      -1.361  62.182  33.401  1.00  0.00     0.227 C 
BRANCH   9  10
ATOM     10  N   UNL     1      -2.172  60.959  33.373  1.00  0.00    -0.350 N 
ATOM     11  H   UNL     1      -2.773  60.932  32.517  1.00  0.00     0.345 HD
ATOM     12  H   UNL     1      -1.548  60.119  33.378  1.00  0.00     0.345 HD
ATOM     13  H   UNL     1      -2.782  60.917  34.222  1.00  0.00     0.345 HD
ENDBRANCH   9  10
BRANCH   9  14
ATOM     14  C   UNL     1      -1.861  63.111  34.477  1.00  0.00     0.099 C 
ATOM     15  O   UNL     1      -1.283  63.163  35.596  1.00  0.00    -0.544 OA
ATOM     16  O   UNL     1      -2.974  63.909  34.242  1.00  0.00    -0.544 OA
ENDBRANCH   9  14
ENDBRANCH   8   9
ENDBRANCH   1   8
TORSDOF 7
ENDMDL
MODEL 5
REMARK VINA RESULT:    -3.791     10.450     11.032
REMARK INTER + INTRA:          -5.629
REMARK INTER:                  -5.512
REMARK INTRA:                  -0.116
REMARK UNBOUND:                -0.508
REMARK SMILES [NH3+]CCCC[C@H]([NH3+])C(=O)[O-]
REMARK SMILES IDX 4 1 3 2 2 3 1 4 5 8 6 9 7 10 8 14 9 15 10 16
REMARK H PARENT 1 5 1 6 1 7 7 11 7 12 7 13
REMARK Flexibility Score: inf
ROOT
ATOM      1  C   UNL     1       7.489  60.015  34.201  1.00  0.00     0.012 C 
ENDROOT
BRANCH   1   2
ATOM      2  C   UNL     1       8.079  59.083  35.269  1.00  0.00     0.061 C 
BRANCH   2   3
ATOM      3  C   UNL     1       6.992  58.599  36.239  1.00  0.00     0.258 C 
BRANCH   3   4
ATOM      4  N   UNL     1       6.254  57.469  35.677  1.00  0.00    -0.358 N 
ATOM      5  H   UNL     1       6.211  57.573  34.636  1.00  0.00     0.344 HD
ATOM      6  H   UNL     1       5.280  57.451  36.056  1.00  0.00     0.344 HD
ATOM      7  H   UNL     1       6.741  56.571  35.906  1.00  0.00     0.344 HD
ENDBRANCH   3   4
ENDBRANCH   2   3
ENDBRANCH   1   2
BRANCH   1   8
ATOM      8  C   UNL     1       7.021  61.365  34.777  1.00  0.00     0.072 C 
BRANCH   8   9
ATOM      9  C   UNL     1       7.285  62.578  33.853  1.00  0.00     0.227 C 
BRANCH   9  10
ATOM     10  N   UNL     1       8.328  62.253  32.872  1.00  0.00    -0.350 N 
ATOM     11  H   UNL     1       8.108  61.356  32.380  1.00  0.00     0.345 HD
ATOM     12  H   UNL     1       8.399  63.020  32.164  1.00  0.00     0.345 HD
ATOM     13  H   UNL     1       9.253  62.166  33.353  1.00  0.00     0.345 HD
ENDBRANCH   9  10
BRANCH   9  14
ATOM     14  C   UNL     1       7.681  63.796  34.647  1.00  0.00     0.099 C 
ATOM     15  O   UNL     1       8.577  63.719  35.529  1.00  0.00    -0.544 OA
ATOM     16  O   UNL     1       7.048  65.010  34.416  1.00  0.00    -0.544 OA
ENDBRANCH   9  14
ENDBRANCH   8   9
ENDBRANCH   1   8
TORSDOF 7
ENDMDL
MODEL 6
REMARK VINA RESULT:    -3.754      5.785      7.287
REMARK INTER + INTRA:          -5.578
REMARK INTER:                  -5.077
REMARK INTRA:                  -0.501
REMARK UNBOUND:                -0.508
REMARK SMILES [NH3+]CCCC[C@H]([NH3+])C(=O)[O-]
REMARK SMILES IDX 4 1 3 2 2 3 1 4 5 8 6 9 7 10 8 14 9 15 10 16
REMARK H PARENT 1 5 1 6 1 7 7 11 7 12 7 13
REMARK Flexibility Score: inf
ROOT
ATOM      1  C   UNL     1      -1.179  62.747  35.361  1.00  0.00     0.012 C 
ENDROOT
BRANCH   1   2
ATOM      2  C   UNL     1      -2.468  63.207  34.666  1.00  0.00     0.061 C 
BRANCH   2   3
ATOM      3  C   UNL     1      -3.368  62.010  34.327  1.00  0.00     0.258 C 
BRANCH   3   4
ATOM      4  N   UNL     1      -4.691  62.162  34.931  1.00  0.00    -0.358 N 
ATOM      5  H   UNL     1      -5.422  61.956  34.211  1.00  0.00     0.344 HD
ATOM      6  H   UNL     1      -4.820  63.142  35.271  1.00  0.00     0.344 HD
ATOM      7  H   UNL     1      -4.803  61.492  35.727  1.00  0.00     0.344 HD
ENDBRANCH   3   4
ENDBRANCH   2   3
ENDBRANCH   1   2
BRANCH   1   8
ATOM      8  C   UNL     1      -1.440  61.754  36.510  1.00  0.00     0.072 C 
BRANCH   8   9
ATOM      9  C   UNL     1      -1.536  62.409  37.909  1.00  0.00     0.227 C 
BRANCH   9  10
ATOM     10  N   UNL     1      -0.726  61.663  38.878  1.00  0.00    -0.350 N 
ATOM     11  H   UNL     1      -0.468  60.722  38.500  1.00  0.00     0.345 HD
ATOM     12  H   UNL     1       0.150  62.195  39.093  1.00  0.00     0.345 HD
ATOM     13  H   UNL     1      -1.260  61.542  39.770  1.00  0.00     0.345 HD
ENDBRANCH   9  10
BRANCH   9  14
ATOM     14  C   UNL     1      -2.966  62.488  38.379  1.00  0.00     0.099 C 
ATOM     15  O   UNL     1      -3.297  63.301  39.284  1.00  0.00    -0.544 OA
ATOM     16  O   UNL     1      -3.926  61.652  37.824  1.00  0.00    -0.544 OA
ENDBRANCH   9  14
ENDBRANCH   8   9
ENDBRANCH   1   8
TORSDOF 7
ENDMDL
MODEL 7
REMARK VINA RESULT:    -3.734      3.925      4.846
REMARK INTER + INTRA:          -5.551
REMARK INTER:                  -5.418
REMARK INTRA:                  -0.133
REMARK UNBOUND:                -0.508
REMARK SMILES [NH3+]CCCC[C@H]([NH3+])C(=O)[O-]
REMARK SMILES IDX 4 1 3 2 2 3 1 4 5 8 6 9 7 10 8 14 9 15 10 16
REMARK H PARENT 1 5 1 6 1 7 7 11 7 12 7 13
REMARK Flexibility Score: inf
ROOT
ATOM      1  C   UNL     1      -1.494  62.691  35.610  1.00  0.00     0.012 C 
ENDROOT
BRANCH   1   2
ATOM      2  C   UNL     1      -1.973  62.635  37.068  1.00  0.00     0.061 C 
BRANCH   2   3
ATOM      3  C   UNL     1      -1.463  61.366  37.767  1.00  0.00     0.258 C 
BRANCH   3   4
ATOM      4  N   UNL     1      -0.705  61.699  38.971  1.00  0.00    -0.358 N 
ATOM      5  H   UNL     1      -1.156  62.516  39.444  1.00  0.00     0.344 HD
ATOM      6  H   UNL     1       0.277  61.955  38.718  1.00  0.00     0.344 HD
ATOM      7  H   UNL     1      -0.701  60.887  39.631  1.00  0.00     0.344 HD
ENDBRANCH   3   4
ENDBRANCH   2   3
ENDBRANCH   1   2
BRANCH   1   8
ATOM      8  C   UNL     1      -2.542  63.298  34.659  1.00  0.00     0.072 C 
BRANCH   8   9
ATOM      9  C   UNL     1      -2.939  62.381  33.478  1.00  0.00     0.227 C 
BRANCH   9  10
ATOM     10  N   UNL     1      -2.636  60.980  33.796  1.00  0.00    -0.350 N 
ATOM     11  H   UNL     1      -1.863  60.621  33.190  1.00  0.00     0.345 HD
ATOM     12  H   UNL     1      -2.348  60.899  34.799  1.00  0.00     0.345 HD
ATOM     13  H   UNL     1      -3.488  60.391  33.653  1.00  0.00     0.345 HD
ENDBRANCH   9  10
BRANCH   9  14
ATOM     14  C   UNL     1      -2.237  62.787  32.208  1.00  0.00     0.099 C 
ATOM     15  O   UNL     1      -2.632  63.789  31.553  1.00  0.00    -0.544 OA
ATOM     16  O   UNL     1      -1.155  62.049  31.747  1.00  0.00    -0.544 OA
ENDBRANCH   9  14
ENDBRANCH   8   9
ENDBRANCH   1   8
TORSDOF 7
ENDMDL
MODEL 8
REMARK VINA RESULT:    -3.627      5.020      6.786
REMARK INTER + INTRA:          -5.407
REMARK INTER:                  -4.862
REMARK INTRA:                  -0.545
REMARK UNBOUND:                -0.508
REMARK SMILES [NH3+]CCCC[C@H]([NH3+])C(=O)[O-]
REMARK SMILES IDX 4 1 3 2 2 3 1 4 5 8 6 9 7 10 8 14 9 15 10 16
REMARK H PARENT 1 5 1 6 1 7 7 11 7 12 7 13
REMARK Flexibility Score: inf
ROOT
ATOM      1  C   UNL     1      -4.628  61.956  34.864  1.00  0.00     0.012 C 
ENDROOT
BRANCH   1   2
ATOM      2  C   UNL     1      -3.518  61.832  33.811  1.00  0.00     0.061 C 
BRANCH   2   3
ATOM      3  C   UNL     1      -3.102  63.213  33.284  1.00  0.00     0.258 C 
BRANCH   3   4
ATOM      4  N   UNL     1      -2.157  63.858  34.195  1.00  0.00    -0.358 N 
ATOM      5  H   UNL     1      -1.302  64.135  33.660  1.00  0.00     0.344 HD
ATOM      6  H   UNL     1      -1.881  63.195  34.955  1.00  0.00     0.344 HD
ATOM      7  H   UNL     1      -2.587  64.716  34.611  1.00  0.00     0.344 HD
ENDBRANCH   3   4
ENDBRANCH   2   3
ENDBRANCH   1   2
BRANCH   1   8
ATOM      8  C   UNL     1      -4.186  61.477  36.260  1.00  0.00     0.072 C 
BRANCH   8   9
ATOM      9  C   UNL     1      -2.769  60.856  36.302  1.00  0.00     0.227 C 
BRANCH   9  10
ATOM     10  N   UNL     1      -2.839  59.457  36.741  1.00  0.00    -0.350 N 
ATOM     11  H   UNL     1      -1.914  58.983  36.616  1.00  0.00     0.345 HD
ATOM     12  H   UNL     1      -3.109  59.415  37.751  1.00  0.00     0.345 HD
ATOM     13  H   UNL     1      -3.565  58.947  36.187  1.00  0.00     0.345 HD
ENDBRANCH   9  10
BRANCH   9  14
ATOM     14  C   UNL     1      -1.854  61.639  37.208  1.00  0.00     0.099 C 
ATOM     15  O   UNL     1      -1.679  62.873  37.026  1.00  0.00    -0.544 OA
ATOM     16  O   UNL     1      -1.189  60.997  38.245  1.00  0.00    -0.544 OA
ENDBRANCH   9  14
ENDBRANCH   8   9
ENDBRANCH   1   8
TORSDOF 7
ENDMDL
MODEL 9
REMARK VINA RESULT:    -3.624      2.281      2.715
REMARK INTER + INTRA:          -5.403
REMARK INTER:                  -4.848
REMARK INTRA:                  -0.554
REMARK UNBOUND:                -0.508
REMARK SMILES [NH3+]CCCC[C@H]([NH3+])C(=O)[O-]
REMARK SMILES IDX 4 1 3 2 2 3 1 4 5 8 6 9 7 10 8 14 9 15 10 16
REMARK H PARENT 1 5 1 6 1 7 7 11 7 12 7 13
REMARK Flexibility Score: inf
ROOT
ATOM      1  C   UNL     1      -4.623  62.897  32.138  1.00  0.00     0.012 C 
ENDROOT
BRANCH   1   2
ATOM      2  C   UNL     1      -3.628  62.979  33.304  1.00  0.00     0.061 C 
BRANCH   2   3
ATOM      3  C   UNL     1      -3.142  61.581  33.713  1.00  0.00     0.258 C 
BRANCH   3   4
ATOM      4  N   UNL     1      -1.842  61.282  33.113  1.00  0.00    -0.358 N 
ATOM      5  H   UNL     1      -1.986  60.695  32.259  1.00  0.00     0.344 HD
ATOM      6  H   UNL     1      -1.247  60.753  33.790  1.00  0.00     0.344 HD
ATOM      7  H   UNL     1      -1.362  62.169  32.835  1.00  0.00     0.344 HD
ENDBRANCH   3   4
ENDBRANCH   2   3
ENDBRANCH   1   2
BRANCH   1   8
ATOM      8  C   UNL     1      -4.076  63.515  30.838  1.00  0.00     0.072 C 
BRANCH   8   9
ATOM      9  C   UNL     1      -2.682  64.170  30.981  1.00  0.00     0.227 C 
BRANCH   9  10
ATOM     10  N   UNL     1      -2.741  65.585  30.597  1.00  0.00    -0.350 N 
ATOM     11  H   UNL     1      -3.341  66.125  31.263  1.00  0.00     0.345 HD
ATOM     12  H   UNL     1      -1.778  65.994  30.599  1.00  0.00     0.345 HD
ATOM     13  H   UNL     1      -3.132  65.675  29.631  1.00  0.00     0.345 HD
ENDBRANCH   9  10
BRANCH   9  14
ATOM     14  C   UNL     1      -1.651  63.451  30.150  1.00  0.00     0.099 C 
ATOM     15  O   UNL     1      -1.511  62.202  30.247  1.00  0.00    -0.544 OA
ATOM     16  O   UNL     1      -0.839  64.166  29.280  1.00  0.00    -0.544 OA
ENDBRANCH   9  14
ENDBRANCH   8   9
ENDBRANCH   1   8
TORSDOF 7
ENDMDL
