MODEL 1
REMARK VINA RESULT:     4.440      0.000      0.000
REMARK INTER + INTRA:          11.074
REMARK INTER:                  11.708
REMARK INTRA:                  -0.634
REMARK UNBOUND:                -0.634
REMARK SMILES CCCCCCCCCCCCCCCCCCCCCCCCCCCCCC(=O)[O-]
REMARK SMILES IDX 16 1 17 2 18 3 19 4 20 5 21 6 22 7 23 8 24 9 25 10 26 11
REMARK SMILES IDX 27 12 28 13 29 14 30 15 31 16 32 17 15 18 14 19 13 20 12 21
REMARK SMILES IDX 11 22 10 23 9 24 8 25 7 26 6 27 5 28 4 29 3 30 2 31 1 32
REMARK H PARENT
REMARK Flexibility Score: inf
ROOT
ATOM      1  C   UNL     1      40.307  43.168  19.783  1.00  0.00     0.000 C 
ENDROOT
BRANCH   1   2
ATOM      2  C   UNL     1      41.122  41.935  19.334  1.00  0.00     0.000 C 
BRANCH   2   3
ATOM      3  C   UNL     1      40.590  41.182  18.094  1.00  0.00     0.000 C 
BRANCH   3   4
ATOM      4  C   UNL     1      41.027  39.709  17.994  1.00  0.00     0.000 C 
BRANCH   4   5
ATOM      5  C   UNL     1      41.059  39.178  16.550  1.00  0.00     0.000 C 
BRANCH   5   6
ATOM      6  C   UNL     1      39.746  38.474  16.140  1.00  0.00     0.000 C 
BRANCH   6   7
ATOM      7  C   UNL     1      39.786  36.944  16.289  1.00  0.00     0.000 C 
BRANCH   7   8
ATOM      8  C   UNL     1      41.122  36.436  16.851  1.00  0.00     0.000 C 
BRANCH   8   9
ATOM      9  C   UNL     1      40.955  35.285  17.858  1.00  0.00     0.000 C 
BRANCH   9  10
ATOM     10  C   UNL     1      39.850  35.488  18.914  1.00  0.00     0.000 C 
BRANCH  10  11
ATOM     11  C   UNL     1      39.532  36.968  19.217  1.00  0.00     0.000 C 
BRANCH  11  12
ATOM     12  C   UNL     1      38.770  37.139  20.544  1.00  0.00     0.000 C 
BRANCH  12  13
ATOM     13  C   UNL     1      37.281  36.767  20.429  1.00  0.00     0.006 C 
BRANCH  13  14
ATOM     14  C   UNL     1      36.403  37.873  19.820  1.00  0.00     0.053 C 
BRANCH  14  15
ATOM     15  C   UNL     1      37.093  39.204  19.821  1.00  0.00     0.041 C 
ATOM     16  O   UNL     1      36.860  40.039  20.735  1.00  0.00    -0.550 OA
ATOM     17  O   UNL     1      37.985  39.525  18.807  1.00  0.00    -0.550 OA
ENDBRANCH  14  15
ENDBRANCH  13  14
ENDBRANCH  12  13
ENDBRANCH  11  12
ENDBRANCH  10  11
ENDBRANCH   9  10
ENDBRANCH   8   9
ENDBRANCH   7   8
ENDBRANCH   6   7
ENDBRANCH   5   6
ENDBRANCH   4   5
ENDBRANCH   3   4
ENDBRANCH   2   3
ENDBRANCH   1   2
BRANCH   1  18
ATOM     18  C   UNL     1      41.115  44.320  20.408  1.00  0.00     0.000 C 
BRANCH  18  19
ATOM     19  C   UNL     1      40.238  45.346  21.140  1.00  0.00     0.000 C 
BRANCH  19  20
ATOM     20  C   UNL     1      40.674  45.487  22.606  1.00  0.00     0.000 C 
BRANCH  20  21
ATOM     21  C   UNL     1      40.246  44.293  23.478  1.00  0.00     0.000 C 
BRANCH  21  22
ATOM     22  C   UNL     1      39.252  44.635  24.608  1.00  0.00     0.000 C 
BRANCH  22  23
ATOM     23  C   UNL     1      38.770  46.098  24.636  1.00  0.00     0.000 C 
BRANCH  23  24
ATOM     24  C   UNL     1      37.269  46.299  24.345  1.00  0.00    -0.000 C 
BRANCH  24  25
ATOM     25  C   UNL     1      36.946  46.926  22.976  1.00  0.00    -0.000 C 
BRANCH  25  26
ATOM     26  C   UNL     1      35.443  47.175  22.774  1.00  0.00    -0.000 C 
BRANCH  26  27
ATOM     27  C   UNL     1      34.634  45.874  22.616  1.00  0.00    -0.000 C 
BRANCH  27  28
ATOM     28  C   UNL     1      33.126  45.989  22.920  1.00  0.00    -0.000 C 
BRANCH  28  29
ATOM     29  C   UNL     1      32.710  45.554  24.337  1.00  0.00    -0.000 C 
BRANCH  29  30
ATOM     30  C   UNL     1      33.869  45.607  25.342  1.00  0.00    -0.000 C 
BRANCH  30  31
ATOM     31  C   UNL     1      33.686  46.764  26.330  1.00  0.00    -0.003 C 
ATOM     32  C   UNL     1      34.063  48.100  25.694  1.00  0.00     0.004 C 
ENDBRANCH  30  31
ENDBRANCH  29  30
ENDBRANCH  28  29
ENDBRANCH  27  28
ENDBRANCH  26  27
ENDBRANCH  25  26
ENDBRANCH  24  25
ENDBRANCH  23  24
ENDBRANCH  22  23
ENDBRANCH  21  22
ENDBRANCH  20  21
ENDBRANCH  19  20
ENDBRANCH  18  19
ENDBRANCH   1  18
TORSDOF 28
ENDMDL
MODEL 2
REMARK VINA RESULT:     5.442      2.699     10.466
REMARK INTER + INTRA:          13.716
REMARK INTER:                  14.131
REMARK INTRA:                  -0.415
REMARK UNBOUND:                -0.634
REMARK SMILES CCCCCCCCCCCCCCCCCCCCCCCCCCCCCC(=O)[O-]
REMARK SMILES IDX 16 1 17 2 18 3 19 4 20 5 21 6 22 7 23 8 24 9 25 10 26 11
REMARK SMILES IDX 27 12 28 13 29 14 30 15 31 16 32 17 15 18 14 19 13 20 12 21
REMARK SMILES IDX 11 22 10 23 9 24 8 25 7 26 6 27 5 28 4 29 3 30 2 31 1 32
REMARK H PARENT
REMARK Flexibility Score: inf
ROOT
ATOM      1  C   UNL     1      41.119  43.906  21.418  1.00  0.00     0.000 C 
ENDROOT
BRANCH   1   2
ATOM      2  C   UNL     1      40.745  45.156  22.246  1.00  0.00     0.000 C 
BRANCH   2   3
ATOM      3  C   UNL     1      40.793  44.993  23.781  1.00  0.00     0.000 C 
BRANCH   3   4
ATOM      4  C   UNL     1      39.426  45.078  24.484  1.00  0.00     0.000 C 
BRANCH   4   5
ATOM      5  C   UNL     1      38.293  45.558  23.559  1.00  0.00     0.000 C 
BRANCH   5   6
ATOM      6  C   UNL     1      37.016  45.957  24.331  1.00  0.00     0.000 C 
BRANCH   6   7
ATOM      7  C   UNL     1      36.660  47.449  24.219  1.00  0.00     0.000 C 
BRANCH   7   8
ATOM      8  C   UNL     1      35.420  47.701  23.348  1.00  0.00     0.000 C 
BRANCH   8   9
ATOM      9  C   UNL     1      35.464  46.953  22.004  1.00  0.00     0.000 C 
BRANCH   9  10
ATOM     10  C   UNL     1      34.508  45.748  21.888  1.00  0.00     0.000 C 
BRANCH  10  11
ATOM     11  C   UNL     1      33.682  45.474  23.163  1.00  0.00     0.000 C 
BRANCH  11  12
ATOM     12  C   UNL     1      32.433  46.369  23.250  1.00  0.00     0.000 C 
BRANCH  12  13
ATOM     13  C   UNL     1      31.595  46.103  24.514  1.00  0.00     0.006 C 
BRANCH  13  14
ATOM     14  C   UNL     1      31.673  47.221  25.566  1.00  0.00     0.053 C 
BRANCH  14  15
ATOM     15  C   UNL     1      33.042  47.337  26.165  1.00  0.00     0.041 C 
ATOM     16  O   UNL     1      33.889  46.421  25.996  1.00  0.00    -0.550 OA
ATOM     17  O   UNL     1      33.378  48.454  26.919  1.00  0.00    -0.550 OA
ENDBRANCH  14  15
ENDBRANCH  13  14
ENDBRANCH  12  13
ENDBRANCH  11  12
ENDBRANCH  10  11
ENDBRANCH   9  10
ENDBRANCH   8   9
ENDBRANCH   7   8
ENDBRANCH   6   7
ENDBRANCH   5   6
ENDBRANCH   4   5
ENDBRANCH   3   4
ENDBRANCH   2   3
ENDBRANCH   1   2
BRANCH   1  18
ATOM     18  C   UNL     1      40.292  43.671  20.141  1.00  0.00     0.000 C 
BRANCH  18  19
ATOM     19  C   UNL     1      41.082  42.963  19.031  1.00  0.00     0.000 C 
BRANCH  19  20
ATOM     20  C   UNL     1      40.516  41.559  18.771  1.00  0.00     0.000 C 
BRANCH  20  21
ATOM     21  C   UNL     1      41.125  40.887  17.527  1.00  0.00     0.000 C 
BRANCH  21  22
ATOM     22  C   UNL     1      40.173  39.941  16.765  1.00  0.00     0.000 C 
BRANCH  22  23
ATOM     23  C   UNL     1      40.666  38.487  16.630  1.00  0.00     0.000 C 
BRANCH  23  24
ATOM     24  C   UNL     1      40.013  37.482  17.599  1.00  0.00    -0.000 C 
BRANCH  24  25
ATOM     25  C   UNL     1      40.328  36.001  17.316  1.00  0.00    -0.000 C 
BRANCH  25  26
ATOM     26  C   UNL     1      39.713  35.051  18.357  1.00  0.00    -0.000 C 
BRANCH  26  27
ATOM     27  C   UNL     1      38.296  35.469  18.790  1.00  0.00    -0.000 C 
BRANCH  27  28
ATOM     28  C   UNL     1      38.065  35.551  20.313  1.00  0.00    -0.000 C 
BRANCH  28  29
ATOM     29  C   UNL     1      38.010  36.977  20.891  1.00  0.00    -0.000 C 
BRANCH  29  30
ATOM     30  C   UNL     1      36.917  37.841  20.244  1.00  0.00    -0.000 C 
BRANCH  30  31
ATOM     31  C   UNL     1      37.517  39.095  19.601  1.00  0.00    -0.003 C 
ATOM     32  C   UNL     1      39.031  39.146  19.793  1.00  0.00     0.004 C 
ENDBRANCH  30  31
ENDBRANCH  29  30
ENDBRANCH  28  29
ENDBRANCH  27  28
ENDBRANCH  26  27
ENDBRANCH  25  26
ENDBRANCH  24  25
ENDBRANCH  23  24
ENDBRANCH  22  23
ENDBRANCH  21  22
ENDBRANCH  20  21
ENDBRANCH  19  20
ENDBRANCH  18  19
ENDBRANCH   1  18
TORSDOF 28
ENDMDL
MODEL 3
REMARK VINA RESULT:     7.295      2.656     10.192
REMARK INTER + INTRA:          18.603
REMARK INTER:                  18.736
REMARK INTRA:                  -0.133
REMARK UNBOUND:                -0.634
REMARK SMILES CCCCCCCCCCCCCCCCCCCCCCCCCCCCCC(=O)[O-]
REMARK SMILES IDX 16 1 17 2 18 3 19 4 20 5 21 6 22 7 23 8 24 9 25 10 26 11
REMARK SMILES IDX 27 12 28 13 29 14 30 15 31 16 32 17 15 18 14 19 13 20 12 21
REMARK SMILES IDX 11 22 10 23 9 24 8 25 7 26 6 27 5 28 4 29 3 30 2 31 1 32
REMARK H PARENT
REMARK Flexibility Score: inf
ROOT
ATOM      1  C   UNL     1      39.571  45.226  22.776  1.00  0.00     0.000 C 
ENDROOT
BRANCH   1   2
ATOM      2  C   UNL     1      40.492  44.996  23.995  1.00  0.00     0.000 C 
BRANCH   2   3
ATOM      3  C   UNL     1      39.784  44.770  25.349  1.00  0.00     0.000 C 
BRANCH   3   4
ATOM      4  C   UNL     1      39.274  46.051  26.035  1.00  0.00     0.000 C 
BRANCH   4   5
ATOM      5  C   UNL     1      37.801  45.966  26.471  1.00  0.00     0.000 C 
BRANCH   5   6
ATOM      6  C   UNL     1      36.827  45.847  25.277  1.00  0.00     0.000 C 
BRANCH   6   7
ATOM      7  C   UNL     1      35.756  46.950  25.233  1.00  0.00     0.000 C 
BRANCH   7   8
ATOM      8  C   UNL     1      34.446  46.534  25.920  1.00  0.00     0.000 C 
BRANCH   8   9
ATOM      9  C   UNL     1      33.881  45.206  25.387  1.00  0.00     0.000 C 
BRANCH   9  10
ATOM     10  C   UNL     1      32.530  45.311  24.652  1.00  0.00     0.000 C 
BRANCH  10  11
ATOM     11  C   UNL     1      32.653  45.400  23.116  1.00  0.00     0.000 C 
BRANCH  11  12
ATOM     12  C   UNL     1      33.631  46.505  22.674  1.00  0.00     0.000 C 
BRANCH  12  13
ATOM     13  C   UNL     1      34.920  45.944  22.046  1.00  0.00     0.006 C 
BRANCH  13  14
ATOM     14  C   UNL     1      35.799  47.006  21.366  1.00  0.00     0.053 C 
BRANCH  14  15
ATOM     15  C   UNL     1      35.808  48.300  22.123  1.00  0.00     0.041 C 
ATOM     16  O   UNL     1      36.474  49.281  21.698  1.00  0.00    -0.550 OA
ATOM     17  O   UNL     1      35.088  48.418  23.304  1.00  0.00    -0.550 OA
ENDBRANCH  14  15
ENDBRANCH  13  14
ENDBRANCH  12  13
ENDBRANCH  11  12
ENDBRANCH  10  11
ENDBRANCH   9  10
ENDBRANCH   8   9
ENDBRANCH   7   8
ENDBRANCH   6   7
ENDBRANCH   5   6
ENDBRANCH   4   5
ENDBRANCH   3   4
ENDBRANCH   2   3
ENDBRANCH   1   2
BRANCH   1  18
ATOM     18  C   UNL     1      40.279  45.517  21.440  1.00  0.00     0.000 C 
BRANCH  18  19
ATOM     19  C   UNL     1      41.125  44.340  20.935  1.00  0.00     0.000 C 
BRANCH  19  20
ATOM     20  C   UNL     1      40.438  43.644  19.751  1.00  0.00     0.000 C 
BRANCH  20  21
ATOM     21  C   UNL     1      41.125  42.328  19.347  1.00  0.00     0.000 C 
BRANCH  21  22
ATOM     22  C   UNL     1      40.282  41.403  18.444  1.00  0.00     0.000 C 
BRANCH  22  23
ATOM     23  C   UNL     1      40.978  40.938  17.151  1.00  0.00     0.000 C 
BRANCH  23  24
ATOM     24  C   UNL     1      40.739  39.463  16.771  1.00  0.00    -0.000 C 
BRANCH  24  25
ATOM     25  C   UNL     1      39.920  38.650  17.791  1.00  0.00    -0.000 C 
BRANCH  25  26
ATOM     26  C   UNL     1      40.791  37.718  18.649  1.00  0.00    -0.000 C 
BRANCH  26  27
ATOM     27  C   UNL     1      40.230  36.288  18.743  1.00  0.00    -0.000 C 
BRANCH  27  28
ATOM     28  C   UNL     1      38.696  36.169  18.635  1.00  0.00    -0.000 C 
BRANCH  28  29
ATOM     29  C   UNL     1      37.921  36.526  19.917  1.00  0.00    -0.000 C 
BRANCH  29  30
ATOM     30  C   UNL     1      36.934  37.685  19.713  1.00  0.00    -0.000 C 
BRANCH  30  31
ATOM     31  C   UNL     1      37.096  38.743  20.809  1.00  0.00    -0.003 C 
ATOM     32  C   UNL     1      38.549  39.197  20.930  1.00  0.00     0.004 C 
ENDBRANCH  30  31
ENDBRANCH  29  30
ENDBRANCH  28  29
ENDBRANCH  27  28
ENDBRANCH  26  27
ENDBRANCH  25  26
ENDBRANCH  24  25
ENDBRANCH  23  24
ENDBRANCH  22  23
ENDBRANCH  21  22
ENDBRANCH  20  21
ENDBRANCH  19  20
ENDBRANCH  18  19
ENDBRANCH   1  18
TORSDOF 28
ENDMDL
MODEL 4
REMARK VINA RESULT:     7.427      1.582      4.028
REMARK INTER + INTRA:          18.950
REMARK INTER:                  18.965
REMARK INTRA:                  -0.015
REMARK UNBOUND:                -0.634
REMARK SMILES CCCCCCCCCCCCCCCCCCCCCCCCCCCCCC(=O)[O-]
REMARK SMILES IDX 16 1 17 2 18 3 19 4 20 5 21 6 22 7 23 8 24 9 25 10 26 11
REMARK SMILES IDX 27 12 28 13 29 14 30 15 31 16 32 17 15 18 14 19 13 20 12 21
REMARK SMILES IDX 11 22 10 23 9 24 8 25 7 26 6 27 5 28 4 29 3 30 2 31 1 32
REMARK H PARENT
REMARK Flexibility Score: inf
ROOT
ATOM      1  C   UNL     1      40.850  44.350  24.132  1.00  0.00     0.000 C 
ENDROOT
BRANCH   1   2
ATOM      2  C   UNL     1      41.087  45.184  22.854  1.00  0.00     0.000 C 
BRANCH   2   3
ATOM      3  C   UNL     1      40.370  44.690  21.577  1.00  0.00     0.000 C 
BRANCH   3   4
ATOM      4  C   UNL     1      41.111  43.580  20.808  1.00  0.00     0.000 C 
BRANCH   4   5
ATOM      5  C   UNL     1      40.284  42.978  19.658  1.00  0.00     0.000 C 
BRANCH   5   6
ATOM      6  C   UNL     1      41.124  42.710  18.390  1.00  0.00     0.000 C 
BRANCH   6   7
ATOM      7  C   UNL     1      40.934  41.302  17.801  1.00  0.00     0.000 C 
BRANCH   7   8
ATOM      8  C   UNL     1      40.779  40.221  18.882  1.00  0.00     0.000 C 
BRANCH   8   9
ATOM      9  C   UNL     1      41.125  38.809  18.379  1.00  0.00     0.000 C 
BRANCH   9  10
ATOM     10  C   UNL     1      40.516  38.428  17.014  1.00  0.00     0.000 C 
BRANCH  10  11
ATOM     11  C   UNL     1      40.311  36.912  16.817  1.00  0.00     0.000 C 
BRANCH  11  12
ATOM     12  C   UNL     1      40.715  36.103  18.064  1.00  0.00     0.000 C 
BRANCH  12  13
ATOM     13  C   UNL     1      39.514  35.439  18.760  1.00  0.00     0.006 C 
BRANCH  13  14
ATOM     14  C   UNL     1      38.206  36.242  18.657  1.00  0.00     0.053 C 
BRANCH  14  15
ATOM     15  C   UNL     1      37.823  36.864  19.965  1.00  0.00     0.041 C 
ATOM     16  O   UNL     1      37.886  38.113  20.118  1.00  0.00    -0.550 OA
ATOM     17  O   UNL     1      37.407  36.063  21.020  1.00  0.00    -0.550 OA
ENDBRANCH  14  15
ENDBRANCH  13  14
ENDBRANCH  12  13
ENDBRANCH  11  12
ENDBRANCH  10  11
ENDBRANCH   9  10
ENDBRANCH   8   9
ENDBRANCH   7   8
ENDBRANCH   6   7
ENDBRANCH   5   6
ENDBRANCH   4   5
ENDBRANCH   3   4
ENDBRANCH   2   3
ENDBRANCH   1   2
BRANCH   1  18
ATOM     18  C   UNL     1      39.382  44.181  24.566  1.00  0.00     0.000 C 
BRANCH  18  19
ATOM     19  C   UNL     1      38.631  45.514  24.690  1.00  0.00     0.000 C 
BRANCH  19  20
ATOM     20  C   UNL     1      37.514  45.610  23.641  1.00  0.00     0.000 C 
BRANCH  20  21
ATOM     21  C   UNL     1      36.424  46.629  24.016  1.00  0.00     0.000 C 
BRANCH  21  22
ATOM     22  C   UNL     1      35.715  47.296  22.818  1.00  0.00     0.000 C 
BRANCH  22  23
ATOM     23  C   UNL     1      34.674  46.416  22.101  1.00  0.00     0.000 C 
BRANCH  23  24
ATOM     24  C   UNL     1      33.215  46.624  22.556  1.00  0.00    -0.000 C 
BRANCH  24  25
ATOM     25  C   UNL     1      32.891  46.105  23.969  1.00  0.00    -0.000 C 
BRANCH  25  26
ATOM     26  C   UNL     1      34.126  45.554  24.700  1.00  0.00    -0.000 C 
BRANCH  26  27
ATOM     27  C   UNL     1      34.323  46.172  26.097  1.00  0.00    -0.000 C 
BRANCH  27  28
ATOM     28  C   UNL     1      33.923  47.656  26.227  1.00  0.00    -0.000 C 
BRANCH  28  29
ATOM     29  C   UNL     1      32.538  47.908  26.850  1.00  0.00    -0.000 C 
BRANCH  29  30
ATOM     30  C   UNL     1      31.554  48.566  25.872  1.00  0.00    -0.000 C 
BRANCH  30  31
ATOM     31  C   UNL     1      30.127  48.543  26.429  1.00  0.00    -0.003 C 
ATOM     32  C   UNL     1      29.574  47.121  26.478  1.00  0.00     0.004 C 
ENDBRANCH  30  31
ENDBRANCH  29  30
ENDBRANCH  28  29
ENDBRANCH  27  28
ENDBRANCH  26  27
ENDBRANCH  25  26
ENDBRANCH  24  25
ENDBRANCH  23  24
ENDBRANCH  22  23
ENDBRANCH  21  22
ENDBRANCH  20  21
ENDBRANCH  19  20
ENDBRANCH  18  19
ENDBRANCH   1  18
TORSDOF 28
ENDMDL
