MODEL 1
REMARK VINA RESULT:    -4.003      0.000      0.000
REMARK INTER + INTRA:          -5.338
REMARK INTER:                  -5.641
REMARK INTRA:                   0.303
REMARK UNBOUND:                 0.303
REMARK SMILES CC1=CCC(=C(C)C)C(=O)CC(C)=CCC1
REMARK SMILES IDX 12 1 14 2 13 3 15 4 16 5 2 6 1 7 3 8 11 10 9 11 10 12 5 13
REMARK SMILES IDX 6 14 7 15 8 16 4 17
REMARK H PARENT
REMARK Flexibility Score: 60.00
ROOT
ATOM      1  C   UNL     1      49.516  22.390  20.159  1.00  0.00    -0.070 C 
ATOM      2  C   UNL     1      49.948  22.119  18.904  1.00  0.00    -0.027 C 
ATOM      3  C   UNL     1      48.377  21.565  20.705  1.00  0.00     0.039 C 
ENDROOT
BRANCH   2   4
ATOM      4  C   UNL     1      51.056  22.853  18.191  1.00  0.00     0.032 C 
BRANCH   4   5
ATOM      5  C   UNL     1      50.491  23.815  17.132  1.00  0.00     0.034 C 
BRANCH   5   6
ATOM      6  C   UNL     1      51.209  25.151  17.090  1.00  0.00    -0.077 C 
ATOM      7  C   UNL     1      52.414  25.294  16.192  1.00  0.00     0.039 C 
ATOM      8  C   UNL     1      50.783  26.256  17.750  1.00  0.00    -0.023 CG0
ATOM      9  G   UNL     1      49.674  26.331  18.778  1.00  0.00     0.000 G0
ENDBRANCH   5   6
ENDBRANCH   4   5
ENDBRANCH   2   4
BRANCH   1  10
ATOM     10  C   UNL     1      50.129  23.470  21.041  1.00  0.00     0.111 C 
BRANCH  10  11
ATOM     11  C   UNL     1      49.425  24.795  20.862  1.00  0.00     0.163 C 
ATOM     12  O   UNL     1      48.239  24.867  21.287  1.00  0.00    -0.294 OA
BRANCH  11  13
ATOM     13  C   UNL     1      50.051  25.999  20.205  1.00  0.00    -0.002 C 
ATOM     14  C   UNL     1      50.954  26.783  20.875  1.00  0.00    -0.069 C 
ATOM     15  C   UNL     1      51.533  28.035  20.249  1.00  0.00     0.039 C 
ATOM     16  C   UNL     1      51.468  26.420  22.250  1.00  0.00     0.039 C 
BRANCH  13  17
ATOM     17  C   UNL     1      49.658  26.351  18.773  1.00  0.00     0.066 CG0
ATOM     18  G   UNL     1      50.785  26.246  17.767  1.00  0.00     0.000 G0
ENDBRANCH  13  17
ENDBRANCH  11  13
ENDBRANCH  10  11
ENDBRANCH   1  10
TORSDOF 0
ENDMDL
MODEL 2
REMARK VINA RESULT:    -3.987      1.897      3.775
REMARK INTER + INTRA:          -5.315
REMARK INTER:                  -5.509
REMARK INTRA:                   0.194
REMARK UNBOUND:                 0.303
REMARK SMILES CC1=CCC(=C(C)C)C(=O)CC(C)=CCC1
REMARK SMILES IDX 12 1 14 2 13 3 15 4 16 5 2 6 1 7 3 8 11 10 9 11 10 12 5 13
REMARK SMILES IDX 6 14 7 15 8 16 4 17
REMARK H PARENT
REMARK Flexibility Score: 60.00
ROOT
ATOM      1  C   UNL     1      49.481  21.870  19.577  1.00  0.00    -0.070 C 
ATOM      2  C   UNL     1      48.744  22.330  20.617  1.00  0.00    -0.027 C 
ATOM      3  C   UNL     1      49.966  20.443  19.635  1.00  0.00     0.039 C 
ENDROOT
BRANCH   2   4
ATOM      4  C   UNL     1      48.197  23.730  20.739  1.00  0.00     0.032 C 
BRANCH   4   5
ATOM      5  C   UNL     1      49.237  24.680  21.356  1.00  0.00     0.034 C 
BRANCH   5   6
ATOM      6  C   UNL     1      49.452  25.945  20.546  1.00  0.00    -0.077 C 
ATOM      7  C   UNL     1      48.359  26.987  20.533  1.00  0.00     0.039 C 
ATOM      8  C   UNL     1      50.605  26.237  19.896  1.00  0.00    -0.023 CG0
ATOM      9  G   UNL     1      51.788  25.315  19.684  1.00  0.00     0.000 G0
ENDBRANCH   5   6
ENDBRANCH   4   5
ENDBRANCH   2   4
BRANCH   1  10
ATOM     10  C   UNL     1      49.829  22.715  18.359  1.00  0.00     0.111 C 
BRANCH  10  11
ATOM     11  C   UNL     1      51.284  23.120  18.363  1.00  0.00     0.163 C 
ATOM     12  O   UNL     1      52.131  22.185  18.387  1.00  0.00    -0.294 OA
BRANCH  11  13
ATOM     13  C   UNL     1      51.760  24.551  18.357  1.00  0.00    -0.002 C 
ATOM     14  C   UNL     1      52.165  25.158  17.197  1.00  0.00    -0.069 C 
ATOM     15  C   UNL     1      52.713  26.570  17.191  1.00  0.00     0.039 C 
ATOM     16  C   UNL     1      52.039  24.481  15.850  1.00  0.00     0.039 C 
BRANCH  13  17
ATOM     17  C   UNL     1      51.800  25.326  19.671  1.00  0.00     0.066 CG0
ATOM     18  G   UNL     1      50.600  26.216  19.913  1.00  0.00     0.000 G0
ENDBRANCH  13  17
ENDBRANCH  11  13
ENDBRANCH  10  11
ENDBRANCH   1  10
TORSDOF 0
ENDMDL
MODEL 3
REMARK VINA RESULT:    -3.837      1.700      3.725
REMARK INTER + INTRA:          -5.105
REMARK INTER:                  -5.404
REMARK INTRA:                   0.299
REMARK UNBOUND:                 0.303
REMARK SMILES CC1=CCC(=C(C)C)C(=O)CC(C)=CCC1
REMARK SMILES IDX 12 1 14 2 13 3 15 4 16 5 2 6 1 7 3 8 11 10 9 11 10 12 5 13
REMARK SMILES IDX 6 14 7 15 8 16 4 17
REMARK H PARENT
REMARK Flexibility Score: 60.00
ROOT
ATOM      1  C   UNL     1      50.375  22.930  19.621  1.00  0.00    -0.070 C 
ATOM      2  C   UNL     1      50.120  23.471  20.837  1.00  0.00    -0.027 C 
ATOM      3  C   UNL     1      49.433  21.868  19.111  1.00  0.00     0.039 C 
ENDROOT
BRANCH   2   4
ATOM      4  C   UNL     1      50.962  24.523  21.513  1.00  0.00     0.032 C 
BRANCH   4   5
ATOM      5  C   UNL     1      50.172  25.830  21.700  1.00  0.00     0.034 C 
BRANCH   5   6
ATOM      6  C   UNL     1      49.352  26.216  20.484  1.00  0.00    -0.077 C 
ATOM      7  C   UNL     1      47.847  26.126  20.571  1.00  0.00     0.039 C 
ATOM      8  C   UNL     1      49.886  26.719  19.343  1.00  0.00    -0.023 CG0
ATOM      9  G   UNL     1      51.355  26.804  18.988  1.00  0.00     0.000 G0
ENDBRANCH   5   6
ENDBRANCH   4   5
ENDBRANCH   2   4
BRANCH   1  10
ATOM     10  C   UNL     1      51.553  23.348  18.751  1.00  0.00     0.111 C 
BRANCH  10  11
ATOM     11  C   UNL     1      51.180  24.478  17.820  1.00  0.00     0.163 C 
ATOM     12  O   UNL     1      50.304  24.226  16.947  1.00  0.00    -0.294 OA
BRANCH  11  13
ATOM     13  C   UNL     1      51.799  25.852  17.873  1.00  0.00    -0.002 C 
ATOM     14  C   UNL     1      52.751  26.236  16.965  1.00  0.00    -0.069 C 
ATOM     15  C   UNL     1      53.432  27.586  17.054  1.00  0.00     0.039 C 
ATOM     16  C   UNL     1      53.142  25.362  15.793  1.00  0.00     0.039 C 
BRANCH  13  17
ATOM     17  C   UNL     1      51.360  26.822  18.967  1.00  0.00     0.066 CG0
ATOM     18  G   UNL     1      49.896  26.730  19.339  1.00  0.00     0.000 G0
ENDBRANCH  13  17
ENDBRANCH  11  13
ENDBRANCH  10  11
ENDBRANCH   1  10
TORSDOF 0
ENDMDL
MODEL 4
REMARK VINA RESULT:    -3.775      1.849      2.188
REMARK INTER + INTRA:          -5.017
REMARK INTER:                  -5.157
REMARK INTRA:                   0.139
REMARK UNBOUND:                 0.303
REMARK SMILES CC1=CCC(=C(C)C)C(=O)CC(C)=CCC1
REMARK SMILES IDX 12 1 14 2 13 3 15 4 16 5 2 6 1 7 3 8 11 10 9 11 10 12 5 13
REMARK SMILES IDX 6 14 7 15 8 16 4 17
REMARK H PARENT
REMARK Flexibility Score: 60.00
ROOT
ATOM      1  C   UNL     1      51.055  24.129  20.289  1.00  0.00    -0.070 C 
ATOM      2  C   UNL     1      50.736  23.450  19.161  1.00  0.00    -0.027 C 
ATOM      3  C   UNL     1      50.120  24.014  21.468  1.00  0.00     0.039 C 
ENDROOT
BRANCH   2   4
ATOM      4  C   UNL     1      51.538  23.466  17.884  1.00  0.00     0.032 C 
BRANCH   4   5
ATOM      5  C   UNL     1      50.855  24.332  16.811  1.00  0.00     0.034 C 
BRANCH   5   6
ATOM      6  C   UNL     1      51.533  25.673  16.601  1.00  0.00    -0.077 C 
ATOM      7  C   UNL     1      52.651  25.766  15.592  1.00  0.00     0.039 C 
ATOM      8  C   UNL     1      51.138  26.820  17.208  1.00  0.00    -0.023 CG0
ATOM      9  G   UNL     1      50.121  26.957  18.321  1.00  0.00     0.000 G0
ENDBRANCH   5   6
ENDBRANCH   4   5
ENDBRANCH   2   4
BRANCH   1  10
ATOM     10  C   UNL     1      52.307  24.985  20.426  1.00  0.00     0.111 C 
BRANCH  10  11
ATOM     11  C   UNL     1      52.060  26.404  19.971  1.00  0.00     0.163 C 
ATOM     12  O   UNL     1      53.079  27.129  19.805  1.00  0.00    -0.294 OA
BRANCH  11  13
ATOM     13  C   UNL     1      50.690  26.984  19.729  1.00  0.00    -0.002 C 
ATOM     14  C   UNL     1      49.962  27.534  20.752  1.00  0.00    -0.069 C 
ATOM     15  C   UNL     1      48.556  28.054  20.534  1.00  0.00     0.039 C 
ATOM     16  C   UNL     1      50.533  27.706  22.143  1.00  0.00     0.039 C 
BRANCH  13  17
ATOM     17  C   UNL     1      50.105  26.945  18.320  1.00  0.00     0.066 CG0
ATOM     18  G   UNL     1      51.134  26.833  17.215  1.00  0.00     0.000 G0
ENDBRANCH  13  17
ENDBRANCH  11  13
ENDBRANCH  10  11
ENDBRANCH   1  10
TORSDOF 0
ENDMDL
MODEL 5
REMARK VINA RESULT:    -3.677      1.858      3.880
REMARK INTER + INTRA:          -4.879
REMARK INTER:                  -5.103
REMARK INTRA:                   0.224
REMARK UNBOUND:                 0.303
REMARK SMILES CC1=CCC(=C(C)C)C(=O)CC(C)=CCC1
REMARK SMILES IDX 12 1 14 2 13 3 15 4 16 5 2 6 1 7 3 8 11 10 9 11 10 12 5 13
REMARK SMILES IDX 6 14 7 15 8 16 4 17
REMARK H PARENT
REMARK Flexibility Score: 60.00
ROOT
ATOM      1  C   UNL     1      49.080  24.207  21.069  1.00  0.00    -0.070 C 
ATOM      2  C   UNL     1      47.956  24.963  21.112  1.00  0.00    -0.027 C 
ATOM      3  C   UNL     1      48.978  22.829  20.462  1.00  0.00     0.039 C 
ENDROOT
BRANCH   2   4
ATOM      4  C   UNL     1      47.867  26.349  21.699  1.00  0.00     0.032 C 
BRANCH   4   5
ATOM      5  C   UNL     1      47.908  27.422  20.597  1.00  0.00     0.034 C 
BRANCH   5   6
ATOM      6  C   UNL     1      49.268  28.077  20.446  1.00  0.00    -0.077 C 
ATOM      7  C   UNL     1      49.577  29.297  21.280  1.00  0.00     0.039 C 
ATOM      8  C   UNL     1      50.260  27.583  19.665  1.00  0.00    -0.023 CG0
ATOM      9  G   UNL     1      50.154  26.445  18.673  1.00  0.00     0.000 G0
ENDBRANCH   5   6
ENDBRANCH   4   5
ENDBRANCH   2   4
BRANCH   1  10
ATOM     10  C   UNL     1      50.429  24.682  21.590  1.00  0.00     0.111 C 
BRANCH  10  11
ATOM     11  C   UNL     1      51.385  24.981  20.459  1.00  0.00     0.163 C 
ATOM     12  O   UNL     1      52.606  25.078  20.762  1.00  0.00    -0.294 OA
BRANCH  11  13
ATOM     13  C   UNL     1      50.959  25.181  19.026  1.00  0.00    -0.002 C 
ATOM     14  C   UNL     1      51.279  24.266  18.058  1.00  0.00    -0.069 C 
ATOM     15  C   UNL     1      50.919  24.492  16.604  1.00  0.00     0.039 C 
ATOM     16  C   UNL     1      51.960  22.955  18.385  1.00  0.00     0.039 C 
BRANCH  13  17
ATOM     17  C   UNL     1      50.168  26.432  18.654  1.00  0.00     0.066 CG0
ATOM     18  G   UNL     1      50.268  27.561  19.658  1.00  0.00     0.000 G0
ENDBRANCH  13  17
ENDBRANCH  11  13
ENDBRANCH  10  11
ENDBRANCH   1  10
TORSDOF 0
ENDMDL
MODEL 6
REMARK VINA RESULT:    -3.614      1.706      2.452
REMARK INTER + INTRA:          -4.789
REMARK INTER:                  -4.922
REMARK INTRA:                   0.132
REMARK UNBOUND:                 0.303
REMARK SMILES CC1=CCC(=C(C)C)C(=O)CC(C)=CCC1
REMARK SMILES IDX 12 1 14 2 13 3 15 4 16 5 2 6 1 7 3 8 11 10 9 11 10 12 5 13
REMARK SMILES IDX 6 14 7 15 8 16 4 17
REMARK H PARENT
REMARK Flexibility Score: 60.00
ROOT
ATOM      1  C   UNL     1      50.886  23.442  18.291  1.00  0.00    -0.070 C 
ATOM      2  C   UNL     1      50.860  23.788  16.981  1.00  0.00    -0.027 C 
ATOM      3  C   UNL     1      49.747  22.606  18.820  1.00  0.00     0.039 C 
ENDROOT
BRANCH   2   4
ATOM      4  C   UNL     1      51.898  24.634  16.288  1.00  0.00     0.032 C 
BRANCH   4   5
ATOM      5  C   UNL     1      51.350  26.037  15.975  1.00  0.00     0.034 C 
BRANCH   5   6
ATOM      6  C   UNL     1      51.834  27.101  16.943  1.00  0.00    -0.077 C 
ATOM      7  C   UNL     1      53.054  27.910  16.574  1.00  0.00     0.039 C 
ATOM      8  C   UNL     1      51.186  27.428  18.089  1.00  0.00    -0.023 CG0
ATOM      9  G   UNL     1      50.016  26.698  18.712  1.00  0.00     0.000 G0
ENDBRANCH   5   6
ENDBRANCH   4   5
ENDBRANCH   2   4
BRANCH   1  10
ATOM     10  C   UNL     1      52.005  23.844  19.241  1.00  0.00     0.111 C 
BRANCH  10  11
ATOM     11  C   UNL     1      51.687  25.135  19.958  1.00  0.00     0.163 C 
ATOM     12  O   UNL     1      52.616  25.646  20.642  1.00  0.00    -0.294 OA
BRANCH  11  13
ATOM     13  C   UNL     1      50.343  25.817  19.907  1.00  0.00    -0.002 C 
ATOM     14  C   UNL     1      49.423  25.644  20.909  1.00  0.00    -0.069 C 
ATOM     15  C   UNL     1      48.043  26.266  20.833  1.00  0.00     0.039 C 
ATOM     16  C   UNL     1      49.744  24.873  22.170  1.00  0.00     0.039 C 
BRANCH  13  17
ATOM     17  C   UNL     1      50.004  26.704  18.712  1.00  0.00     0.066 CG0
ATOM     18  G   UNL     1      51.191  27.418  18.102  1.00  0.00     0.000 G0
ENDBRANCH  13  17
ENDBRANCH  11  13
ENDBRANCH  10  11
ENDBRANCH   1  10
TORSDOF 0
ENDMDL
MODEL 7
REMARK VINA RESULT:    -3.593      7.932     10.005
REMARK INTER + INTRA:          -4.760
REMARK INTER:                  -4.903
REMARK INTRA:                   0.143
REMARK UNBOUND:                 0.303
REMARK SMILES CC1=CCC(=C(C)C)C(=O)CC(C)=CCC1
REMARK SMILES IDX 12 1 14 2 13 3 15 4 16 5 2 6 1 7 3 8 11 10 9 11 10 12 5 13
REMARK SMILES IDX 6 14 7 15 8 16 4 17
REMARK H PARENT
REMARK Flexibility Score: 60.00
ROOT
ATOM      1  C   UNL     1      43.860  22.086  21.374  1.00  0.00    -0.070 C 
ATOM      2  C   UNL     1      44.173  23.197  20.665  1.00  0.00    -0.027 C 
ATOM      3  C   UNL     1      44.384  20.762  20.874  1.00  0.00     0.039 C 
ENDROOT
BRANCH   2   4
ATOM      4  C   UNL     1      43.720  24.595  21.001  1.00  0.00     0.032 C 
BRANCH   4   5
ATOM      5  C   UNL     1      42.282  24.844  20.515  1.00  0.00     0.034 C 
BRANCH   5   6
ATOM      6  C   UNL     1      41.415  25.552  21.540  1.00  0.00    -0.077 C 
ATOM      7  C   UNL     1      41.779  26.960  21.944  1.00  0.00     0.039 C 
ATOM      8  C   UNL     1      40.278  25.024  22.058  1.00  0.00    -0.023 CG0
ATOM      9  G   UNL     1      39.772  23.608  21.886  1.00  0.00     0.000 G0
ENDBRANCH   5   6
ENDBRANCH   4   5
ENDBRANCH   2   4
BRANCH   1  10
ATOM     10  C   UNL     1      43.023  22.112  22.645  1.00  0.00     0.111 C 
BRANCH  10  11
ATOM     11  C   UNL     1      41.579  21.768  22.365  1.00  0.00     0.163 C 
ATOM     12  O   UNL     1      41.368  20.739  21.665  1.00  0.00    -0.294 OA
BRANCH  11  13
ATOM     13  C   UNL     1      40.409  22.584  22.853  1.00  0.00    -0.002 C 
ATOM     14  C   UNL     1      39.914  22.425  24.121  1.00  0.00    -0.069 C 
ATOM     15  C   UNL     1      38.694  23.187  24.597  1.00  0.00     0.039 C 
ATOM     16  C   UNL     1      40.582  21.525  25.137  1.00  0.00     0.039 C 
BRANCH  13  17
ATOM     17  C   UNL     1      39.763  23.595  21.909  1.00  0.00     0.066 CG0
ATOM     18  G   UNL     1      40.281  25.010  22.053  1.00  0.00     0.000 G0
ENDBRANCH  13  17
ENDBRANCH  11  13
ENDBRANCH  10  11
ENDBRANCH   1  10
TORSDOF 0
ENDMDL
MODEL 8
REMARK VINA RESULT:    -3.540      1.713      3.709
REMARK INTER + INTRA:          -4.686
REMARK INTER:                  -4.773
REMARK INTRA:                   0.088
REMARK UNBOUND:                 0.303
REMARK SMILES CC1=CCC(=C(C)C)C(=O)CC(C)=CCC1
REMARK SMILES IDX 12 1 14 2 13 3 15 4 16 5 2 6 1 7 3 8 11 10 9 11 10 12 5 13
REMARK SMILES IDX 6 14 7 15 8 16 4 17
REMARK H PARENT
REMARK Flexibility Score: 60.00
ROOT
ATOM      1  C   UNL     1      51.052  27.678  18.177  1.00  0.00    -0.070 C 
ATOM      2  C   UNL     1      51.562  26.789  17.291  1.00  0.00    -0.027 C 
ATOM      3  C   UNL     1      51.874  28.902  18.498  1.00  0.00     0.039 C 
ENDROOT
BRANCH   2   4
ATOM      4  C   UNL     1      50.893  25.505  16.869  1.00  0.00     0.032 C 
BRANCH   4   5
ATOM      5  C   UNL     1      51.623  24.282  17.452  1.00  0.00     0.034 C 
BRANCH   5   6
ATOM      6  C   UNL     1      50.910  23.666  18.640  1.00  0.00    -0.077 C 
ATOM      7  C   UNL     1      49.969  22.510  18.397  1.00  0.00     0.039 C 
ATOM      8  C   UNL     1      51.129  24.037  19.926  1.00  0.00    -0.023 CG0
ATOM      9  G   UNL     1      51.938  25.224  20.405  1.00  0.00     0.000 G0
ENDBRANCH   5   6
ENDBRANCH   4   5
ENDBRANCH   2   4
BRANCH   1  10
ATOM     10  C   UNL     1      49.696  27.508  18.848  1.00  0.00     0.111 C 
BRANCH  10  11
ATOM     11  C   UNL     1      49.808  26.715  20.129  1.00  0.00     0.163 C 
ATOM     12  O   UNL     1      48.731  26.278  20.620  1.00  0.00    -0.294 OA
BRANCH  11  13
ATOM     13  C   UNL     1      51.110  26.441  20.839  1.00  0.00    -0.002 C 
ATOM     14  C   UNL     1      51.560  27.265  21.838  1.00  0.00    -0.069 C 
ATOM     15  C   UNL     1      52.900  27.040  22.507  1.00  0.00     0.039 C 
ATOM     16  C   UNL     1      50.728  28.412  22.368  1.00  0.00     0.039 C 
BRANCH  13  17
ATOM     17  C   UNL     1      51.941  25.229  20.426  1.00  0.00     0.066 CG0
ATOM     18  G   UNL     1      51.129  24.045  19.945  1.00  0.00     0.000 G0
ENDBRANCH  13  17
ENDBRANCH  11  13
ENDBRANCH  10  11
ENDBRANCH   1  10
TORSDOF 0
ENDMDL
MODEL 9
REMARK VINA RESULT:    -3.523      1.987      4.202
REMARK INTER + INTRA:          -4.661
REMARK INTER:                  -4.830
REMARK INTRA:                   0.168
REMARK UNBOUND:                 0.303
REMARK SMILES CC1=CCC(=C(C)C)C(=O)CC(C)=CCC1
REMARK SMILES IDX 12 1 14 2 13 3 15 4 16 5 2 6 1 7 3 8 11 10 9 11 10 12 5 13
REMARK SMILES IDX 6 14 7 15 8 16 4 17
REMARK H PARENT
REMARK Flexibility Score: 60.00
ROOT
ATOM      1  C   UNL     1      50.767  24.104  19.693  1.00  0.00    -0.070 C 
ATOM      2  C   UNL     1      51.092  24.322  20.990  1.00  0.00    -0.027 C 
ATOM      3  C   UNL     1      51.512  23.020  18.953  1.00  0.00     0.039 C 
ENDROOT
BRANCH   2   4
ATOM      4  C   UNL     1      50.471  25.373  21.874  1.00  0.00     0.032 C 
BRANCH   4   5
ATOM      5  C   UNL     1      51.509  26.427  22.297  1.00  0.00     0.034 C 
BRANCH   5   6
ATOM      6  C   UNL     1      51.322  27.765  21.607  1.00  0.00    -0.077 C 
ATOM      7  C   UNL     1      50.606  28.866  22.352  1.00  0.00     0.039 C 
ATOM      8  C   UNL     1      51.834  28.063  20.388  1.00  0.00    -0.023 CG0
ATOM      9  G   UNL     1      52.493  27.103  19.419  1.00  0.00     0.000 G0
ENDBRANCH   5   6
ENDBRANCH   4   5
ENDBRANCH   2   4
BRANCH   1  10
ATOM     10  C   UNL     1      49.688  24.888  18.957  1.00  0.00     0.111 C 
BRANCH  10  11
ATOM     11  C   UNL     1      50.165  26.272  18.585  1.00  0.00     0.163 C 
ATOM     12  O   UNL     1      49.285  27.173  18.518  1.00  0.00    -0.294 OA
BRANCH  11  13
ATOM     13  C   UNL     1      51.602  26.615  18.282  1.00  0.00    -0.002 C 
ATOM     14  C   UNL     1      52.110  26.486  17.015  1.00  0.00    -0.069 C 
ATOM     15  C   UNL     1      53.569  26.758  16.716  1.00  0.00     0.039 C 
ATOM     16  C   UNL     1      51.239  26.119  15.834  1.00  0.00     0.039 C 
BRANCH  13  17
ATOM     17  C   UNL     1      52.503  27.103  19.413  1.00  0.00     0.066 CG0
ATOM     18  G   UNL     1      51.838  28.059  20.379  1.00  0.00     0.000 G0
ENDBRANCH  13  17
ENDBRANCH  11  13
ENDBRANCH  10  11
ENDBRANCH   1  10
TORSDOF 0
ENDMDL
