MODEL 1
REMARK VINA RESULT:    -4.872      0.000      0.000
REMARK INTER + INTRA:          -7.875
REMARK INTER:                  -7.435
REMARK INTRA:                  -0.440
REMARK UNBOUND:                -0.440
REMARK SMILES CC1=CCC[C@H](C)C(=O)C[C@H](C(C)C)C(=O)C1
REMARK SMILES IDX 8 1 9 2 6 3 7 4 5 5 4 6 3 7 2 8 1 9 10 11 11 12 15 13 16 14
REMARK SMILES IDX 17 15 12 17 13 18 14 19
REMARK H PARENT
REMARK Flexibility Score: 70.00
ROOT
ATOM      1  C   UNL     1     -12.010 -33.658  28.734  1.00  0.00     0.136 C 
ATOM      2  O   UNL     1     -10.866 -33.447  28.360  1.00  0.00    -0.299 OA
ENDROOT
BRANCH   1   3
ATOM      3  C   UNL     1     -13.047 -34.364  27.839  1.00  0.00     0.053 C 
ATOM      4  C   UNL     1     -12.878 -33.908  26.382  1.00  0.00     0.016 C 
BRANCH   3   5
ATOM      5  C   UNL     1     -12.993 -35.943  27.905  1.00  0.00     0.015 C 
BRANCH   5   6
ATOM      6  C   UNL     1     -14.064 -36.688  28.789  1.00  0.00     0.028 C 
BRANCH   6   7
ATOM      7  C   UNL     1     -13.425 -37.579  29.862  1.00  0.00    -0.028 C 
ATOM      8  C   UNL     1     -13.284 -37.370  31.213  1.00  0.00    -0.070 CG0
ATOM      9  C   UNL     1     -12.500 -38.399  31.988  1.00  0.00     0.039 C 
ATOM     10  G   UNL     1     -13.827 -36.181  32.014  1.00  0.00     0.000 G0
ENDBRANCH   6   7
ENDBRANCH   5   6
ENDBRANCH   3   5
ENDBRANCH   1   3
BRANCH   1  11
ATOM     11  C   UNL     1     -12.483 -33.176  30.051  1.00  0.00     0.087 C 
BRANCH  11  12
ATOM     12  C   UNL     1     -13.659 -33.736  30.847  1.00  0.00     0.066 C 
BRANCH  12  13
ATOM     13  C   UNL     1     -13.124 -34.848  31.792  1.00  0.00     0.140 C 
ATOM     14  O   UNL     1     -12.131 -34.616  32.465  1.00  0.00    -0.299 OA
BRANCH  13  15
ATOM     15  C   UNL     1     -13.845 -36.196  32.025  1.00  0.00     0.106 CG0
ATOM     16  G   UNL     1     -13.275 -37.360  31.204  1.00  0.00     0.000 G0
ENDBRANCH  13  15
ENDBRANCH  12  13
BRANCH  12  17
ATOM     17  C   UNL     1     -14.428 -32.590  31.576  1.00  0.00    -0.006 C 
ATOM     18  C   UNL     1     -15.328 -33.080  32.725  1.00  0.00     0.008 C 
ATOM     19  C   UNL     1     -15.241 -31.734  30.592  1.00  0.00     0.008 C 
ENDBRANCH  12  17
ENDBRANCH  11  12
ENDBRANCH   1  11
TORSDOF 1
ENDMDL
MODEL 2
REMARK VINA RESULT:    -4.718      2.039      3.353
REMARK INTER + INTRA:          -7.640
REMARK INTER:                  -7.272
REMARK INTRA:                  -0.368
REMARK UNBOUND:                -0.440
REMARK SMILES CC1=CCC[C@H](C)C(=O)C[C@H](C(C)C)C(=O)C1
REMARK SMILES IDX 8 1 9 2 6 3 7 4 5 5 4 6 3 7 2 8 1 9 10 11 11 12 15 13 16 14
REMARK SMILES IDX 17 15 12 17 13 18 14 19
REMARK H PARENT
REMARK Flexibility Score: 70.00
ROOT
ATOM      1  C   UNL     1     -13.661 -33.159  30.622  1.00  0.00     0.136 C 
ATOM      2  O   UNL     1     -14.704 -33.115  31.259  1.00  0.00    -0.299 OA
ENDROOT
BRANCH   1   3
ATOM      3  C   UNL     1     -13.636 -33.067  29.084  1.00  0.00     0.053 C 
ATOM      4  C   UNL     1     -14.360 -31.793  28.625  1.00  0.00     0.016 C 
BRANCH   3   5
ATOM      5  C   UNL     1     -12.185 -33.102  28.456  1.00  0.00     0.015 C 
BRANCH   5   6
ATOM      6  C   UNL     1     -11.671 -34.461  27.847  1.00  0.00     0.028 C 
BRANCH   6   7
ATOM      7  C   UNL     1     -12.651 -35.619  28.080  1.00  0.00    -0.028 C 
ATOM      8  C   UNL     1     -12.727 -36.514  29.121  1.00  0.00    -0.070 CG0
ATOM      9  C   UNL     1     -13.746 -37.619  29.001  1.00  0.00     0.039 C 
ATOM     10  G   UNL     1     -11.863 -36.517  30.388  1.00  0.00     0.000 G0
ENDBRANCH   6   7
ENDBRANCH   5   6
ENDBRANCH   3   5
ENDBRANCH   1   3
BRANCH   1  11
ATOM     11  C   UNL     1     -12.364 -33.381  31.299  1.00  0.00     0.087 C 
BRANCH  11  12
ATOM     12  C   UNL     1     -12.030 -34.521  32.257  1.00  0.00     0.066 C 
BRANCH  12  13
ATOM     13  C   UNL     1     -12.530 -35.851  31.626  1.00  0.00     0.140 C 
ATOM     14  O   UNL     1     -13.554 -36.355  32.060  1.00  0.00    -0.299 OA
BRANCH  13  15
ATOM     15  C   UNL     1     -11.873 -36.516  30.394  1.00  0.00     0.106 CG0
ATOM     16  G   UNL     1     -12.747 -36.501  29.135  1.00  0.00     0.000 G0
ENDBRANCH  13  15
ENDBRANCH  12  13
BRANCH  12  17
ATOM     17  C   UNL     1     -10.511 -34.514  32.617  1.00  0.00    -0.006 C 
ATOM     18  C   UNL     1     -10.055 -35.754  33.407  1.00  0.00     0.008 C 
ATOM     19  C   UNL     1     -10.108 -33.232  33.362  1.00  0.00     0.008 C 
ENDBRANCH  12  17
ENDBRANCH  11  12
ENDBRANCH   1  11
TORSDOF 1
ENDMDL
MODEL 3
REMARK VINA RESULT:    -4.715      1.773      3.885
REMARK INTER + INTRA:          -7.636
REMARK INTER:                  -7.513
REMARK INTRA:                  -0.124
REMARK UNBOUND:                -0.440
REMARK SMILES CC1=CCC[C@H](C)C(=O)C[C@H](C(C)C)C(=O)C1
REMARK SMILES IDX 8 1 9 2 6 3 7 4 5 5 4 6 3 7 2 8 1 9 10 11 11 12 15 13 16 14
REMARK SMILES IDX 17 15 12 17 13 18 14 19
REMARK H PARENT
REMARK Flexibility Score: 70.00
ROOT
ATOM      1  C   UNL     1     -10.920 -33.187  31.075  1.00  0.00     0.136 C 
ATOM      2  O   UNL     1      -9.875 -32.560  31.177  1.00  0.00    -0.299 OA
ENDROOT
BRANCH   1   3
ATOM      3  C   UNL     1     -11.626 -33.807  32.295  1.00  0.00     0.053 C 
ATOM      4  C   UNL     1     -11.073 -33.191  33.589  1.00  0.00     0.016 C 
BRANCH   3   5
ATOM      5  C   UNL     1     -13.201 -33.662  32.276  1.00  0.00     0.015 C 
BRANCH   5   6
ATOM      6  C   UNL     1     -14.047 -34.821  31.626  1.00  0.00     0.028 C 
BRANCH   6   7
ATOM      7  C   UNL     1     -13.506 -36.213  31.978  1.00  0.00    -0.028 C 
ATOM      8  C   UNL     1     -12.795 -37.104  31.209  1.00  0.00    -0.070 CG0
ATOM      9  C   UNL     1     -12.502 -38.453  31.816  1.00  0.00     0.039 C 
ATOM     10  G   UNL     1     -12.284 -36.872  29.782  1.00  0.00     0.000 G0
ENDBRANCH   6   7
ENDBRANCH   5   6
ENDBRANCH   3   5
ENDBRANCH   1   3
BRANCH   1  11
ATOM     11  C   UNL     1     -11.525 -33.447  29.749  1.00  0.00     0.087 C 
BRANCH  11  12
ATOM     12  C   UNL     1     -11.175 -34.596  28.808  1.00  0.00     0.066 C 
BRANCH  12  13
ATOM     13  C   UNL     1     -11.110 -35.907  29.641  1.00  0.00     0.140 C 
ATOM     14  O   UNL     1     -10.113 -36.124  30.312  1.00  0.00    -0.299 OA
BRANCH  13  15
ATOM     15  C   UNL     1     -12.287 -36.902  29.768  1.00  0.00     0.106 CG0
ATOM     16  G   UNL     1     -12.785 -37.102  31.204  1.00  0.00     0.000 G0
ENDBRANCH  13  15
ENDBRANCH  12  13
BRANCH  12  17
ATOM     17  C   UNL     1     -12.170 -34.649  27.606  1.00  0.00    -0.006 C 
ATOM     18  C   UNL     1     -11.479 -34.687  26.230  1.00  0.00     0.008 C 
ATOM     19  C   UNL     1     -13.188 -33.500  27.658  1.00  0.00     0.008 C 
ENDBRANCH  12  17
ENDBRANCH  11  12
ENDBRANCH   1  11
TORSDOF 1
ENDMDL
MODEL 4
REMARK VINA RESULT:    -4.607      2.178      3.947
REMARK INTER + INTRA:          -7.471
REMARK INTER:                  -7.133
REMARK INTRA:                  -0.338
REMARK UNBOUND:                -0.440
REMARK SMILES CC1=CCC[C@H](C)C(=O)C[C@H](C(C)C)C(=O)C1
REMARK SMILES IDX 8 1 9 2 6 3 7 4 5 5 4 6 3 7 2 8 1 9 10 11 11 12 15 13 16 14
REMARK SMILES IDX 17 15 12 17 13 18 14 19
REMARK H PARENT
REMARK Flexibility Score: 70.00
ROOT
ATOM      1  C   UNL     1     -13.190 -34.678  28.100  1.00  0.00     0.136 C 
ATOM      2  O   UNL     1     -13.987 -34.325  27.243  1.00  0.00    -0.299 OA
ENDROOT
BRANCH   1   3
ATOM      3  C   UNL     1     -11.679 -34.788  27.817  1.00  0.00     0.053 C 
ATOM      4  C   UNL     1     -11.410 -34.584  26.319  1.00  0.00     0.016 C 
BRANCH   3   5
ATOM      5  C   UNL     1     -10.788 -33.784  28.653  1.00  0.00     0.015 C 
BRANCH   5   6
ATOM      6  C   UNL     1      -9.875 -34.372  29.794  1.00  0.00     0.028 C 
BRANCH   6   7
ATOM      7  C   UNL     1      -9.937 -33.541  31.084  1.00  0.00    -0.028 C 
ATOM      8  C   UNL     1     -10.626 -33.773  32.251  1.00  0.00    -0.070 CG0
ATOM      9  C   UNL     1     -10.569 -32.698  33.306  1.00  0.00     0.039 C 
ATOM     10  G   UNL     1     -11.468 -35.011  32.582  1.00  0.00     0.000 G0
ENDBRANCH   6   7
ENDBRANCH   5   6
ENDBRANCH   3   5
ENDBRANCH   1   3
BRANCH   1  11
ATOM     11  C   UNL     1     -13.650 -35.092  29.444  1.00  0.00     0.087 C 
BRANCH  11  12
ATOM     12  C   UNL     1     -12.869 -35.944  30.442  1.00  0.00     0.066 C 
BRANCH  12  13
ATOM     13  C   UNL     1     -12.769 -35.160  31.780  1.00  0.00     0.140 C 
ATOM     14  O   UNL     1     -13.792 -34.710  32.272  1.00  0.00    -0.299 OA
BRANCH  13  15
ATOM     15  C   UNL     1     -11.461 -35.016  32.594  1.00  0.00     0.106 CG0
ATOM     16  G   UNL     1     -10.639 -33.770  32.242  1.00  0.00     0.000 G0
ENDBRANCH  13  15
ENDBRANCH  12  13
BRANCH  12  17
ATOM     17  C   UNL     1     -13.506 -37.363  30.575  1.00  0.00    -0.006 C 
ATOM     18  C   UNL     1     -12.769 -38.283  31.566  1.00  0.00     0.008 C 
ATOM     19  C   UNL     1     -13.647 -38.055  29.211  1.00  0.00     0.008 C 
ENDBRANCH  12  17
ENDBRANCH  11  12
ENDBRANCH   1  11
TORSDOF 1
ENDMDL
MODEL 5
REMARK VINA RESULT:    -4.552      2.275      4.654
REMARK INTER + INTRA:          -7.387
REMARK INTER:                  -7.200
REMARK INTRA:                  -0.187
REMARK UNBOUND:                -0.440
REMARK SMILES CC1=CCC[C@H](C)C(=O)C[C@H](C(C)C)C(=O)C1
REMARK SMILES IDX 8 1 9 2 6 3 7 4 5 5 4 6 3 7 2 8 1 9 10 11 11 12 15 13 16 14
REMARK SMILES IDX 17 15 12 17 13 18 14 19
REMARK H PARENT
REMARK Flexibility Score: 70.00
ROOT
ATOM      1  C   UNL     1     -13.416 -36.578  29.257  1.00  0.00     0.136 C 
ATOM      2  O   UNL     1     -14.327 -36.688  28.449  1.00  0.00    -0.299 OA
ENDROOT
BRANCH   1   3
ATOM      3  C   UNL     1     -13.494 -37.192  30.668  1.00  0.00     0.053 C 
ATOM      4  C   UNL     1     -12.904 -38.610  30.655  1.00  0.00     0.016 C 
BRANCH   3   5
ATOM      5  C   UNL     1     -12.779 -36.335  31.789  1.00  0.00     0.015 C 
BRANCH   5   6
ATOM      6  C   UNL     1     -13.261 -34.852  32.013  1.00  0.00     0.028 C 
BRANCH   6   7
ATOM      7  C   UNL     1     -12.135 -33.936  32.512  1.00  0.00    -0.028 C 
ATOM      8  C   UNL     1     -10.878 -33.724  31.999  1.00  0.00    -0.070 CG0
ATOM      9  C   UNL     1      -9.954 -32.835  32.793  1.00  0.00     0.039 C 
ATOM     10  G   UNL     1     -10.308 -34.317  30.705  1.00  0.00     0.000 G0
ENDBRANCH   6   7
ENDBRANCH   5   6
ENDBRANCH   3   5
ENDBRANCH   1   3
BRANCH   1  11
ATOM     11  C   UNL     1     -12.211 -35.779  28.942  1.00  0.00     0.087 C 
BRANCH  11  12
ATOM     12  C   UNL     1     -12.169 -34.275  28.680  1.00  0.00     0.066 C 
BRANCH  12  13
ATOM     13  C   UNL     1     -10.930 -33.687  29.411  1.00  0.00     0.140 C 
ATOM     14  O   UNL     1     -10.467 -32.628  29.016  1.00  0.00    -0.299 OA
BRANCH  13  15
ATOM     15  C   UNL     1     -10.316 -34.303  30.690  1.00  0.00     0.106 CG0
ATOM     16  G   UNL     1     -10.865 -33.712  31.994  1.00  0.00     0.000 G0
ENDBRANCH  13  15
ENDBRANCH  12  13
BRANCH  12  17
ATOM     17  C   UNL     1     -12.211 -33.980  27.148  1.00  0.00    -0.006 C 
ATOM     18  C   UNL     1     -13.637 -33.884  26.574  1.00  0.00     0.008 C 
ATOM     19  C   UNL     1     -11.384 -34.998  26.349  1.00  0.00     0.008 C 
ENDBRANCH  12  17
ENDBRANCH  11  12
ENDBRANCH   1  11
TORSDOF 1
ENDMDL
MODEL 6
REMARK VINA RESULT:    -4.472      2.167      2.452
REMARK INTER + INTRA:          -7.265
REMARK INTER:                  -7.424
REMARK INTRA:                   0.159
REMARK UNBOUND:                -0.440
REMARK SMILES CC1=CCC[C@H](C)C(=O)C[C@H](C(C)C)C(=O)C1
REMARK SMILES IDX 8 1 9 2 6 3 7 4 5 5 4 6 3 7 2 8 1 9 10 11 11 12 15 13 16 14
REMARK SMILES IDX 17 15 12 17 13 18 14 19
REMARK H PARENT
REMARK Flexibility Score: 70.00
ROOT
ATOM      1  C   UNL     1     -13.498 -33.511  27.869  1.00  0.00     0.136 C 
ATOM      2  O   UNL     1     -14.194 -32.854  27.109  1.00  0.00    -0.299 OA
ENDROOT
BRANCH   1   3
ATOM      3  C   UNL     1     -12.922 -34.884  27.472  1.00  0.00     0.053 C 
ATOM      4  C   UNL     1     -11.923 -34.718  26.317  1.00  0.00     0.016 C 
BRANCH   3   5
ATOM      5  C   UNL     1     -12.227 -35.664  28.660  1.00  0.00     0.015 C 
BRANCH   5   6
ATOM      6  C   UNL     1     -10.711 -35.361  28.963  1.00  0.00     0.028 C 
BRANCH   6   7
ATOM      7  C   UNL     1     -10.332 -35.654  30.421  1.00  0.00    -0.028 C 
ATOM      8  C   UNL     1     -10.677 -34.988  31.574  1.00  0.00    -0.070 CG0
ATOM      9  C   UNL     1     -10.045 -35.465  32.856  1.00  0.00     0.039 C 
ATOM     10  G   UNL     1     -11.629 -33.791  31.686  1.00  0.00     0.000 G0
ENDBRANCH   6   7
ENDBRANCH   5   6
ENDBRANCH   3   5
ENDBRANCH   1   3
BRANCH   1  11
ATOM     11  C   UNL     1     -13.232 -33.048  29.250  1.00  0.00     0.087 C 
BRANCH  11  12
ATOM     12  C   UNL     1     -14.054 -33.391  30.489  1.00  0.00     0.066 C 
BRANCH  12  13
ATOM     13  C   UNL     1     -13.128 -34.121  31.502  1.00  0.00     0.140 C 
ATOM     14  O   UNL     1     -13.573 -35.078  32.116  1.00  0.00    -0.299 OA
BRANCH  13  15
ATOM     15  C   UNL     1     -11.631 -33.784  31.694  1.00  0.00     0.106 CG0
ATOM     16  G   UNL     1     -10.696 -34.993  31.572  1.00  0.00     0.000 G0
ENDBRANCH  13  15
ENDBRANCH  12  13
BRANCH  12  17
ATOM     17  C   UNL     1     -14.750 -32.115  31.061  1.00  0.00    -0.006 C 
ATOM     18  C   UNL     1     -15.566 -32.375  32.341  1.00  0.00     0.008 C 
ATOM     19  C   UNL     1     -15.624 -31.422  30.005  1.00  0.00     0.008 C 
ENDBRANCH  12  17
ENDBRANCH  11  12
ENDBRANCH   1  11
TORSDOF 1
ENDMDL
MODEL 7
REMARK VINA RESULT:    -4.351      2.108      4.709
REMARK INTER + INTRA:          -7.080
REMARK INTER:                  -7.734
REMARK INTRA:                   0.654
REMARK UNBOUND:                -0.440
REMARK SMILES CC1=CCC[C@H](C)C(=O)C[C@H](C(C)C)C(=O)C1
REMARK SMILES IDX 8 1 9 2 6 3 7 4 5 5 4 6 3 7 2 8 1 9 10 11 11 12 15 13 16 14
REMARK SMILES IDX 17 15 12 17 13 18 14 19
REMARK H PARENT
REMARK Flexibility Score: 70.00
ROOT
ATOM      1  C   UNL     1     -13.325 -33.779  31.946  1.00  0.00     0.136 C 
ATOM      2  O   UNL     1     -13.130 -33.252  33.032  1.00  0.00    -0.299 OA
ENDROOT
BRANCH   1   3
ATOM      3  C   UNL     1     -14.216 -33.130  30.869  1.00  0.00     0.053 C 
ATOM      4  C   UNL     1     -15.050 -32.001  31.491  1.00  0.00     0.016 C 
BRANCH   3   5
ATOM      5  C   UNL     1     -13.422 -32.572  29.621  1.00  0.00     0.015 C 
BRANCH   5   6
ATOM      6  C   UNL     1     -14.060 -32.752  28.192  1.00  0.00     0.028 C 
BRANCH   6   7
ATOM      7  C   UNL     1     -13.232 -33.679  27.291  1.00  0.00    -0.028 C 
ATOM      8  C   UNL     1     -11.956 -34.162  27.457  1.00  0.00    -0.070 CG0
ATOM      9  C   UNL     1     -11.376 -34.971  26.324  1.00  0.00     0.039 C 
ATOM     10  G   UNL     1     -11.049 -33.945  28.675  1.00  0.00     0.000 G0
ENDBRANCH   6   7
ENDBRANCH   5   6
ENDBRANCH   3   5
ENDBRANCH   1   3
BRANCH   1  11
ATOM     11  C   UNL     1     -12.768 -35.115  31.637  1.00  0.00     0.087 C 
BRANCH  11  12
ATOM     12  C   UNL     1     -12.501 -35.680  30.244  1.00  0.00     0.066 C 
BRANCH  12  13
ATOM     13  C   UNL     1     -11.150 -35.104  29.734  1.00  0.00     0.140 C 
ATOM     14  O   UNL     1     -10.113 -35.627  30.108  1.00  0.00    -0.299 OA
BRANCH  13  15
ATOM     15  C   UNL     1     -11.042 -33.976  28.680  1.00  0.00     0.106 CG0
ATOM     16  G   UNL     1     -11.936 -34.181  27.451  1.00  0.00     0.000 G0
ENDBRANCH  13  15
ENDBRANCH  12  13
BRANCH  12  17
ATOM     17  C   UNL     1     -12.569 -37.239  30.258  1.00  0.00    -0.006 C 
ATOM     18  C   UNL     1     -13.639 -37.822  29.316  1.00  0.00     0.008 C 
ATOM     19  C   UNL     1     -12.757 -37.789  31.680  1.00  0.00     0.008 C 
ENDBRANCH  12  17
ENDBRANCH  11  12
ENDBRANCH   1  11
TORSDOF 1
ENDMDL
MODEL 8
REMARK VINA RESULT:    -4.274      2.323      4.063
REMARK INTER + INTRA:          -6.962
REMARK INTER:                  -6.816
REMARK INTRA:                  -0.146
REMARK UNBOUND:                -0.440
REMARK SMILES CC1=CCC[C@H](C)C(=O)C[C@H](C(C)C)C(=O)C1
REMARK SMILES IDX 8 1 9 2 6 3 7 4 5 5 4 6 3 7 2 8 1 9 10 11 11 12 15 13 16 14
REMARK SMILES IDX 17 15 12 17 13 18 14 19
REMARK H PARENT
REMARK Flexibility Score: 70.00
ROOT
ATOM      1  C   UNL     1     -13.293 -34.307  28.566  1.00  0.00     0.136 C 
ATOM      2  O   UNL     1     -14.202 -34.859  27.964  1.00  0.00    -0.299 OA
ENDROOT
BRANCH   1   3
ATOM      3  C   UNL     1     -13.447 -32.900  29.174  1.00  0.00     0.053 C 
ATOM      4  C   UNL     1     -14.207 -31.989  28.198  1.00  0.00     0.016 C 
BRANCH   3   5
ATOM      5  C   UNL     1     -14.166 -32.876  30.582  1.00  0.00     0.015 C 
BRANCH   5   6
ATOM      6  C   UNL     1     -13.838 -34.030  31.604  1.00  0.00     0.028 C 
BRANCH   6   7
ATOM      7  C   UNL     1     -12.713 -33.652  32.577  1.00  0.00    -0.028 C 
ATOM      8  C   UNL     1     -11.349 -33.685  32.406  1.00  0.00    -0.070 CG0
ATOM      9  C   UNL     1     -10.499 -33.353  33.606  1.00  0.00     0.039 C 
ATOM     10  G   UNL     1     -10.600 -34.047  31.117  1.00  0.00     0.000 G0
ENDBRANCH   6   7
ENDBRANCH   5   6
ENDBRANCH   3   5
ENDBRANCH   1   3
BRANCH   1  11
ATOM     11  C   UNL     1     -11.960 -34.941  28.679  1.00  0.00     0.087 C 
BRANCH  11  12
ATOM     12  C   UNL     1     -11.591 -36.107  29.592  1.00  0.00     0.066 C 
BRANCH  12  13
ATOM     13  C   UNL     1     -10.699 -35.564  30.742  1.00  0.00     0.140 C 
ATOM     14  O   UNL     1      -9.963 -36.341  31.329  1.00  0.00    -0.299 OA
BRANCH  13  15
ATOM     15  C   UNL     1     -10.597 -34.065  31.114  1.00  0.00     0.106 CG0
ATOM     16  G   UNL     1     -11.343 -33.688  32.399  1.00  0.00     0.000 G0
ENDBRANCH  13  15
ENDBRANCH  12  13
BRANCH  12  17
ATOM     17  C   UNL     1     -12.872 -36.859  30.073  1.00  0.00    -0.006 C 
ATOM     18  C   UNL     1     -12.754 -37.436  31.496  1.00  0.00     0.008 C 
ATOM     19  C   UNL     1     -13.291 -37.959  29.086  1.00  0.00     0.008 C 
ENDBRANCH  12  17
ENDBRANCH  11  12
ENDBRANCH   1  11
TORSDOF 1
ENDMDL
MODEL 9
REMARK VINA RESULT:    -4.090      1.904      4.016
REMARK INTER + INTRA:          -6.682
REMARK INTER:                  -7.448
REMARK INTRA:                   0.767
REMARK UNBOUND:                -0.440
REMARK SMILES CC1=CCC[C@H](C)C(=O)C[C@H](C(C)C)C(=O)C1
REMARK SMILES IDX 8 1 9 2 6 3 7 4 5 5 4 6 3 7 2 8 1 9 10 11 11 12 15 13 16 14
REMARK SMILES IDX 17 15 12 17 13 18 14 19
REMARK H PARENT
REMARK Flexibility Score: 70.00
ROOT
ATOM      1  C   UNL     1     -13.057 -33.510  31.840  1.00  0.00     0.136 C 
ATOM      2  O   UNL     1     -13.775 -32.954  32.659  1.00  0.00    -0.299 OA
ENDROOT
BRANCH   1   3
ATOM      3  C   UNL     1     -11.591 -33.873  32.147  1.00  0.00     0.053 C 
ATOM      4  C   UNL     1     -11.138 -33.171  33.436  1.00  0.00     0.016 C 
BRANCH   3   5
ATOM      5  C   UNL     1     -11.319 -35.426  32.270  1.00  0.00     0.015 C 
BRANCH   5   6
ATOM      6  C   UNL     1     -10.982 -36.228  30.957  1.00  0.00     0.028 C 
BRANCH   6   7
ATOM      7  C   UNL     1     -12.237 -36.764  30.256  1.00  0.00    -0.028 C 
ATOM      8  C   UNL     1     -12.777 -36.431  29.036  1.00  0.00    -0.070 CG0
ATOM      9  C   UNL     1     -14.097 -37.064  28.675  1.00  0.00     0.039 C 
ATOM     10  G   UNL     1     -12.181 -35.460  28.009  1.00  0.00     0.000 G0
ENDBRANCH   6   7
ENDBRANCH   5   6
ENDBRANCH   3   5
ENDBRANCH   1   3
BRANCH   1  11
ATOM     11  C   UNL     1     -13.544 -33.800  30.473  1.00  0.00     0.087 C 
BRANCH  11  12
ATOM     12  C   UNL     1     -13.064 -33.135  29.185  1.00  0.00     0.066 C 
BRANCH  12  13
ATOM     13  C   UNL     1     -11.944 -34.017  28.568  1.00  0.00     0.140 C 
ATOM     14  O   UNL     1     -10.793 -33.610  28.602  1.00  0.00    -0.299 OA
BRANCH  13  15
ATOM     15  C   UNL     1     -12.180 -35.443  28.016  1.00  0.00     0.106 CG0
ATOM     16  G   UNL     1     -12.776 -36.418  29.039  1.00  0.00     0.000 G0
ENDBRANCH  13  15
ENDBRANCH  12  13
BRANCH  12  17
ATOM     17  C   UNL     1     -14.265 -32.859  28.226  1.00  0.00    -0.006 C 
ATOM     18  C   UNL     1     -13.998 -33.269  26.765  1.00  0.00     0.008 C 
ATOM     19  C   UNL     1     -14.721 -31.393  28.291  1.00  0.00     0.008 C 
ENDBRANCH  12  17
ENDBRANCH  11  12
ENDBRANCH   1  11
TORSDOF 1
ENDMDL
