MODEL 1
REMARK VINA RESULT:    -4.897      0.000      0.000
REMARK INTER + INTRA:          -6.368
REMARK INTER:                  -6.042
REMARK INTRA:                  -0.326
REMARK UNBOUND:                -0.326
REMARK SMILES C=CC[C@H](C)C(=O)CC
REMARK SMILES IDX 4 1 5 2 6 3 7 4 8 5 9 6 3 7 2 8 1 9
REMARK H PARENT
REMARK Flexibility Score: inf
ROOT
ATOM      1  C   UNL     1      -4.555  12.779 -29.358  1.00  0.00     0.057 C 
ATOM      2  C   UNL     1      -4.372  11.392 -28.732  1.00  0.00     0.016 C 
ENDROOT
BRANCH   1   3
ATOM      3  C   UNL     1      -3.221  13.310 -29.842  1.00  0.00     0.135 C 
ATOM      4  O   UNL     1      -2.387  13.686 -29.029  1.00  0.00    -0.299 OA
BRANCH   3   5
ATOM      5  C   UNL     1      -2.906  13.398 -31.312  1.00  0.00     0.072 C 
ATOM      6  C   UNL     1      -4.065  14.025 -32.078  1.00  0.00     0.012 C 
ENDBRANCH   3   5
ENDBRANCH   1   3
BRANCH   1   7
ATOM      7  C   UNL     1      -5.207  13.747 -28.349  1.00  0.00     0.038 C 
BRANCH   7   8
ATOM      8  C   UNL     1      -6.126  14.734 -29.022  1.00  0.00    -0.034 C 
ATOM      9  C   UNL     1      -7.376  14.935 -28.597  1.00  0.00     0.004 C 
ENDBRANCH   7   8
ENDBRANCH   1   7
TORSDOF 4
ENDMDL
MODEL 2
REMARK VINA RESULT:    -4.756      1.751      3.001
REMARK INTER + INTRA:          -6.195
REMARK INTER:                  -5.996
REMARK INTRA:                  -0.199
REMARK UNBOUND:                -0.326
REMARK SMILES C=CC[C@H](C)C(=O)CC
REMARK SMILES IDX 4 1 5 2 6 3 7 4 8 5 9 6 3 7 2 8 1 9
REMARK H PARENT
REMARK Flexibility Score: inf
ROOT
ATOM      1  C   UNL     1      -4.208  13.559 -28.868  1.00  0.00     0.057 C 
ATOM      2  C   UNL     1      -4.386  13.670 -30.385  1.00  0.00     0.016 C 
ENDROOT
BRANCH   1   3
ATOM      3  C   UNL     1      -3.870  12.132 -28.487  1.00  0.00     0.135 C 
ATOM      4  O   UNL     1      -4.637  11.227 -28.786  1.00  0.00    -0.299 OA
BRANCH   3   5
ATOM      5  C   UNL     1      -2.608  11.806 -27.733  1.00  0.00     0.072 C 
ATOM      6  C   UNL     1      -2.921  11.451 -26.283  1.00  0.00     0.012 C 
ENDBRANCH   3   5
ENDBRANCH   1   3
BRANCH   1   7
ATOM      7  C   UNL     1      -5.477  14.044 -28.137  1.00  0.00     0.038 C 
BRANCH   7   8
ATOM      8  C   UNL     1      -6.429  14.756 -29.063  1.00  0.00    -0.034 C 
ATOM      9  C   UNL     1      -7.661  15.100 -28.679  1.00  0.00     0.004 C 
ENDBRANCH   7   8
ENDBRANCH   1   7
TORSDOF 4
ENDMDL
MODEL 3
REMARK VINA RESULT:    -4.679      1.248      2.642
REMARK INTER + INTRA:          -6.099
REMARK INTER:                  -5.868
REMARK INTRA:                  -0.231
REMARK UNBOUND:                -0.326
REMARK SMILES C=CC[C@H](C)C(=O)CC
REMARK SMILES IDX 4 1 5 2 6 3 7 4 8 5 9 6 3 7 2 8 1 9
REMARK H PARENT
REMARK Flexibility Score: inf
ROOT
ATOM      1  C   UNL     1      -4.547  13.961 -29.635  1.00  0.00     0.057 C 
ATOM      2  C   UNL     1      -5.014  14.410 -31.023  1.00  0.00     0.016 C 
ENDROOT
BRANCH   1   3
ATOM      3  C   UNL     1      -3.927  12.581 -29.716  1.00  0.00     0.135 C 
ATOM      4  O   UNL     1      -3.099  12.338 -30.584  1.00  0.00    -0.299 OA
BRANCH   3   5
ATOM      5  C   UNL     1      -4.323  11.492 -28.754  1.00  0.00     0.072 C 
ATOM      6  C   UNL     1      -3.244  11.286 -27.697  1.00  0.00     0.012 C 
ENDBRANCH   3   5
ENDBRANCH   1   3
BRANCH   1   7
ATOM      7  C   UNL     1      -5.721  13.985 -28.634  1.00  0.00     0.038 C 
BRANCH   7   8
ATOM      8  C   UNL     1      -6.599  15.195 -28.819  1.00  0.00    -0.034 C 
ATOM      9  C   UNL     1      -7.926  15.132 -28.673  1.00  0.00     0.004 C 
ENDBRANCH   7   8
ENDBRANCH   1   7
TORSDOF 4
ENDMDL
MODEL 4
REMARK VINA RESULT:    -4.674      1.873      3.903
REMARK INTER + INTRA:          -6.093
REMARK INTER:                  -5.947
REMARK INTRA:                  -0.146
REMARK UNBOUND:                -0.326
REMARK SMILES C=CC[C@H](C)C(=O)CC
REMARK SMILES IDX 4 1 5 2 6 3 7 4 8 5 9 6 3 7 2 8 1 9
REMARK H PARENT
REMARK Flexibility Score: inf
ROOT
ATOM      1  C   UNL     1      -4.522  13.030 -28.741  1.00  0.00     0.057 C 
ATOM      2  C   UNL     1      -4.106  13.136 -30.212  1.00  0.00     0.016 C 
ENDROOT
BRANCH   1   3
ATOM      3  C   UNL     1      -5.335  14.246 -28.344  1.00  0.00     0.135 C 
ATOM      4  O   UNL     1      -5.201  14.726 -27.226  1.00  0.00    -0.299 OA
BRANCH   3   5
ATOM      5  C   UNL     1      -6.319  14.869 -29.297  1.00  0.00     0.072 C 
ATOM      6  C   UNL     1      -7.684  15.031 -28.637  1.00  0.00     0.012 C 
ENDBRANCH   3   5
ENDBRANCH   1   3
BRANCH   1   7
ATOM      7  C   UNL     1      -3.283  12.870 -27.837  1.00  0.00     0.038 C 
BRANCH   7   8
ATOM      8  C   UNL     1      -3.177  11.482 -27.260  1.00  0.00    -0.034 C 
ATOM      9  C   UNL     1      -2.865  11.274 -25.978  1.00  0.00     0.004 C 
ENDBRANCH   7   8
ENDBRANCH   1   7
TORSDOF 4
ENDMDL
MODEL 5
REMARK VINA RESULT:    -4.651      1.382      1.665
REMARK INTER + INTRA:          -6.065
REMARK INTER:                  -5.848
REMARK INTRA:                  -0.217
REMARK UNBOUND:                -0.326
REMARK SMILES C=CC[C@H](C)C(=O)CC
REMARK SMILES IDX 4 1 5 2 6 3 7 4 8 5 9 6 3 7 2 8 1 9
REMARK H PARENT
REMARK Flexibility Score: inf
ROOT
ATOM      1  C   UNL     1      -4.605  13.164 -28.897  1.00  0.00     0.057 C 
ATOM      2  C   UNL     1      -3.553  13.661 -27.900  1.00  0.00     0.016 C 
ENDROOT
BRANCH   1   3
ATOM      3  C   UNL     1      -3.929  12.483 -30.069  1.00  0.00     0.135 C 
ATOM      4  O   UNL     1      -3.741  11.274 -30.042  1.00  0.00    -0.299 OA
BRANCH   3   5
ATOM      5  C   UNL     1      -3.468  13.271 -31.267  1.00  0.00     0.072 C 
ATOM      6  C   UNL     1      -1.946  13.287 -31.351  1.00  0.00     0.012 C 
ENDBRANCH   3   5
ENDBRANCH   1   3
BRANCH   1   7
ATOM      7  C   UNL     1      -5.496  14.331 -29.371  1.00  0.00     0.038 C 
BRANCH   7   8
ATOM      8  C   UNL     1      -6.529  14.711 -28.342  1.00  0.00    -0.034 C 
ATOM      9  C   UNL     1      -7.760  15.097 -28.687  1.00  0.00     0.004 C 
ENDBRANCH   7   8
ENDBRANCH   1   7
TORSDOF 4
ENDMDL
MODEL 6
REMARK VINA RESULT:    -4.632      1.266      1.999
REMARK INTER + INTRA:          -6.041
REMARK INTER:                  -5.843
REMARK INTRA:                  -0.198
REMARK UNBOUND:                -0.326
REMARK SMILES C=CC[C@H](C)C(=O)CC
REMARK SMILES IDX 4 1 5 2 6 3 7 4 8 5 9 6 3 7 2 8 1 9
REMARK H PARENT
REMARK Flexibility Score: inf
ROOT
ATOM      1  C   UNL     1      -4.489  12.965 -29.271  1.00  0.00     0.057 C 
ATOM      2  C   UNL     1      -4.504  11.527 -28.744  1.00  0.00     0.016 C 
ENDROOT
BRANCH   1   3
ATOM      3  C   UNL     1      -3.060  13.428 -29.475  1.00  0.00     0.135 C 
ATOM      4  O   UNL     1      -2.581  13.440 -30.602  1.00  0.00    -0.299 OA
BRANCH   3   5
ATOM      5  C   UNL     1      -2.210  13.864 -28.312  1.00  0.00     0.072 C 
ATOM      6  C   UNL     1      -0.733  13.615 -28.598  1.00  0.00     0.012 C 
ENDBRANCH   3   5
ENDBRANCH   1   3
BRANCH   1   7
ATOM      7  C   UNL     1      -5.245  13.904 -28.308  1.00  0.00     0.038 C 
BRANCH   7   8
ATOM      8  C   UNL     1      -6.222  14.792 -29.032  1.00  0.00    -0.034 C 
ATOM      9  C   UNL     1      -7.481  14.946 -28.611  1.00  0.00     0.004 C 
ENDBRANCH   7   8
ENDBRANCH   1   7
TORSDOF 4
ENDMDL
MODEL 7
REMARK VINA RESULT:    -4.575      1.500      3.933
REMARK INTER + INTRA:          -5.971
REMARK INTER:                  -5.763
REMARK INTRA:                  -0.209
REMARK UNBOUND:                -0.326
REMARK SMILES C=CC[C@H](C)C(=O)CC
REMARK SMILES IDX 4 1 5 2 6 3 7 4 8 5 9 6 3 7 2 8 1 9
REMARK H PARENT
REMARK Flexibility Score: inf
ROOT
ATOM      1  C   UNL     1      -3.822  13.033 -29.566  1.00  0.00     0.057 C 
ATOM      2  C   UNL     1      -4.236  11.772 -28.801  1.00  0.00     0.016 C 
ENDROOT
BRANCH   1   3
ATOM      3  C   UNL     1      -4.958  14.035 -29.569  1.00  0.00     0.135 C 
ATOM      4  O   UNL     1      -5.263  14.604 -30.609  1.00  0.00    -0.299 OA
BRANCH   3   5
ATOM      5  C   UNL     1      -5.715  14.357 -28.308  1.00  0.00     0.072 C 
ATOM      6  C   UNL     1      -7.126  14.837 -28.630  1.00  0.00     0.012 C 
ENDBRANCH   3   5
ENDBRANCH   1   3
BRANCH   1   7
ATOM      7  C   UNL     1      -3.390  12.677 -31.004  1.00  0.00     0.038 C 
BRANCH   7   8
ATOM      8  C   UNL     1      -2.108  13.363 -31.397  1.00  0.00    -0.034 C 
ATOM      9  C   UNL     1      -0.981  13.207 -30.696  1.00  0.00     0.004 C 
ENDBRANCH   7   8
ENDBRANCH   1   7
TORSDOF 4
ENDMDL
MODEL 8
REMARK VINA RESULT:    -4.458      1.224      1.636
REMARK INTER + INTRA:          -5.826
REMARK INTER:                  -5.637
REMARK INTRA:                  -0.189
REMARK UNBOUND:                -0.326
REMARK SMILES C=CC[C@H](C)C(=O)CC
REMARK SMILES IDX 4 1 5 2 6 3 7 4 8 5 9 6 3 7 2 8 1 9
REMARK H PARENT
REMARK Flexibility Score: inf
ROOT
ATOM      1  C   UNL     1      -3.815  12.740 -29.908  1.00  0.00     0.057 C 
ATOM      2  C   UNL     1      -4.130  11.791 -28.747  1.00  0.00     0.016 C 
ENDROOT
BRANCH   1   3
ATOM      3  C   UNL     1      -2.344  13.101 -29.899  1.00  0.00     0.135 C 
ATOM      4  O   UNL     1      -1.758  13.232 -28.832  1.00  0.00    -0.299 OA
BRANCH   3   5
ATOM      5  C   UNL     1      -1.588  13.318 -31.183  1.00  0.00     0.072 C 
ATOM      6  C   UNL     1      -0.590  12.190 -31.420  1.00  0.00     0.012 C 
ENDBRANCH   3   5
ENDBRANCH   1   3
BRANCH   1   7
ATOM      7  C   UNL     1      -4.698  14.003 -29.831  1.00  0.00     0.038 C 
BRANCH   7   8
ATOM      8  C   UNL     1      -5.638  13.967 -28.654  1.00  0.00    -0.034 C 
ATOM      9  C   UNL     1      -6.736  14.726 -28.605  1.00  0.00     0.004 C 
ENDBRANCH   7   8
ENDBRANCH   1   7
TORSDOF 4
ENDMDL
MODEL 9
REMARK VINA RESULT:    -4.455      1.722      3.477
REMARK INTER + INTRA:          -5.823
REMARK INTER:                  -5.607
REMARK INTRA:                  -0.216
REMARK UNBOUND:                -0.326
REMARK SMILES C=CC[C@H](C)C(=O)CC
REMARK SMILES IDX 4 1 5 2 6 3 7 4 8 5 9 6 3 7 2 8 1 9
REMARK H PARENT
REMARK Flexibility Score: inf
ROOT
ATOM      1  C   UNL     1      -5.033  13.480 -28.798  1.00  0.00     0.057 C 
ATOM      2  C   UNL     1      -6.193  14.478 -28.719  1.00  0.00     0.016 C 
ENDROOT
BRANCH   1   3
ATOM      3  C   UNL     1      -4.103  13.671 -27.618  1.00  0.00     0.135 C 
ATOM      4  O   UNL     1      -4.407  14.452 -26.726  1.00  0.00    -0.299 OA
BRANCH   3   5
ATOM      5  C   UNL     1      -2.798  12.925 -27.527  1.00  0.00     0.072 C 
ATOM      6  C   UNL     1      -3.024  11.496 -27.048  1.00  0.00     0.012 C 
ENDBRANCH   3   5
ENDBRANCH   1   3
BRANCH   1   7
ATOM      7  C   UNL     1      -4.276  13.634 -30.134  1.00  0.00     0.038 C 
BRANCH   7   8
ATOM      8  C   UNL     1      -5.032  14.485 -31.120  1.00  0.00    -0.034 C 
ATOM      9  C   UNL     1      -4.601  14.666 -32.372  1.00  0.00     0.004 C 
ENDBRANCH   7   8
ENDBRANCH   1   7
TORSDOF 4
ENDMDL
