MODEL 1
REMARK VINA RESULT:    -4.849      0.000      0.000
REMARK INTER + INTRA:          -5.843
REMARK INTER:                  -5.558
REMARK INTRA:                  -0.285
REMARK UNBOUND:                -0.285
REMARK SMILES O=C1C[C@@H](c2ccc(O)cc2)Oc2cc(O)cc(O)c21
REMARK SMILES IDX 3 1 4 2 12 3 13 4 14 5 15 6 17 7 18 8 20 9 2 10 1 11 5 12
REMARK SMILES IDX 6 13 11 14 7 15 10 16 8 17 9 18 19 20 16 22
REMARK H PARENT 9 19 19 21 16 23
REMARK Flexibility Score: inf
ROOT
ATOM      1  C   UNL     1     -12.887  14.777  11.074  1.00  0.00     0.131 C 
ATOM      2  C   UNL     1     -14.329  14.534  11.542  1.00  0.00     0.211 C 
ATOM      3  O   UNL     1     -15.248  15.296  10.754  1.00  0.00    -0.484 OA
ATOM      4  C   UNL     1     -15.098  15.466   9.370  1.00  0.00     0.138 A 
ATOM      5  C   UNL     1     -16.166  15.978   8.631  1.00  0.00     0.093 A 
ATOM      6  C   UNL     1     -16.053  16.145   7.251  1.00  0.00     0.123 A 
ATOM      7  C   UNL     1     -14.851  15.827   6.609  1.00  0.00     0.093 A 
ATOM      8  C   UNL     1     -13.753  15.351   7.337  1.00  0.00     0.133 A 
ATOM      9  C   UNL     1     -13.882  15.134   8.734  1.00  0.00     0.102 A 
ATOM     10  C   UNL     1     -12.811  14.568   9.591  1.00  0.00     0.174 C 
ATOM     11  O   UNL     1     -11.875  13.875   9.112  1.00  0.00    -0.294 OA
ENDROOT
BRANCH   2  12
ATOM     12  C   UNL     1     -14.483  14.889  13.001  1.00  0.00    -0.007 A 
ATOM     13  C   UNL     1     -13.963  16.095  13.504  1.00  0.00     0.011 A 
ATOM     14  C   UNL     1     -15.099  13.987  13.886  1.00  0.00     0.011 A 
ATOM     15  C   UNL     1     -14.083  16.403  14.862  1.00  0.00     0.046 A 
ATOM     16  C   UNL     1     -15.216  14.299  15.244  1.00  0.00     0.046 A 
ATOM     17  C   UNL     1     -14.711  15.506  15.736  1.00  0.00     0.115 A 
BRANCH  17  18
ATOM     18  O   UNL     1     -14.834  15.804  17.091  1.00  0.00    -0.508 OA
ATOM     19  H   UNL     1     -15.714  15.690  17.580  1.00  0.00     0.293 HD
ENDBRANCH  17  18
ENDBRANCH   2  12
BRANCH   8  20
ATOM     20  O   UNL     1     -12.560  15.145   6.638  1.00  0.00    -0.507 OA
ATOM     21  H   UNL     1     -11.652  15.418   6.982  1.00  0.00     0.293 HD
ENDBRANCH   8  20
BRANCH   6  22
ATOM     22  O   UNL     1     -17.136  16.637   6.526  1.00  0.00    -0.508 OA
ATOM     23  H   UNL     1     -17.433  16.204   5.659  1.00  0.00     0.293 HD
ENDBRANCH   6  22
TORSDOF 4
ENDMDL
MODEL 2
REMARK VINA RESULT:    -4.527     11.832     14.466
REMARK INTER + INTRA:          -5.474
REMARK INTER:                  -5.189
REMARK INTRA:                  -0.285
REMARK UNBOUND:                -0.285
REMARK SMILES O=C1C[C@@H](c2ccc(O)cc2)Oc2cc(O)cc(O)c21
REMARK SMILES IDX 3 1 4 2 12 3 13 4 14 5 15 6 17 7 18 8 20 9 2 10 1 11 5 12
REMARK SMILES IDX 6 13 11 14 7 15 10 16 8 17 9 18 19 20 16 22
REMARK H PARENT 9 19 19 21 16 23
REMARK Flexibility Score: inf
ROOT
ATOM      1  C   UNL     1     -24.979  14.266  19.431  1.00  0.00     0.131 C 
ATOM      2  C   UNL     1     -25.890  14.989  18.428  1.00  0.00     0.211 C 
ATOM      3  O   UNL     1     -25.679  16.403  18.486  1.00  0.00    -0.484 OA
ATOM      4  C   UNL     1     -24.407  16.972  18.645  1.00  0.00     0.138 A 
ATOM      5  C   UNL     1     -24.245  18.339  18.415  1.00  0.00     0.093 A 
ATOM      6  C   UNL     1     -22.989  18.933  18.551  1.00  0.00     0.123 A 
ATOM      7  C   UNL     1     -21.894  18.158  18.950  1.00  0.00     0.093 A 
ATOM      8  C   UNL     1     -22.044  16.793  19.225  1.00  0.00     0.133 A 
ATOM      9  C   UNL     1     -23.309  16.177  19.041  1.00  0.00     0.102 A 
ATOM     10  C   UNL     1     -23.567  14.729  19.233  1.00  0.00     0.174 C 
ATOM     11  O   UNL     1     -22.639  13.878  19.180  1.00  0.00    -0.294 OA
ENDROOT
BRANCH   2  12
ATOM     12  C   UNL     1     -27.340  14.672  18.699  1.00  0.00    -0.007 A 
ATOM     13  C   UNL     1     -28.326  14.955  17.737  1.00  0.00     0.011 A 
ATOM     14  C   UNL     1     -27.728  14.142  19.942  1.00  0.00     0.011 A 
ATOM     15  C   UNL     1     -29.672  14.687  18.005  1.00  0.00     0.046 A 
ATOM     16  C   UNL     1     -29.075  13.876  20.206  1.00  0.00     0.046 A 
ATOM     17  C   UNL     1     -30.049  14.145  19.241  1.00  0.00     0.115 A 
BRANCH  17  18
ATOM     18  O   UNL     1     -31.388  13.875  19.519  1.00  0.00    -0.508 OA
ATOM     19  H   UNL     1     -32.008  13.493  18.816  1.00  0.00     0.293 HD
ENDBRANCH  17  18
ENDBRANCH   2  12
BRANCH   8  20
ATOM     20  O   UNL     1     -20.924  16.109  19.707  1.00  0.00    -0.507 OA
ATOM     21  H   UNL     1     -20.456  16.334  20.572  1.00  0.00     0.293 HD
ENDBRANCH   8  20
BRANCH   6  22
ATOM     22  O   UNL     1     -22.841  20.294  18.296  1.00  0.00    -0.508 OA
ATOM     23  H   UNL     1     -23.579  20.956  18.509  1.00  0.00     0.293 HD
ENDBRANCH   6  22
TORSDOF 4
ENDMDL
MODEL 3
REMARK VINA RESULT:    -4.233      1.849      6.625
REMARK INTER + INTRA:          -5.137
REMARK INTER:                  -4.843
REMARK INTRA:                  -0.294
REMARK UNBOUND:                -0.285
REMARK SMILES O=C1C[C@@H](c2ccc(O)cc2)Oc2cc(O)cc(O)c21
REMARK SMILES IDX 3 1 4 2 12 3 13 4 14 5 15 6 17 7 18 8 20 9 2 10 1 11 5 12
REMARK SMILES IDX 6 13 11 14 7 15 10 16 8 17 9 18 19 20 16 22
REMARK H PARENT 9 19 19 21 16 23
REMARK Flexibility Score: inf
ROOT
ATOM      1  C   UNL     1     -13.902  14.612   8.788  1.00  0.00     0.131 C 
ATOM      2  C   UNL     1     -15.144  15.513   8.859  1.00  0.00     0.211 C 
ATOM      3  O   UNL     1     -15.870  15.275  10.068  1.00  0.00    -0.484 OA
ATOM      4  C   UNL     1     -15.237  15.045  11.298  1.00  0.00     0.138 A 
ATOM      5  C   UNL     1     -15.995  15.098  12.469  1.00  0.00     0.093 A 
ATOM      6  C   UNL     1     -15.391  14.889  13.710  1.00  0.00     0.123 A 
ATOM      7  C   UNL     1     -14.026  14.594  13.777  1.00  0.00     0.093 A 
ATOM      8  C   UNL     1     -13.255  14.496  12.611  1.00  0.00     0.133 A 
ATOM      9  C   UNL     1     -13.856  14.756  11.352  1.00  0.00     0.102 A 
ATOM     10  C   UNL     1     -13.123  14.750  10.062  1.00  0.00     0.174 C 
ATOM     11  O   UNL     1     -11.875  14.912  10.008  1.00  0.00    -0.294 OA
ENDROOT
BRANCH   2  12
ATOM     12  C   UNL     1     -16.038  15.284   7.665  1.00  0.00    -0.007 A 
ATOM     13  C   UNL     1     -16.217  16.291   6.700  1.00  0.00     0.011 A 
ATOM     14  C   UNL     1     -16.750  14.078   7.536  1.00  0.00     0.011 A 
ATOM     15  C   UNL     1     -17.070  16.084   5.613  1.00  0.00     0.046 A 
ATOM     16  C   UNL     1     -17.602  13.875   6.447  1.00  0.00     0.046 A 
ATOM     17  C   UNL     1     -17.764  14.874   5.483  1.00  0.00     0.115 A 
BRANCH  17  18
ATOM     18  O   UNL     1     -18.619  14.658   4.403  1.00  0.00    -0.508 OA
ATOM     19  H   UNL     1     -19.047  15.428   3.906  1.00  0.00     0.293 HD
ENDBRANCH  17  18
ENDBRANCH   2  12
BRANCH   8  20
ATOM     20  O   UNL     1     -11.921  14.106  12.755  1.00  0.00    -0.507 OA
ATOM     21  H   UNL     1     -11.351  14.330  13.557  1.00  0.00     0.293 HD
ENDBRANCH   8  20
BRANCH   6  22
ATOM     22  O   UNL     1     -16.159  14.967  14.869  1.00  0.00    -0.508 OA
ATOM     23  H   UNL     1     -15.731  15.076  15.782  1.00  0.00     0.293 HD
ENDBRANCH   6  22
TORSDOF 4
ENDMDL
MODEL 4
REMARK VINA RESULT:    -4.080      1.362      2.932
REMARK INTER + INTRA:          -4.962
REMARK INTER:                  -4.672
REMARK INTRA:                  -0.290
REMARK UNBOUND:                -0.285
REMARK SMILES O=C1C[C@@H](c2ccc(O)cc2)Oc2cc(O)cc(O)c21
REMARK SMILES IDX 3 1 4 2 12 3 13 4 14 5 15 6 17 7 18 8 20 9 2 10 1 11 5 12
REMARK SMILES IDX 6 13 11 14 7 15 10 16 8 17 9 18 19 20 16 22
REMARK H PARENT 9 19 19 21 16 23
REMARK Flexibility Score: inf
ROOT
ATOM      1  C   UNL     1     -16.085  15.680  11.264  1.00  0.00     0.131 C 
ATOM      2  C   UNL     1     -14.598  15.726  11.647  1.00  0.00     0.211 C 
ATOM      3  O   UNL     1     -13.818  14.960  10.724  1.00  0.00    -0.484 OA
ATOM      4  C   UNL     1     -14.072  14.949   9.346  1.00  0.00     0.138 A 
ATOM      5  C   UNL     1     -13.113  14.410   8.486  1.00  0.00     0.093 A 
ATOM      6  C   UNL     1     -13.330  14.397   7.107  1.00  0.00     0.123 A 
ATOM      7  C   UNL     1     -14.528  14.899   6.588  1.00  0.00     0.093 A 
ATOM      8  C   UNL     1     -15.521  15.407   7.436  1.00  0.00     0.133 A 
ATOM      9  C   UNL     1     -15.282  15.465   8.834  1.00  0.00     0.102 A 
ATOM     10  C   UNL     1     -16.230  16.046   9.817  1.00  0.00     0.174 C 
ATOM     11  O   UNL     1     -17.114  16.876   9.475  1.00  0.00    -0.294 OA
ENDROOT
BRANCH   2  12
ATOM     12  C   UNL     1     -14.392  15.211  13.051  1.00  0.00    -0.007 A 
ATOM     13  C   UNL     1     -15.471  14.689  13.786  1.00  0.00     0.011 A 
ATOM     14  C   UNL     1     -13.128  15.301  13.658  1.00  0.00     0.011 A 
ATOM     15  C   UNL     1     -15.280  14.241  15.096  1.00  0.00     0.046 A 
ATOM     16  C   UNL     1     -12.942  14.852  14.969  1.00  0.00     0.046 A 
ATOM     17  C   UNL     1     -14.014  14.320  15.691  1.00  0.00     0.115 A 
BRANCH  17  18
ATOM     18  O   UNL     1     -13.813  13.878  16.997  1.00  0.00    -0.508 OA
ATOM     19  H   UNL     1     -14.486  13.281  17.463  1.00  0.00     0.293 HD
ENDBRANCH  17  18
ENDBRANCH   2  12
BRANCH   8  20
ATOM     20  O   UNL     1     -16.725  15.803   6.849  1.00  0.00    -0.507 OA
ATOM     21  H   UNL     1     -17.362  15.171   6.387  1.00  0.00     0.293 HD
ENDBRANCH   8  20
BRANCH   6  22
ATOM     22  O   UNL     1     -12.353  13.875   6.262  1.00  0.00    -0.508 OA
ATOM     23  H   UNL     1     -12.416  12.931   5.900  1.00  0.00     0.293 HD
ENDBRANCH   6  22
TORSDOF 4
ENDMDL
MODEL 5
REMARK VINA RESULT:    -3.795      1.641      3.703
REMARK INTER + INTRA:          -4.635
REMARK INTER:                  -4.348
REMARK INTRA:                  -0.286
REMARK UNBOUND:                -0.285
REMARK SMILES O=C1C[C@@H](c2ccc(O)cc2)Oc2cc(O)cc(O)c21
REMARK SMILES IDX 3 1 4 2 12 3 13 4 14 5 15 6 17 7 18 8 20 9 2 10 1 11 5 12
REMARK SMILES IDX 6 13 11 14 7 15 10 16 8 17 9 18 19 20 16 22
REMARK H PARENT 9 19 19 21 16 23
REMARK Flexibility Score: inf
ROOT
ATOM      1  C   UNL     1     -16.113  15.536  13.349  1.00  0.00     0.131 C 
ATOM      2  C   UNL     1     -14.670  15.763  13.822  1.00  0.00     0.211 C 
ATOM      3  O   UNL     1     -13.750  15.053  12.988  1.00  0.00    -0.484 OA
ATOM      4  C   UNL     1     -13.907  14.959  11.598  1.00  0.00     0.138 A 
ATOM      5  C   UNL     1     -12.839  14.497  10.826  1.00  0.00     0.093 A 
ATOM      6  C   UNL     1     -12.959  14.405   9.439  1.00  0.00     0.123 A 
ATOM      7  C   UNL     1     -14.167  14.748   8.822  1.00  0.00     0.093 A 
ATOM      8  C   UNL     1     -15.264  15.175   9.581  1.00  0.00     0.133 A 
ATOM      9  C   UNL     1     -15.129  15.315  10.987  1.00  0.00     0.102 A 
ATOM     10  C   UNL     1     -16.199  15.825  11.880  1.00  0.00     0.174 C 
ATOM     11  O   UNL     1     -17.143  16.536  11.445  1.00  0.00    -0.294 OA
ENDROOT
BRANCH   2  12
ATOM     12  C   UNL     1     -14.505  15.330  15.259  1.00  0.00    -0.007 A 
ATOM     13  C   UNL     1     -15.247  14.252  15.771  1.00  0.00     0.011 A 
ATOM     14  C   UNL     1     -13.647  16.041  16.116  1.00  0.00     0.011 A 
ATOM     15  C   UNL     1     -15.112  13.875  17.110  1.00  0.00     0.046 A 
ATOM     16  C   UNL     1     -13.515  15.660  17.455  1.00  0.00     0.046 A 
ATOM     17  C   UNL     1     -14.244  14.578  17.956  1.00  0.00     0.115 A 
BRANCH  17  18
ATOM     18  O   UNL     1     -14.103  14.211  19.293  1.00  0.00    -0.508 OA
ATOM     19  H   UNL     1     -13.300  14.500  19.838  1.00  0.00     0.293 HD
ENDBRANCH  17  18
ENDBRANCH   2  12
BRANCH   8  20
ATOM     20  O   UNL     1     -16.463  15.410   8.902  1.00  0.00    -0.507 OA
ATOM     21  H   UNL     1     -16.540  15.987   8.078  1.00  0.00     0.293 HD
ENDBRANCH   8  20
BRANCH   6  22
ATOM     22  O   UNL     1     -11.876  13.963   8.683  1.00  0.00    -0.508 OA
ATOM     23  H   UNL     1     -11.775  14.213   7.706  1.00  0.00     0.293 HD
ENDBRANCH   6  22
TORSDOF 4
ENDMDL
MODEL 6
REMARK VINA RESULT:    -2.502      1.946      6.592
REMARK INTER + INTRA:          -3.153
REMARK INTER:                  -2.867
REMARK INTRA:                  -0.286
REMARK UNBOUND:                -0.285
REMARK SMILES O=C1C[C@@H](c2ccc(O)cc2)Oc2cc(O)cc(O)c21
REMARK SMILES IDX 3 1 4 2 12 3 13 4 14 5 15 6 17 7 18 8 20 9 2 10 1 11 5 12
REMARK SMILES IDX 6 13 11 14 7 15 10 16 8 17 9 18 19 20 16 22
REMARK H PARENT 9 19 19 21 16 23
REMARK Flexibility Score: inf
ROOT
ATOM      1  C   UNL     1     -13.764  14.183  10.474  1.00  0.00     0.131 C 
ATOM      2  C   UNL     1     -14.346  15.527  10.011  1.00  0.00     0.211 C 
ATOM      3  O   UNL     1     -15.085  16.146  11.068  1.00  0.00    -0.484 OA
ATOM      4  C   UNL     1     -14.663  16.115  12.405  1.00  0.00     0.138 A 
ATOM      5  C   UNL     1     -15.276  16.965  13.327  1.00  0.00     0.093 A 
ATOM      6  C   UNL     1     -14.868  16.969  14.662  1.00  0.00     0.123 A 
ATOM      7  C   UNL     1     -13.861  16.094  15.083  1.00  0.00     0.093 A 
ATOM      8  C   UNL     1     -13.261  15.204  14.182  1.00  0.00     0.133 A 
ATOM      9  C   UNL     1     -13.640  15.233  12.815  1.00  0.00     0.102 A 
ATOM     10  C   UNL     1     -13.023  14.388  11.762  1.00  0.00     0.174 C 
ATOM     11  O   UNL     1     -11.877  13.886  11.902  1.00  0.00    -0.294 OA
ENDROOT
BRANCH   2  12
ATOM     12  C   UNL     1     -15.232  15.336   8.804  1.00  0.00    -0.007 A 
ATOM     13  C   UNL     1     -15.575  14.046   8.364  1.00  0.00     0.011 A 
ATOM     14  C   UNL     1     -15.677  16.451   8.071  1.00  0.00     0.011 A 
ATOM     15  C   UNL     1     -16.371  13.875   7.228  1.00  0.00     0.046 A 
ATOM     16  C   UNL     1     -16.473  16.276   6.935  1.00  0.00     0.046 A 
ATOM     17  C   UNL     1     -16.824  14.991   6.511  1.00  0.00     0.115 A 
BRANCH  17  18
ATOM     18  O   UNL     1     -17.617  14.832   5.376  1.00  0.00    -0.508 OA
ATOM     19  H   UNL     1     -18.576  14.516   5.442  1.00  0.00     0.293 HD
ENDBRANCH  17  18
ENDBRANCH   2  12
BRANCH   8  20
ATOM     20  O   UNL     1     -12.329  14.299  14.699  1.00  0.00    -0.507 OA
ATOM     21  H   UNL     1     -12.271  13.331  14.422  1.00  0.00     0.293 HD
ENDBRANCH   8  20
BRANCH   6  22
ATOM     22  O   UNL     1     -15.476  17.839  15.564  1.00  0.00    -0.508 OA
ATOM     23  H   UNL     1     -16.398  18.223  15.390  1.00  0.00     0.293 HD
ENDBRANCH   6  22
TORSDOF 4
ENDMDL
MODEL 7
REMARK VINA RESULT:    -2.366      1.739      3.308
REMARK INTER + INTRA:          -2.997
REMARK INTER:                  -2.712
REMARK INTRA:                  -0.285
REMARK UNBOUND:                -0.285
REMARK SMILES O=C1C[C@@H](c2ccc(O)cc2)Oc2cc(O)cc(O)c21
REMARK SMILES IDX 3 1 4 2 12 3 13 4 14 5 15 6 17 7 18 8 20 9 2 10 1 11 5 12
REMARK SMILES IDX 6 13 11 14 7 15 10 16 8 17 9 18 19 20 16 22
REMARK H PARENT 9 19 19 21 16 23
REMARK Flexibility Score: inf
ROOT
ATOM      1  C   UNL     1     -16.905  16.250  12.804  1.00  0.00     0.131 C 
ATOM      2  C   UNL     1     -15.385  16.297  13.018  1.00  0.00     0.211 C 
ATOM      3  O   UNL     1     -14.708  15.600  11.967  1.00  0.00    -0.484 OA
ATOM      4  C   UNL     1     -15.118  15.669  10.628  1.00  0.00     0.138 A 
ATOM      5  C   UNL     1     -14.260  15.199   9.632  1.00  0.00     0.093 A 
ATOM      6  C   UNL     1     -14.633  15.267   8.289  1.00  0.00     0.123 A 
ATOM      7  C   UNL     1     -15.886  15.780   7.942  1.00  0.00     0.093 A 
ATOM      8  C   UNL     1     -16.780  16.219   8.927  1.00  0.00     0.133 A 
ATOM      9  C   UNL     1     -16.384  16.196  10.290  1.00  0.00     0.102 A 
ATOM     10  C   UNL     1     -17.218  16.701  11.409  1.00  0.00     0.174 C 
ATOM     11  O   UNL     1     -18.143  17.536  11.222  1.00  0.00    -0.294 OA
ENDROOT
BRANCH   2  12
ATOM     12  C   UNL     1     -15.015  15.700  14.354  1.00  0.00    -0.007 A 
ATOM     13  C   UNL     1     -14.100  16.351  15.200  1.00  0.00     0.011 A 
ATOM     14  C   UNL     1     -15.539  14.455  14.742  1.00  0.00     0.011 A 
ATOM     15  C   UNL     1     -13.738  15.779  16.422  1.00  0.00     0.046 A 
ATOM     16  C   UNL     1     -15.175  13.886  15.966  1.00  0.00     0.046 A 
ATOM     17  C   UNL     1     -14.276  14.545  16.809  1.00  0.00     0.115 A 
BRANCH  17  18
ATOM     18  O   UNL     1     -13.921  13.965  18.026  1.00  0.00    -0.508 OA
ATOM     19  H   UNL     1     -12.953  13.792  18.267  1.00  0.00     0.293 HD
ENDBRANCH  17  18
ENDBRANCH   2  12
BRANCH   8  20
ATOM     20  O   UNL     1     -18.048  16.631   8.507  1.00  0.00    -0.507 OA
ATOM     21  H   UNL     1     -18.730  17.061   9.113  1.00  0.00     0.293 HD
ENDBRANCH   8  20
BRANCH   6  22
ATOM     22  O   UNL     1     -13.754  14.813   7.308  1.00  0.00    -0.508 OA
ATOM     23  H   UNL     1     -12.945  14.248   7.542  1.00  0.00     0.293 HD
ENDBRANCH   6  22
TORSDOF 4
ENDMDL
MODEL 8
REMARK VINA RESULT:    -1.950     11.992     14.682
REMARK INTER + INTRA:          -2.520
REMARK INTER:                  -2.233
REMARK INTRA:                  -0.287
REMARK UNBOUND:                -0.285
REMARK SMILES O=C1C[C@@H](c2ccc(O)cc2)Oc2cc(O)cc(O)c21
REMARK SMILES IDX 3 1 4 2 12 3 13 4 14 5 15 6 17 7 18 8 20 9 2 10 1 11 5 12
REMARK SMILES IDX 6 13 11 14 7 15 10 16 8 17 9 18 19 20 16 22
REMARK H PARENT 9 19 19 21 16 23
REMARK Flexibility Score: inf
ROOT
ATOM      1  C   UNL     1     -25.513  16.961  20.751  1.00  0.00     0.131 C 
ATOM      2  C   UNL     1     -25.218  16.280  19.407  1.00  0.00     0.211 C 
ATOM      3  O   UNL     1     -24.707  17.228  18.465  1.00  0.00    -0.484 OA
ATOM      4  C   UNL     1     -23.806  18.240  18.823  1.00  0.00     0.138 A 
ATOM      5  C   UNL     1     -23.143  18.943  17.816  1.00  0.00     0.093 A 
ATOM      6  C   UNL     1     -22.229  19.946  18.141  1.00  0.00     0.123 A 
ATOM      7  C   UNL     1     -22.000  20.270  19.482  1.00  0.00     0.093 A 
ATOM      8  C   UNL     1     -22.685  19.605  20.507  1.00  0.00     0.133 A 
ATOM      9  C   UNL     1     -23.578  18.551  20.182  1.00  0.00     0.102 A 
ATOM     10  C   UNL     1     -24.303  17.733  21.186  1.00  0.00     0.174 C 
ATOM     11  O   UNL     1     -23.897  17.629  22.373  1.00  0.00    -0.294 OA
ENDROOT
BRANCH   2  12
ATOM     12  C   UNL     1     -26.462  15.624  18.857  1.00  0.00    -0.007 A 
ATOM     13  C   UNL     1     -26.367  14.487  18.036  1.00  0.00     0.011 A 
ATOM     14  C   UNL     1     -27.727  16.180  19.114  1.00  0.00     0.011 A 
ATOM     15  C   UNL     1     -27.520  13.901  17.505  1.00  0.00     0.046 A 
ATOM     16  C   UNL     1     -28.877  15.592  18.581  1.00  0.00     0.046 A 
ATOM     17  C   UNL     1     -28.779  14.452  17.778  1.00  0.00     0.115 A 
BRANCH  17  18
ATOM     18  O   UNL     1     -29.934  13.877  17.252  1.00  0.00    -0.508 OA
ATOM     19  H   UNL     1     -29.956  13.494  16.315  1.00  0.00     0.293 HD
ENDBRANCH  17  18
ENDBRANCH   2  12
BRANCH   8  20
ATOM     20  O   UNL     1     -22.471  20.048  21.815  1.00  0.00    -0.507 OA
ATOM     21  H   UNL     1     -22.787  20.939  22.167  1.00  0.00     0.293 HD
ENDBRANCH   8  20
BRANCH   6  22
ATOM     22  O   UNL     1     -21.560  20.623  17.123  1.00  0.00    -0.508 OA
ATOM     23  H   UNL     1     -21.503  21.635  17.108  1.00  0.00     0.293 HD
ENDBRANCH   6  22
TORSDOF 4
ENDMDL
