MODEL 1
REMARK VINA RESULT:    -2.364      0.000      0.000
REMARK INTER + INTRA:          -2.364
REMARK INTER:                  -2.364
REMARK INTRA:                   0.000
REMARK UNBOUND:                 0.000
REMARK SMILES CC(=O)[O-]
REMARK SMILES IDX 1 1 2 2 3 3 4 4
REMARK H PARENT
REMARK Flexibility Score: inf
ROOT
ATOM      1  C   UNL     1      19.570   2.842  40.985  1.00  0.00     0.063 C 
ATOM      2  C   UNL     1      20.909   3.181  41.549  1.00  0.00     0.038 C 
ATOM      3  O   UNL     1      21.142   4.346  41.963  1.00  0.00    -0.550 OA
ATOM      4  O   UNL     1      21.883   2.199  41.670  1.00  0.00    -0.550 OA
ENDROOT
TORSDOF 0
ENDMDL
MODEL 2
REMARK VINA RESULT:    -2.363      8.810      9.180
REMARK INTER + INTRA:          -2.363
REMARK INTER:                  -2.363
REMARK INTRA:                   0.000
REMARK UNBOUND:                 0.000
REMARK SMILES CC(=O)[O-]
REMARK SMILES IDX 1 1 2 2 3 3 4 4
REMARK H PARENT
REMARK Flexibility Score: inf
ROOT
ATOM      1  C   UNL     1      13.652  -3.879  39.602  1.00  0.00     0.063 C 
ATOM      2  C   UNL     1      14.045  -2.584  40.230  1.00  0.00     0.038 C 
ATOM      3  O   UNL     1      14.566  -2.571  41.375  1.00  0.00    -0.550 OA
ATOM      4  O   UNL     1      13.888  -1.395  39.531  1.00  0.00    -0.550 OA
ENDROOT
TORSDOF 0
ENDMDL
MODEL 3
REMARK VINA RESULT:    -2.347      3.560      3.788
REMARK INTER + INTRA:          -2.347
REMARK INTER:                  -2.347
REMARK INTRA:                   0.000
REMARK UNBOUND:                 0.000
REMARK SMILES CC(=O)[O-]
REMARK SMILES IDX 1 1 2 2 3 3 4 4
REMARK H PARENT
REMARK Flexibility Score: inf
ROOT
ATOM      1  C   UNL     1      19.210   2.482  40.256  1.00  0.00     0.063 C 
ATOM      2  C   UNL     1      17.730   2.585  40.411  1.00  0.00     0.038 C 
ATOM      3  O   UNL     1      17.154   3.692  40.246  1.00  0.00    -0.550 OA
ATOM      4  O   UNL     1      16.978   1.451  40.684  1.00  0.00    -0.550 OA
ENDROOT
TORSDOF 0
ENDMDL
MODEL 4
REMARK VINA RESULT:    -2.323      2.290      2.761
REMARK INTER + INTRA:          -2.323
REMARK INTER:                  -2.323
REMARK INTRA:                   0.000
REMARK UNBOUND:                 0.000
REMARK SMILES CC(=O)[O-]
REMARK SMILES IDX 1 1 2 2 3 3 4 4
REMARK H PARENT
REMARK Flexibility Score: inf
ROOT
ATOM      1  C   UNL     1      20.688   3.218  41.489  1.00  0.00     0.063 C 
ATOM      2  C   UNL     1      19.391   2.685  40.982  1.00  0.00     0.038 C 
ATOM      3  O   UNL     1      19.327   2.160  39.840  1.00  0.00    -0.550 OA
ATOM      4  O   UNL     1      18.262   2.718  41.789  1.00  0.00    -0.550 OA
ENDROOT
TORSDOF 0
ENDMDL
MODEL 5
REMARK VINA RESULT:    -2.323      7.569      7.945
REMARK INTER + INTRA:          -2.323
REMARK INTER:                  -2.323
REMARK INTRA:                   0.000
REMARK UNBOUND:                 0.000
REMARK SMILES CC(=O)[O-]
REMARK SMILES IDX 1 1 2 2 3 3 4 4
REMARK H PARENT
REMARK Flexibility Score: inf
ROOT
ATOM      1  C   UNL     1      14.550  -2.537  41.058  1.00  0.00     0.063 C 
ATOM      2  C   UNL     1      14.323  -1.078  41.266  1.00  0.00     0.038 C 
ATOM      3  O   UNL     1      13.241  -0.673  41.765  1.00  0.00    -0.550 OA
ATOM      4  O   UNL     1      15.325  -0.167  40.962  1.00  0.00    -0.550 OA
ENDROOT
TORSDOF 0
ENDMDL
MODEL 6
REMARK VINA RESULT:    -2.280      7.763      8.086
REMARK INTER + INTRA:          -2.280
REMARK INTER:                  -2.280
REMARK INTRA:                   0.000
REMARK UNBOUND:                 0.000
REMARK SMILES CC(=O)[O-]
REMARK SMILES IDX 1 1 2 2 3 3 4 4
REMARK H PARENT
REMARK Flexibility Score: inf
ROOT
ATOM      1  C   UNL     1      15.137  -0.055  40.935  1.00  0.00     0.063 C 
ATOM      2  C   UNL     1      14.121  -1.064  41.351  1.00  0.00     0.038 C 
ATOM      3  O   UNL     1      12.980  -0.692  41.729  1.00  0.00    -0.550 OA
ATOM      4  O   UNL     1      14.411  -2.419  41.270  1.00  0.00    -0.550 OA
ENDROOT
TORSDOF 0
ENDMDL
MODEL 7
REMARK VINA RESULT:    -2.252      8.706      9.261
REMARK INTER + INTRA:          -2.252
REMARK INTER:                  -2.252
REMARK INTRA:                   0.000
REMARK UNBOUND:                 0.000
REMARK SMILES CC(=O)[O-]
REMARK SMILES IDX 1 1 2 2 3 3 4 4
REMARK H PARENT
REMARK Flexibility Score: inf
ROOT
ATOM      1  C   UNL     1      14.650  -2.445  41.297  1.00  0.00     0.063 C 
ATOM      2  C   UNL     1      13.899  -2.352  40.012  1.00  0.00     0.038 C 
ATOM      3  O   UNL     1      13.367  -3.380  39.516  1.00  0.00    -0.550 OA
ATOM      4  O   UNL     1      13.738  -1.124  39.386  1.00  0.00    -0.550 OA
ENDROOT
TORSDOF 0
ENDMDL
MODEL 8
REMARK VINA RESULT:    -2.212      2.726      3.000
REMARK INTER + INTRA:          -2.212
REMARK INTER:                  -2.212
REMARK INTRA:                   0.000
REMARK UNBOUND:                 0.000
REMARK SMILES CC(=O)[O-]
REMARK SMILES IDX 1 1 2 2 3 3 4 4
REMARK H PARENT
REMARK Flexibility Score: inf
ROOT
ATOM      1  C   UNL     1      16.898   1.776  40.632  1.00  0.00     0.063 C 
ATOM      2  C   UNL     1      18.182   2.533  40.672  1.00  0.00     0.038 C 
ATOM      3  O   UNL     1      18.310   3.519  41.444  1.00  0.00    -0.550 OA
ATOM      4  O   UNL     1      19.260   2.119  39.901  1.00  0.00    -0.550 OA
ENDROOT
TORSDOF 0
ENDMDL
MODEL 9
REMARK VINA RESULT:    -2.154      2.637      3.217
REMARK INTER + INTRA:          -2.154
REMARK INTER:                  -2.154
REMARK INTRA:                   0.000
REMARK UNBOUND:                 0.000
REMARK SMILES CC(=O)[O-]
REMARK SMILES IDX 1 1 2 2 3 3 4 4
REMARK H PARENT
REMARK Flexibility Score: inf
ROOT
ATOM      1  C   UNL     1      17.017   1.751  40.627  1.00  0.00     0.063 C 
ATOM      2  C   UNL     1      18.316   2.480  40.698  1.00  0.00     0.038 C 
ATOM      3  O   UNL     1      19.230   2.224  39.871  1.00  0.00    -0.550 OA
ATOM      4  O   UNL     1      18.501   3.482  41.640  1.00  0.00    -0.550 OA
ENDROOT
TORSDOF 0
ENDMDL
