MODEL 1
REMARK VINA RESULT:    -5.099      0.000      0.000
REMARK INTER + INTRA:          -6.719
REMARK INTER:                  -6.292
REMARK INTRA:                  -0.428
REMARK UNBOUND:                -0.428
REMARK SMILES CC(C)=CCC[C@@H](C)c1ccc(C)cc1
REMARK SMILES IDX 6 1 7 2 8 3 9 4 13 5 12 6 11 7 14 8 10 9 15 10 5 11 4 12
REMARK SMILES IDX 2 13 1 14 3 15
REMARK H PARENT
REMARK Flexibility Score: inf
ROOT
ATOM      1  C   UNL     1      65.665  22.803  59.620  1.00  0.00     0.012 C 
ENDROOT
BRANCH   1   2
ATOM      2  C   UNL     1      66.341  22.089  58.427  1.00  0.00     0.016 C 
ATOM      3  C   UNL     1      65.418  21.981  57.202  1.00  0.00     0.013 C 
BRANCH   2   4
ATOM      4  C   UNL     1      67.707  22.675  58.103  1.00  0.00    -0.045 A 
ATOM      5  C   UNL     1      71.639  24.277  57.292  1.00  0.00     0.044 C 
ATOM      6  C   UNL     1      70.277  23.732  57.604  1.00  0.00    -0.051 A 
ATOM      7  C   UNL     1      69.140  24.533  57.440  1.00  0.00     0.004 A 
ATOM      8  C   UNL     1      70.126  22.397  58.006  1.00  0.00     0.004 A 
ATOM      9  C   UNL     1      67.867  24.016  57.697  1.00  0.00     0.004 A 
ATOM     10  C   UNL     1      68.855  21.878  58.264  1.00  0.00     0.004 A 
ENDBRANCH   2   4
ENDBRANCH   1   2
BRANCH   1  11
ATOM     11  C   UNL     1      64.876  21.875  60.558  1.00  0.00     0.028 C 
BRANCH  11  12
ATOM     12  C   UNL     1      64.660  22.536  61.898  1.00  0.00    -0.028 C 
ATOM     13  C   UNL     1      63.452  22.700  62.480  1.00  0.00    -0.080 C 
ATOM     14  C   UNL     1      63.391  23.344  63.841  1.00  0.00     0.039 C 
ATOM     15  C   UNL     1      62.171  22.274  61.800  1.00  0.00     0.039 C 
ENDBRANCH  11  12
ENDBRANCH   1  11
TORSDOF 4
ENDMDL
MODEL 2
REMARK VINA RESULT:    -4.658     11.452     14.939
REMARK INTER + INTRA:          -6.174
REMARK INTER:                  -5.390
REMARK INTRA:                  -0.785
REMARK UNBOUND:                -0.428
REMARK SMILES CC(C)=CCC[C@@H](C)c1ccc(C)cc1
REMARK SMILES IDX 6 1 7 2 8 3 9 4 13 5 12 6 11 7 14 8 10 9 15 10 5 11 4 12
REMARK SMILES IDX 2 13 1 14 3 15
REMARK H PARENT
REMARK Flexibility Score: inf
ROOT
ATOM      1  C   UNL     1      80.230  29.382  64.750  1.00  0.00     0.012 C 
ENDROOT
BRANCH   1   2
ATOM      2  C   UNL     1      79.964  28.629  66.073  1.00  0.00     0.016 C 
ATOM      3  C   UNL     1      80.029  29.551  67.302  1.00  0.00     0.013 C 
BRANCH   2   4
ATOM      4  C   UNL     1      78.694  27.792  66.014  1.00  0.00    -0.045 A 
ATOM      5  C   UNL     1      75.032  25.497  65.943  1.00  0.00     0.044 C 
ATOM      6  C   UNL     1      76.303  26.290  66.001  1.00  0.00    -0.051 A 
ATOM      7  C   UNL     1      77.544  25.643  65.932  1.00  0.00     0.004 A 
ATOM      8  C   UNL     1      76.260  27.690  66.063  1.00  0.00     0.004 A 
ATOM      9  C   UNL     1      78.729  26.384  65.950  1.00  0.00     0.004 A 
ATOM     10  C   UNL     1      77.443  28.432  66.081  1.00  0.00     0.004 A 
ENDBRANCH   2   4
ENDBRANCH   1   2
BRANCH   1  11
ATOM     11  C   UNL     1      79.560  28.760  63.513  1.00  0.00     0.028 C 
BRANCH  11  12
ATOM     12  C   UNL     1      79.246  29.823  62.489  1.00  0.00    -0.028 C 
ATOM     13  C   UNL     1      77.997  30.196  62.136  1.00  0.00    -0.080 C 
ATOM     14  C   UNL     1      77.834  31.301  61.125  1.00  0.00     0.039 C 
ATOM     15  C   UNL     1      76.770  29.526  62.711  1.00  0.00     0.039 C 
ENDBRANCH  11  12
ENDBRANCH   1  11
TORSDOF 4
ENDMDL
MODEL 3
REMARK VINA RESULT:    -4.592     12.328     14.232
REMARK INTER + INTRA:          -6.093
REMARK INTER:                  -5.299
REMARK INTRA:                  -0.794
REMARK UNBOUND:                -0.428
REMARK SMILES CC(C)=CCC[C@@H](C)c1ccc(C)cc1
REMARK SMILES IDX 6 1 7 2 8 3 9 4 13 5 12 6 11 7 14 8 10 9 15 10 5 11 4 12
REMARK SMILES IDX 2 13 1 14 3 15
REMARK H PARENT
REMARK Flexibility Score: inf
ROOT
ATOM      1  C   UNL     1      76.908  32.964  58.392  1.00  0.00     0.012 C 
ENDROOT
BRANCH   1   2
ATOM      2  C   UNL     1      76.114  31.936  59.230  1.00  0.00     0.016 C 
ATOM      3  C   UNL     1      75.360  30.918  58.358  1.00  0.00     0.013 C 
BRANCH   2   4
ATOM      4  C   UNL     1      76.970  31.288  60.308  1.00  0.00    -0.045 A 
ATOM      5  C   UNL     1      79.288  29.429  63.447  1.00  0.00     0.044 C 
ATOM      6  C   UNL     1      78.470  30.094  62.380  1.00  0.00    -0.051 A 
ATOM      7  C   UNL     1      78.966  31.218  61.707  1.00  0.00     0.004 A 
ATOM      8  C   UNL     1      77.229  29.560  62.006  1.00  0.00     0.004 A 
ATOM      9  C   UNL     1      78.219  31.818  60.689  1.00  0.00     0.004 A 
ATOM     10  C   UNL     1      76.481  30.158  60.989  1.00  0.00     0.004 A 
ENDBRANCH   2   4
ENDBRANCH   1   2
BRANCH   1  11
ATOM     11  C   UNL     1      76.188  34.306  58.177  1.00  0.00     0.028 C 
BRANCH  11  12
ATOM     12  C   UNL     1      75.536  34.347  56.817  1.00  0.00    -0.028 C 
ATOM     13  C   UNL     1      74.215  34.166  56.600  1.00  0.00    -0.080 C 
ATOM     14  C   UNL     1      73.696  34.273  55.189  1.00  0.00     0.039 C 
ATOM     15  C   UNL     1      73.256  33.847  57.724  1.00  0.00     0.039 C 
ENDBRANCH  11  12
ENDBRANCH   1  11
TORSDOF 4
ENDMDL
MODEL 4
REMARK VINA RESULT:    -4.584     14.627     19.459
REMARK INTER + INTRA:          -6.083
REMARK INTER:                  -5.329
REMARK INTRA:                  -0.754
REMARK UNBOUND:                -0.428
REMARK SMILES CC(C)=CCC[C@@H](C)c1ccc(C)cc1
REMARK SMILES IDX 6 1 7 2 8 3 9 4 13 5 12 6 11 7 14 8 10 9 15 10 5 11 4 12
REMARK SMILES IDX 2 13 1 14 3 15
REMARK H PARENT
REMARK Flexibility Score: inf
ROOT
ATOM      1  C   UNL     1      76.415  34.981  47.880  1.00  0.00     0.012 C 
ENDROOT
BRANCH   1   2
ATOM      2  C   UNL     1      75.960  36.134  48.805  1.00  0.00     0.016 C 
ATOM      3  C   UNL     1      75.206  37.239  48.045  1.00  0.00     0.013 C 
BRANCH   2   4
ATOM      4  C   UNL     1      75.213  35.629  50.031  1.00  0.00    -0.045 A 
ATOM      5  C   UNL     1      73.191  34.101  53.532  1.00  0.00     0.044 C 
ATOM      6  C   UNL     1      73.895  34.600  52.305  1.00  0.00    -0.051 A 
ATOM      7  C   UNL     1      73.161  34.972  51.172  1.00  0.00     0.004 A 
ATOM      8  C   UNL     1      75.288  34.757  52.305  1.00  0.00     0.004 A 
ATOM      9  C   UNL     1      73.813  35.471  50.040  1.00  0.00     0.004 A 
ATOM     10  C   UNL     1      75.942  35.254  51.175  1.00  0.00     0.004 A 
ENDBRANCH   2   4
ENDBRANCH   1   2
BRANCH   1  11
ATOM     11  C   UNL     1      77.909  34.634  47.979  1.00  0.00     0.028 C 
BRANCH  11  12
ATOM     12  C   UNL     1      78.658  35.719  48.713  1.00  0.00    -0.028 C 
ATOM     13  C   UNL     1      80.004  35.777  48.822  1.00  0.00    -0.080 C 
ATOM     14  C   UNL     1      80.617  36.943  49.553  1.00  0.00     0.039 C 
ATOM     15  C   UNL     1      80.899  34.703  48.249  1.00  0.00     0.039 C 
ENDBRANCH  11  12
ENDBRANCH   1  11
TORSDOF 4
ENDMDL
MODEL 5
REMARK VINA RESULT:    -4.316     12.872     15.521
REMARK INTER + INTRA:          -5.753
REMARK INTER:                  -5.200
REMARK INTRA:                  -0.553
REMARK UNBOUND:                -0.428
REMARK SMILES CC(C)=CCC[C@@H](C)c1ccc(C)cc1
REMARK SMILES IDX 6 1 7 2 8 3 9 4 13 5 12 6 11 7 14 8 10 9 15 10 5 11 4 12
REMARK SMILES IDX 2 13 1 14 3 15
REMARK H PARENT
REMARK Flexibility Score: inf
ROOT
ATOM      1  C   UNL     1      79.914  29.305  64.363  1.00  0.00     0.012 C 
ENDROOT
BRANCH   1   2
ATOM      2  C   UNL     1      81.022  28.445  65.012  1.00  0.00     0.016 C 
ATOM      3  C   UNL     1      81.650  29.120  66.244  1.00  0.00     0.013 C 
BRANCH   2   4
ATOM      4  C   UNL     1      80.564  27.018  65.276  1.00  0.00    -0.045 A 
ATOM      5  C   UNL     1      79.325  22.926  65.910  1.00  0.00     0.044 C 
ATOM      6  C   UNL     1      79.743  24.344  65.659  1.00  0.00    -0.051 A 
ATOM      7  C   UNL     1      78.860  25.399  65.924  1.00  0.00     0.004 A 
ATOM      8  C   UNL     1      81.042  24.630  65.215  1.00  0.00     0.004 A 
ATOM      9  C   UNL     1      79.260  26.723  65.724  1.00  0.00     0.004 A 
ATOM     10  C   UNL     1      81.444  25.952  65.014  1.00  0.00     0.004 A 
ENDBRANCH   2   4
ENDBRANCH   1   2
BRANCH   1  11
ATOM     11  C   UNL     1      79.584  28.932  62.909  1.00  0.00     0.028 C 
BRANCH  11  12
ATOM     12  C   UNL     1      79.185  30.158  62.124  1.00  0.00    -0.028 C 
ATOM     13  C   UNL     1      77.910  30.485  61.818  1.00  0.00    -0.080 C 
ATOM     14  C   UNL     1      77.658  31.763  61.061  1.00  0.00     0.039 C 
ATOM     15  C   UNL     1      76.744  29.602  62.198  1.00  0.00     0.039 C 
ENDBRANCH  11  12
ENDBRANCH   1  11
TORSDOF 4
ENDMDL
MODEL 6
REMARK VINA RESULT:    -4.236     11.749     15.343
REMARK INTER + INTRA:          -5.654
REMARK INTER:                  -4.313
REMARK INTRA:                  -1.341
REMARK UNBOUND:                -0.428
REMARK SMILES CC(C)=CCC[C@@H](C)c1ccc(C)cc1
REMARK SMILES IDX 6 1 7 2 8 3 9 4 13 5 12 6 11 7 14 8 10 9 15 10 5 11 4 12
REMARK SMILES IDX 2 13 1 14 3 15
REMARK H PARENT
REMARK Flexibility Score: inf
ROOT
ATOM      1  C   UNL     1      80.427  25.601  65.988  1.00  0.00     0.012 C 
ENDROOT
BRANCH   1   2
ATOM      2  C   UNL     1      79.594  26.029  67.218  1.00  0.00     0.016 C 
ATOM      3  C   UNL     1      80.344  27.020  68.124  1.00  0.00     0.013 C 
BRANCH   2   4
ATOM      4  C   UNL     1      78.199  26.499  66.835  1.00  0.00    -0.045 A 
ATOM      5  C   UNL     1      74.240  27.754  65.637  1.00  0.00     0.044 C 
ATOM      6  C   UNL     1      75.625  27.325  66.022  1.00  0.00    -0.051 A 
ATOM      7  C   UNL     1      76.541  28.260  66.520  1.00  0.00     0.004 A 
ATOM      8  C   UNL     1      75.993  25.974  65.944  1.00  0.00     0.004 A 
ATOM      9  C   UNL     1      77.821  27.855  66.912  1.00  0.00     0.004 A 
ATOM     10  C   UNL     1      77.271  25.568  66.335  1.00  0.00     0.004 A 
ENDBRANCH   2   4
ENDBRANCH   1   2
BRANCH   1  11
ATOM     11  C   UNL     1      81.269  26.726  65.363  1.00  0.00     0.028 C 
BRANCH  11  12
ATOM     12  C   UNL     1      80.485  27.443  64.292  1.00  0.00    -0.028 C 
ATOM     13  C   UNL     1      80.196  28.763  64.314  1.00  0.00    -0.080 C 
ATOM     14  C   UNL     1      79.436  29.352  63.154  1.00  0.00     0.039 C 
ATOM     15  C   UNL     1      80.599  29.651  65.469  1.00  0.00     0.039 C 
ENDBRANCH  11  12
ENDBRANCH   1  11
TORSDOF 4
ENDMDL
MODEL 7
REMARK VINA RESULT:    -4.231     12.990     15.409
REMARK INTER + INTRA:          -5.648
REMARK INTER:                  -4.142
REMARK INTRA:                  -1.506
REMARK UNBOUND:                -0.428
REMARK SMILES CC(C)=CCC[C@@H](C)c1ccc(C)cc1
REMARK SMILES IDX 6 1 7 2 8 3 9 4 13 5 12 6 11 7 14 8 10 9 15 10 5 11 4 12
REMARK SMILES IDX 2 13 1 14 3 15
REMARK H PARENT
REMARK Flexibility Score: inf
ROOT
ATOM      1  C   UNL     1      76.579  26.351  66.249  1.00  0.00     0.012 C 
ENDROOT
BRANCH   1   2
ATOM      2  C   UNL     1      76.592  27.866  66.555  1.00  0.00     0.016 C 
ATOM      3  C   UNL     1      75.891  28.209  67.880  1.00  0.00     0.013 C 
BRANCH   2   4
ATOM      4  C   UNL     1      77.987  28.465  66.439  1.00  0.00    -0.045 A 
ATOM      5  C   UNL     1      81.907  30.267  66.193  1.00  0.00     0.044 C 
ATOM      6  C   UNL     1      80.533  29.671  66.271  1.00  0.00    -0.051 A 
ATOM      7  C   UNL     1      79.934  29.125  65.128  1.00  0.00     0.004 A 
ATOM      8  C   UNL     1      79.862  29.601  67.500  1.00  0.00     0.004 A 
ATOM      9  C   UNL     1      78.668  28.538  65.207  1.00  0.00     0.004 A 
ATOM     10  C   UNL     1      78.597  29.015  67.580  1.00  0.00     0.004 A 
ENDBRANCH   2   4
ENDBRANCH   1   2
BRANCH   1  11
ATOM     11  C   UNL     1      77.617  25.531  67.033  1.00  0.00     0.028 C 
BRANCH  11  12
ATOM     12  C   UNL     1      78.606  24.888  66.091  1.00  0.00    -0.028 C 
ATOM     13  C   UNL     1      79.946  25.032  66.178  1.00  0.00    -0.080 C 
ATOM     14  C   UNL     1      80.814  24.299  65.188  1.00  0.00     0.039 C 
ATOM     15  C   UNL     1      80.589  25.916  67.221  1.00  0.00     0.039 C 
ENDBRANCH  11  12
ENDBRANCH   1  11
TORSDOF 4
ENDMDL
MODEL 8
REMARK VINA RESULT:    -4.222     12.571     14.606
REMARK INTER + INTRA:          -5.637
REMARK INTER:                  -4.540
REMARK INTRA:                  -1.097
REMARK UNBOUND:                -0.428
REMARK SMILES CC(C)=CCC[C@@H](C)c1ccc(C)cc1
REMARK SMILES IDX 6 1 7 2 8 3 9 4 13 5 12 6 11 7 14 8 10 9 15 10 5 11 4 12
REMARK SMILES IDX 2 13 1 14 3 15
REMARK H PARENT
REMARK Flexibility Score: inf
ROOT
ATOM      1  C   UNL     1      75.884  27.856  66.692  1.00  0.00     0.012 C 
ENDROOT
BRANCH   1   2
ATOM      2  C   UNL     1      76.618  28.149  65.363  1.00  0.00     0.016 C 
ATOM      3  C   UNL     1      75.799  29.048  64.421  1.00  0.00     0.013 C 
BRANCH   2   4
ATOM      4  C   UNL     1      78.039  28.646  65.586  1.00  0.00    -0.045 A 
ATOM      5  C   UNL     1      82.119  29.962  66.136  1.00  0.00     0.044 C 
ATOM      6  C   UNL     1      80.713  29.474  65.952  1.00  0.00    -0.051 A 
ATOM      7  C   UNL     1      79.833  29.426  67.041  1.00  0.00     0.004 A 
ATOM      8  C   UNL     1      80.249  29.120  64.677  1.00  0.00     0.004 A 
ATOM      9  C   UNL     1      78.512  29.005  66.865  1.00  0.00     0.004 A 
ATOM     10  C   UNL     1      78.929  28.699  64.499  1.00  0.00     0.004 A 
ENDBRANCH   2   4
ENDBRANCH   1   2
BRANCH   1  11
ATOM     11  C   UNL     1      76.203  26.484  67.310  1.00  0.00     0.028 C 
BRANCH  11  12
ATOM     12  C   UNL     1      76.783  25.557  66.271  1.00  0.00    -0.028 C 
ATOM     13  C   UNL     1      78.033  25.046  66.317  1.00  0.00    -0.080 C 
ATOM     14  C   UNL     1      78.464  24.100  65.227  1.00  0.00     0.039 C 
ATOM     15  C   UNL     1      79.005  25.411  67.415  1.00  0.00     0.039 C 
ENDBRANCH  11  12
ENDBRANCH   1  11
TORSDOF 4
ENDMDL
MODEL 9
REMARK VINA RESULT:    -4.161     13.275     16.159
REMARK INTER + INTRA:          -5.561
REMARK INTER:                  -4.412
REMARK INTRA:                  -1.149
REMARK UNBOUND:                -0.428
REMARK SMILES CC(C)=CCC[C@@H](C)c1ccc(C)cc1
REMARK SMILES IDX 6 1 7 2 8 3 9 4 13 5 12 6 11 7 14 8 10 9 15 10 5 11 4 12
REMARK SMILES IDX 2 13 1 14 3 15
REMARK H PARENT
REMARK Flexibility Score: inf
ROOT
ATOM      1  C   UNL     1      81.077  27.889  64.129  1.00  0.00     0.012 C 
ENDROOT
BRANCH   1   2
ATOM      2  C   UNL     1      79.729  28.613  64.348  1.00  0.00     0.016 C 
ATOM      3  C   UNL     1      79.090  29.085  63.031  1.00  0.00     0.013 C 
BRANCH   2   4
ATOM      4  C   UNL     1      78.779  27.809  65.224  1.00  0.00    -0.045 A 
ATOM      5  C   UNL     1      76.071  25.633  67.796  1.00  0.00     0.044 C 
ATOM      6  C   UNL     1      77.029  26.396  66.930  1.00  0.00    -0.051 A 
ATOM      7  C   UNL     1      78.146  25.756  66.377  1.00  0.00     0.004 A 
ATOM      8  C   UNL     1      76.782  27.740  66.618  1.00  0.00     0.004 A 
ATOM      9  C   UNL     1      79.020  26.456  65.541  1.00  0.00     0.004 A 
ATOM     10  C   UNL     1      77.655  28.442  65.784  1.00  0.00     0.004 A 
ENDBRANCH   2   4
ENDBRANCH   1   2
BRANCH   1  11
ATOM     11  C   UNL     1      82.125  28.141  65.225  1.00  0.00     0.028 C 
BRANCH  11  12
ATOM     12  C   UNL     1      81.894  29.481  65.880  1.00  0.00    -0.028 C 
ATOM     13  C   UNL     1      81.522  29.646  67.169  1.00  0.00    -0.080 C 
ATOM     14  C   UNL     1      81.366  31.047  67.699  1.00  0.00     0.039 C 
ATOM     15  C   UNL     1      81.244  28.471  68.077  1.00  0.00     0.039 C 
ENDBRANCH  11  12
ENDBRANCH   1  11
TORSDOF 4
ENDMDL
