MODEL 1
REMARK VINA RESULT:    -6.353      0.000      0.000
REMARK INTER + INTRA:          -7.966
REMARK INTER:                  -7.653
REMARK INTRA:                  -0.314
REMARK UNBOUND:                -0.314
REMARK SMILES Oc1cc(O)c2cc(O)c(-c3ccc(O)c(O)c3)[o+]c2c1
REMARK SMILES IDX 10 1 19 2 20 3 21 4 2 5 3 6 4 7 6 8 7 9 8 10 11 11 12 12
REMARK SMILES IDX 13 13 14 14 18 15 16 16 15 17 17 19 9 21 1 23 5 25
REMARK H PARENT 15 18 17 20 9 22 1 24 5 26
REMARK Flexibility Score: inf
ROOT
ATOM      1  C   UNL     1     479.605  37.657 459.510  1.00  0.00     0.402 A 
ATOM      2  O   UNL     1     479.381  36.457 460.040  1.00  0.00    -0.202 OA
ATOM      3  C   UNL     1     478.395  36.211 460.896  1.00  0.00     0.368 A 
ATOM      4  C   UNL     1     478.237  34.916 461.397  1.00  0.00     0.162 A 
ATOM      5  C   UNL     1     477.210  34.627 462.296  1.00  0.00     0.128 A 
ATOM      6  C   UNL     1     476.331  35.640 462.697  1.00  0.00     0.093 A 
ATOM      7  C   UNL     1     476.467  36.945 462.210  1.00  0.00     0.136 A 
ATOM      8  C   UNL     1     477.513  37.243 461.298  1.00  0.00     0.125 A 
ATOM      9  C   UNL     1     477.734  38.525 460.768  1.00  0.00     0.078 A 
ATOM     10  C   UNL     1     478.789  38.743 459.877  1.00  0.00     0.223 A 
ENDROOT
BRANCH   1  11
ATOM     11  C   UNL     1     480.730  37.803 458.559  1.00  0.00     0.087 A 
ATOM     12  C   UNL     1     480.553  37.429 457.218  1.00  0.00     0.022 A 
ATOM     13  C   UNL     1     481.595  37.577 456.298  1.00  0.00     0.051 A 
ATOM     14  C   UNL     1     482.822  38.113 456.700  1.00  0.00     0.157 A 
ATOM     15  C   UNL     1     481.958  38.361 458.956  1.00  0.00     0.068 A 
ATOM     16  C   UNL     1     483.004  38.512 458.034  1.00  0.00     0.158 A 
BRANCH  14  17
ATOM     17  O   UNL     1     483.844  38.246 455.760  1.00  0.00    -0.504 OA
ATOM     18  H   UNL     1     483.694  38.070 454.774  1.00  0.00     0.293 HD
ENDBRANCH  14  17
BRANCH  16  19
ATOM     19  O   UNL     1     484.221  39.061 458.438  1.00  0.00    -0.504 OA
ATOM     20  H   UNL     1     485.105  38.692 458.109  1.00  0.00     0.293 HD
ENDBRANCH  16  19
ENDBRANCH   1  11
BRANCH  10  21
ATOM     21  O   UNL     1     479.040  40.026 459.390  1.00  0.00    -0.500 OA
ATOM     22  H   UNL     1     478.788  40.296 458.447  1.00  0.00     0.294 HD
ENDBRANCH  10  21
BRANCH   5  23
ATOM     23  O   UNL     1     477.068  33.330 462.784  1.00  0.00    -0.507 OA
ATOM     24  H   UNL     1     477.343  32.525 462.235  1.00  0.00     0.293 HD
ENDBRANCH   5  23
BRANCH   7  25
ATOM     25  O   UNL     1     475.548  37.899 462.656  1.00  0.00    -0.507 OA
ATOM     26  H   UNL     1     475.473  38.218 463.610  1.00  0.00     0.293 HD
ENDBRANCH   7  25
TORSDOF 6
ENDMDL
MODEL 2
REMARK VINA RESULT:    -5.794      1.594      7.017
REMARK INTER + INTRA:          -7.293
REMARK INTER:                  -7.029
REMARK INTRA:                  -0.263
REMARK UNBOUND:                -0.314
REMARK SMILES Oc1cc(O)c2cc(O)c(-c3ccc(O)c(O)c3)[o+]c2c1
REMARK SMILES IDX 10 1 19 2 20 3 21 4 2 5 3 6 4 7 6 8 7 9 8 10 11 11 12 12
REMARK SMILES IDX 13 13 14 14 18 15 16 16 15 17 17 19 9 21 1 23 5 25
REMARK H PARENT 15 18 17 20 9 22 1 24 5 26
REMARK Flexibility Score: inf
ROOT
ATOM      1  C   UNL     1     480.144  37.982 459.182  1.00  0.00     0.402 A 
ATOM      2  O   UNL     1     481.434  37.947 459.507  1.00  0.00    -0.202 OA
ATOM      3  C   UNL     1     482.377  38.577 458.814  1.00  0.00     0.368 A 
ATOM      4  C   UNL     1     483.706  38.485 459.236  1.00  0.00     0.162 A 
ATOM      5  C   UNL     1     484.717  39.137 458.529  1.00  0.00     0.128 A 
ATOM      6  C   UNL     1     484.399  39.889 457.393  1.00  0.00     0.093 A 
ATOM      7  C   UNL     1     483.076  39.997 456.949  1.00  0.00     0.136 A 
ATOM      8  C   UNL     1     482.045  39.333 457.664  1.00  0.00     0.125 A 
ATOM      9  C   UNL     1     480.693  39.374 457.286  1.00  0.00     0.078 A 
ATOM     10  C   UNL     1     479.734  38.689 458.038  1.00  0.00     0.223 A 
ENDROOT
BRANCH   1  11
ATOM     11  C   UNL     1     479.187  37.247 460.040  1.00  0.00     0.087 A 
ATOM     12  C   UNL     1     479.253  35.847 460.107  1.00  0.00     0.022 A 
ATOM     13  C   UNL     1     478.373  35.134 460.926  1.00  0.00     0.051 A 
ATOM     14  C   UNL     1     477.425  35.808 461.700  1.00  0.00     0.157 A 
ATOM     15  C   UNL     1     478.246  37.925 460.835  1.00  0.00     0.068 A 
ATOM     16  C   UNL     1     477.362  37.211 461.659  1.00  0.00     0.158 A 
BRANCH  14  17
ATOM     17  O   UNL     1     476.558  35.071 462.505  1.00  0.00    -0.504 OA
ATOM     18  H   UNL     1     476.031  35.495 463.259  1.00  0.00     0.293 HD
ENDBRANCH  14  17
BRANCH  16  19
ATOM     19  O   UNL     1     476.428  37.891 462.440  1.00  0.00    -0.504 OA
ATOM     20  H   UNL     1     475.528  38.170 462.069  1.00  0.00     0.293 HD
ENDBRANCH  16  19
ENDBRANCH   1  11
BRANCH  10  21
ATOM     21  O   UNL     1     478.398  38.688 457.634  1.00  0.00    -0.500 OA
ATOM     22  H   UNL     1     477.795  37.890 457.789  1.00  0.00     0.294 HD
ENDBRANCH  10  21
BRANCH   5  23
ATOM     23  O   UNL     1     486.036  39.034 458.966  1.00  0.00    -0.507 OA
ATOM     24  H   UNL     1     486.697  38.414 458.514  1.00  0.00     0.293 HD
ENDBRANCH   5  23
BRANCH   7  25
ATOM     25  O   UNL     1     482.840  40.768 455.808  1.00  0.00    -0.507 OA
ATOM     26  H   UNL     1     483.562  41.128 455.201  1.00  0.00     0.293 HD
ENDBRANCH   7  25
TORSDOF 6
ENDMDL
MODEL 3
REMARK VINA RESULT:    -5.776      1.575      7.072
REMARK INTER + INTRA:          -7.272
REMARK INTER:                  -7.005
REMARK INTRA:                  -0.267
REMARK UNBOUND:                -0.314
REMARK SMILES Oc1cc(O)c2cc(O)c(-c3ccc(O)c(O)c3)[o+]c2c1
REMARK SMILES IDX 10 1 19 2 20 3 21 4 2 5 3 6 4 7 6 8 7 9 8 10 11 11 12 12
REMARK SMILES IDX 13 13 14 14 18 15 16 16 15 17 17 19 9 21 1 23 5 25
REMARK H PARENT 15 18 17 20 9 22 1 24 5 26
REMARK Flexibility Score: inf
ROOT
ATOM      1  C   UNL     1     480.164  38.230 459.424  1.00  0.00     0.402 A 
ATOM      2  O   UNL     1     481.403  38.229 459.909  1.00  0.00    -0.202 OA
ATOM      3  C   UNL     1     482.455  38.658 459.219  1.00  0.00     0.368 A 
ATOM      4  C   UNL     1     483.719  38.622 459.816  1.00  0.00     0.162 A 
ATOM      5  C   UNL     1     484.842  39.067 459.117  1.00  0.00     0.128 A 
ATOM      6  C   UNL     1     484.702  39.554 457.812  1.00  0.00     0.093 A 
ATOM      7  C   UNL     1     483.448  39.600 457.192  1.00  0.00     0.136 A 
ATOM      8  C   UNL     1     482.304  39.146 457.899  1.00  0.00     0.125 A 
ATOM      9  C   UNL     1     481.010  39.142 457.353  1.00  0.00     0.078 A 
ATOM     10  C   UNL     1     479.931  38.675 458.110  1.00  0.00     0.223 A 
ENDROOT
BRANCH   1  11
ATOM     11  C   UNL     1     479.072  37.737 460.294  1.00  0.00     0.087 A 
ATOM     12  C   UNL     1     478.133  38.645 460.807  1.00  0.00     0.022 A 
ATOM     13  C   UNL     1     477.083  38.200 461.613  1.00  0.00     0.051 A 
ATOM     14  C   UNL     1     476.946  36.840 461.908  1.00  0.00     0.157 A 
ATOM     15  C   UNL     1     478.920  36.367 460.575  1.00  0.00     0.068 A 
ATOM     16  C   UNL     1     477.866  35.917 461.383  1.00  0.00     0.158 A 
BRANCH  14  17
ATOM     17  O   UNL     1     475.889  36.425 462.718  1.00  0.00    -0.504 OA
ATOM     18  H   UNL     1     475.917  36.515 463.726  1.00  0.00     0.293 HD
ENDBRANCH  14  17
BRANCH  16  19
ATOM     19  O   UNL     1     477.726  34.558 461.661  1.00  0.00    -0.504 OA
ATOM     20  H   UNL     1     476.946  34.205 462.203  1.00  0.00     0.293 HD
ENDBRANCH  16  19
ENDBRANCH   1  11
BRANCH  10  21
ATOM     21  O   UNL     1     478.653  38.624 457.551  1.00  0.00    -0.500 OA
ATOM     22  H   UNL     1     478.220  39.442 457.140  1.00  0.00     0.294 HD
ENDBRANCH  10  21
BRANCH   5  23
ATOM     23  O   UNL     1     486.093  39.024 459.728  1.00  0.00    -0.507 OA
ATOM     24  H   UNL     1     486.828  39.672 459.477  1.00  0.00     0.293 HD
ENDBRANCH   5  23
BRANCH   7  25
ATOM     25  O   UNL     1     483.391  40.103 455.889  1.00  0.00    -0.507 OA
ATOM     26  H   UNL     1     483.809  39.657 455.086  1.00  0.00     0.293 HD
ENDBRANCH   7  25
TORSDOF 6
ENDMDL
MODEL 4
REMARK VINA RESULT:    -5.486      1.757      7.093
REMARK INTER + INTRA:          -6.922
REMARK INTER:                  -6.594
REMARK INTRA:                  -0.328
REMARK UNBOUND:                -0.314
REMARK SMILES Oc1cc(O)c2cc(O)c(-c3ccc(O)c(O)c3)[o+]c2c1
REMARK SMILES IDX 10 1 19 2 20 3 21 4 2 5 3 6 4 7 6 8 7 9 8 10 11 11 12 12
REMARK SMILES IDX 13 13 14 14 18 15 16 16 15 17 17 19 9 21 1 23 5 25
REMARK H PARENT 15 18 17 20 9 22 1 24 5 26
REMARK Flexibility Score: inf
ROOT
ATOM      1  C   UNL     1     480.158  38.353 459.453  1.00  0.00     0.402 A 
ATOM      2  O   UNL     1     481.334  38.449 460.067  1.00  0.00    -0.202 OA
ATOM      3  C   UNL     1     482.478  38.658 459.424  1.00  0.00     0.368 A 
ATOM      4  C   UNL     1     483.664  38.747 460.158  1.00  0.00     0.162 A 
ATOM      5  C   UNL     1     484.880  38.968 459.510  1.00  0.00     0.128 A 
ATOM      6  C   UNL     1     484.912  39.102 458.118  1.00  0.00     0.093 A 
ATOM      7  C   UNL     1     483.739  39.016 457.359  1.00  0.00     0.136 A 
ATOM      8  C   UNL     1     482.500  38.789 458.015  1.00  0.00     0.125 A 
ATOM      9  C   UNL     1     481.276  38.675 457.336  1.00  0.00     0.078 A 
ATOM     10  C   UNL     1     480.097  38.446 458.050  1.00  0.00     0.223 A 
ENDROOT
BRANCH   1  11
ATOM     11  C   UNL     1     478.951  38.130 460.281  1.00  0.00     0.087 A 
ATOM     12  C   UNL     1     478.717  36.860 460.833  1.00  0.00     0.022 A 
ATOM     13  C   UNL     1     477.596  36.632 461.634  1.00  0.00     0.051 A 
ATOM     14  C   UNL     1     476.700  37.669 461.909  1.00  0.00     0.157 A 
ATOM     15  C   UNL     1     478.060  39.177 460.576  1.00  0.00     0.068 A 
ATOM     16  C   UNL     1     476.935  38.950 461.381  1.00  0.00     0.158 A 
BRANCH  14  17
ATOM     17  O   UNL     1     475.588  37.411 462.710  1.00  0.00    -0.504 OA
ATOM     18  H   UNL     1     475.583  36.670 463.400  1.00  0.00     0.293 HD
ENDBRANCH  14  17
BRANCH  16  19
ATOM     19  O   UNL     1     476.053  39.993 461.664  1.00  0.00    -0.504 OA
ATOM     20  H   UNL     1     476.383  40.893 461.994  1.00  0.00     0.293 HD
ENDBRANCH  16  19
ENDBRANCH   1  11
BRANCH  10  21
ATOM     21  O   UNL     1     478.888  38.283 457.372  1.00  0.00    -0.500 OA
ATOM     22  H   UNL     1     478.763  38.608 456.421  1.00  0.00     0.294 HD
ENDBRANCH  10  21
BRANCH   5  23
ATOM     23  O   UNL     1     486.051  39.055 460.259  1.00  0.00    -0.507 OA
ATOM     24  H   UNL     1     486.757  38.331 460.225  1.00  0.00     0.293 HD
ENDBRANCH   5  23
BRANCH   7  25
ATOM     25  O   UNL     1     483.854  39.163 455.974  1.00  0.00    -0.507 OA
ATOM     26  H   UNL     1     484.070  40.032 455.508  1.00  0.00     0.293 HD
ENDBRANCH   7  25
TORSDOF 6
ENDMDL
MODEL 5
REMARK VINA RESULT:    -5.399      1.179      2.854
REMARK INTER + INTRA:          -6.817
REMARK INTER:                  -6.538
REMARK INTRA:                  -0.279
REMARK UNBOUND:                -0.314
REMARK SMILES Oc1cc(O)c2cc(O)c(-c3ccc(O)c(O)c3)[o+]c2c1
REMARK SMILES IDX 10 1 19 2 20 3 21 4 2 5 3 6 4 7 6 8 7 9 8 10 11 11 12 12
REMARK SMILES IDX 13 13 14 14 18 15 16 16 15 17 17 19 9 21 1 23 5 25
REMARK H PARENT 15 18 17 20 9 22 1 24 5 26
REMARK Flexibility Score: inf
ROOT
ATOM      1  C   UNL     1     479.585  37.541 459.555  1.00  0.00     0.402 A 
ATOM      2  O   UNL     1     478.896  38.612 459.938  1.00  0.00    -0.202 OA
ATOM      3  C   UNL     1     477.876  38.557 460.788  1.00  0.00     0.368 A 
ATOM      4  C   UNL     1     477.214  39.739 461.133  1.00  0.00     0.162 A 
ATOM      5  C   UNL     1     476.141  39.712 462.025  1.00  0.00     0.128 A 
ATOM      6  C   UNL     1     475.726  38.496 462.578  1.00  0.00     0.093 A 
ATOM      7  C   UNL     1     476.371  37.298 462.248  1.00  0.00     0.136 A 
ATOM      8  C   UNL     1     477.462  37.321 461.339  1.00  0.00     0.125 A 
ATOM      9  C   UNL     1     478.159  36.169 460.941  1.00  0.00     0.078 A 
ATOM     10  C   UNL     1     479.221  36.270 460.037  1.00  0.00     0.223 A 
ENDROOT
BRANCH   1  11
ATOM     11  C   UNL     1     480.709  37.733 458.610  1.00  0.00     0.087 A 
ATOM     12  C   UNL     1     480.547  37.376 457.263  1.00  0.00     0.022 A 
ATOM     13  C   UNL     1     481.587  37.567 456.349  1.00  0.00     0.051 A 
ATOM     14  C   UNL     1     482.797  38.130 456.763  1.00  0.00     0.157 A 
ATOM     15  C   UNL     1     481.920  38.319 459.020  1.00  0.00     0.068 A 
ATOM     16  C   UNL     1     482.964  38.513 458.105  1.00  0.00     0.158 A 
BRANCH  14  17
ATOM     17  O   UNL     1     483.818  38.306 455.829  1.00  0.00    -0.504 OA
ATOM     18  H   UNL     1     483.801  39.057 455.149  1.00  0.00     0.293 HD
ENDBRANCH  14  17
BRANCH  16  19
ATOM     19  O   UNL     1     484.164  39.090 458.521  1.00  0.00    -0.504 OA
ATOM     20  H   UNL     1     484.341  40.082 458.416  1.00  0.00     0.293 HD
ENDBRANCH  16  19
ENDBRANCH   1  11
BRANCH  10  21
ATOM     21  O   UNL     1     479.882  35.121 459.603  1.00  0.00    -0.500 OA
ATOM     22  H   UNL     1     480.893  35.072 459.561  1.00  0.00     0.294 HD
ENDBRANCH  10  21
BRANCH   5  23
ATOM     23  O   UNL     1     475.495  40.900 462.357  1.00  0.00    -0.507 OA
ATOM     24  H   UNL     1     475.183  41.551 461.647  1.00  0.00     0.293 HD
ENDBRANCH   5  23
BRANCH   7  25
ATOM     25  O   UNL     1     475.899  36.125 462.845  1.00  0.00    -0.507 OA
ATOM     26  H   UNL     1     475.039  35.662 462.592  1.00  0.00     0.293 HD
ENDBRANCH   7  25
TORSDOF 6
ENDMDL
MODEL 6
REMARK VINA RESULT:    -5.377      1.437      6.937
REMARK INTER + INTRA:          -6.791
REMARK INTER:                  -6.517
REMARK INTRA:                  -0.274
REMARK UNBOUND:                -0.314
REMARK SMILES Oc1cc(O)c2cc(O)c(-c3ccc(O)c(O)c3)[o+]c2c1
REMARK SMILES IDX 10 1 19 2 20 3 21 4 2 5 3 6 4 7 6 8 7 9 8 10 11 11 12 12
REMARK SMILES IDX 13 13 14 14 18 15 16 16 15 17 17 19 9 21 1 23 5 25
REMARK H PARENT 15 18 17 20 9 22 1 24 5 26
REMARK Flexibility Score: inf
ROOT
ATOM      1  C   UNL     1     479.336  37.549 460.460  1.00  0.00     0.402 A 
ATOM      2  O   UNL     1     479.394  37.288 459.157  1.00  0.00    -0.202 OA
ATOM      3  C   UNL     1     480.288  37.839 458.342  1.00  0.00     0.368 A 
ATOM      4  C   UNL     1     480.271  37.499 456.986  1.00  0.00     0.162 A 
ATOM      5  C   UNL     1     481.199  38.059 456.108  1.00  0.00     0.128 A 
ATOM      6  C   UNL     1     482.152  38.965 456.586  1.00  0.00     0.093 A 
ATOM      7  C   UNL     1     482.189  39.323 457.939  1.00  0.00     0.136 A 
ATOM      8  C   UNL     1     481.245  38.756 458.835  1.00  0.00     0.125 A 
ATOM      9  C   UNL     1     481.199  39.066 460.205  1.00  0.00     0.078 A 
ATOM     10  C   UNL     1     480.236  38.471 461.025  1.00  0.00     0.223 A 
ENDROOT
BRANCH   1  11
ATOM     11  C   UNL     1     478.300  36.864 461.266  1.00  0.00     0.087 A 
ATOM     12  C   UNL     1     477.166  37.578 461.684  1.00  0.00     0.022 A 
ATOM     13  C   UNL     1     476.166  36.947 462.428  1.00  0.00     0.051 A 
ATOM     14  C   UNL     1     476.276  35.591 462.753  1.00  0.00     0.157 A 
ATOM     15  C   UNL     1     478.398  35.496 461.577  1.00  0.00     0.068 A 
ATOM     16  C   UNL     1     477.395  34.860 462.322  1.00  0.00     0.158 A 
BRANCH  14  17
ATOM     17  O   UNL     1     475.263  34.989 463.499  1.00  0.00    -0.504 OA
ATOM     18  H   UNL     1     474.287  35.230 463.376  1.00  0.00     0.293 HD
ENDBRANCH  14  17
BRANCH  16  19
ATOM     19  O   UNL     1     477.503  33.504 462.630  1.00  0.00    -0.504 OA
ATOM     20  H   UNL     1     476.899  32.813 462.202  1.00  0.00     0.293 HD
ENDBRANCH  16  19
ENDBRANCH   1  11
BRANCH  10  21
ATOM     21  O   UNL     1     480.158  38.816 462.375  1.00  0.00    -0.500 OA
ATOM     22  H   UNL     1     480.045  39.777 462.673  1.00  0.00     0.294 HD
ENDBRANCH  10  21
BRANCH   5  23
ATOM     23  O   UNL     1     481.167  37.708 454.760  1.00  0.00    -0.507 OA
ATOM     24  H   UNL     1     481.360  36.762 454.454  1.00  0.00     0.293 HD
ENDBRANCH   5  23
BRANCH   7  25
ATOM     25  O   UNL     1     483.173  40.231 458.339  1.00  0.00    -0.507 OA
ATOM     26  H   UNL     1     484.009  40.436 457.812  1.00  0.00     0.293 HD
ENDBRANCH   7  25
TORSDOF 6
ENDMDL
MODEL 7
REMARK VINA RESULT:    -5.178      3.877      6.702
REMARK INTER + INTRA:          -6.551
REMARK INTER:                  -6.222
REMARK INTRA:                  -0.328
REMARK UNBOUND:                -0.314
REMARK SMILES Oc1cc(O)c2cc(O)c(-c3ccc(O)c(O)c3)[o+]c2c1
REMARK SMILES IDX 10 1 19 2 20 3 21 4 2 5 3 6 4 7 6 8 7 9 8 10 11 11 12 12
REMARK SMILES IDX 13 13 14 14 18 15 16 16 15 17 17 19 9 21 1 23 5 25
REMARK H PARENT 15 18 17 20 9 22 1 24 5 26
REMARK Flexibility Score: inf
ROOT
ATOM      1  C   UNL     1     484.257  39.966 459.776  1.00  0.00     0.402 A 
ATOM      2  O   UNL     1     482.964  39.856 460.072  1.00  0.00    -0.202 OA
ATOM      3  C   UNL     1     482.115  39.117 459.366  1.00  0.00     0.368 A 
ATOM      4  C   UNL     1     480.775  39.061 459.759  1.00  0.00     0.162 A 
ATOM      5  C   UNL     1     479.861  38.291 459.037  1.00  0.00     0.128 A 
ATOM      6  C   UNL     1     480.288  37.571 457.916  1.00  0.00     0.093 A 
ATOM      7  C   UNL     1     481.625  37.611 457.503  1.00  0.00     0.136 A 
ATOM      8  C   UNL     1     482.557  38.394 458.232  1.00  0.00     0.125 A 
ATOM      9  C   UNL     1     483.913  38.505 457.884  1.00  0.00     0.078 A 
ATOM     10  C   UNL     1     484.771  39.300 458.649  1.00  0.00     0.223 A 
ENDROOT
BRANCH   1  11
ATOM     11  C   UNL     1     485.105  40.812 460.647  1.00  0.00     0.087 A 
ATOM     12  C   UNL     1     485.918  40.207 461.617  1.00  0.00     0.022 A 
ATOM     13  C   UNL     1     486.742  40.984 462.436  1.00  0.00     0.051 A 
ATOM     14  C   UNL     1     486.777  42.374 462.288  1.00  0.00     0.157 A 
ATOM     15  C   UNL     1     485.157  42.209 460.486  1.00  0.00     0.068 A 
ATOM     16  C   UNL     1     485.984  42.990 461.306  1.00  0.00     0.158 A 
BRANCH  14  17
ATOM     17  O   UNL     1     487.606  43.124 463.121  1.00  0.00    -0.504 OA
ATOM     18  H   UNL     1     487.681  42.938 464.114  1.00  0.00     0.293 HD
ENDBRANCH  14  17
BRANCH  16  19
ATOM     19  O   UNL     1     486.025  44.375 461.143  1.00  0.00    -0.504 OA
ATOM     20  H   UNL     1     485.282  44.972 461.487  1.00  0.00     0.293 HD
ENDBRANCH  16  19
ENDBRANCH   1  11
BRANCH  10  21
ATOM     21  O   UNL     1     486.107  39.450 458.274  1.00  0.00    -0.500 OA
ATOM     22  H   UNL     1     486.652  38.671 457.922  1.00  0.00     0.294 HD
ENDBRANCH  10  21
BRANCH   5  23
ATOM     23  O   UNL     1     478.529  38.247 459.444  1.00  0.00    -0.507 OA
ATOM     24  H   UNL     1     478.115  37.400 459.813  1.00  0.00     0.293 HD
ENDBRANCH   5  23
BRANCH   7  25
ATOM     25  O   UNL     1     481.973  36.862 456.375  1.00  0.00    -0.507 OA
ATOM     26  H   UNL     1     481.888  35.858 456.307  1.00  0.00     0.293 HD
ENDBRANCH   7  25
TORSDOF 6
ENDMDL
MODEL 8
REMARK VINA RESULT:    -5.168      2.611      7.280
REMARK INTER + INTRA:          -6.539
REMARK INTER:                  -6.206
REMARK INTRA:                  -0.332
REMARK UNBOUND:                -0.314
REMARK SMILES Oc1cc(O)c2cc(O)c(-c3ccc(O)c(O)c3)[o+]c2c1
REMARK SMILES IDX 10 1 19 2 20 3 21 4 2 5 3 6 4 7 6 8 7 9 8 10 11 11 12 12
REMARK SMILES IDX 13 13 14 14 18 15 16 16 15 17 17 19 9 21 1 23 5 25
REMARK H PARENT 15 18 17 20 9 22 1 24 5 26
REMARK Flexibility Score: inf
ROOT
ATOM      1  C   UNL     1     480.925  38.790 460.473  1.00  0.00     0.402 A 
ATOM      2  O   UNL     1     481.754  39.291 461.384  1.00  0.00    -0.202 OA
ATOM      3  C   UNL     1     483.058  39.443 461.178  1.00  0.00     0.368 A 
ATOM      4  C   UNL     1     483.848  39.983 462.197  1.00  0.00     0.162 A 
ATOM      5  C   UNL     1     485.220  40.156 462.008  1.00  0.00     0.128 A 
ATOM      6  C   UNL     1     485.808  39.789 460.793  1.00  0.00     0.093 A 
ATOM      7  C   UNL     1     485.038  39.245 459.757  1.00  0.00     0.136 A 
ATOM      8  C   UNL     1     483.643  39.066 459.946  1.00  0.00     0.125 A 
ATOM      9  C   UNL     1     482.796  38.517 458.969  1.00  0.00     0.078 A 
ATOM     10  C   UNL     1     481.431  38.366 459.230  1.00  0.00     0.223 A 
ENDROOT
BRANCH   1  11
ATOM     11  C   UNL     1     479.489  38.680 460.818  1.00  0.00     0.087 A 
ATOM     12  C   UNL     1     478.644  39.782 460.615  1.00  0.00     0.022 A 
ATOM     13  C   UNL     1     477.281  39.695 460.914  1.00  0.00     0.051 A 
ATOM     14  C   UNL     1     476.741  38.504 461.406  1.00  0.00     0.157 A 
ATOM     15  C   UNL     1     478.939  37.476 461.293  1.00  0.00     0.068 A 
ATOM     16  C   UNL     1     477.572  37.386 461.592  1.00  0.00     0.158 A 
BRANCH  14  17
ATOM     17  O   UNL     1     475.378  38.447 461.698  1.00  0.00    -0.504 OA
ATOM     18  H   UNL     1     474.689  38.192 461.001  1.00  0.00     0.293 HD
ENDBRANCH  14  17
BRANCH  16  19
ATOM     19  O   UNL     1     477.035  36.190 462.068  1.00  0.00    -0.504 OA
ATOM     20  H   UNL     1     476.774  36.075 463.040  1.00  0.00     0.293 HD
ENDBRANCH  16  19
ENDBRANCH   1  11
BRANCH  10  21
ATOM     21  O   UNL     1     480.598  37.775 458.280  1.00  0.00    -0.500 OA
ATOM     22  H   UNL     1     479.790  38.258 457.906  1.00  0.00     0.294 HD
ENDBRANCH  10  21
BRANCH   5  23
ATOM     23  O   UNL     1     485.991  40.697 463.035  1.00  0.00    -0.507 OA
ATOM     24  H   UNL     1     486.892  41.122 462.854  1.00  0.00     0.293 HD
ENDBRANCH   5  23
BRANCH   7  25
ATOM     25  O   UNL     1     485.699  38.907 458.573  1.00  0.00    -0.507 OA
ATOM     26  H   UNL     1     486.260  38.078 458.448  1.00  0.00     0.293 HD
ENDBRANCH   7  25
TORSDOF 6
ENDMDL
MODEL 9
REMARK VINA RESULT:    -5.082      1.742      2.551
REMARK INTER + INTRA:          -6.436
REMARK INTER:                  -6.250
REMARK INTRA:                  -0.186
REMARK UNBOUND:                -0.314
REMARK SMILES Oc1cc(O)c2cc(O)c(-c3ccc(O)c(O)c3)[o+]c2c1
REMARK SMILES IDX 10 1 19 2 20 3 21 4 2 5 3 6 4 7 6 8 7 9 8 10 11 11 12 12
REMARK SMILES IDX 13 13 14 14 18 15 16 16 15 17 17 19 9 21 1 23 5 25
REMARK H PARENT 15 18 17 20 9 22 1 24 5 26
REMARK Flexibility Score: inf
ROOT
ATOM      1  C   UNL     1     480.615  39.160 460.251  1.00  0.00     0.402 A 
ATOM      2  O   UNL     1     480.087  38.036 460.729  1.00  0.00    -0.202 OA
ATOM      3  C   UNL     1     478.827  37.939 461.139  1.00  0.00     0.368 A 
ATOM      4  C   UNL     1     478.362  36.713 461.623  1.00  0.00     0.162 A 
ATOM      5  C   UNL     1     477.043  36.581 462.058  1.00  0.00     0.128 A 
ATOM      6  C   UNL     1     476.180  37.681 462.009  1.00  0.00     0.093 A 
ATOM      7  C   UNL     1     476.621  38.920 461.530  1.00  0.00     0.136 A 
ATOM      8  C   UNL     1     477.963  39.059 461.088  1.00  0.00     0.125 A 
ATOM      9  C   UNL     1     478.496  40.265 460.605  1.00  0.00     0.078 A 
ATOM     10  C   UNL     1     479.830  40.326 460.192  1.00  0.00     0.223 A 
ENDROOT
BRANCH   1  11
ATOM     11  C   UNL     1     482.030  39.139 459.816  1.00  0.00     0.087 A 
ATOM     12  C   UNL     1     482.982  39.889 460.525  1.00  0.00     0.022 A 
ATOM     13  C   UNL     1     484.326  39.868 460.144  1.00  0.00     0.051 A 
ATOM     14  C   UNL     1     484.742  39.089 459.061  1.00  0.00     0.157 A 
ATOM     15  C   UNL     1     482.454  38.340 458.739  1.00  0.00     0.068 A 
ATOM     16  C   UNL     1     483.803  38.316 458.357  1.00  0.00     0.158 A 
BRANCH  14  17
ATOM     17  O   UNL     1     486.090  39.090 458.702  1.00  0.00    -0.504 OA
ATOM     18  H   UNL     1     486.398  39.333 457.769  1.00  0.00     0.293 HD
ENDBRANCH  14  17
BRANCH  16  19
ATOM     19  O   UNL     1     484.214  37.525 457.285  1.00  0.00    -0.504 OA
ATOM     20  H   UNL     1     483.585  37.289 456.526  1.00  0.00     0.293 HD
ENDBRANCH  16  19
ENDBRANCH   1  11
BRANCH  10  21
ATOM     21  O   UNL     1     480.374  41.536 459.759  1.00  0.00    -0.500 OA
ATOM     22  H   UNL     1     479.883  42.414 459.880  1.00  0.00     0.294 HD
ENDBRANCH  10  21
BRANCH   5  23
ATOM     23  O   UNL     1     476.598  35.350 462.536  1.00  0.00    -0.507 OA
ATOM     24  H   UNL     1     475.674  35.239 462.936  1.00  0.00     0.293 HD
ENDBRANCH   5  23
BRANCH   7  25
ATOM     25  O   UNL     1     475.698  39.969 461.510  1.00  0.00    -0.507 OA
ATOM     26  H   UNL     1     475.208  40.316 462.322  1.00  0.00     0.293 HD
ENDBRANCH   7  25
TORSDOF 6
ENDMDL
