MODEL 1
REMARK VINA RESULT:    -4.056      0.000      0.000
REMARK INTER + INTRA:          -7.331
REMARK INTER:                  -6.545
REMARK INTRA:                  -0.786
REMARK UNBOUND:                -0.786
REMARK SMILES CCCCCCCCCCCCO
REMARK SMILES IDX 7 1 6 2 5 3 4 4 3 5 2 6 1 7 8 8 9 9 10 10 11 11 12 12 13 13
REMARK H PARENT 13 14
REMARK Flexibility Score: inf
ROOT
ATOM      1  C   UNL     1     163.580 177.703 181.380  1.00  0.00     0.000 C 
ENDROOT
BRANCH   1   2
ATOM      2  C   UNL     1     162.941 176.320 181.163  1.00  0.00    -0.000 C 
BRANCH   2   3
ATOM      3  C   UNL     1     161.477 176.402 180.692  1.00  0.00    -0.000 C 
BRANCH   3   4
ATOM      4  C   UNL     1     160.573 175.241 181.149  1.00  0.00    -0.000 C 
BRANCH   4   5
ATOM      5  C   UNL     1     160.738 173.978 180.286  1.00  0.00    -0.000 C 
BRANCH   5   6
ATOM      6  C   UNL     1     161.101 172.740 181.120  1.00  0.00    -0.003 C 
ATOM      7  C   UNL     1     160.736 172.891 182.597  1.00  0.00     0.004 C 
ENDBRANCH   5   6
ENDBRANCH   4   5
ENDBRANCH   3   4
ENDBRANCH   2   3
ENDBRANCH   1   2
BRANCH   1   8
ATOM      8  C   UNL     1     162.544 178.840 181.363  1.00  0.00     0.000 C 
BRANCH   8   9
ATOM      9  C   UNL     1     162.811 179.869 180.254  1.00  0.00     0.000 C 
BRANCH   9  10
ATOM     10  C   UNL     1     161.692 179.845 179.205  1.00  0.00     0.002 C 
BRANCH  10  11
ATOM     11  C   UNL     1     162.265 179.643 177.795  1.00  0.00     0.028 C 
BRANCH  11  12
ATOM     12  C   UNL     1     163.632 178.950 177.830  1.00  0.00     0.156 C 
BRANCH  12  13
ATOM     13  O   UNL     1     164.597 179.713 177.158  1.00  0.00    -0.396 OA
ATOM     14  H   UNL     1     165.457 179.221 177.241  1.00  0.00     0.210 HD
ENDBRANCH  12  13
ENDBRANCH  11  12
ENDBRANCH  10  11
ENDBRANCH   9  10
ENDBRANCH   8   9
ENDBRANCH   1   8
TORSDOF 11
ENDMDL
MODEL 2
REMARK VINA RESULT:    -4.054     12.521     14.379
REMARK INTER + INTRA:          -7.327
REMARK INTER:                  -5.845
REMARK INTRA:                  -1.483
REMARK UNBOUND:                -0.786
REMARK SMILES CCCCCCCCCCCCO
REMARK SMILES IDX 7 1 6 2 5 3 4 4 3 5 2 6 1 7 8 8 9 9 10 10 11 11 12 12 13 13
REMARK H PARENT 13 14
REMARK Flexibility Score: inf
ROOT
ATOM      1  C   UNL     1     177.439 179.694 179.732  1.00  0.00     0.000 C 
ENDROOT
BRANCH   1   2
ATOM      2  C   UNL     1     176.554 180.117 178.546  1.00  0.00    -0.000 C 
BRANCH   2   3
ATOM      3  C   UNL     1     175.584 179.009 178.097  1.00  0.00    -0.000 C 
BRANCH   3   4
ATOM      4  C   UNL     1     174.152 179.122 178.654  1.00  0.00    -0.000 C 
BRANCH   4   5
ATOM      5  C   UNL     1     173.661 177.822 179.313  1.00  0.00    -0.000 C 
BRANCH   5   6
ATOM      6  C   UNL     1     173.081 178.057 180.717  1.00  0.00    -0.003 C 
ATOM      7  C   UNL     1     173.015 179.539 181.091  1.00  0.00     0.004 C 
ENDBRANCH   5   6
ENDBRANCH   4   5
ENDBRANCH   3   4
ENDBRANCH   2   3
ENDBRANCH   1   2
BRANCH   1   8
ATOM      8  C   UNL     1     176.709 179.804 181.081  1.00  0.00     0.000 C 
BRANCH   8   9
ATOM      9  C   UNL     1     176.677 178.474 181.849  1.00  0.00     0.000 C 
BRANCH   9  10
ATOM     10  C   UNL     1     177.441 177.384 181.087  1.00  0.00     0.002 C 
BRANCH  10  11
ATOM     11  C   UNL     1     176.519 176.207 180.740  1.00  0.00     0.028 C 
BRANCH  11  12
ATOM     12  C   UNL     1     177.311 174.992 180.243  1.00  0.00     0.156 C 
BRANCH  12  13
ATOM     13  O   UNL     1     178.636 175.344 179.948  1.00  0.00    -0.396 OA
ATOM     14  H   UNL     1     179.212 174.636 180.342  1.00  0.00     0.210 HD
ENDBRANCH  12  13
ENDBRANCH  11  12
ENDBRANCH  10  11
ENDBRANCH   9  10
ENDBRANCH   8   9
ENDBRANCH   1   8
TORSDOF 11
ENDMDL
MODEL 3
REMARK VINA RESULT:    -4.044      1.789      3.162
REMARK INTER + INTRA:          -7.312
REMARK INTER:                  -5.697
REMARK INTRA:                  -1.615
REMARK UNBOUND:                -0.786
REMARK SMILES CCCCCCCCCCCCO
REMARK SMILES IDX 7 1 6 2 5 3 4 4 3 5 2 6 1 7 8 8 9 9 10 10 11 11 12 12 13 13
REMARK H PARENT 13 14
REMARK Flexibility Score: inf
ROOT
ATOM      1  C   UNL     1     162.300 180.125 179.870  1.00  0.00     0.000 C 
ENDROOT
BRANCH   1   2
ATOM      2  C   UNL     1     161.405 179.250 178.974  1.00  0.00    -0.000 C 
BRANCH   2   3
ATOM      3  C   UNL     1     162.204 178.231 178.141  1.00  0.00    -0.000 C 
BRANCH   3   4
ATOM      4  C   UNL     1     162.012 176.756 178.546  1.00  0.00    -0.000 C 
BRANCH   4   5
ATOM      5  C   UNL     1     163.132 176.235 179.462  1.00  0.00    -0.000 C 
BRANCH   5   6
ATOM      6  C   UNL     1     162.593 175.682 180.791  1.00  0.00    -0.003 C 
ATOM      7  C   UNL     1     161.146 176.094 181.062  1.00  0.00     0.004 C 
ENDBRANCH   5   6
ENDBRANCH   4   5
ENDBRANCH   3   4
ENDBRANCH   2   3
ENDBRANCH   1   2
BRANCH   1   8
ATOM      8  C   UNL     1     162.515 179.513 181.264  1.00  0.00     0.000 C 
BRANCH   8   9
ATOM      9  C   UNL     1     163.983 179.140 181.528  1.00  0.00     0.000 C 
BRANCH   9  10
ATOM     10  C   UNL     1     164.878 179.587 180.365  1.00  0.00     0.002 C 
BRANCH  10  11
ATOM     11  C   UNL     1     166.094 178.663 180.222  1.00  0.00     0.028 C 
BRANCH  11  12
ATOM     12  C   UNL     1     166.292 178.205 178.772  1.00  0.00     0.156 C 
BRANCH  12  13
ATOM     13  O   UNL     1     165.685 179.098 177.877  1.00  0.00    -0.396 OA
ATOM     14  H   UNL     1     165.238 179.793 178.429  1.00  0.00     0.210 HD
ENDBRANCH  12  13
ENDBRANCH  11  12
ENDBRANCH  10  11
ENDBRANCH   9  10
ENDBRANCH   8   9
ENDBRANCH   1   8
TORSDOF 11
ENDMDL
MODEL 4
REMARK VINA RESULT:    -4.036      2.219      5.127
REMARK INTER + INTRA:          -7.299
REMARK INTER:                  -5.948
REMARK INTRA:                  -1.351
REMARK UNBOUND:                -0.786
REMARK SMILES CCCCCCCCCCCCO
REMARK SMILES IDX 7 1 6 2 5 3 4 4 3 5 2 6 1 7 8 8 9 9 10 10 11 11 12 12 13 13
REMARK H PARENT 13 14
REMARK Flexibility Score: inf
ROOT
ATOM      1  C   UNL     1     164.617 177.776 180.523  1.00  0.00     0.000 C 
ENDROOT
BRANCH   1   2
ATOM      2  C   UNL     1     164.369 179.260 180.850  1.00  0.00    -0.000 C 
BRANCH   2   3
ATOM      3  C   UNL     1     163.087 179.487 181.671  1.00  0.00    -0.000 C 
BRANCH   3   4
ATOM      4  C   UNL     1     161.869 179.980 180.867  1.00  0.00    -0.000 C 
BRANCH   4   5
ATOM      5  C   UNL     1     162.161 180.121 179.363  1.00  0.00    -0.000 C 
BRANCH   5   6
ATOM      6  C   UNL     1     161.362 179.121 178.513  1.00  0.00    -0.003 C 
ATOM      7  C   UNL     1     162.244 178.045 177.878  1.00  0.00     0.004 C 
ENDBRANCH   5   6
ENDBRANCH   4   5
ENDBRANCH   3   4
ENDBRANCH   2   3
ENDBRANCH   1   2
BRANCH   1   8
ATOM      8  C   UNL     1     163.917 176.830 181.512  1.00  0.00     0.000 C 
BRANCH   8   9
ATOM      9  C   UNL     1     162.942 175.864 180.821  1.00  0.00     0.000 C 
BRANCH   9  10
ATOM     10  C   UNL     1     161.488 176.278 181.077  1.00  0.00     0.002 C 
BRANCH  10  11
ATOM     11  C   UNL     1     160.560 175.056 181.075  1.00  0.00     0.028 C 
BRANCH  11  12
ATOM     12  C   UNL     1     160.725 174.219 179.801  1.00  0.00     0.156 C 
BRANCH  12  13
ATOM     13  O   UNL     1     160.233 174.908 178.683  1.00  0.00    -0.396 OA
ATOM     14  H   UNL     1     161.020 175.132 178.119  1.00  0.00     0.210 HD
ENDBRANCH  12  13
ENDBRANCH  11  12
ENDBRANCH  10  11
ENDBRANCH   9  10
ENDBRANCH   8   9
ENDBRANCH   1   8
TORSDOF 11
ENDMDL
MODEL 5
REMARK VINA RESULT:    -3.987      1.493      2.181
REMARK INTER + INTRA:          -7.219
REMARK INTER:                  -5.892
REMARK INTRA:                  -1.327
REMARK UNBOUND:                -0.786
REMARK SMILES CCCCCCCCCCCCO
REMARK SMILES IDX 7 1 6 2 5 3 4 4 3 5 2 6 1 7 8 8 9 9 10 10 11 11 12 12 13 13
REMARK H PARENT 13 14
REMARK Flexibility Score: inf
ROOT
ATOM      1  C   UNL     1     162.579 178.702 181.791  1.00  0.00     0.000 C 
ENDROOT
BRANCH   1   2
ATOM      2  C   UNL     1     164.067 178.475 181.471  1.00  0.00    -0.000 C 
BRANCH   2   3
ATOM      3  C   UNL     1     164.449 176.985 181.415  1.00  0.00    -0.000 C 
BRANCH   3   4
ATOM      4  C   UNL     1     163.928 176.218 180.184  1.00  0.00    -0.000 C 
BRANCH   4   5
ATOM      5  C   UNL     1     162.888 175.144 180.543  1.00  0.00    -0.000 C 
BRANCH   5   6
ATOM      6  C   UNL     1     161.466 175.535 180.113  1.00  0.00    -0.003 C 
ATOM      7  C   UNL     1     160.485 175.590 181.285  1.00  0.00     0.004 C 
ENDBRANCH   5   6
ENDBRANCH   4   5
ENDBRANCH   3   4
ENDBRANCH   2   3
ENDBRANCH   1   2
BRANCH   1   8
ATOM      8  C   UNL     1     162.006 179.939 181.080  1.00  0.00     0.000 C 
BRANCH   8   9
ATOM      9  C   UNL     1     162.469 180.053 179.620  1.00  0.00     0.000 C 
BRANCH   9  10
ATOM     10  C   UNL     1     161.690 179.084 178.722  1.00  0.00     0.002 C 
BRANCH  10  11
ATOM     11  C   UNL     1     162.620 178.404 177.708  1.00  0.00     0.028 C 
BRANCH  11  12
ATOM     12  C   UNL     1     163.077 179.377 176.615  1.00  0.00     0.156 C 
BRANCH  12  13
ATOM     13  O   UNL     1     164.411 179.760 176.810  1.00  0.00    -0.396 OA
ATOM     14  H   UNL     1     164.800 179.905 175.907  1.00  0.00     0.210 HD
ENDBRANCH  12  13
ENDBRANCH  11  12
ENDBRANCH  10  11
ENDBRANCH   9  10
ENDBRANCH   8   9
ENDBRANCH   1   8
TORSDOF 11
ENDMDL
MODEL 6
REMARK VINA RESULT:    -3.962     13.856     15.307
REMARK INTER + INTRA:          -7.180
REMARK INTER:                  -5.974
REMARK INTRA:                  -1.206
REMARK UNBOUND:                -0.786
REMARK SMILES CCCCCCCCCCCCO
REMARK SMILES IDX 7 1 6 2 5 3 4 4 3 5 2 6 1 7 8 8 9 9 10 10 11 11 12 12 13 13
REMARK H PARENT 13 14
REMARK Flexibility Score: inf
ROOT
ATOM      1  C   UNL     1     176.561 179.625 181.118  1.00  0.00     0.000 C 
ENDROOT
BRANCH   1   2
ATOM      2  C   UNL     1     177.548 180.124 180.048  1.00  0.00    -0.000 C 
BRANCH   2   3
ATOM      3  C   UNL     1     177.120 179.752 178.617  1.00  0.00    -0.000 C 
BRANCH   3   4
ATOM      4  C   UNL     1     175.603 179.788 178.354  1.00  0.00    -0.000 C 
BRANCH   4   5
ATOM      5  C   UNL     1     175.091 178.534 177.624  1.00  0.00    -0.000 C 
BRANCH   5   6
ATOM      6  C   UNL     1     176.120 177.973 176.630  1.00  0.00    -0.003 C 
ATOM      7  C   UNL     1     175.805 178.343 175.180  1.00  0.00     0.004 C 
ENDBRANCH   5   6
ENDBRANCH   4   5
ENDBRANCH   3   4
ENDBRANCH   2   3
ENDBRANCH   1   2
BRANCH   1   8
ATOM      8  C   UNL     1     176.891 178.206 181.609  1.00  0.00     0.000 C 
BRANCH   8   9
ATOM      9  C   UNL     1     175.697 177.245 181.491  1.00  0.00     0.000 C 
BRANCH   9  10
ATOM     10  C   UNL     1     175.984 176.140 180.467  1.00  0.00     0.002 C 
BRANCH  10  11
ATOM     11  C   UNL     1     177.493 175.914 180.309  1.00  0.00     0.028 C 
BRANCH  11  12
ATOM     12  C   UNL     1     177.857 174.427 180.380  1.00  0.00     0.156 C 
BRANCH  12  13
ATOM     13  O   UNL     1     178.481 174.006 179.197  1.00  0.00    -0.396 OA
ATOM     14  H   UNL     1     179.435 174.278 179.268  1.00  0.00     0.210 HD
ENDBRANCH  12  13
ENDBRANCH  11  12
ENDBRANCH  10  11
ENDBRANCH   9  10
ENDBRANCH   8   9
ENDBRANCH   1   8
TORSDOF 11
ENDMDL
MODEL 7
REMARK VINA RESULT:    -3.925     11.287     12.896
REMARK INTER + INTRA:          -7.121
REMARK INTER:                  -6.311
REMARK INTRA:                  -0.810
REMARK UNBOUND:                -0.786
REMARK SMILES CCCCCCCCCCCCO
REMARK SMILES IDX 7 1 6 2 5 3 4 4 3 5 2 6 1 7 8 8 9 9 10 10 11 11 12 12 13 13
REMARK H PARENT 13 14
REMARK Flexibility Score: inf
ROOT
ATOM      1  C   UNL     1     175.586 177.466 181.528  1.00  0.00     0.000 C 
ENDROOT
BRANCH   1   2
ATOM      2  C   UNL     1     174.173 177.853 181.055  1.00  0.00    -0.000 C 
BRANCH   2   3
ATOM      3  C   UNL     1     173.891 179.361 181.177  1.00  0.00    -0.000 C 
BRANCH   3   4
ATOM      4  C   UNL     1     172.410 179.766 181.049  1.00  0.00    -0.000 C 
BRANCH   4   5
ATOM      5  C   UNL     1     171.444 178.615 181.372  1.00  0.00    -0.000 C 
BRANCH   5   6
ATOM      6  C   UNL     1     170.217 178.600 180.447  1.00  0.00    -0.003 C 
ATOM      7  C   UNL     1     168.896 178.528 181.214  1.00  0.00     0.004 C 
ENDBRANCH   5   6
ENDBRANCH   4   5
ENDBRANCH   3   4
ENDBRANCH   2   3
ENDBRANCH   1   2
BRANCH   1   8
ATOM      8  C   UNL     1     176.565 178.651 181.489  1.00  0.00     0.000 C 
BRANCH   8   9
ATOM      9  C   UNL     1     177.493 178.613 180.265  1.00  0.00     0.000 C 
BRANCH   9  10
ATOM     10  C   UNL     1     177.182 179.768 179.306  1.00  0.00     0.002 C 
BRANCH  10  11
ATOM     11  C   UNL     1     176.516 179.254 178.023  1.00  0.00     0.028 C 
BRANCH  11  12
ATOM     12  C   UNL     1     176.751 177.752 177.823  1.00  0.00     0.156 C 
BRANCH  12  13
ATOM     13  O   UNL     1     177.808 177.524 176.931  1.00  0.00    -0.396 OA
ATOM     14  H   UNL     1     177.781 176.558 176.699  1.00  0.00     0.210 HD
ENDBRANCH  12  13
ENDBRANCH  11  12
ENDBRANCH  10  11
ENDBRANCH   9  10
ENDBRANCH   8   9
ENDBRANCH   1   8
TORSDOF 11
ENDMDL
MODEL 8
REMARK VINA RESULT:    -3.925      2.849      5.708
REMARK INTER + INTRA:          -7.120
REMARK INTER:                  -5.776
REMARK INTRA:                  -1.344
REMARK UNBOUND:                -0.786
REMARK SMILES CCCCCCCCCCCCO
REMARK SMILES IDX 7 1 6 2 5 3 4 4 3 5 2 6 1 7 8 8 9 9 10 10 11 11 12 12 13 13
REMARK H PARENT 13 14
REMARK Flexibility Score: inf
ROOT
ATOM      1  C   UNL     1     162.258 177.822 178.079  1.00  0.00     0.000 C 
ENDROOT
BRANCH   1   2
ATOM      2  C   UNL     1     161.405 179.035 178.494  1.00  0.00    -0.000 C 
BRANCH   2   3
ATOM      3  C   UNL     1     162.197 180.074 179.309  1.00  0.00    -0.000 C 
BRANCH   3   4
ATOM      4  C   UNL     1     161.973 180.026 180.832  1.00  0.00    -0.000 C 
BRANCH   4   5
ATOM      5  C   UNL     1     163.177 179.448 181.596  1.00  0.00    -0.000 C 
BRANCH   5   6
ATOM      6  C   UNL     1     164.462 179.444 180.752  1.00  0.00    -0.003 C 
ATOM      7  C   UNL     1     165.192 178.101 180.791  1.00  0.00     0.004 C 
ENDBRANCH   5   6
ENDBRANCH   4   5
ENDBRANCH   3   4
ENDBRANCH   2   3
ENDBRANCH   1   2
BRANCH   1   8
ATOM      8  C   UNL     1     161.694 176.495 178.614  1.00  0.00     0.000 C 
BRANCH   8   9
ATOM      9  C   UNL     1     162.276 176.113 179.984  1.00  0.00     0.000 C 
BRANCH   9  10
ATOM     10  C   UNL     1     161.280 176.424 181.107  1.00  0.00     0.002 C 
BRANCH  10  11
ATOM     11  C   UNL     1     160.273 175.280 181.282  1.00  0.00     0.028 C 
BRANCH  11  12
ATOM     12  C   UNL     1     160.963 173.911 181.286  1.00  0.00     0.156 C 
BRANCH  12  13
ATOM     13  O   UNL     1     160.704 173.223 182.480  1.00  0.00    -0.396 OA
ATOM     14  H   UNL     1     160.038 172.519 182.264  1.00  0.00     0.210 HD
ENDBRANCH  12  13
ENDBRANCH  11  12
ENDBRANCH  10  11
ENDBRANCH   9  10
ENDBRANCH   8   9
ENDBRANCH   1   8
TORSDOF 11
ENDMDL
MODEL 9
REMARK VINA RESULT:    -3.910     10.558     12.790
REMARK INTER + INTRA:          -7.095
REMARK INTER:                  -6.126
REMARK INTRA:                  -0.969
REMARK UNBOUND:                -0.786
REMARK SMILES CCCCCCCCCCCCO
REMARK SMILES IDX 7 1 6 2 5 3 4 4 3 5 2 6 1 7 8 8 9 9 10 10 11 11 12 12 13 13
REMARK H PARENT 13 14
REMARK Flexibility Score: inf
ROOT
ATOM      1  C   UNL     1     174.029 177.869 181.069  1.00  0.00     0.000 C 
ENDROOT
BRANCH   1   2
ATOM      2  C   UNL     1     175.508 177.586 181.385  1.00  0.00    -0.000 C 
BRANCH   2   3
ATOM      3  C   UNL     1     176.316 178.866 181.671  1.00  0.00    -0.000 C 
BRANCH   3   4
ATOM      4  C   UNL     1     177.472 179.147 180.693  1.00  0.00    -0.000 C 
BRANCH   4   5
ATOM      5  C   UNL     1     177.083 180.125 179.571  1.00  0.00    -0.000 C 
BRANCH   5   6
ATOM      6  C   UNL     1     176.714 179.404 178.265  1.00  0.00    -0.003 C 
ATOM      7  C   UNL     1     175.290 179.713 177.800  1.00  0.00     0.004 C 
ENDBRANCH   5   6
ENDBRANCH   4   5
ENDBRANCH   3   4
ENDBRANCH   2   3
ENDBRANCH   1   2
BRANCH   1   8
ATOM      8  C   UNL     1     173.709 179.373 181.044  1.00  0.00     0.000 C 
BRANCH   8   9
ATOM      9  C   UNL     1     172.206 179.662 181.186  1.00  0.00     0.000 C 
BRANCH   9  10
ATOM     10  C   UNL     1     171.392 178.362 181.138  1.00  0.00     0.002 C 
BRANCH  10  11
ATOM     11  C   UNL     1     169.891 178.649 181.275  1.00  0.00     0.028 C 
BRANCH  11  12
ATOM     12  C   UNL     1     169.135 178.355 179.974  1.00  0.00     0.156 C 
BRANCH  12  13
ATOM     13  O   UNL     1     169.266 179.417 179.068  1.00  0.00    -0.396 OA
ATOM     14  H   UNL     1     169.076 179.045 178.166  1.00  0.00     0.210 HD
ENDBRANCH  12  13
ENDBRANCH  11  12
ENDBRANCH  10  11
ENDBRANCH   9  10
ENDBRANCH   8   9
ENDBRANCH   1   8
TORSDOF 11
ENDMDL
