MODEL 1
REMARK VINA RESULT:    -3.213      0.000      0.000
REMARK INTER + INTRA:         -14.643
REMARK INTER:                  -8.473
REMARK INTRA:                  -6.169
REMARK UNBOUND:                -6.169
REMARK SMILES CCCCCCCCCCCCCCCCCCCCCCCCCCCCCC(=O)[O-]
REMARK SMILES IDX 16 1 17 2 18 3 19 4 20 5 21 6 22 7 23 8 24 9 25 10 26 11
REMARK SMILES IDX 27 12 28 13 29 14 30 15 31 16 32 17 15 18 14 19 13 20 12 21
REMARK SMILES IDX 11 22 10 23 9 24 8 25 7 26 6 27 5 28 4 29 3 30 2 31 1 32
REMARK H PARENT
REMARK Flexibility Score: inf
ROOT
ATOM      1  C   UNL     1     155.970 157.357 159.441  1.00  0.00     0.000 C 
ENDROOT
BRANCH   1   2
ATOM      2  C   UNL     1     157.164 156.426 159.145  1.00  0.00     0.000 C 
BRANCH   2   3
ATOM      3  C   UNL     1     157.965 156.792 157.881  1.00  0.00     0.000 C 
BRANCH   3   4
ATOM      4  C   UNL     1     157.308 157.881 157.014  1.00  0.00     0.000 C 
BRANCH   4   5
ATOM      5  C   UNL     1     156.554 157.313 155.792  1.00  0.00     0.000 C 
BRANCH   5   6
ATOM      6  C   UNL     1     155.317 158.150 155.438  1.00  0.00     0.000 C 
BRANCH   6   7
ATOM      7  C   UNL     1     155.375 159.522 156.121  1.00  0.00     0.000 C 
BRANCH   7   8
ATOM      8  C   UNL     1     154.030 159.884 156.772  1.00  0.00     0.000 C 
BRANCH   8   9
ATOM      9  C   UNL     1     153.046 158.703 156.753  1.00  0.00     0.000 C 
BRANCH   9  10
ATOM     10  C   UNL     1     151.804 158.995 155.893  1.00  0.00     0.000 C 
BRANCH  10  11
ATOM     11  C   UNL     1     151.738 158.136 154.617  1.00  0.00     0.000 C 
BRANCH  11  12
ATOM     12  C   UNL     1     151.932 156.621 154.836  1.00  0.00     0.000 C 
BRANCH  12  13
ATOM     13  C   UNL     1     152.187 155.801 153.557  1.00  0.00     0.006 C 
BRANCH  13  14
ATOM     14  C   UNL     1     153.496 156.181 152.856  1.00  0.00     0.053 C 
BRANCH  14  15
ATOM     15  C   UNL     1     153.234 156.580 151.437  1.00  0.00     0.041 C 
ATOM     16  O   UNL     1     154.186 156.929 150.690  1.00  0.00    -0.550 OA
ATOM     17  O   UNL     1     151.934 156.589 150.944  1.00  0.00    -0.550 OA
ENDBRANCH  14  15
ENDBRANCH  13  14
ENDBRANCH  12  13
ENDBRANCH  11  12
ENDBRANCH  10  11
ENDBRANCH   9  10
ENDBRANCH   8   9
ENDBRANCH   7   8
ENDBRANCH   6   7
ENDBRANCH   5   6
ENDBRANCH   4   5
ENDBRANCH   3   4
ENDBRANCH   2   3
ENDBRANCH   1   2
BRANCH   1  18
ATOM     18  C   UNL     1     154.604 156.745 159.058  1.00  0.00     0.000 C 
BRANCH  18  19
ATOM     19  C   UNL     1     154.714 155.255 158.695  1.00  0.00     0.000 C 
BRANCH  19  20
ATOM     20  C   UNL     1     154.254 155.005 157.251  1.00  0.00     0.000 C 
BRANCH  20  21
ATOM     21  C   UNL     1     154.518 153.570 156.766  1.00  0.00     0.000 C 
BRANCH  21  22
ATOM     22  C   UNL     1     155.175 152.687 157.842  1.00  0.00     0.000 C 
BRANCH  22  23
ATOM     23  C   UNL     1     154.652 151.242 157.818  1.00  0.00     0.000 C 
BRANCH  23  24
ATOM     24  C   UNL     1     153.218 151.102 158.376  1.00  0.00    -0.000 C 
BRANCH  24  25
ATOM     25  C   UNL     1     152.993 151.967 159.628  1.00  0.00    -0.000 C 
BRANCH  25  26
ATOM     26  C   UNL     1     151.839 152.965 159.448  1.00  0.00    -0.000 C 
BRANCH  26  27
ATOM     27  C   UNL     1     151.201 152.887 158.050  1.00  0.00    -0.000 C 
BRANCH  27  28
ATOM     28  C   UNL     1     150.667 154.257 157.579  1.00  0.00    -0.000 C 
BRANCH  28  29
ATOM     29  C   UNL     1     150.934 155.400 158.578  1.00  0.00    -0.000 C 
BRANCH  29  30
ATOM     30  C   UNL     1     150.243 156.731 158.241  1.00  0.00    -0.000 C 
BRANCH  30  31
ATOM     31  C   UNL     1     149.480 157.320 159.435  1.00  0.00    -0.003 C 
ATOM     32  C   UNL     1     149.949 156.694 160.746  1.00  0.00     0.004 C 
ENDBRANCH  30  31
ENDBRANCH  29  30
ENDBRANCH  28  29
ENDBRANCH  27  28
ENDBRANCH  26  27
ENDBRANCH  25  26
ENDBRANCH  24  25
ENDBRANCH  23  24
ENDBRANCH  22  23
ENDBRANCH  21  22
ENDBRANCH  20  21
ENDBRANCH  19  20
ENDBRANCH  18  19
ENDBRANCH   1  18
TORSDOF 28
ENDMDL
MODEL 2
REMARK VINA RESULT:    -3.012      2.722      5.373
REMARK INTER + INTRA:         -14.113
REMARK INTER:                  -7.753
REMARK INTRA:                  -6.359
REMARK UNBOUND:                -6.169
REMARK SMILES CCCCCCCCCCCCCCCCCCCCCCCCCCCCCC(=O)[O-]
REMARK SMILES IDX 16 1 17 2 18 3 19 4 20 5 21 6 22 7 23 8 24 9 25 10 26 11
REMARK SMILES IDX 27 12 28 13 29 14 30 15 31 16 32 17 15 18 14 19 13 20 12 21
REMARK SMILES IDX 11 22 10 23 9 24 8 25 7 26 6 27 5 28 4 29 3 30 2 31 1 32
REMARK H PARENT
REMARK Flexibility Score: inf
ROOT
ATOM      1  C   UNL     1     153.624 155.214 157.115  1.00  0.00     0.000 C 
ENDROOT
BRANCH   1   2
ATOM      2  C   UNL     1     154.083 155.686 158.510  1.00  0.00     0.000 C 
BRANCH   2   3
ATOM      3  C   UNL     1     153.440 157.003 158.985  1.00  0.00     0.000 C 
BRANCH   3   4
ATOM      4  C   UNL     1     154.425 158.181 159.094  1.00  0.00     0.000 C 
BRANCH   4   5
ATOM      5  C   UNL     1     154.077 159.353 158.151  1.00  0.00     0.000 C 
BRANCH   5   6
ATOM      6  C   UNL     1     153.659 158.866 156.756  1.00  0.00     0.000 C 
BRANCH   6   7
ATOM      7  C   UNL     1     154.764 159.143 155.730  1.00  0.00     0.000 C 
BRANCH   7   8
ATOM      8  C   UNL     1     155.155 157.866 154.966  1.00  0.00     0.000 C 
BRANCH   8   9
ATOM      9  C   UNL     1     156.224 157.055 155.715  1.00  0.00     0.000 C 
BRANCH   9  10
ATOM     10  C   UNL     1     157.420 157.924 156.143  1.00  0.00     0.000 C 
BRANCH  10  11
ATOM     11  C   UNL     1     157.677 157.892 157.660  1.00  0.00     0.000 C 
BRANCH  11  12
ATOM     12  C   UNL     1     157.676 156.486 158.297  1.00  0.00     0.000 C 
BRANCH  12  13
ATOM     13  C   UNL     1     159.025 156.032 158.885  1.00  0.00     0.006 C 
BRANCH  13  14
ATOM     14  C   UNL     1     160.154 157.039 158.633  1.00  0.00     0.053 C 
BRANCH  14  15
ATOM     15  C   UNL     1     161.105 156.513 157.604  1.00  0.00     0.041 C 
ATOM     16  O   UNL     1     160.735 156.379 156.408  1.00  0.00    -0.550 OA
ATOM     17  O   UNL     1     162.396 156.147 157.969  1.00  0.00    -0.550 OA
ENDBRANCH  14  15
ENDBRANCH  13  14
ENDBRANCH  12  13
ENDBRANCH  11  12
ENDBRANCH  10  11
ENDBRANCH   9  10
ENDBRANCH   8   9
ENDBRANCH   7   8
ENDBRANCH   6   7
ENDBRANCH   5   6
ENDBRANCH   4   5
ENDBRANCH   3   4
ENDBRANCH   2   3
ENDBRANCH   1   2
BRANCH   1  18
ATOM     18  C   UNL     1     154.427 154.007 156.580  1.00  0.00     0.000 C 
BRANCH  18  19
ATOM     19  C   UNL     1     155.521 153.554 157.562  1.00  0.00     0.000 C 
BRANCH  19  20
ATOM     20  C   UNL     1     155.249 152.129 158.067  1.00  0.00     0.000 C 
BRANCH  20  21
ATOM     21  C   UNL     1     153.992 151.492 157.451  1.00  0.00     0.000 C 
BRANCH  21  22
ATOM     22  C   UNL     1     152.903 151.189 158.495  1.00  0.00     0.000 C 
BRANCH  22  23
ATOM     23  C   UNL     1     152.786 152.290 159.561  1.00  0.00     0.000 C 
BRANCH  23  24
ATOM     24  C   UNL     1     151.592 153.242 159.327  1.00  0.00    -0.000 C 
BRANCH  24  25
ATOM     25  C   UNL     1     150.799 152.881 158.059  1.00  0.00    -0.000 C 
BRANCH  25  26
ATOM     26  C   UNL     1     150.025 154.082 157.493  1.00  0.00    -0.000 C 
BRANCH  26  27
ATOM     27  C   UNL     1     150.213 155.357 158.333  1.00  0.00    -0.000 C 
BRANCH  27  28
ATOM     28  C   UNL     1     150.151 156.635 157.470  1.00  0.00    -0.000 C 
BRANCH  28  29
ATOM     29  C   UNL     1     149.952 156.356 155.967  1.00  0.00    -0.000 C 
BRANCH  29  30
ATOM     30  C   UNL     1     151.084 156.861 155.059  1.00  0.00    -0.000 C 
BRANCH  30  31
ATOM     31  C   UNL     1     151.601 155.779 154.100  1.00  0.00    -0.003 C 
ATOM     32  C   UNL     1     152.377 156.399 152.942  1.00  0.00     0.004 C 
ENDBRANCH  30  31
ENDBRANCH  29  30
ENDBRANCH  28  29
ENDBRANCH  27  28
ENDBRANCH  26  27
ENDBRANCH  25  26
ENDBRANCH  24  25
ENDBRANCH  23  24
ENDBRANCH  22  23
ENDBRANCH  21  22
ENDBRANCH  20  21
ENDBRANCH  19  20
ENDBRANCH  18  19
ENDBRANCH   1  18
TORSDOF 28
ENDMDL
MODEL 3
REMARK VINA RESULT:    -2.994      3.423      6.959
REMARK INTER + INTRA:         -14.063
REMARK INTER:                  -9.656
REMARK INTRA:                  -4.408
REMARK UNBOUND:                -6.169
REMARK SMILES CCCCCCCCCCCCCCCCCCCCCCCCCCCCCC(=O)[O-]
REMARK SMILES IDX 16 1 17 2 18 3 19 4 20 5 21 6 22 7 23 8 24 9 25 10 26 11
REMARK SMILES IDX 27 12 28 13 29 14 30 15 31 16 32 17 15 18 14 19 13 20 12 21
REMARK SMILES IDX 11 22 10 23 9 24 8 25 7 26 6 27 5 28 4 29 3 30 2 31 1 32
REMARK H PARENT
REMARK Flexibility Score: inf
ROOT
ATOM      1  C   UNL     1     150.325 153.106 157.628  1.00  0.00     0.000 C 
ENDROOT
BRANCH   1   2
ATOM      2  C   UNL     1     150.351 154.649 157.639  1.00  0.00     0.000 C 
BRANCH   2   3
ATOM      3  C   UNL     1     149.628 155.311 156.450  1.00  0.00     0.000 C 
BRANCH   3   4
ATOM      4  C   UNL     1     149.420 154.379 155.243  1.00  0.00     0.000 C 
BRANCH   4   5
ATOM      5  C   UNL     1     148.592 155.026 154.112  1.00  0.00     0.000 C 
BRANCH   5   6
ATOM      6  C   UNL     1     148.674 156.559 154.142  1.00  0.00     0.000 C 
BRANCH   6   7
ATOM      7  C   UNL     1     148.898 157.119 152.732  1.00  0.00     0.000 C 
BRANCH   7   8
ATOM      8  C   UNL     1     149.757 156.170 151.879  1.00  0.00     0.000 C 
BRANCH   8   9
ATOM      9  C   UNL     1     149.245 156.074 150.434  1.00  0.00     0.000 C 
BRANCH   9  10
ATOM     10  C   UNL     1     150.378 155.782 149.434  1.00  0.00     0.000 C 
BRANCH  10  11
ATOM     11  C   UNL     1     150.297 156.644 148.161  1.00  0.00     0.000 C 
BRANCH  11  12
ATOM     12  C   UNL     1     150.641 155.909 146.848  1.00  0.00     0.000 C 
BRANCH  12  13
ATOM     13  C   UNL     1     151.020 154.425 147.008  1.00  0.00     0.006 C 
BRANCH  13  14
ATOM     14  C   UNL     1     150.057 153.481 146.277  1.00  0.00     0.053 C 
BRANCH  14  15
ATOM     15  C   UNL     1     149.850 152.228 147.068  1.00  0.00     0.041 C 
ATOM     16  O   UNL     1     148.709 151.699 147.131  1.00  0.00    -0.550 OA
ATOM     17  O   UNL     1     150.913 151.654 147.757  1.00  0.00    -0.550 OA
ENDBRANCH  14  15
ENDBRANCH  13  14
ENDBRANCH  12  13
ENDBRANCH  11  12
ENDBRANCH  10  11
ENDBRANCH   9  10
ENDBRANCH   8   9
ENDBRANCH   7   8
ENDBRANCH   6   7
ENDBRANCH   5   6
ENDBRANCH   4   5
ENDBRANCH   3   4
ENDBRANCH   2   3
ENDBRANCH   1   2
BRANCH   1  18
ATOM     18  C   UNL     1     151.629 152.466 158.154  1.00  0.00     0.000 C 
BRANCH  18  19
ATOM     19  C   UNL     1     151.851 152.742 159.651  1.00  0.00     0.000 C 
BRANCH  19  20
ATOM     20  C   UNL     1     153.350 152.803 159.983  1.00  0.00     0.000 C 
BRANCH  20  21
ATOM     21  C   UNL     1     154.243 152.961 158.741  1.00  0.00     0.000 C 
BRANCH  21  22
ATOM     22  C   UNL     1     154.730 154.406 158.534  1.00  0.00     0.000 C 
BRANCH  22  23
ATOM     23  C   UNL     1     154.028 155.100 157.355  1.00  0.00     0.000 C 
BRANCH  23  24
ATOM     24  C   UNL     1     154.622 154.720 155.981  1.00  0.00    -0.000 C 
BRANCH  24  25
ATOM     25  C   UNL     1     154.331 155.782 154.907  1.00  0.00    -0.000 C 
BRANCH  25  26
ATOM     26  C   UNL     1     152.830 155.909 154.603  1.00  0.00    -0.000 C 
BRANCH  26  27
ATOM     27  C   UNL     1     152.318 157.353 154.740  1.00  0.00    -0.000 C 
BRANCH  27  28
ATOM     28  C   UNL     1     153.032 158.316 153.769  1.00  0.00    -0.000 C 
BRANCH  28  29
ATOM     29  C   UNL     1     152.084 158.981 152.751  1.00  0.00    -0.000 C 
BRANCH  29  30
ATOM     30  C   UNL     1     152.422 158.708 151.276  1.00  0.00    -0.000 C 
BRANCH  30  31
ATOM     31  C   UNL     1     153.193 157.395 151.079  1.00  0.00    -0.003 C 
ATOM     32  C   UNL     1     153.995 157.421 149.782  1.00  0.00     0.004 C 
ENDBRANCH  30  31
ENDBRANCH  29  30
ENDBRANCH  28  29
ENDBRANCH  27  28
ENDBRANCH  26  27
ENDBRANCH  25  26
ENDBRANCH  24  25
ENDBRANCH  23  24
ENDBRANCH  22  23
ENDBRANCH  21  22
ENDBRANCH  20  21
ENDBRANCH  19  20
ENDBRANCH  18  19
ENDBRANCH   1  18
TORSDOF 28
ENDMDL
MODEL 4
REMARK VINA RESULT:    -2.991      3.012      5.994
REMARK INTER + INTRA:         -14.056
REMARK INTER:                  -8.414
REMARK INTRA:                  -5.642
REMARK UNBOUND:                -6.169
REMARK SMILES CCCCCCCCCCCCCCCCCCCCCCCCCCCCCC(=O)[O-]
REMARK SMILES IDX 16 1 17 2 18 3 19 4 20 5 21 6 22 7 23 8 24 9 25 10 26 11
REMARK SMILES IDX 27 12 28 13 29 14 30 15 31 16 32 17 15 18 14 19 13 20 12 21
REMARK SMILES IDX 11 22 10 23 9 24 8 25 7 26 6 27 5 28 4 29 3 30 2 31 1 32
REMARK H PARENT
REMARK Flexibility Score: inf
ROOT
ATOM      1  C   UNL     1     152.995 156.782 156.398  1.00  0.00     0.000 C 
ENDROOT
BRANCH   1   2
ATOM      2  C   UNL     1     151.763 157.367 157.118  1.00  0.00     0.000 C 
BRANCH   2   3
ATOM      3  C   UNL     1     151.254 156.526 158.305  1.00  0.00     0.000 C 
BRANCH   3   4
ATOM      4  C   UNL     1     149.755 156.702 158.603  1.00  0.00     0.000 C 
BRANCH   4   5
ATOM      5  C   UNL     1     149.464 157.034 160.083  1.00  0.00     0.000 C 
BRANCH   5   6
ATOM      6  C   UNL     1     150.665 157.699 160.771  1.00  0.00     0.000 C 
BRANCH   6   7
ATOM      7  C   UNL     1     150.626 159.220 160.582  1.00  0.00     0.000 C 
BRANCH   7   8
ATOM      8  C   UNL     1     152.010 159.776 160.208  1.00  0.00     0.000 C 
BRANCH   8   9
ATOM      9  C   UNL     1     153.142 158.820 160.618  1.00  0.00     0.000 C 
BRANCH   9  10
ATOM     10  C   UNL     1     154.250 158.740 159.553  1.00  0.00     0.000 C 
BRANCH  10  11
ATOM     11  C   UNL     1     154.853 157.331 159.414  1.00  0.00     0.000 C 
BRANCH  11  12
ATOM     12  C   UNL     1     156.192 157.264 158.649  1.00  0.00     0.000 C 
BRANCH  12  13
ATOM     13  C   UNL     1     157.116 156.097 159.047  1.00  0.00     0.006 C 
BRANCH  13  14
ATOM     14  C   UNL     1     158.314 156.546 159.892  1.00  0.00     0.053 C 
BRANCH  14  15
ATOM     15  C   UNL     1     159.389 157.112 159.018  1.00  0.00     0.041 C 
ATOM     16  O   UNL     1     159.673 156.558 157.923  1.00  0.00    -0.550 OA
ATOM     17  O   UNL     1     160.096 158.239 159.422  1.00  0.00    -0.550 OA
ENDBRANCH  14  15
ENDBRANCH  13  14
ENDBRANCH  12  13
ENDBRANCH  11  12
ENDBRANCH  10  11
ENDBRANCH   9  10
ENDBRANCH   8   9
ENDBRANCH   7   8
ENDBRANCH   6   7
ENDBRANCH   5   6
ENDBRANCH   4   5
ENDBRANCH   3   4
ENDBRANCH   2   3
ENDBRANCH   1   2
BRANCH   1  18
ATOM     18  C   UNL     1     153.062 155.239 156.451  1.00  0.00     0.000 C 
BRANCH  18  19
ATOM     19  C   UNL     1     154.508 154.717 156.393  1.00  0.00     0.000 C 
BRANCH  19  20
ATOM     20  C   UNL     1     154.697 153.519 157.336  1.00  0.00     0.000 C 
BRANCH  20  21
ATOM     21  C   UNL     1     154.369 153.840 158.804  1.00  0.00     0.000 C 
BRANCH  21  22
ATOM     22  C   UNL     1     153.526 152.745 159.481  1.00  0.00     0.000 C 
BRANCH  22  23
ATOM     23  C   UNL     1     152.020 153.047 159.435  1.00  0.00     0.000 C 
BRANCH  23  24
ATOM     24  C   UNL     1     151.323 152.483 158.177  1.00  0.00    -0.000 C 
BRANCH  24  25
ATOM     25  C   UNL     1     149.947 153.127 157.935  1.00  0.00    -0.000 C 
BRANCH  25  26
ATOM     26  C   UNL     1     149.578 153.177 156.444  1.00  0.00    -0.000 C 
BRANCH  26  27
ATOM     27  C   UNL     1     148.647 154.352 156.103  1.00  0.00    -0.000 C 
BRANCH  27  28
ATOM     28  C   UNL     1     148.743 154.756 154.617  1.00  0.00    -0.000 C 
BRANCH  28  29
ATOM     29  C   UNL     1     150.162 155.171 154.181  1.00  0.00    -0.000 C 
BRANCH  29  30
ATOM     30  C   UNL     1     150.250 156.530 153.467  1.00  0.00    -0.000 C 
BRANCH  30  31
ATOM     31  C   UNL     1     151.362 156.571 152.410  1.00  0.00    -0.003 C 
ATOM     32  C   UNL     1     152.531 157.433 152.879  1.00  0.00     0.004 C 
ENDBRANCH  30  31
ENDBRANCH  29  30
ENDBRANCH  28  29
ENDBRANCH  27  28
ENDBRANCH  26  27
ENDBRANCH  25  26
ENDBRANCH  24  25
ENDBRANCH  23  24
ENDBRANCH  22  23
ENDBRANCH  21  22
ENDBRANCH  20  21
ENDBRANCH  19  20
ENDBRANCH  18  19
ENDBRANCH   1  18
TORSDOF 28
ENDMDL
MODEL 5
REMARK VINA RESULT:    -2.991      1.965      5.032
REMARK INTER + INTRA:         -14.055
REMARK INTER:                  -8.630
REMARK INTRA:                  -5.426
REMARK UNBOUND:                -6.169
REMARK SMILES CCCCCCCCCCCCCCCCCCCCCCCCCCCCCC(=O)[O-]
REMARK SMILES IDX 16 1 17 2 18 3 19 4 20 5 21 6 22 7 23 8 24 9 25 10 26 11
REMARK SMILES IDX 27 12 28 13 29 14 30 15 31 16 32 17 15 18 14 19 13 20 12 21
REMARK SMILES IDX 11 22 10 23 9 24 8 25 7 26 6 27 5 28 4 29 3 30 2 31 1 32
REMARK H PARENT
REMARK Flexibility Score: inf
ROOT
ATOM      1  C   UNL     1     155.190 154.510 157.740  1.00  0.00     0.000 C 
ENDROOT
BRANCH   1   2
ATOM      2  C   UNL     1     154.600 154.480 156.314  1.00  0.00     0.000 C 
BRANCH   2   3
ATOM      3  C   UNL     1     154.949 155.707 155.450  1.00  0.00     0.000 C 
BRANCH   3   4
ATOM      4  C   UNL     1     153.916 156.016 154.351  1.00  0.00     0.000 C 
BRANCH   4   5
ATOM      5  C   UNL     1     153.527 157.508 154.284  1.00  0.00     0.000 C 
BRANCH   5   6
ATOM      6  C   UNL     1     152.085 157.706 153.793  1.00  0.00     0.000 C 
BRANCH   6   7
ATOM      7  C   UNL     1     151.509 156.390 153.254  1.00  0.00     0.000 C 
BRANCH   7   8
ATOM      8  C   UNL     1     151.200 156.486 151.750  1.00  0.00     0.000 C 
BRANCH   8   9
ATOM      9  C   UNL     1     152.479 156.616 150.909  1.00  0.00     0.000 C 
BRANCH   9  10
ATOM     10  C   UNL     1     152.271 157.502 149.667  1.00  0.00     0.000 C 
BRANCH  10  11
ATOM     11  C   UNL     1     152.265 159.006 149.994  1.00  0.00     0.000 C 
BRANCH  11  12
ATOM     12  C   UNL     1     153.379 159.473 150.955  1.00  0.00     0.000 C 
BRANCH  12  13
ATOM     13  C   UNL     1     154.776 159.612 150.320  1.00  0.00     0.006 C 
BRANCH  13  14
ATOM     14  C   UNL     1     155.733 158.486 150.731  1.00  0.00     0.053 C 
BRANCH  14  15
ATOM     15  C   UNL     1     156.373 157.875 149.524  1.00  0.00     0.041 C 
ATOM     16  O   UNL     1     155.662 157.461 148.570  1.00  0.00    -0.550 OA
ATOM     17  O   UNL     1     157.755 157.742 149.459  1.00  0.00    -0.550 OA
ENDBRANCH  14  15
ENDBRANCH  13  14
ENDBRANCH  12  13
ENDBRANCH  11  12
ENDBRANCH  10  11
ENDBRANCH   9  10
ENDBRANCH   8   9
ENDBRANCH   7   8
ENDBRANCH   6   7
ENDBRANCH   5   6
ENDBRANCH   4   5
ENDBRANCH   3   4
ENDBRANCH   2   3
ENDBRANCH   1   2
BRANCH   1  18
ATOM     18  C   UNL     1     154.901 153.228 158.551  1.00  0.00     0.000 C 
BRANCH  18  19
ATOM     19  C   UNL     1     154.685 152.003 157.647  1.00  0.00     0.000 C 
BRANCH  19  20
ATOM     20  C   UNL     1     153.331 151.337 157.937  1.00  0.00     0.000 C 
BRANCH  20  21
ATOM     21  C   UNL     1     152.477 152.111 158.955  1.00  0.00     0.000 C 
BRANCH  21  22
ATOM     22  C   UNL     1     151.237 152.766 158.321  1.00  0.00     0.000 C 
BRANCH  22  23
ATOM     23  C   UNL     1     151.221 154.293 158.500  1.00  0.00     0.000 C 
BRANCH  23  24
ATOM     24  C   UNL     1     151.205 155.064 157.161  1.00  0.00    -0.000 C 
BRANCH  24  25
ATOM     25  C   UNL     1     151.619 156.536 157.333  1.00  0.00    -0.000 C 
BRANCH  25  26
ATOM     26  C   UNL     1     151.905 156.895 158.799  1.00  0.00    -0.000 C 
BRANCH  26  27
ATOM     27  C   UNL     1     153.355 157.356 159.024  1.00  0.00    -0.000 C 
BRANCH  27  28
ATOM     28  C   UNL     1     153.855 158.273 157.888  1.00  0.00    -0.000 C 
BRANCH  28  29
ATOM     29  C   UNL     1     155.376 158.521 157.919  1.00  0.00    -0.000 C 
BRANCH  29  30
ATOM     30  C   UNL     1     156.132 157.775 159.030  1.00  0.00    -0.000 C 
BRANCH  30  31
ATOM     31  C   UNL     1     157.591 157.478 158.656  1.00  0.00    -0.003 C 
ATOM     32  C   UNL     1     158.050 156.151 159.253  1.00  0.00     0.004 C 
ENDBRANCH  30  31
ENDBRANCH  29  30
ENDBRANCH  28  29
ENDBRANCH  27  28
ENDBRANCH  26  27
ENDBRANCH  25  26
ENDBRANCH  24  25
ENDBRANCH  23  24
ENDBRANCH  22  23
ENDBRANCH  21  22
ENDBRANCH  20  21
ENDBRANCH  19  20
ENDBRANCH  18  19
ENDBRANCH   1  18
TORSDOF 28
ENDMDL
MODEL 6
REMARK VINA RESULT:    -2.970      1.776      2.241
REMARK INTER + INTRA:         -14.002
REMARK INTER:                  -8.568
REMARK INTRA:                  -5.434
REMARK UNBOUND:                -6.169
REMARK SMILES CCCCCCCCCCCCCCCCCCCCCCCCCCCCCC(=O)[O-]
REMARK SMILES IDX 16 1 17 2 18 3 19 4 20 5 21 6 22 7 23 8 24 9 25 10 26 11
REMARK SMILES IDX 27 12 28 13 29 14 30 15 31 16 32 17 15 18 14 19 13 20 12 21
REMARK SMILES IDX 11 22 10 23 9 24 8 25 7 26 6 27 5 28 4 29 3 30 2 31 1 32
REMARK H PARENT
REMARK Flexibility Score: inf
ROOT
ATOM      1  C   UNL     1     156.322 157.409 159.595  1.00  0.00     0.000 C 
ENDROOT
BRANCH   1   2
ATOM      2  C   UNL     1     157.309 156.270 159.265  1.00  0.00     0.000 C 
BRANCH   2   3
ATOM      3  C   UNL     1     158.428 156.656 158.277  1.00  0.00     0.000 C 
BRANCH   3   4
ATOM      4  C   UNL     1     158.051 157.798 157.316  1.00  0.00     0.000 C 
BRANCH   4   5
ATOM      5  C   UNL     1     157.386 157.302 156.014  1.00  0.00     0.000 C 
BRANCH   5   6
ATOM      6  C   UNL     1     156.684 158.438 155.256  1.00  0.00     0.000 C 
BRANCH   6   7
ATOM      7  C   UNL     1     155.489 158.969 156.057  1.00  0.00     0.000 C 
BRANCH   7   8
ATOM      8  C   UNL     1     154.227 159.069 155.185  1.00  0.00     0.000 C 
BRANCH   8   9
ATOM      9  C   UNL     1     154.466 158.534 153.765  1.00  0.00     0.000 C 
BRANCH   9  10
ATOM     10  C   UNL     1     153.149 158.237 153.025  1.00  0.00     0.000 C 
BRANCH  10  11
ATOM     11  C   UNL     1     153.008 156.761 152.613  1.00  0.00     0.000 C 
BRANCH  11  12
ATOM     12  C   UNL     1     152.883 155.762 153.783  1.00  0.00     0.000 C 
BRANCH  12  13
ATOM     13  C   UNL     1     151.675 155.989 154.711  1.00  0.00     0.006 C 
BRANCH  13  14
ATOM     14  C   UNL     1     150.340 155.613 154.055  1.00  0.00     0.053 C 
BRANCH  14  15
ATOM     15  C   UNL     1     149.222 156.412 154.649  1.00  0.00     0.041 C 
ATOM     16  O   UNL     1     149.296 156.823 155.837  1.00  0.00    -0.550 OA
ATOM     17  O   UNL     1     148.084 156.684 153.898  1.00  0.00    -0.550 OA
ENDBRANCH  14  15
ENDBRANCH  13  14
ENDBRANCH  12  13
ENDBRANCH  11  12
ENDBRANCH  10  11
ENDBRANCH   9  10
ENDBRANCH   8   9
ENDBRANCH   7   8
ENDBRANCH   6   7
ENDBRANCH   5   6
ENDBRANCH   4   5
ENDBRANCH   3   4
ENDBRANCH   2   3
ENDBRANCH   1   2
BRANCH   1  18
ATOM     18  C   UNL     1     154.886 157.143 159.092  1.00  0.00     0.000 C 
BRANCH  18  19
ATOM     19  C   UNL     1     154.664 155.668 158.717  1.00  0.00     0.000 C 
BRANCH  19  20
ATOM     20  C   UNL     1     154.361 155.521 157.218  1.00  0.00     0.000 C 
BRANCH  20  21
ATOM     21  C   UNL     1     154.600 154.098 156.685  1.00  0.00     0.000 C 
BRANCH  21  22
ATOM     22  C   UNL     1     155.152 153.143 157.757  1.00  0.00     0.000 C 
BRANCH  22  23
ATOM     23  C   UNL     1     154.863 151.667 157.437  1.00  0.00     0.000 C 
BRANCH  23  24
ATOM     24  C   UNL     1     153.461 151.207 157.893  1.00  0.00    -0.000 C 
BRANCH  24  25
ATOM     25  C   UNL     1     153.146 151.643 159.335  1.00  0.00    -0.000 C 
BRANCH  25  26
ATOM     26  C   UNL     1     151.915 152.559 159.413  1.00  0.00    -0.000 C 
BRANCH  26  27
ATOM     27  C   UNL     1     151.317 152.866 158.030  1.00  0.00    -0.000 C 
BRANCH  27  28
ATOM     28  C   UNL     1     150.763 154.304 157.942  1.00  0.00    -0.000 C 
BRANCH  28  29
ATOM     29  C   UNL     1     151.198 155.205 159.115  1.00  0.00    -0.000 C 
BRANCH  29  30
ATOM     30  C   UNL     1     150.659 156.643 159.063  1.00  0.00    -0.000 C 
BRANCH  30  31
ATOM     31  C   UNL     1     149.967 157.063 160.367  1.00  0.00    -0.003 C 
ATOM     32  C   UNL     1     148.456 157.164 160.178  1.00  0.00     0.004 C 
ENDBRANCH  30  31
ENDBRANCH  29  30
ENDBRANCH  28  29
ENDBRANCH  27  28
ENDBRANCH  26  27
ENDBRANCH  25  26
ENDBRANCH  24  25
ENDBRANCH  23  24
ENDBRANCH  22  23
ENDBRANCH  21  22
ENDBRANCH  20  21
ENDBRANCH  19  20
ENDBRANCH  18  19
ENDBRANCH   1  18
TORSDOF 28
ENDMDL
MODEL 7
REMARK VINA RESULT:    -2.969      3.029      7.144
REMARK INTER + INTRA:         -13.998
REMARK INTER:                  -8.643
REMARK INTRA:                  -5.355
REMARK UNBOUND:                -6.169
REMARK SMILES CCCCCCCCCCCCCCCCCCCCCCCCCCCCCC(=O)[O-]
REMARK SMILES IDX 16 1 17 2 18 3 19 4 20 5 21 6 22 7 23 8 24 9 25 10 26 11
REMARK SMILES IDX 27 12 28 13 29 14 30 15 31 16 32 17 15 18 14 19 13 20 12 21
REMARK SMILES IDX 11 22 10 23 9 24 8 25 7 26 6 27 5 28 4 29 3 30 2 31 1 32
REMARK H PARENT
REMARK Flexibility Score: inf
ROOT
ATOM      1  C   UNL     1     150.877 154.164 157.628  1.00  0.00     0.000 C 
ENDROOT
BRANCH   1   2
ATOM      2  C   UNL     1     151.075 152.775 158.269  1.00  0.00     0.000 C 
BRANCH   2   3
ATOM      3  C   UNL     1     151.753 152.797 159.653  1.00  0.00     0.000 C 
BRANCH   3   4
ATOM      4  C   UNL     1     153.035 151.950 159.738  1.00  0.00     0.000 C 
BRANCH   4   5
ATOM      5  C   UNL     1     153.170 150.933 158.585  1.00  0.00     0.000 C 
BRANCH   5   6
ATOM      6  C   UNL     1     154.208 151.377 157.543  1.00  0.00     0.000 C 
BRANCH   6   7
ATOM      7  C   UNL     1     155.049 152.544 158.077  1.00  0.00     0.000 C 
BRANCH   7   8
ATOM      8  C   UNL     1     154.836 153.818 157.242  1.00  0.00     0.000 C 
BRANCH   8   9
ATOM      9  C   UNL     1     154.352 154.994 158.103  1.00  0.00     0.000 C 
BRANCH   9  10
ATOM     10  C   UNL     1     155.521 155.818 158.672  1.00  0.00     0.000 C 
BRANCH  10  11
ATOM     11  C   UNL     1     156.260 156.639 157.600  1.00  0.00     0.000 C 
BRANCH  11  12
ATOM     12  C   UNL     1     156.919 157.939 158.108  1.00  0.00     0.000 C 
BRANCH  12  13
ATOM     13  C   UNL     1     158.433 158.050 157.850  1.00  0.00     0.006 C 
BRANCH  13  14
ATOM     14  C   UNL     1     159.256 158.103 159.144  1.00  0.00     0.053 C 
BRANCH  14  15
ATOM     15  C   UNL     1     159.479 156.723 159.680  1.00  0.00     0.041 C 
ATOM     16  O   UNL     1     159.690 156.546 160.909  1.00  0.00    -0.550 OA
ATOM     17  O   UNL     1     159.479 155.632 158.818  1.00  0.00    -0.550 OA
ENDBRANCH  14  15
ENDBRANCH  13  14
ENDBRANCH  12  13
ENDBRANCH  11  12
ENDBRANCH  10  11
ENDBRANCH   9  10
ENDBRANCH   8   9
ENDBRANCH   7   8
ENDBRANCH   6   7
ENDBRANCH   5   6
ENDBRANCH   4   5
ENDBRANCH   3   4
ENDBRANCH   2   3
ENDBRANCH   1   2
BRANCH   1  18
ATOM     18  C   UNL     1     150.700 155.298 158.663  1.00  0.00     0.000 C 
BRANCH  18  19
ATOM     19  C   UNL     1     149.541 156.242 158.299  1.00  0.00     0.000 C 
BRANCH  19  20
ATOM     20  C   UNL     1     149.576 157.513 159.162  1.00  0.00     0.000 C 
BRANCH  20  21
ATOM     21  C   UNL     1     150.647 157.471 160.266  1.00  0.00     0.000 C 
BRANCH  21  22
ATOM     22  C   UNL     1     151.094 158.873 160.718  1.00  0.00     0.000 C 
BRANCH  22  23
ATOM     23  C   UNL     1     152.554 158.899 161.198  1.00  0.00     0.000 C 
BRANCH  23  24
ATOM     24  C   UNL     1     153.577 158.830 160.043  1.00  0.00    -0.000 C 
BRANCH  24  25
ATOM     25  C   UNL     1     153.244 159.818 158.910  1.00  0.00    -0.000 C 
BRANCH  25  26
ATOM     26  C   UNL     1     153.549 159.237 157.521  1.00  0.00    -0.000 C 
BRANCH  26  27
ATOM     27  C   UNL     1     152.675 158.017 157.184  1.00  0.00    -0.000 C 
BRANCH  27  28
ATOM     28  C   UNL     1     152.457 157.862 155.664  1.00  0.00    -0.000 C 
BRANCH  28  29
ATOM     29  C   UNL     1     153.368 156.802 155.015  1.00  0.00    -0.000 C 
BRANCH  29  30
ATOM     30  C   UNL     1     152.646 155.795 154.105  1.00  0.00    -0.000 C 
BRANCH  30  31
ATOM     31  C   UNL     1     151.255 156.280 153.673  1.00  0.00    -0.003 C 
ATOM     32  C   UNL     1     150.165 155.347 154.190  1.00  0.00     0.004 C 
ENDBRANCH  30  31
ENDBRANCH  29  30
ENDBRANCH  28  29
ENDBRANCH  27  28
ENDBRANCH  26  27
ENDBRANCH  25  26
ENDBRANCH  24  25
ENDBRANCH  23  24
ENDBRANCH  22  23
ENDBRANCH  21  22
ENDBRANCH  20  21
ENDBRANCH  19  20
ENDBRANCH  18  19
ENDBRANCH   1  18
TORSDOF 28
ENDMDL
MODEL 8
REMARK VINA RESULT:    -2.966      3.855      7.484
REMARK INTER + INTRA:         -13.989
REMARK INTER:                  -8.834
REMARK INTRA:                  -5.155
REMARK UNBOUND:                -6.169
REMARK SMILES CCCCCCCCCCCCCCCCCCCCCCCCCCCCCC(=O)[O-]
REMARK SMILES IDX 16 1 17 2 18 3 19 4 20 5 21 6 22 7 23 8 24 9 25 10 26 11
REMARK SMILES IDX 27 12 28 13 29 14 30 15 31 16 32 17 15 18 14 19 13 20 12 21
REMARK SMILES IDX 11 22 10 23 9 24 8 25 7 26 6 27 5 28 4 29 3 30 2 31 1 32
REMARK H PARENT
REMARK Flexibility Score: inf
ROOT
ATOM      1  C   UNL     1     155.113 151.310 157.503  1.00  0.00     0.000 C 
ENDROOT
BRANCH   1   2
ATOM      2  C   UNL     1     153.626 150.992 157.763  1.00  0.00     0.000 C 
BRANCH   2   3
ATOM      3  C   UNL     1     153.242 150.888 159.252  1.00  0.00     0.000 C 
BRANCH   3   4
ATOM      4  C   UNL     1     152.440 152.091 159.779  1.00  0.00     0.000 C 
BRANCH   4   5
ATOM      5  C   UNL     1     151.551 152.749 158.702  1.00  0.00     0.000 C 
BRANCH   5   6
ATOM      6  C   UNL     1     151.522 154.278 158.833  1.00  0.00     0.000 C 
BRANCH   6   7
ATOM      7  C   UNL     1     151.105 154.930 157.509  1.00  0.00     0.000 C 
BRANCH   7   8
ATOM      8  C   UNL     1     150.993 156.458 157.644  1.00  0.00     0.000 C 
BRANCH   8   9
ATOM      9  C   UNL     1     151.534 156.956 158.994  1.00  0.00     0.000 C 
BRANCH   9  10
ATOM     10  C   UNL     1     152.577 158.075 158.825  1.00  0.00     0.000 C 
BRANCH  10  11
ATOM     11  C   UNL     1     153.762 157.947 159.800  1.00  0.00     0.000 C 
BRANCH  11  12
ATOM     12  C   UNL     1     154.450 159.277 160.173  1.00  0.00     0.000 C 
BRANCH  12  13
ATOM     13  C   UNL     1     154.622 159.524 161.684  1.00  0.00     0.006 C 
BRANCH  13  14
ATOM     14  C   UNL     1     155.417 160.799 161.992  1.00  0.00     0.053 C 
BRANCH  14  15
ATOM     15  C   UNL     1     156.258 160.608 163.216  1.00  0.00     0.041 C 
ATOM     16  O   UNL     1     157.493 160.384 163.108  1.00  0.00    -0.550 OA
ATOM     17  O   UNL     1     155.675 160.654 164.477  1.00  0.00    -0.550 OA
ENDBRANCH  14  15
ENDBRANCH  13  14
ENDBRANCH  12  13
ENDBRANCH  11  12
ENDBRANCH  10  11
ENDBRANCH   9  10
ENDBRANCH   8   9
ENDBRANCH   7   8
ENDBRANCH   6   7
ENDBRANCH   5   6
ENDBRANCH   4   5
ENDBRANCH   3   4
ENDBRANCH   2   3
ENDBRANCH   1   2
BRANCH   1  18
ATOM     18  C   UNL     1     155.508 152.754 157.884  1.00  0.00     0.000 C 
BRANCH  18  19
ATOM     19  C   UNL     1     154.730 153.804 157.074  1.00  0.00     0.000 C 
BRANCH  19  20
ATOM     20  C   UNL     1     154.845 155.193 157.719  1.00  0.00     0.000 C 
BRANCH  20  21
ATOM     21  C   UNL     1     156.037 155.321 158.682  1.00  0.00     0.000 C 
BRANCH  21  22
ATOM     22  C   UNL     1     157.071 156.362 158.219  1.00  0.00     0.000 C 
BRANCH  22  23
ATOM     23  C   UNL     1     156.452 157.449 157.326  1.00  0.00     0.000 C 
BRANCH  23  24
ATOM     24  C   UNL     1     156.905 157.359 155.852  1.00  0.00    -0.000 C 
BRANCH  24  25
ATOM     25  C   UNL     1     155.722 157.455 154.873  1.00  0.00    -0.000 C 
BRANCH  25  26
ATOM     26  C   UNL     1     154.530 158.221 155.469  1.00  0.00    -0.000 C 
BRANCH  26  27
ATOM     27  C   UNL     1     153.175 157.663 155.003  1.00  0.00    -0.000 C 
BRANCH  27  28
ATOM     28  C   UNL     1     153.258 156.166 154.637  1.00  0.00    -0.000 C 
BRANCH  28  29
ATOM     29  C   UNL     1     152.444 155.791 153.382  1.00  0.00    -0.000 C 
BRANCH  29  30
ATOM     30  C   UNL     1     152.398 156.874 152.292  1.00  0.00    -0.000 C 
BRANCH  30  31
ATOM     31  C   UNL     1     153.311 156.554 151.101  1.00  0.00    -0.003 C 
ATOM     32  C   UNL     1     154.705 157.141 151.306  1.00  0.00     0.004 C 
ENDBRANCH  30  31
ENDBRANCH  29  30
ENDBRANCH  28  29
ENDBRANCH  27  28
ENDBRANCH  26  27
ENDBRANCH  25  26
ENDBRANCH  24  25
ENDBRANCH  23  24
ENDBRANCH  22  23
ENDBRANCH  21  22
ENDBRANCH  20  21
ENDBRANCH  19  20
ENDBRANCH  18  19
ENDBRANCH   1  18
TORSDOF 28
ENDMDL
MODEL 9
REMARK VINA RESULT:    -2.959      1.372      4.476
REMARK INTER + INTRA:         -13.972
REMARK INTER:                  -8.187
REMARK INTRA:                  -5.785
REMARK UNBOUND:                -6.169
REMARK SMILES CCCCCCCCCCCCCCCCCCCCCCCCCCCCCC(=O)[O-]
REMARK SMILES IDX 16 1 17 2 18 3 19 4 20 5 21 6 22 7 23 8 24 9 25 10 26 11
REMARK SMILES IDX 27 12 28 13 29 14 30 15 31 16 32 17 15 18 14 19 13 20 12 21
REMARK SMILES IDX 11 22 10 23 9 24 8 25 7 26 6 27 5 28 4 29 3 30 2 31 1 32
REMARK H PARENT
REMARK Flexibility Score: inf
ROOT
ATOM      1  C   UNL     1     151.341 153.472 158.748  1.00  0.00     0.000 C 
ENDROOT
BRANCH   1   2
ATOM      2  C   UNL     1     151.097 154.973 159.008  1.00  0.00     0.000 C 
BRANCH   2   3
ATOM      3  C   UNL     1     150.551 155.754 157.796  1.00  0.00     0.000 C 
BRANCH   3   4
ATOM      4  C   UNL     1     150.731 155.031 156.450  1.00  0.00     0.000 C 
BRANCH   4   5
ATOM      5  C   UNL     1     151.732 155.737 155.510  1.00  0.00     0.000 C 
BRANCH   5   6
ATOM      6  C   UNL     1     152.449 156.905 156.204  1.00  0.00     0.000 C 
BRANCH   6   7
ATOM      7  C   UNL     1     152.123 158.232 155.508  1.00  0.00     0.000 C 
BRANCH   7   8
ATOM      8  C   UNL     1     153.385 159.091 155.316  1.00  0.00     0.000 C 
BRANCH   8   9
ATOM      9  C   UNL     1     154.610 158.473 156.007  1.00  0.00     0.000 C 
BRANCH   9  10
ATOM     10  C   UNL     1     155.806 158.327 155.049  1.00  0.00     0.000 C 
BRANCH  10  11
ATOM     11  C   UNL     1     156.092 156.866 154.660  1.00  0.00     0.000 C 
BRANCH  11  12
ATOM     12  C   UNL     1     155.086 156.242 153.670  1.00  0.00     0.000 C 
BRANCH  12  13
ATOM     13  C   UNL     1     154.829 157.063 152.392  1.00  0.00     0.006 C 
BRANCH  13  14
ATOM     14  C   UNL     1     153.337 157.229 152.079  1.00  0.00     0.053 C 
BRANCH  14  15
ATOM     15  C   UNL     1     153.078 156.994 150.624  1.00  0.00     0.041 C 
ATOM     16  O   UNL     1     153.956 157.282 149.768  1.00  0.00    -0.550 OA
ATOM     17  O   UNL     1     151.856 156.476 150.208  1.00  0.00    -0.550 OA
ENDBRANCH  14  15
ENDBRANCH  13  14
ENDBRANCH  12  13
ENDBRANCH  11  12
ENDBRANCH  10  11
ENDBRANCH   9  10
ENDBRANCH   8   9
ENDBRANCH   7   8
ENDBRANCH   6   7
ENDBRANCH   5   6
ENDBRANCH   4   5
ENDBRANCH   3   4
ENDBRANCH   2   3
ENDBRANCH   1   2
BRANCH   1  18
ATOM     18  C   UNL     1     151.963 152.733 159.953  1.00  0.00     0.000 C 
BRANCH  18  19
ATOM     19  C   UNL     1     152.922 151.612 159.517  1.00  0.00     0.000 C 
BRANCH  19  20
ATOM     20  C   UNL     1     152.984 151.506 157.986  1.00  0.00     0.000 C 
BRANCH  20  21
ATOM     21  C   UNL     1     154.383 151.154 157.455  1.00  0.00     0.000 C 
BRANCH  21  22
ATOM     22  C   UNL     1     155.351 152.351 157.479  1.00  0.00     0.000 C 
BRANCH  22  23
ATOM     23  C   UNL     1     154.681 153.658 157.026  1.00  0.00     0.000 C 
BRANCH  23  24
ATOM     24  C   UNL     1     154.709 154.764 158.103  1.00  0.00    -0.000 C 
BRANCH  24  25
ATOM     25  C   UNL     1     156.142 155.121 158.534  1.00  0.00    -0.000 C 
BRANCH  25  26
ATOM     26  C   UNL     1     156.444 156.619 158.373  1.00  0.00    -0.000 C 
BRANCH  26  27
ATOM     27  C   UNL     1     156.277 157.402 159.686  1.00  0.00    -0.000 C 
BRANCH  27  28
ATOM     28  C   UNL     1     156.063 158.910 159.441  1.00  0.00    -0.000 C 
BRANCH  28  29
ATOM     29  C   UNL     1     155.144 159.580 160.481  1.00  0.00    -0.000 C 
BRANCH  29  30
ATOM     30  C   UNL     1     153.929 160.316 159.894  1.00  0.00    -0.000 C 
BRANCH  30  31
ATOM     31  C   UNL     1     153.059 159.411 159.011  1.00  0.00    -0.003 C 
ATOM     32  C   UNL     1     152.499 158.239 159.813  1.00  0.00     0.004 C 
ENDBRANCH  30  31
ENDBRANCH  29  30
ENDBRANCH  28  29
ENDBRANCH  27  28
ENDBRANCH  26  27
ENDBRANCH  25  26
ENDBRANCH  24  25
ENDBRANCH  23  24
ENDBRANCH  22  23
ENDBRANCH  21  22
ENDBRANCH  20  21
ENDBRANCH  19  20
ENDBRANCH  18  19
ENDBRANCH   1  18
TORSDOF 28
ENDMDL
