MODEL 1
REMARK VINA RESULT:    24.618      0.000      0.000
REMARK INTER + INTRA:          30.172
REMARK INTER:                  30.374
REMARK INTRA:                  -0.202
REMARK UNBOUND:                -0.202
REMARK SMILES O=c1c(O)c(-c2cc(O)c(O)c(O)c2)oc2cc(O)cc(O)c12
REMARK SMILES IDX 5 1 3 2 2 3 1 4 23 5 21 6 20 7 18 8 17 9 16 10 15 11 6 12
REMARK SMILES IDX 7 13 8 14 14 15 10 16 12 17 9 18 11 20 13 22 4 24 22 26
REMARK SMILES IDX 19 28
REMARK H PARENT 9 19 11 21 13 23 4 25 22 27 19 29
REMARK Flexibility Score: inf
ROOT
ATOM      1  C   UNL     1      -6.229   7.134  16.060  1.00  0.00     0.180 A 
ATOM      2  C   UNL     1      -7.122   6.825  15.014  1.00  0.00     0.208 A 
ATOM      3  C   UNL     1      -7.375   5.478  14.714  1.00  0.00     0.238 A 
ATOM      4  O   UNL     1      -8.180   5.190  13.788  1.00  0.00    -0.285 OA
ATOM      5  C   UNL     1      -6.722   4.466  15.448  1.00  0.00     0.111 A 
ATOM      6  C   UNL     1      -6.920   3.085  15.205  1.00  0.00     0.134 A 
ATOM      7  C   UNL     1      -6.225   2.138  15.972  1.00  0.00     0.093 A 
ATOM      8  C   UNL     1      -5.338   2.543  16.973  1.00  0.00     0.123 A 
ATOM      9  C   UNL     1      -5.139   3.906  17.216  1.00  0.00     0.094 A 
ATOM     10  C   UNL     1      -5.823   4.866  16.464  1.00  0.00     0.146 A 
ATOM     11  O   UNL     1      -5.620   6.153  16.719  1.00  0.00    -0.452 OA
ENDROOT
BRANCH   1  12
ATOM     12  C   UNL     1      -5.924   8.529  16.447  1.00  0.00     0.029 A 
ATOM     13  C   UNL     1      -4.649   9.084  16.239  1.00  0.00     0.062 A 
ATOM     14  C   UNL     1      -4.384  10.412  16.590  1.00  0.00     0.162 A 
ATOM     15  C   UNL     1      -6.941   9.337  16.979  1.00  0.00     0.062 A 
ATOM     16  C   UNL     1      -5.401  11.209  17.144  1.00  0.00     0.200 A 
ATOM     17  C   UNL     1      -6.684  10.667  17.335  1.00  0.00     0.162 A 
BRANCH  14  18
ATOM     18  O   UNL     1      -3.105  10.924  16.374  1.00  0.00    -0.504 OA
ATOM     19  H   UNL     1      -2.725  11.055  15.445  1.00  0.00     0.293 HD
ENDBRANCH  14  18
BRANCH  16  20
ATOM     20  O   UNL     1      -5.127  12.532  17.495  1.00  0.00    -0.502 OA
ATOM     21  H   UNL     1      -5.720  13.300  17.209  1.00  0.00     0.293 HD
ENDBRANCH  16  20
BRANCH  17  22
ATOM     22  O   UNL     1      -7.700  11.455  17.876  1.00  0.00    -0.504 OA
ATOM     23  H   UNL     1      -8.499  11.743  17.323  1.00  0.00     0.293 HD
ENDBRANCH  17  22
ENDBRANCH   1  12
BRANCH   2  24
ATOM     24  O   UNL     1      -7.717   7.848  14.271  1.00  0.00    -0.502 OA
ATOM     25  H   UNL     1      -8.304   8.556  14.697  1.00  0.00     0.293 HD
ENDBRANCH   2  24
BRANCH   6  26
ATOM     26  O   UNL     1      -7.798   2.648  14.213  1.00  0.00    -0.507 OA
ATOM     27  H   UNL     1      -8.590   2.052  14.426  1.00  0.00     0.293 HD
ENDBRANCH   6  26
BRANCH   8  28
ATOM     28  O   UNL     1      -4.660   1.582  17.720  1.00  0.00    -0.508 OA
ATOM     29  H   UNL     1      -3.669   1.414  17.591  1.00  0.00     0.293 HD
ENDBRANCH   8  28
TORSDOF 7
ENDMDL
MODEL 2
REMARK VINA RESULT:    25.908      1.500      7.349
REMARK INTER + INTRA:          31.764
REMARK INTER:                  32.121
REMARK INTRA:                  -0.357
REMARK UNBOUND:                -0.202
REMARK SMILES O=c1c(O)c(-c2cc(O)c(O)c(O)c2)oc2cc(O)cc(O)c12
REMARK SMILES IDX 5 1 3 2 2 3 1 4 23 5 21 6 20 7 18 8 17 9 16 10 15 11 6 12
REMARK SMILES IDX 7 13 8 14 14 15 10 16 12 17 9 18 11 20 13 22 4 24 22 26
REMARK SMILES IDX 19 28
REMARK H PARENT 9 19 11 21 13 23 4 25 22 27 19 29
REMARK Flexibility Score: inf
ROOT
ATOM      1  C   UNL     1      -6.241   7.950  16.560  1.00  0.00     0.180 A 
ATOM      2  C   UNL     1      -5.027   8.626  16.325  1.00  0.00     0.208 A 
ATOM      3  C   UNL     1      -4.953  10.001  16.594  1.00  0.00     0.238 A 
ATOM      4  O   UNL     1      -3.869  10.614  16.398  1.00  0.00    -0.285 OA
ATOM      5  C   UNL     1      -6.092  10.679  17.075  1.00  0.00     0.111 A 
ATOM      6  C   UNL     1      -6.101  12.065  17.368  1.00  0.00     0.134 A 
ATOM      7  C   UNL     1      -7.279  12.670  17.833  1.00  0.00     0.093 A 
ATOM      8  C   UNL     1      -8.444  11.919  18.010  1.00  0.00     0.123 A 
ATOM      9  C   UNL     1      -8.440  10.550  17.722  1.00  0.00     0.094 A 
ATOM     10  C   UNL     1      -7.277   9.928  17.259  1.00  0.00     0.146 A 
ATOM     11  O   UNL     1      -7.299   8.626  16.998  1.00  0.00    -0.452 OA
ENDROOT
BRANCH   1  12
ATOM     12  C   UNL     1      -6.392   6.498  16.316  1.00  0.00     0.029 A 
ATOM     13  C   UNL     1      -6.834   6.007  15.075  1.00  0.00     0.062 A 
ATOM     14  C   UNL     1      -6.949   4.630  14.855  1.00  0.00     0.162 A 
ATOM     15  C   UNL     1      -6.034   5.589  17.323  1.00  0.00     0.062 A 
ATOM     16  C   UNL     1      -6.610   3.724  15.875  1.00  0.00     0.200 A 
ATOM     17  C   UNL     1      -6.148   4.208  17.111  1.00  0.00     0.162 A 
BRANCH  14  18
ATOM     18  O   UNL     1      -7.396   4.181  13.613  1.00  0.00    -0.504 OA
ATOM     19  H   UNL     1      -8.090   4.686  13.075  1.00  0.00     0.293 HD
ENDBRANCH  14  18
BRANCH  16  20
ATOM     20  O   UNL     1      -6.732   2.353  15.648  1.00  0.00    -0.502 OA
ATOM     21  H   UNL     1      -5.946   1.720  15.726  1.00  0.00     0.293 HD
ENDBRANCH  16  20
BRANCH  17  22
ATOM     22  O   UNL     1      -5.802   3.315  18.124  1.00  0.00    -0.504 OA
ATOM     23  H   UNL     1      -4.951   3.426  18.663  1.00  0.00     0.293 HD
ENDBRANCH  17  22
ENDBRANCH   1  12
BRANCH   2  24
ATOM     24  O   UNL     1      -3.928   7.940  15.802  1.00  0.00    -0.502 OA
ATOM     25  H   UNL     1      -3.019   7.951  16.249  1.00  0.00     0.293 HD
ENDBRANCH   2  24
BRANCH   6  26
ATOM     26  O   UNL     1      -4.955  12.842  17.200  1.00  0.00    -0.507 OA
ATOM     27  H   UNL     1      -4.356  12.742  16.388  1.00  0.00     0.293 HD
ENDBRANCH   6  26
BRANCH   8  28
ATOM     28  O   UNL     1      -9.600  12.544  18.472  1.00  0.00    -0.508 OA
ATOM     29  H   UNL     1     -10.484  12.445  17.988  1.00  0.00     0.293 HD
ENDBRANCH   8  28
TORSDOF 7
ENDMDL
