MODEL 1
REMARK VINA RESULT:    -3.715      0.000      0.000
REMARK INTER + INTRA:          -4.556
REMARK INTER:                  -4.476
REMARK INTRA:                  -0.080
REMARK UNBOUND:                -0.080
REMARK SMILES CC[C@H](C)[C@H]([NH3+])C(=O)[O-]
REMARK SMILES IDX 3 1 4 2 5 3 6 4 7 8 8 9 9 10 2 11 1 12
REMARK H PARENT 6 5 6 6 6 7
REMARK Flexibility Score: inf
ROOT
ATOM      1  C   UNL     1      34.816  -1.450  24.946  1.00  0.00     0.050 C 
ATOM      2  C   UNL     1      33.290  -1.292  25.119  1.00  0.00     0.014 C 
ENDROOT
BRANCH   1   3
ATOM      3  C   UNL     1      35.441  -0.125  24.400  1.00  0.00     0.230 C 
BRANCH   3   4
ATOM      4  N   UNL     1      36.422  -0.369  23.330  1.00  0.00    -0.350 N 
ATOM      5  H   UNL     1      36.306  -1.334  22.947  1.00  0.00     0.345 HD
ATOM      6  H   UNL     1      36.265   0.293  22.535  1.00  0.00     0.345 HD
ATOM      7  H   UNL     1      37.399  -0.244  23.687  1.00  0.00     0.345 HD
ENDBRANCH   3   4
BRANCH   3   8
ATOM      8  C   UNL     1      36.102   0.658  25.509  1.00  0.00     0.099 C 
ATOM      9  O   UNL     1      36.623   1.780  25.275  1.00  0.00    -0.544 OA
ATOM     10  O   UNL     1      36.138   0.140  26.798  1.00  0.00    -0.544 OA
ENDBRANCH   3   8
ENDBRANCH   1   3
BRANCH   1  11
ATOM     11  C   UNL     1      35.139  -2.656  24.023  1.00  0.00     0.006 C 
ATOM     12  C   UNL     1      34.314  -3.906  24.337  1.00  0.00     0.004 C 
ENDBRANCH   1  11
TORSDOF 4
ENDMDL
MODEL 2
REMARK VINA RESULT:    -3.656     13.393     14.583
REMARK INTER + INTRA:          -4.483
REMARK INTER:                  -4.512
REMARK INTRA:                   0.029
REMARK UNBOUND:                -0.080
REMARK SMILES CC[C@H](C)[C@H]([NH3+])C(=O)[O-]
REMARK SMILES IDX 3 1 4 2 5 3 6 4 7 8 8 9 9 10 2 11 1 12
REMARK H PARENT 6 5 6 6 6 7
REMARK Flexibility Score: inf
ROOT
ATOM      1  C   UNL     1      21.538  -2.685  31.713  1.00  0.00     0.050 C 
ATOM      2  C   UNL     1      21.159  -3.854  30.778  1.00  0.00     0.014 C 
ENDROOT
BRANCH   1   3
ATOM      3  C   UNL     1      22.177  -1.517  30.891  1.00  0.00     0.230 C 
BRANCH   3   4
ATOM      4  N   UNL     1      21.457  -1.260  29.633  1.00  0.00    -0.350 N 
ATOM      5  H   UNL     1      21.606  -0.273  29.326  1.00  0.00     0.345 HD
ATOM      6  H   UNL     1      21.829  -1.873  28.870  1.00  0.00     0.345 HD
ATOM      7  H   UNL     1      20.433  -1.446  29.748  1.00  0.00     0.345 HD
ENDBRANCH   3   4
BRANCH   3   8
ATOM      8  C   UNL     1      23.627  -1.805  30.583  1.00  0.00     0.099 C 
ATOM      9  O   UNL     1      23.937  -2.591  29.649  1.00  0.00    -0.544 OA
ATOM     10  O   UNL     1      24.629  -1.201  31.332  1.00  0.00    -0.544 OA
ENDBRANCH   3   8
ENDBRANCH   1   3
BRANCH   1  11
ATOM     11  C   UNL     1      22.486  -3.172  32.842  1.00  0.00     0.006 C 
ATOM     12  C   UNL     1      22.387  -2.344  34.125  1.00  0.00     0.004 C 
ENDBRANCH   1  11
TORSDOF 4
ENDMDL
MODEL 3
REMARK VINA RESULT:    -3.653      2.175      2.827
REMARK INTER + INTRA:          -4.481
REMARK INTER:                  -4.408
REMARK INTRA:                  -0.073
REMARK UNBOUND:                -0.080
REMARK SMILES CC[C@H](C)[C@H]([NH3+])C(=O)[O-]
REMARK SMILES IDX 3 1 4 2 5 3 6 4 7 8 8 9 9 10 2 11 1 12
REMARK H PARENT 6 5 6 6 6 7
REMARK Flexibility Score: inf
ROOT
ATOM      1  C   UNL     1      34.753  -2.273  23.911  1.00  0.00     0.050 C 
ATOM      2  C   UNL     1      36.147  -2.887  23.656  1.00  0.00     0.014 C 
ENDROOT
BRANCH   1   3
ATOM      3  C   UNL     1      34.880  -0.976  24.777  1.00  0.00     0.230 C 
BRANCH   3   4
ATOM      4  N   UNL     1      35.739  -1.173  25.955  1.00  0.00    -0.350 N 
ATOM      5  H   UNL     1      35.846  -0.275  26.479  1.00  0.00     0.345 HD
ATOM      6  H   UNL     1      35.300  -1.857  26.614  1.00  0.00     0.345 HD
ATOM      7  H   UNL     1      36.681  -1.533  25.672  1.00  0.00     0.345 HD
ENDBRANCH   3   4
BRANCH   3   8
ATOM      8  C   UNL     1      33.523  -0.492  25.227  1.00  0.00     0.099 C 
ATOM      9  O   UNL     1      33.233  -0.453  26.452  1.00  0.00    -0.544 OA
ATOM     10  O   UNL     1      32.583  -0.086  24.287  1.00  0.00    -0.544 OA
ENDBRANCH   3   8
ENDBRANCH   1   3
BRANCH   1  11
ATOM     11  C   UNL     1      33.812  -3.313  24.578  1.00  0.00     0.006 C 
ATOM     12  C   UNL     1      34.291  -4.758  24.426  1.00  0.00     0.004 C 
ENDBRANCH   1  11
TORSDOF 4
ENDMDL
MODEL 4
REMARK VINA RESULT:    -3.636     13.901     14.780
REMARK INTER + INTRA:          -4.460
REMARK INTER:                  -4.382
REMARK INTRA:                  -0.078
REMARK UNBOUND:                -0.080
REMARK SMILES CC[C@H](C)[C@H]([NH3+])C(=O)[O-]
REMARK SMILES IDX 3 1 4 2 5 3 6 4 7 8 8 9 9 10 2 11 1 12
REMARK H PARENT 6 5 6 6 6 7
REMARK Flexibility Score: inf
ROOT
ATOM      1  C   UNL     1      23.131  -1.951  31.719  1.00  0.00     0.050 C 
ATOM      2  C   UNL     1      23.660  -0.545  32.075  1.00  0.00     0.014 C 
ENDROOT
BRANCH   1   3
ATOM      3  C   UNL     1      22.759  -2.023  30.201  1.00  0.00     0.230 C 
BRANCH   3   4
ATOM      4  N   UNL     1      21.535  -1.268  29.889  1.00  0.00    -0.350 N 
ATOM      5  H   UNL     1      20.732  -1.922  29.752  1.00  0.00     0.345 HD
ATOM      6  H   UNL     1      21.282  -0.642  30.688  1.00  0.00     0.345 HD
ATOM      7  H   UNL     1      21.669  -0.684  29.031  1.00  0.00     0.345 HD
ENDBRANCH   3   4
BRANCH   3   8
ATOM      8  C   UNL     1      22.585  -3.456  29.756  1.00  0.00     0.099 C 
ATOM      9  O   UNL     1      23.590  -4.190  29.564  1.00  0.00    -0.544 OA
ATOM     10  O   UNL     1      21.311  -3.971  29.554  1.00  0.00    -0.544 OA
ENDBRANCH   3   8
ENDBRANCH   1   3
BRANCH   1  11
ATOM     11  C   UNL     1      21.923  -2.325  32.620  1.00  0.00     0.006 C 
ATOM     12  C   UNL     1      22.251  -2.327  34.115  1.00  0.00     0.004 C 
ENDBRANCH   1  11
TORSDOF 4
ENDMDL
MODEL 5
REMARK VINA RESULT:    -3.625     15.843     16.770
REMARK INTER + INTRA:          -4.447
REMARK INTER:                  -4.365
REMARK INTRA:                  -0.081
REMARK UNBOUND:                -0.080
REMARK SMILES CC[C@H](C)[C@H]([NH3+])C(=O)[O-]
REMARK SMILES IDX 3 1 4 2 5 3 6 4 7 8 8 9 9 10 2 11 1 12
REMARK H PARENT 6 5 6 6 6 7
REMARK Flexibility Score: inf
ROOT
ATOM      1  C   UNL     1      22.504   7.058  19.792  1.00  0.00     0.050 C 
ATOM      2  C   UNL     1      21.662   7.762  20.878  1.00  0.00     0.014 C 
ENDROOT
BRANCH   1   3
ATOM      3  C   UNL     1      21.571   6.331  18.768  1.00  0.00     0.230 C 
BRANCH   3   4
ATOM      4  N   UNL     1      22.282   5.296  18.001  1.00  0.00    -0.350 N 
ATOM      5  H   UNL     1      21.607   4.583  17.643  1.00  0.00     0.345 HD
ATOM      6  H   UNL     1      22.747   5.719  17.165  1.00  0.00     0.345 HD
ATOM      7  H   UNL     1      23.009   4.830  18.593  1.00  0.00     0.345 HD
ENDBRANCH   3   4
BRANCH   3   8
ATOM      8  C   UNL     1      20.948   7.318  17.810  1.00  0.00     0.099 C 
ATOM      9  O   UNL     1      19.708   7.540  17.839  1.00  0.00    -0.544 OA
ATOM     10  O   UNL     1      21.744   7.989  16.890  1.00  0.00    -0.544 OA
ENDBRANCH   3   8
ENDBRANCH   1   3
BRANCH   1  11
ATOM     11  C   UNL     1      23.516   6.074  20.437  1.00  0.00     0.006 C 
ATOM     12  C   UNL     1      24.250   6.657  21.648  1.00  0.00     0.004 C 
ENDBRANCH   1  11
TORSDOF 4
ENDMDL
MODEL 6
REMARK VINA RESULT:    -3.555     13.235     14.333
REMARK INTER + INTRA:          -4.363
REMARK INTER:                  -4.261
REMARK INTRA:                  -0.102
REMARK UNBOUND:                -0.080
REMARK SMILES CC[C@H](C)[C@H]([NH3+])C(=O)[O-]
REMARK SMILES IDX 3 1 4 2 5 3 6 4 7 8 8 9 9 10 2 11 1 12
REMARK H PARENT 6 5 6 6 6 7
REMARK Flexibility Score: inf
ROOT
ATOM      1  C   UNL     1      22.277  -2.649  31.673  1.00  0.00     0.050 C 
ATOM      2  C   UNL     1      22.063  -2.412  33.184  1.00  0.00     0.014 C 
ENDROOT
BRANCH   1   3
ATOM      3  C   UNL     1      22.275  -1.286  30.904  1.00  0.00     0.230 C 
BRANCH   3   4
ATOM      4  N   UNL     1      21.503  -1.352  29.653  1.00  0.00    -0.350 N 
ATOM      5  H   UNL     1      20.486  -1.213  29.848  1.00  0.00     0.345 HD
ATOM      6  H   UNL     1      21.794  -0.583  29.006  1.00  0.00     0.345 HD
ATOM      7  H   UNL     1      21.650  -2.272  29.175  1.00  0.00     0.345 HD
ENDBRANCH   3   4
BRANCH   3   8
ATOM      8  C   UNL     1      23.684  -0.840  30.595  1.00  0.00     0.099 C 
ATOM      9  O   UNL     1      24.548  -1.674  30.214  1.00  0.00    -0.544 OA
ATOM     10  O   UNL     1      24.035   0.497  30.730  1.00  0.00    -0.544 OA
ENDBRANCH   3   8
ENDBRANCH   1   3
BRANCH   1  11
ATOM     11  C   UNL     1      21.201  -3.619  31.115  1.00  0.00     0.006 C 
ATOM     12  C   UNL     1      21.753  -4.998  30.746  1.00  0.00     0.004 C 
ENDBRANCH   1  11
TORSDOF 4
ENDMDL
MODEL 7
REMARK VINA RESULT:    -3.519      2.578      3.487
REMARK INTER + INTRA:          -4.319
REMARK INTER:                  -4.165
REMARK INTRA:                  -0.154
REMARK UNBOUND:                -0.080
REMARK SMILES CC[C@H](C)[C@H]([NH3+])C(=O)[O-]
REMARK SMILES IDX 3 1 4 2 5 3 6 4 7 8 8 9 9 10 2 11 1 12
REMARK H PARENT 6 5 6 6 6 7
REMARK Flexibility Score: inf
ROOT
ATOM      1  C   UNL     1      35.000  -0.447  25.675  1.00  0.00     0.050 C 
ATOM      2  C   UNL     1      35.785  -0.214  26.983  1.00  0.00     0.014 C 
ENDROOT
BRANCH   1   3
ATOM      3  C   UNL     1      35.957  -0.971  24.553  1.00  0.00     0.230 C 
BRANCH   3   4
ATOM      4  N   UNL     1      36.128   0.004  23.464  1.00  0.00    -0.350 N 
ATOM      5  H   UNL     1      36.826   0.732  23.738  1.00  0.00     0.345 HD
ATOM      6  H   UNL     1      36.504  -0.469  22.610  1.00  0.00     0.345 HD
ATOM      7  H   UNL     1      35.215   0.458  23.226  1.00  0.00     0.345 HD
ENDBRANCH   3   4
BRANCH   3   8
ATOM      8  C   UNL     1      35.452  -2.273  23.979  1.00  0.00     0.099 C 
ATOM      9  O   UNL     1      36.258  -3.118  23.507  1.00  0.00    -0.544 OA
ATOM     10  O   UNL     1      34.089  -2.545  23.967  1.00  0.00    -0.544 OA
ENDBRANCH   3   8
ENDBRANCH   1   3
BRANCH   1  11
ATOM     11  C   UNL     1      34.268   0.851  25.238  1.00  0.00     0.006 C 
ATOM     12  C   UNL     1      32.794   0.634  24.886  1.00  0.00     0.004 C 
ENDBRANCH   1  11
TORSDOF 4
ENDMDL
MODEL 8
REMARK VINA RESULT:    -3.498     15.031     15.814
REMARK INTER + INTRA:          -4.294
REMARK INTER:                  -4.213
REMARK INTRA:                  -0.081
REMARK UNBOUND:                -0.080
REMARK SMILES CC[C@H](C)[C@H]([NH3+])C(=O)[O-]
REMARK SMILES IDX 3 1 4 2 5 3 6 4 7 8 8 9 9 10 2 11 1 12
REMARK H PARENT 6 5 6 6 6 7
REMARK Flexibility Score: inf
ROOT
ATOM      1  C   UNL     1      22.020  -3.865  31.731  1.00  0.00     0.050 C 
ATOM      2  C   UNL     1      23.373  -4.456  32.184  1.00  0.00     0.014 C 
ENDROOT
BRANCH   1   3
ATOM      3  C   UNL     1      21.906  -3.901  30.171  1.00  0.00     0.230 C 
BRANCH   3   4
ATOM      4  N   UNL     1      21.514  -2.599  29.610  1.00  0.00    -0.350 N 
ATOM      5  H   UNL     1      20.627  -2.691  29.068  1.00  0.00     0.345 HD
ATOM      6  H   UNL     1      21.329  -1.913  30.378  1.00  0.00     0.345 HD
ATOM      7  H   UNL     1      22.270  -2.219  28.992  1.00  0.00     0.345 HD
ENDBRANCH   3   4
BRANCH   3   8
ATOM      8  C   UNL     1      20.917  -4.952  29.726  1.00  0.00     0.099 C 
ATOM      9  O   UNL     1      19.941  -5.260  30.460  1.00  0.00    -0.544 OA
ATOM     10  O   UNL     1      21.082  -5.585  28.501  1.00  0.00    -0.544 OA
ENDBRANCH   3   8
ENDBRANCH   1   3
BRANCH   1  11
ATOM     11  C   UNL     1      21.840  -2.426  32.283  1.00  0.00     0.006 C 
ATOM     12  C   UNL     1      22.229  -2.281  33.756  1.00  0.00     0.004 C 
ENDBRANCH   1  11
TORSDOF 4
ENDMDL
MODEL 9
REMARK VINA RESULT:    -3.454      2.918      3.863
REMARK INTER + INTRA:          -4.240
REMARK INTER:                  -4.081
REMARK INTRA:                  -0.160
REMARK UNBOUND:                -0.080
REMARK SMILES CC[C@H](C)[C@H]([NH3+])C(=O)[O-]
REMARK SMILES IDX 3 1 4 2 5 3 6 4 7 8 8 9 9 10 2 11 1 12
REMARK H PARENT 6 5 6 6 6 7
REMARK Flexibility Score: inf
ROOT
ATOM      1  C   UNL     1      34.565  -0.198  24.664  1.00  0.00     0.050 C 
ATOM      2  C   UNL     1      34.044   1.091  23.993  1.00  0.00     0.014 C 
ENDROOT
BRANCH   1   3
ATOM      3  C   UNL     1      33.585  -1.387  24.392  1.00  0.00     0.230 C 
BRANCH   3   4
ATOM      4  N   UNL     1      32.628  -1.584  25.492  1.00  0.00    -0.350 N 
ATOM      5  H   UNL     1      32.776  -0.863  26.233  1.00  0.00     0.345 HD
ATOM      6  H   UNL     1      31.647  -1.465  25.146  1.00  0.00     0.345 HD
ATOM      7  H   UNL     1      32.728  -2.542  25.903  1.00  0.00     0.345 HD
ENDBRANCH   3   4
BRANCH   3   8
ATOM      8  C   UNL     1      34.344  -2.671  24.159  1.00  0.00     0.099 C 
ATOM      9  O   UNL     1      35.498  -2.647  23.655  1.00  0.00    -0.544 OA
ATOM     10  O   UNL     1      33.771  -3.889  24.500  1.00  0.00    -0.544 OA
ENDBRANCH   3   8
ENDBRANCH   1   3
BRANCH   1  11
ATOM     11  C   UNL     1      34.781   0.025  26.184  1.00  0.00     0.006 C 
ATOM     12  C   UNL     1      36.152  -0.440  26.683  1.00  0.00     0.004 C 
ENDBRANCH   1  11
TORSDOF 4
ENDMDL
