MODEL 1
REMARK VINA RESULT:    -3.980      0.000      0.000
REMARK INTER + INTRA:          -5.379
REMARK INTER:                  -4.910
REMARK INTRA:                  -0.469
REMARK UNBOUND:                -0.469
REMARK SMILES C=CC[C@@H](C)C(=O)CC
REMARK SMILES IDX 4 1 5 2 6 3 7 4 8 5 9 6 3 7 2 8 1 9
REMARK H PARENT
REMARK Flexibility Score: inf
ROOT
ATOM      1  C   UNL     1     -16.871 -37.562 210.531  1.00  0.00     0.057 C 
ATOM      2  C   UNL     1     -17.795 -37.546 209.305  1.00  0.00     0.016 C 
ENDROOT
BRANCH   1   3
ATOM      3  C   UNL     1     -17.497 -38.343 211.670  1.00  0.00     0.135 C 
ATOM      4  O   UNL     1     -18.644 -38.753 211.572  1.00  0.00    -0.299 OA
BRANCH   3   5
ATOM      5  C   UNL     1     -16.725 -38.626 212.933  1.00  0.00     0.072 C 
ATOM      6  C   UNL     1     -16.494 -40.124 213.101  1.00  0.00     0.012 C 
ENDBRANCH   3   5
ENDBRANCH   1   3
BRANCH   1   7
ATOM      7  C   UNL     1     -15.454 -38.073 210.196  1.00  0.00     0.038 C 
BRANCH   7   8
ATOM      8  C   UNL     1     -15.450 -39.319 209.347  1.00  0.00    -0.034 C 
ATOM      9  C   UNL     1     -14.852 -40.445 209.748  1.00  0.00     0.004 C 
ENDBRANCH   7   8
ENDBRANCH   1   7
TORSDOF 4
ENDMDL
MODEL 2
REMARK VINA RESULT:    -3.901      1.701      3.007
REMARK INTER + INTRA:          -5.282
REMARK INTER:                  -4.862
REMARK INTRA:                  -0.420
REMARK UNBOUND:                -0.469
REMARK SMILES C=CC[C@@H](C)C(=O)CC
REMARK SMILES IDX 4 1 5 2 6 3 7 4 8 5 9 6 3 7 2 8 1 9
REMARK H PARENT
REMARK Flexibility Score: inf
ROOT
ATOM      1  C   UNL     1     -17.307 -37.570 210.767  1.00  0.00     0.057 C 
ATOM      2  C   UNL     1     -15.826 -37.650 210.371  1.00  0.00     0.016 C 
ENDROOT
BRANCH   1   3
ATOM      3  C   UNL     1     -18.131 -38.576 209.988  1.00  0.00     0.135 C 
ATOM      4  O   UNL     1     -17.760 -38.944 208.882  1.00  0.00    -0.299 OA
BRANCH   3   5
ATOM      5  C   UNL     1     -19.411 -39.136 210.553  1.00  0.00     0.072 C 
ATOM      6  C   UNL     1     -19.289 -40.639 210.780  1.00  0.00     0.012 C 
ENDBRANCH   3   5
ENDBRANCH   1   3
BRANCH   1   7
ATOM      7  C   UNL     1     -17.520 -37.710 212.289  1.00  0.00     0.038 C 
BRANCH   7   8
ATOM      8  C   UNL     1     -16.449 -38.522 212.973  1.00  0.00    -0.034 C 
ATOM      9  C   UNL     1     -16.552 -39.847 213.117  1.00  0.00     0.004 C 
ENDBRANCH   7   8
ENDBRANCH   1   7
TORSDOF 4
ENDMDL
MODEL 3
REMARK VINA RESULT:    -3.877      1.381      3.571
REMARK INTER + INTRA:          -5.252
REMARK INTER:                  -5.008
REMARK INTRA:                  -0.244
REMARK UNBOUND:                -0.469
REMARK SMILES C=CC[C@@H](C)C(=O)CC
REMARK SMILES IDX 4 1 5 2 6 3 7 4 8 5 9 6 3 7 2 8 1 9
REMARK H PARENT
REMARK Flexibility Score: inf
ROOT
ATOM      1  C   UNL     1     -17.116 -37.339 210.782  1.00  0.00     0.057 C 
ATOM      2  C   UNL     1     -15.646 -37.604 210.427  1.00  0.00     0.016 C 
ENDROOT
BRANCH   1   3
ATOM      3  C   UNL     1     -18.043 -38.076 209.836  1.00  0.00     0.135 C 
ATOM      4  O   UNL     1     -18.954 -38.759 210.283  1.00  0.00    -0.299 OA
BRANCH   3   5
ATOM      5  C   UNL     1     -17.862 -37.985 208.343  1.00  0.00     0.072 C 
ATOM      6  C   UNL     1     -18.717 -36.864 207.763  1.00  0.00     0.012 C 
ENDBRANCH   3   5
ENDBRANCH   1   3
BRANCH   1   7
ATOM      7  C   UNL     1     -17.433 -37.656 212.259  1.00  0.00     0.038 C 
BRANCH   7   8
ATOM      8  C   UNL     1     -16.436 -38.588 212.900  1.00  0.00    -0.034 C 
ATOM      9  C   UNL     1     -16.648 -39.906 212.973  1.00  0.00     0.004 C 
ENDBRANCH   7   8
ENDBRANCH   1   7
TORSDOF 4
ENDMDL
MODEL 4
REMARK VINA RESULT:    -3.760      1.253      2.336
REMARK INTER + INTRA:          -5.108
REMARK INTER:                  -4.766
REMARK INTRA:                  -0.342
REMARK UNBOUND:                -0.469
REMARK SMILES C=CC[C@@H](C)C(=O)CC
REMARK SMILES IDX 4 1 5 2 6 3 7 4 8 5 9 6 3 7 2 8 1 9
REMARK H PARENT
REMARK Flexibility Score: inf
ROOT
ATOM      1  C   UNL     1     -16.593 -38.764 211.953  1.00  0.00     0.057 C 
ATOM      2  C   UNL     1     -17.229 -37.511 212.570  1.00  0.00     0.016 C 
ENDROOT
BRANCH   1   3
ATOM      3  C   UNL     1     -17.598 -39.897 211.870  1.00  0.00     0.135 C 
ATOM      4  O   UNL     1     -18.740 -39.674 211.496  1.00  0.00    -0.299 OA
BRANCH   3   5
ATOM      5  C   UNL     1     -17.213 -41.305 212.243  1.00  0.00     0.072 C 
ATOM      6  C   UNL     1     -16.181 -41.303 213.366  1.00  0.00     0.012 C 
ENDBRANCH   3   5
ENDBRANCH   1   3
BRANCH   1   7
ATOM      7  C   UNL     1     -15.936 -38.480 210.586  1.00  0.00     0.038 C 
BRANCH   7   8
ATOM      8  C   UNL     1     -16.607 -37.371 209.815  1.00  0.00    -0.034 C 
ATOM      9  C   UNL     1     -17.533 -37.619 208.884  1.00  0.00     0.004 C 
ENDBRANCH   7   8
ENDBRANCH   1   7
TORSDOF 4
ENDMDL
MODEL 5
REMARK VINA RESULT:    -3.709     11.990     12.850
REMARK INTER + INTRA:          -5.044
REMARK INTER:                  -4.745
REMARK INTRA:                  -0.300
REMARK UNBOUND:                -0.469
REMARK SMILES C=CC[C@@H](C)C(=O)CC
REMARK SMILES IDX 4 1 5 2 6 3 7 4 8 5 9 6 3 7 2 8 1 9
REMARK H PARENT
REMARK Flexibility Score: inf
ROOT
ATOM      1  C   UNL     1      -4.584 -39.004 216.380  1.00  0.00     0.057 C 
ATOM      2  C   UNL     1      -4.779 -38.728 217.877  1.00  0.00     0.016 C 
ENDROOT
BRANCH   1   3
ATOM      3  C   UNL     1      -5.912 -39.281 215.703  1.00  0.00     0.135 C 
ATOM      4  O   UNL     1      -6.587 -40.239 216.051  1.00  0.00    -0.299 OA
BRANCH   3   5
ATOM      5  C   UNL     1      -6.421 -38.392 214.598  1.00  0.00     0.072 C 
ATOM      6  C   UNL     1      -7.359 -39.162 213.674  1.00  0.00     0.012 C 
ENDBRANCH   3   5
ENDBRANCH   1   3
BRANCH   1   7
ATOM      7  C   UNL     1      -3.802 -37.879 215.669  1.00  0.00     0.038 C 
BRANCH   7   8
ATOM      8  C   UNL     1      -2.502 -38.343 215.063  1.00  0.00    -0.034 C 
ATOM      9  C   UNL     1      -2.447 -39.368 214.207  1.00  0.00     0.004 C 
ENDBRANCH   7   8
ENDBRANCH   1   7
TORSDOF 4
ENDMDL
MODEL 6
REMARK VINA RESULT:    -3.683      1.773      3.597
REMARK INTER + INTRA:          -5.013
REMARK INTER:                  -4.791
REMARK INTRA:                  -0.222
REMARK UNBOUND:                -0.469
REMARK SMILES C=CC[C@@H](C)C(=O)CC
REMARK SMILES IDX 4 1 5 2 6 3 7 4 8 5 9 6 3 7 2 8 1 9
REMARK H PARENT
REMARK Flexibility Score: inf
ROOT
ATOM      1  C   UNL     1     -17.592 -38.558 211.499  1.00  0.00     0.057 C 
ATOM      2  C   UNL     1     -17.144 -37.600 212.611  1.00  0.00     0.016 C 
ENDROOT
BRANCH   1   3
ATOM      3  C   UNL     1     -16.904 -38.226 210.189  1.00  0.00     0.135 C 
ATOM      4  O   UNL     1     -15.828 -38.738 209.917  1.00  0.00    -0.299 OA
BRANCH   3   5
ATOM      5  C   UNL     1     -17.526 -37.266 209.208  1.00  0.00     0.072 C 
ATOM      6  C   UNL     1     -18.742 -37.894 208.535  1.00  0.00     0.012 C 
ENDBRANCH   3   5
ENDBRANCH   1   3
BRANCH   1   7
ATOM      7  C   UNL     1     -17.403 -40.040 211.885  1.00  0.00     0.038 C 
BRANCH   7   8
ATOM      8  C   UNL     1     -16.453 -40.244 213.038  1.00  0.00    -0.034 C 
ATOM      9  C   UNL     1     -16.079 -41.464 213.438  1.00  0.00     0.004 C 
ENDBRANCH   7   8
ENDBRANCH   1   7
TORSDOF 4
ENDMDL
MODEL 7
REMARK VINA RESULT:    -3.600      1.911      3.526
REMARK INTER + INTRA:          -4.911
REMARK INTER:                  -4.550
REMARK INTRA:                  -0.361
REMARK UNBOUND:                -0.469
REMARK SMILES C=CC[C@@H](C)C(=O)CC
REMARK SMILES IDX 4 1 5 2 6 3 7 4 8 5 9 6 3 7 2 8 1 9
REMARK H PARENT
REMARK Flexibility Score: inf
ROOT
ATOM      1  C   UNL     1     -16.705 -39.921 212.107  1.00  0.00     0.057 C 
ATOM      2  C   UNL     1     -16.248 -40.856 213.234  1.00  0.00     0.016 C 
ENDROOT
BRANCH   1   3
ATOM      3  C   UNL     1     -17.823 -40.552 211.300  1.00  0.00     0.135 C 
ATOM      4  O   UNL     1     -17.680 -41.670 210.827  1.00  0.00    -0.299 OA
BRANCH   3   5
ATOM      5  C   UNL     1     -19.120 -39.821 211.067  1.00  0.00     0.072 C 
ATOM      6  C   UNL     1     -19.196 -39.300 209.636  1.00  0.00     0.012 C 
ENDBRANCH   3   5
ENDBRANCH   1   3
BRANCH   1   7
ATOM      7  C   UNL     1     -17.091 -38.519 212.622  1.00  0.00     0.038 C 
BRANCH   7   8
ATOM      8  C   UNL     1     -16.622 -37.400 211.727  1.00  0.00    -0.034 C 
ATOM      9  C   UNL     1     -15.820 -37.622 210.680  1.00  0.00     0.004 C 
ENDBRANCH   7   8
ENDBRANCH   1   7
TORSDOF 4
ENDMDL
MODEL 8
REMARK VINA RESULT:    -3.566      1.989      3.071
REMARK INTER + INTRA:          -4.869
REMARK INTER:                  -4.746
REMARK INTRA:                  -0.123
REMARK UNBOUND:                -0.469
REMARK SMILES C=CC[C@@H](C)C(=O)CC
REMARK SMILES IDX 4 1 5 2 6 3 7 4 8 5 9 6 3 7 2 8 1 9
REMARK H PARENT
REMARK Flexibility Score: inf
ROOT
ATOM      1  C   UNL     1     -17.985 -37.826 210.238  1.00  0.00     0.057 C 
ATOM      2  C   UNL     1     -18.851 -39.080 210.427  1.00  0.00     0.016 C 
ENDROOT
BRANCH   1   3
ATOM      3  C   UNL     1     -16.768 -37.867 211.141  1.00  0.00     0.135 C 
ATOM      4  O   UNL     1     -15.647 -37.787 210.660  1.00  0.00    -0.299 OA
BRANCH   3   5
ATOM      5  C   UNL     1     -16.914 -38.006 212.634  1.00  0.00     0.072 C 
ATOM      6  C   UNL     1     -16.504 -39.402 213.089  1.00  0.00     0.012 C 
ENDBRANCH   3   5
ENDBRANCH   1   3
BRANCH   1   7
ATOM      7  C   UNL     1     -17.596 -37.595 208.762  1.00  0.00     0.038 C 
BRANCH   7   8
ATOM      8  C   UNL     1     -18.777 -37.326 207.865  1.00  0.00    -0.034 C 
ATOM      9  C   UNL     1     -19.020 -36.112 207.362  1.00  0.00     0.004 C 
ENDBRANCH   7   8
ENDBRANCH   1   7
TORSDOF 4
ENDMDL
MODEL 9
REMARK VINA RESULT:    -3.556      2.020      2.671
REMARK INTER + INTRA:          -4.857
REMARK INTER:                  -4.471
REMARK INTRA:                  -0.385
REMARK UNBOUND:                -0.469
REMARK SMILES C=CC[C@@H](C)C(=O)CC
REMARK SMILES IDX 4 1 5 2 6 3 7 4 8 5 9 6 3 7 2 8 1 9
REMARK H PARENT
REMARK Flexibility Score: inf
ROOT
ATOM      1  C   UNL     1     -17.569 -38.485 210.187  1.00  0.00     0.057 C 
ATOM      2  C   UNL     1     -17.569 -37.627 208.914  1.00  0.00     0.016 C 
ENDROOT
BRANCH   1   3
ATOM      3  C   UNL     1     -16.617 -37.918 211.222  1.00  0.00     0.135 C 
ATOM      4  O   UNL     1     -15.632 -37.288 210.866  1.00  0.00    -0.299 OA
BRANCH   3   5
ATOM      5  C   UNL     1     -16.863 -38.118 212.695  1.00  0.00     0.072 C 
ATOM      6  C   UNL     1     -16.455 -39.523 213.124  1.00  0.00     0.012 C 
ENDBRANCH   3   5
ENDBRANCH   1   3
BRANCH   1   7
ATOM      7  C   UNL     1     -18.987 -38.687 210.762  1.00  0.00     0.038 C 
BRANCH   7   8
ATOM      8  C   UNL     1     -19.527 -40.080 210.552  1.00  0.00    -0.034 C 
ATOM      9  C   UNL     1     -18.791 -41.167 210.800  1.00  0.00     0.004 C 
ENDBRANCH   7   8
ENDBRANCH   1   7
TORSDOF 4
ENDMDL
