MODEL 1
REMARK VINA RESULT:    -3.381      0.000      0.000
REMARK INTER + INTRA:          -8.818
REMARK INTER:                  -6.246
REMARK INTRA:                  -2.572
REMARK UNBOUND:                -2.572
REMARK SMILES CCCCCCCCCCCCCCCCO
REMARK SMILES IDX 9 1 8 2 7 3 6 4 5 5 4 6 3 7 2 8 1 9 10 10 11 11 12 12 13 13
REMARK SMILES IDX 14 14 15 15 16 16 17 17
REMARK H PARENT 17 18
REMARK Flexibility Score: inf
ROOT
ATOM      1  C   UNL     1     171.485 173.265 161.761  1.00  0.00     0.000 C 
ENDROOT
BRANCH   1   2
ATOM      2  C   UNL     1     172.337 172.971 163.012  1.00  0.00    -0.000 C 
BRANCH   2   3
ATOM      3  C   UNL     1     172.574 171.479 163.305  1.00  0.00    -0.000 C 
BRANCH   3   4
ATOM      4  C   UNL     1     171.825 170.989 164.554  1.00  0.00    -0.000 C 
BRANCH   4   5
ATOM      5  C   UNL     1     170.747 169.961 164.180  1.00  0.00    -0.000 C 
BRANCH   5   6
ATOM      6  C   UNL     1     169.324 170.537 164.258  1.00  0.00    -0.000 C 
BRANCH   6   7
ATOM      7  C   UNL     1     168.442 170.093 163.078  1.00  0.00    -0.000 C 
BRANCH   7   8
ATOM      8  C   UNL     1     169.159 170.225 161.725  1.00  0.00    -0.003 C 
ATOM      9  C   UNL     1     168.272 170.832 160.639  1.00  0.00     0.004 C 
ENDBRANCH   7   8
ENDBRANCH   6   7
ENDBRANCH   5   6
ENDBRANCH   4   5
ENDBRANCH   3   4
ENDBRANCH   2   3
ENDBRANCH   1   2
BRANCH   1  10
ATOM     10  C   UNL     1     170.070 173.799 162.046  1.00  0.00     0.000 C 
BRANCH  10  11
ATOM     11  C   UNL     1     169.832 174.095 163.534  1.00  0.00     0.000 C 
BRANCH  11  12
ATOM     12  C   UNL     1     168.344 173.982 163.885  1.00  0.00     0.000 C 
BRANCH  12  13
ATOM     13  C   UNL     1     167.483 173.907 162.616  1.00  0.00     0.000 C 
BRANCH  13  14
ATOM     14  C   UNL     1     166.159 173.156 162.833  1.00  0.00     0.002 C 
BRANCH  14  15
ATOM     15  C   UNL     1     165.334 172.971 161.542  1.00  0.00     0.028 C 
BRANCH  15  16
ATOM     16  C   UNL     1     164.007 173.740 161.582  1.00  0.00     0.156 C 
BRANCH  16  17
ATOM     17  O   UNL     1     164.084 174.791 162.505  1.00  0.00    -0.396 OA
ATOM     18  H   UNL     1     164.551 174.434 163.305  1.00  0.00     0.210 HD
ENDBRANCH  16  17
ENDBRANCH  15  16
ENDBRANCH  14  15
ENDBRANCH  13  14
ENDBRANCH  12  13
ENDBRANCH  11  12
ENDBRANCH  10  11
ENDBRANCH   1  10
TORSDOF 15
ENDMDL
MODEL 2
REMARK VINA RESULT:    -3.301      3.423      6.277
REMARK INTER + INTRA:          -8.671
REMARK INTER:                  -6.582
REMARK INTRA:                  -2.088
REMARK UNBOUND:                -2.572
REMARK SMILES CCCCCCCCCCCCCCCCO
REMARK SMILES IDX 9 1 8 2 7 3 6 4 5 5 4 6 3 7 2 8 1 9 10 10 11 11 12 12 13 13
REMARK SMILES IDX 14 14 15 15 16 16 17 17
REMARK H PARENT 17 18
REMARK Flexibility Score: inf
ROOT
ATOM      1  C   UNL     1     170.279 169.296 164.006  1.00  0.00     0.000 C 
ENDROOT
BRANCH   1   2
ATOM      2  C   UNL     1     169.123 169.355 162.986  1.00  0.00    -0.000 C 
BRANCH   2   3
ATOM      3  C   UNL     1     169.421 170.159 161.707  1.00  0.00    -0.000 C 
BRANCH   3   4
ATOM      4  C   UNL     1     168.498 171.376 161.539  1.00  0.00    -0.000 C 
BRANCH   4   5
ATOM      5  C   UNL     1     167.590 171.549 162.765  1.00  0.00    -0.000 C 
BRANCH   5   6
ATOM      6  C   UNL     1     167.338 173.024 163.115  1.00  0.00    -0.000 C 
BRANCH   6   7
ATOM      7  C   UNL     1     168.546 173.682 163.805  1.00  0.00    -0.000 C 
BRANCH   7   8
ATOM      8  C   UNL     1     169.159 174.812 162.963  1.00  0.00    -0.003 C 
ATOM      9  C   UNL     1     168.358 175.111 161.697  1.00  0.00     0.004 C 
ENDBRANCH   7   8
ENDBRANCH   6   7
ENDBRANCH   5   6
ENDBRANCH   4   5
ENDBRANCH   3   4
ENDBRANCH   2   3
ENDBRANCH   1   2
BRANCH   1  10
ATOM     10  C   UNL     1     170.646 170.643 164.653  1.00  0.00     0.000 C 
BRANCH  10  11
ATOM     11  C   UNL     1     172.065 171.111 164.296  1.00  0.00     0.000 C 
BRANCH  11  12
ATOM     12  C   UNL     1     172.058 172.567 163.817  1.00  0.00     0.000 C 
BRANCH  12  13
ATOM     13  C   UNL     1     171.986 172.643 162.285  1.00  0.00     0.000 C 
BRANCH  13  14
ATOM     14  C   UNL     1     173.219 172.034 161.597  1.00  0.00     0.002 C 
BRANCH  14  15
ATOM     15  C   UNL     1     174.558 172.607 162.108  1.00  0.00     0.028 C 
BRANCH  15  16
ATOM     16  C   UNL     1     175.738 172.232 161.201  1.00  0.00     0.156 C 
BRANCH  16  17
ATOM     17  O   UNL     1     176.095 170.892 161.401  1.00  0.00    -0.396 OA
ATOM     18  H   UNL     1     175.415 170.503 162.011  1.00  0.00     0.210 HD
ENDBRANCH  16  17
ENDBRANCH  15  16
ENDBRANCH  14  15
ENDBRANCH  13  14
ENDBRANCH  12  13
ENDBRANCH  11  12
ENDBRANCH  10  11
ENDBRANCH   1  10
TORSDOF 15
ENDMDL
MODEL 3
REMARK VINA RESULT:    -3.288      2.655      4.854
REMARK INTER + INTRA:          -8.647
REMARK INTER:                  -6.484
REMARK INTRA:                  -2.163
REMARK UNBOUND:                -2.572
REMARK SMILES CCCCCCCCCCCCCCCCO
REMARK SMILES IDX 9 1 8 2 7 3 6 4 5 5 4 6 3 7 2 8 1 9 10 10 11 11 12 12 13 13
REMARK SMILES IDX 14 14 15 15 16 16 17 17
REMARK H PARENT 17 18
REMARK Flexibility Score: inf
ROOT
ATOM      1  C   UNL     1     170.887 173.086 161.327  1.00  0.00     0.000 C 
ENDROOT
BRANCH   1   2
ATOM      2  C   UNL     1     170.053 174.384 161.299  1.00  0.00    -0.000 C 
BRANCH   2   3
ATOM      3  C   UNL     1     169.657 174.934 162.681  1.00  0.00    -0.000 C 
BRANCH   3   4
ATOM      4  C   UNL     1     168.922 173.901 163.548  1.00  0.00    -0.000 C 
BRANCH   4   5
ATOM      5  C   UNL     1     167.406 174.145 163.524  1.00  0.00    -0.000 C 
BRANCH   5   6
ATOM      6  C   UNL     1     166.710 173.451 162.341  1.00  0.00    -0.000 C 
BRANCH   6   7
ATOM      7  C   UNL     1     166.902 171.925 162.354  1.00  0.00    -0.000 C 
BRANCH   7   8
ATOM      8  C   UNL     1     167.399 171.383 161.005  1.00  0.00    -0.003 C 
ATOM      9  C   UNL     1     167.279 172.405 159.874  1.00  0.00     0.004 C 
ENDBRANCH   7   8
ENDBRANCH   6   7
ENDBRANCH   5   6
ENDBRANCH   4   5
ENDBRANCH   3   4
ENDBRANCH   2   3
ENDBRANCH   1   2
BRANCH   1  10
ATOM     10  C   UNL     1     172.400 173.286 161.518  1.00  0.00     0.000 C 
BRANCH  10  11
ATOM     11  C   UNL     1     173.000 172.344 162.571  1.00  0.00     0.000 C 
BRANCH  11  12
ATOM     12  C   UNL     1     172.218 172.425 163.888  1.00  0.00     0.000 C 
BRANCH  12  13
ATOM     13  C   UNL     1     171.987 171.027 164.478  1.00  0.00     0.000 C 
BRANCH  13  14
ATOM     14  C   UNL     1     170.497 170.689 164.654  1.00  0.00     0.002 C 
BRANCH  14  15
ATOM     15  C   UNL     1     169.863 170.026 163.413  1.00  0.00     0.028 C 
BRANCH  15  16
ATOM     16  C   UNL     1     169.704 168.509 163.579  1.00  0.00     0.156 C 
BRANCH  16  17
ATOM     17  O   UNL     1     170.707 168.005 164.418  1.00  0.00    -0.396 OA
ATOM     18  H   UNL     1     171.506 168.579 164.284  1.00  0.00     0.210 HD
ENDBRANCH  16  17
ENDBRANCH  15  16
ENDBRANCH  14  15
ENDBRANCH  13  14
ENDBRANCH  12  13
ENDBRANCH  11  12
ENDBRANCH  10  11
ENDBRANCH   1  10
TORSDOF 15
ENDMDL
MODEL 4
REMARK VINA RESULT:    -3.265      3.101      4.933
REMARK INTER + INTRA:          -8.605
REMARK INTER:                  -6.191
REMARK INTRA:                  -2.414
REMARK UNBOUND:                -2.572
REMARK SMILES CCCCCCCCCCCCCCCCO
REMARK SMILES IDX 9 1 8 2 7 3 6 4 5 5 4 6 3 7 2 8 1 9 10 10 11 11 12 12 13 13
REMARK SMILES IDX 14 14 15 15 16 16 17 17
REMARK H PARENT 17 18
REMARK Flexibility Score: inf
ROOT
ATOM      1  C   UNL     1     171.916 172.701 163.577  1.00  0.00     0.000 C 
ENDROOT
BRANCH   1   2
ATOM      2  C   UNL     1     172.130 171.212 163.921  1.00  0.00    -0.000 C 
BRANCH   2   3
ATOM      3  C   UNL     1     170.968 170.544 164.679  1.00  0.00    -0.000 C 
BRANCH   3   4
ATOM      4  C   UNL     1     170.337 169.381 163.899  1.00  0.00    -0.000 C 
BRANCH   4   5
ATOM      5  C   UNL     1     168.844 169.639 163.644  1.00  0.00    -0.000 C 
BRANCH   5   6
ATOM      6  C   UNL     1     168.436 171.094 163.924  1.00  0.00    -0.000 C 
BRANCH   6   7
ATOM      7  C   UNL     1     167.893 171.807 162.673  1.00  0.00    -0.000 C 
BRANCH   7   8
ATOM      8  C   UNL     1     167.721 173.319 162.886  1.00  0.00    -0.003 C 
ATOM      9  C   UNL     1     168.547 173.852 164.057  1.00  0.00     0.004 C 
ENDBRANCH   7   8
ENDBRANCH   6   7
ENDBRANCH   5   6
ENDBRANCH   4   5
ENDBRANCH   3   4
ENDBRANCH   2   3
ENDBRANCH   1   2
BRANCH   1  10
ATOM     10  C   UNL     1     171.515 172.982 162.118  1.00  0.00     0.000 C 
BRANCH  10  11
ATOM     11  C   UNL     1     171.800 171.799 161.182  1.00  0.00     0.000 C 
BRANCH  11  12
ATOM     12  C   UNL     1     170.612 171.539 160.249  1.00  0.00     0.000 C 
BRANCH  12  13
ATOM     13  C   UNL     1     170.652 170.109 159.690  1.00  0.00     0.000 C 
BRANCH  13  14
ATOM     14  C   UNL     1     169.519 169.222 160.232  1.00  0.00     0.002 C 
BRANCH  14  15
ATOM     15  C   UNL     1     169.611 167.752 159.771  1.00  0.00     0.028 C 
BRANCH  15  16
ATOM     16  C   UNL     1     169.787 166.782 160.947  1.00  0.00     0.156 C 
BRANCH  16  17
ATOM     17  O   UNL     1     169.126 165.575 160.682  1.00  0.00    -0.396 OA
ATOM     18  H   UNL     1     168.450 165.768 159.981  1.00  0.00     0.210 HD
ENDBRANCH  16  17
ENDBRANCH  15  16
ENDBRANCH  14  15
ENDBRANCH  13  14
ENDBRANCH  12  13
ENDBRANCH  11  12
ENDBRANCH  10  11
ENDBRANCH   1  10
TORSDOF 15
ENDMDL
MODEL 5
REMARK VINA RESULT:    -3.260      3.416      5.876
REMARK INTER + INTRA:          -8.594
REMARK INTER:                  -6.112
REMARK INTRA:                  -2.482
REMARK UNBOUND:                -2.572
REMARK SMILES CCCCCCCCCCCCCCCCO
REMARK SMILES IDX 9 1 8 2 7 3 6 4 5 5 4 6 3 7 2 8 1 9 10 10 11 11 12 12 13 13
REMARK SMILES IDX 14 14 15 15 16 16 17 17
REMARK H PARENT 17 18
REMARK Flexibility Score: inf
ROOT
ATOM      1  C   UNL     1     172.385 171.593 163.357  1.00  0.00     0.000 C 
ENDROOT
BRANCH   1   2
ATOM      2  C   UNL     1     171.841 170.972 164.660  1.00  0.00    -0.000 C 
BRANCH   2   3
ATOM      3  C   UNL     1     170.328 170.685 164.664  1.00  0.00    -0.000 C 
BRANCH   3   4
ATOM      4  C   UNL     1     169.917 169.635 163.621  1.00  0.00    -0.000 C 
BRANCH   4   5
ATOM      5  C   UNL     1     168.672 170.091 162.845  1.00  0.00    -0.000 C 
BRANCH   5   6
ATOM      6  C   UNL     1     168.030 171.355 163.440  1.00  0.00    -0.000 C 
BRANCH   6   7
ATOM      7  C   UNL     1     167.715 172.417 162.372  1.00  0.00    -0.000 C 
BRANCH   7   8
ATOM      8  C   UNL     1     167.830 173.849 162.916  1.00  0.00    -0.003 C 
ATOM      9  C   UNL     1     168.639 173.930 164.210  1.00  0.00     0.004 C 
ENDBRANCH   7   8
ENDBRANCH   6   7
ENDBRANCH   5   6
ENDBRANCH   4   5
ENDBRANCH   3   4
ENDBRANCH   2   3
ENDBRANCH   1   2
BRANCH   1  10
ATOM     10  C   UNL     1     171.918 173.032 163.075  1.00  0.00     0.000 C 
BRANCH  10  11
ATOM     11  C   UNL     1     171.325 173.203 161.669  1.00  0.00     0.000 C 
BRANCH  11  12
ATOM     12  C   UNL     1     171.368 171.883 160.892  1.00  0.00     0.000 C 
BRANCH  12  13
ATOM     13  C   UNL     1     172.252 172.007 159.643  1.00  0.00     0.000 C 
BRANCH  13  14
ATOM     14  C   UNL     1     173.708 171.579 159.895  1.00  0.00     0.002 C 
BRANCH  14  15
ATOM     15  C   UNL     1     174.641 172.752 160.266  1.00  0.00     0.028 C 
BRANCH  15  16
ATOM     16  C   UNL     1     175.542 172.424 161.464  1.00  0.00     0.156 C 
BRANCH  16  17
ATOM     17  O   UNL     1     175.514 171.049 161.729  1.00  0.00    -0.396 OA
ATOM     18  H   UNL     1     176.358 170.834 162.206  1.00  0.00     0.210 HD
ENDBRANCH  16  17
ENDBRANCH  15  16
ENDBRANCH  14  15
ENDBRANCH  13  14
ENDBRANCH  12  13
ENDBRANCH  11  12
ENDBRANCH  10  11
ENDBRANCH   1  10
TORSDOF 15
ENDMDL
MODEL 6
REMARK VINA RESULT:    -3.218      2.143      3.553
REMARK INTER + INTRA:          -8.517
REMARK INTER:                  -6.075
REMARK INTRA:                  -2.443
REMARK UNBOUND:                -2.572
REMARK SMILES CCCCCCCCCCCCCCCCO
REMARK SMILES IDX 9 1 8 2 7 3 6 4 5 5 4 6 3 7 2 8 1 9 10 10 11 11 12 12 13 13
REMARK SMILES IDX 14 14 15 15 16 16 17 17
REMARK H PARENT 17 18
REMARK Flexibility Score: inf
ROOT
ATOM      1  C   UNL     1     169.750 172.281 160.315  1.00  0.00     0.000 C 
ENDROOT
BRANCH   1   2
ATOM      2  C   UNL     1     171.260 172.546 160.489  1.00  0.00    -0.000 C 
BRANCH   2   3
ATOM      3  C   UNL     1     171.967 171.643 161.516  1.00  0.00    -0.000 C 
BRANCH   3   4
ATOM      4  C   UNL     1     172.698 172.438 162.608  1.00  0.00    -0.000 C 
BRANCH   4   5
ATOM      5  C   UNL     1     172.011 172.258 163.970  1.00  0.00    -0.000 C 
BRANCH   5   6
ATOM      6  C   UNL     1     171.603 170.801 164.242  1.00  0.00    -0.000 C 
BRANCH   6   7
ATOM      7  C   UNL     1     170.189 170.684 164.837  1.00  0.00    -0.000 C 
BRANCH   7   8
ATOM      8  C   UNL     1     169.415 169.479 164.281  1.00  0.00    -0.003 C 
ATOM      9  C   UNL     1     170.327 168.427 163.650  1.00  0.00     0.004 C 
ENDBRANCH   7   8
ENDBRANCH   6   7
ENDBRANCH   5   6
ENDBRANCH   4   5
ENDBRANCH   3   4
ENDBRANCH   2   3
ENDBRANCH   1   2
BRANCH   1  10
ATOM     10  C   UNL     1     169.175 171.172 161.213  1.00  0.00     0.000 C 
BRANCH  10  11
ATOM     11  C   UNL     1     167.690 170.892 160.939  1.00  0.00     0.000 C 
BRANCH  11  12
ATOM     12  C   UNL     1     166.799 171.917 161.648  1.00  0.00     0.000 C 
BRANCH  12  13
ATOM     13  C   UNL     1     167.318 172.215 163.062  1.00  0.00     0.000 C 
BRANCH  13  14
ATOM     14  C   UNL     1     167.517 173.717 163.323  1.00  0.00     0.002 C 
BRANCH  14  15
ATOM     15  C   UNL     1     168.982 174.105 163.614  1.00  0.00     0.028 C 
BRANCH  15  16
ATOM     16  C   UNL     1     169.524 175.133 162.612  1.00  0.00     0.156 C 
BRANCH  16  17
ATOM     17  O   UNL     1     170.830 175.505 162.958  1.00  0.00    -0.396 OA
ATOM     18  H   UNL     1     171.262 175.833 162.126  1.00  0.00     0.210 HD
ENDBRANCH  16  17
ENDBRANCH  15  16
ENDBRANCH  14  15
ENDBRANCH  13  14
ENDBRANCH  12  13
ENDBRANCH  11  12
ENDBRANCH  10  11
ENDBRANCH   1  10
TORSDOF 15
ENDMDL
MODEL 7
REMARK VINA RESULT:    -3.218      2.183      5.723
REMARK INTER + INTRA:          -8.517
REMARK INTER:                  -6.185
REMARK INTRA:                  -2.332
REMARK UNBOUND:                -2.572
REMARK SMILES CCCCCCCCCCCCCCCCO
REMARK SMILES IDX 9 1 8 2 7 3 6 4 5 5 4 6 3 7 2 8 1 9 10 10 11 11 12 12 13 13
REMARK SMILES IDX 14 14 15 15 16 16 17 17
REMARK H PARENT 17 18
REMARK Flexibility Score: inf
ROOT
ATOM      1  C   UNL     1     168.309 171.362 159.857  1.00  0.00     0.000 C 
ENDROOT
BRANCH   1   2
ATOM      2  C   UNL     1     166.794 171.069 159.845  1.00  0.00    -0.000 C 
BRANCH   2   3
ATOM      3  C   UNL     1     166.087 171.233 161.203  1.00  0.00    -0.000 C 
BRANCH   3   4
ATOM      4  C   UNL     1     165.044 172.361 161.200  1.00  0.00    -0.000 C 
BRANCH   4   5
ATOM      5  C   UNL     1     165.506 173.537 162.074  1.00  0.00    -0.000 C 
BRANCH   5   6
ATOM      6  C   UNL     1     166.493 173.110 163.173  1.00  0.00    -0.000 C 
BRANCH   6   7
ATOM      7  C   UNL     1     167.706 174.050 163.275  1.00  0.00    -0.000 C 
BRANCH   7   8
ATOM      8  C   UNL     1     168.038 174.729 161.937  1.00  0.00    -0.003 C 
ATOM      9  C   UNL     1     169.542 174.867 161.698  1.00  0.00     0.004 C 
ENDBRANCH   7   8
ENDBRANCH   6   7
ENDBRANCH   5   6
ENDBRANCH   4   5
ENDBRANCH   3   4
ENDBRANCH   2   3
ENDBRANCH   1   2
BRANCH   1  10
ATOM     10  C   UNL     1     169.004 171.152 161.214  1.00  0.00     0.000 C 
BRANCH  10  11
ATOM     11  C   UNL     1     169.426 169.694 161.449  1.00  0.00     0.000 C 
BRANCH  11  12
ATOM     12  C   UNL     1     169.311 169.323 162.931  1.00  0.00     0.000 C 
BRANCH  12  13
ATOM     13  C   UNL     1     168.986 170.556 163.785  1.00  0.00     0.000 C 
BRANCH  13  14
ATOM     14  C   UNL     1     169.922 170.712 164.995  1.00  0.00     0.002 C 
BRANCH  14  15
ATOM     15  C   UNL     1     171.415 170.806 164.613  1.00  0.00     0.028 C 
BRANCH  15  16
ATOM     16  C   UNL     1     171.709 172.003 163.699  1.00  0.00     0.156 C 
BRANCH  16  17
ATOM     17  O   UNL     1     171.318 173.195 164.322  1.00  0.00    -0.396 OA
ATOM     18  H   UNL     1     170.701 173.655 163.694  1.00  0.00     0.210 HD
ENDBRANCH  16  17
ENDBRANCH  15  16
ENDBRANCH  14  15
ENDBRANCH  13  14
ENDBRANCH  12  13
ENDBRANCH  11  12
ENDBRANCH  10  11
ENDBRANCH   1  10
TORSDOF 15
ENDMDL
MODEL 8
REMARK VINA RESULT:    -3.202      1.637      3.703
REMARK INTER + INTRA:          -8.488
REMARK INTER:                  -6.265
REMARK INTRA:                  -2.224
REMARK UNBOUND:                -2.572
REMARK SMILES CCCCCCCCCCCCCCCCO
REMARK SMILES IDX 9 1 8 2 7 3 6 4 5 5 4 6 3 7 2 8 1 9 10 10 11 11 12 12 13 13
REMARK SMILES IDX 14 14 15 15 16 16 17 17
REMARK H PARENT 17 18
REMARK Flexibility Score: inf
ROOT
ATOM      1  C   UNL     1     170.770 170.674 164.615  1.00  0.00     0.000 C 
ENDROOT
BRANCH   1   2
ATOM      2  C   UNL     1     170.365 169.203 164.389  1.00  0.00    -0.000 C 
BRANCH   2   3
ATOM      3  C   UNL     1     169.146 168.995 163.472  1.00  0.00    -0.000 C 
BRANCH   3   4
ATOM      4  C   UNL     1     168.502 170.317 163.025  1.00  0.00    -0.000 C 
BRANCH   4   5
ATOM      5  C   UNL     1     168.464 170.417 161.493  1.00  0.00    -0.000 C 
BRANCH   5   6
ATOM      6  C   UNL     1     169.668 169.736 160.822  1.00  0.00    -0.000 C 
BRANCH   6   7
ATOM      7  C   UNL     1     169.256 168.834 159.646  1.00  0.00    -0.000 C 
BRANCH   7   8
ATOM      8  C   UNL     1     170.032 167.507 159.623  1.00  0.00    -0.003 C 
ATOM      9  C   UNL     1     169.862 166.698 160.909  1.00  0.00     0.004 C 
ENDBRANCH   7   8
ENDBRANCH   6   7
ENDBRANCH   5   6
ENDBRANCH   4   5
ENDBRANCH   3   4
ENDBRANCH   2   3
ENDBRANCH   1   2
BRANCH   1  10
ATOM     10  C   UNL     1     172.052 171.116 163.887  1.00  0.00     0.000 C 
BRANCH  10  11
ATOM     11  C   UNL     1     172.038 172.602 163.502  1.00  0.00     0.000 C 
BRANCH  11  12
ATOM     12  C   UNL     1     171.494 172.795 162.081  1.00  0.00     0.000 C 
BRANCH  12  13
ATOM     13  C   UNL     1     170.157 173.549 162.100  1.00  0.00     0.000 C 
BRANCH  13  14
ATOM     14  C   UNL     1     169.840 174.173 163.469  1.00  0.00     0.002 C 
BRANCH  14  15
ATOM     15  C   UNL     1     168.400 173.902 163.954  1.00  0.00     0.028 C 
BRANCH  15  16
ATOM     16  C   UNL     1     167.386 173.914 162.803  1.00  0.00     0.156 C 
BRANCH  16  17
ATOM     17  O   UNL     1     166.154 173.406 163.238  1.00  0.00    -0.396 OA
ATOM     18  H   UNL     1     165.532 173.468 162.466  1.00  0.00     0.210 HD
ENDBRANCH  16  17
ENDBRANCH  15  16
ENDBRANCH  14  15
ENDBRANCH  13  14
ENDBRANCH  12  13
ENDBRANCH  11  12
ENDBRANCH  10  11
ENDBRANCH   1  10
TORSDOF 15
ENDMDL
MODEL 9
REMARK VINA RESULT:    -3.187      1.820      4.130
REMARK INTER + INTRA:          -8.461
REMARK INTER:                  -6.599
REMARK INTRA:                  -1.862
REMARK UNBOUND:                -2.572
REMARK SMILES CCCCCCCCCCCCCCCCO
REMARK SMILES IDX 9 1 8 2 7 3 6 4 5 5 4 6 3 7 2 8 1 9 10 10 11 11 12 12 13 13
REMARK SMILES IDX 14 14 15 15 16 16 17 17
REMARK H PARENT 17 18
REMARK Flexibility Score: inf
ROOT
ATOM      1  C   UNL     1     168.547 171.144 161.155  1.00  0.00     0.000 C 
ENDROOT
BRANCH   1   2
ATOM      2  C   UNL     1     169.228 169.987 161.915  1.00  0.00    -0.000 C 
BRANCH   2   3
ATOM      3  C   UNL     1     168.972 169.964 163.433  1.00  0.00    -0.000 C 
BRANCH   3   4
ATOM      4  C   UNL     1     170.238 169.654 164.247  1.00  0.00    -0.000 C 
BRANCH   4   5
ATOM      5  C   UNL     1     171.003 170.943 164.580  1.00  0.00    -0.000 C 
BRANCH   5   6
ATOM      6  C   UNL     1     172.307 171.085 163.778  1.00  0.00    -0.000 C 
BRANCH   6   7
ATOM      7  C   UNL     1     172.184 172.096 162.624  1.00  0.00    -0.000 C 
BRANCH   7   8
ATOM      8  C   UNL     1     173.531 172.739 162.260  1.00  0.00    -0.003 C 
ATOM      9  C   UNL     1     174.650 171.713 162.080  1.00  0.00     0.004 C 
ENDBRANCH   7   8
ENDBRANCH   6   7
ENDBRANCH   5   6
ENDBRANCH   4   5
ENDBRANCH   3   4
ENDBRANCH   2   3
ENDBRANCH   1   2
BRANCH   1  10
ATOM     10  C   UNL     1     167.014 171.190 161.273  1.00  0.00     0.000 C 
BRANCH  10  11
ATOM     11  C   UNL     1     166.478 172.602 161.548  1.00  0.00     0.000 C 
BRANCH  11  12
ATOM     12  C   UNL     1     166.465 172.901 163.051  1.00  0.00     0.000 C 
BRANCH  12  13
ATOM     13  C   UNL     1     167.298 174.149 163.373  1.00  0.00     0.000 C 
BRANCH  13  14
ATOM     14  C   UNL     1     168.753 173.819 163.748  1.00  0.00     0.002 C 
BRANCH  14  15
ATOM     15  C   UNL     1     169.794 174.676 162.997  1.00  0.00     0.028 C 
BRANCH  15  16
ATOM     16  C   UNL     1     169.167 175.491 161.858  1.00  0.00     0.156 C 
BRANCH  16  17
ATOM     17  O   UNL     1     169.707 176.784 161.833  1.00  0.00    -0.396 OA
ATOM     18  H   UNL     1     170.250 176.849 161.005  1.00  0.00     0.210 HD
ENDBRANCH  16  17
ENDBRANCH  15  16
ENDBRANCH  14  15
ENDBRANCH  13  14
ENDBRANCH  12  13
ENDBRANCH  11  12
ENDBRANCH  10  11
ENDBRANCH   1  10
TORSDOF 15
ENDMDL
