MODEL 1
REMARK VINA RESULT:    -4.667      0.000      0.000
REMARK INTER + INTRA:          -4.803
REMARK INTER:                  -4.803
REMARK INTRA:                   0.000
REMARK UNBOUND:                 0.000
REMARK SMILES Nc1ncnc2nc[nH]c12
REMARK SMILES IDX 8 1 7 2 6 3 5 4 4 5 3 6 2 7 10 8 9 9 1 11
REMARK H PARENT 9 10 1 12 1 13
REMARK Flexibility Score: inf
ROOT
ATOM      1  C   UNL     1     -26.477 -16.118 -24.572  1.00  0.00     0.199 A 
ATOM      2  N   UNL     1     -26.874 -16.125 -25.874  1.00  0.00    -0.217 NA
ATOM      3  C   UNL     1     -28.212 -16.097 -25.764  1.00  0.00     0.182 A 
ATOM      4  N   UNL     1     -29.106 -16.090 -26.781  1.00  0.00    -0.215 NA
ATOM      5  C   UNL     1     -30.437 -16.061 -26.471  1.00  0.00     0.226 A 
ATOM      6  N   UNL     1     -30.846 -16.038 -25.161  1.00  0.00    -0.217 NA
ATOM      7  C   UNL     1     -29.945 -16.045 -24.134  1.00  0.00     0.152 A 
ATOM      8  C   UNL     1     -28.594 -16.075 -24.467  1.00  0.00     0.127 A 
ATOM      9  N   UNL     1     -27.505 -16.088 -23.687  1.00  0.00    -0.340 N 
ATOM     10  H   UNL     1     -27.448 -16.079 -22.645  1.00  0.00     0.168 HD
ENDROOT
BRANCH   7  11
ATOM     11  N   UNL     1     -30.395 -16.022 -22.777  1.00  0.00    -0.382 N 
ATOM     12  H   UNL     1     -31.131 -15.343 -22.483  1.00  0.00     0.158 HD
ATOM     13  H   UNL     1     -30.002 -16.674 -22.064  1.00  0.00     0.158 HD
ENDBRANCH   7  11
TORSDOF 1
ENDMDL
MODEL 2
REMARK VINA RESULT:    -4.267      1.578      1.578
REMARK INTER + INTRA:          -4.392
REMARK INTER:                  -4.392
REMARK INTRA:                   0.000
REMARK UNBOUND:                 0.000
REMARK SMILES Nc1ncnc2nc[nH]c12
REMARK SMILES IDX 8 1 7 2 6 3 5 4 4 5 3 6 2 7 10 8 9 9 1 11
REMARK H PARENT 9 10 1 12 1 13
REMARK Flexibility Score: inf
ROOT
ATOM      1  C   UNL     1     -27.297 -13.391 -24.150  1.00  0.00     0.199 A 
ATOM      2  N   UNL     1     -27.383 -13.661 -25.482  1.00  0.00    -0.217 NA
ATOM      3  C   UNL     1     -28.355 -14.587 -25.523  1.00  0.00     0.182 A 
ATOM      4  N   UNL     1     -28.838 -15.201 -26.629  1.00  0.00    -0.215 NA
ATOM      5  C   UNL     1     -29.835 -16.123 -26.471  1.00  0.00     0.226 A 
ATOM      6  N   UNL     1     -30.326 -16.411 -25.222  1.00  0.00    -0.217 NA
ATOM      7  C   UNL     1     -29.839 -15.792 -24.106  1.00  0.00     0.152 A 
ATOM      8  C   UNL     1     -28.825 -14.856 -24.284  1.00  0.00     0.127 A 
ATOM      9  N   UNL     1     -28.166 -14.106 -23.391  1.00  0.00    -0.340 N 
ATOM     10  H   UNL     1     -28.283 -14.071 -22.354  1.00  0.00     0.168 HD
ENDROOT
BRANCH   7  11
ATOM     11  N   UNL     1     -30.366 -16.108 -22.815  1.00  0.00    -0.382 N 
ATOM     12  H   UNL     1     -30.545 -15.347 -22.124  1.00  0.00     0.158 HD
ATOM     13  H   UNL     1     -30.579 -17.092 -22.542  1.00  0.00     0.158 HD
ENDBRANCH   7  11
TORSDOF 1
ENDMDL
MODEL 3
REMARK VINA RESULT:    -4.079      2.044      2.992
REMARK INTER + INTRA:          -4.198
REMARK INTER:                  -4.198
REMARK INTRA:                   0.000
REMARK UNBOUND:                 0.000
REMARK SMILES Nc1ncnc2nc[nH]c12
REMARK SMILES IDX 8 1 7 2 6 3 5 4 4 5 3 6 2 7 10 8 9 9 1 11
REMARK H PARENT 9 10 1 12 1 13
REMARK Flexibility Score: inf
ROOT
ATOM      1  C   UNL     1     -29.386 -12.601 -23.506  1.00  0.00     0.199 A 
ATOM      2  N   UNL     1     -30.422 -13.006 -24.290  1.00  0.00    -0.217 NA
ATOM      3  C   UNL     1     -30.071 -14.266 -24.598  1.00  0.00     0.182 A 
ATOM      4  N   UNL     1     -30.767 -15.133 -25.370  1.00  0.00    -0.215 NA
ATOM      5  C   UNL     1     -30.245 -16.380 -25.572  1.00  0.00     0.226 A 
ATOM      6  N   UNL     1     -29.047 -16.734 -25.004  1.00  0.00    -0.217 NA
ATOM      7  C   UNL     1     -28.342 -15.859 -24.225  1.00  0.00     0.152 A 
ATOM      8  C   UNL     1     -28.888 -14.594 -24.029  1.00  0.00     0.127 A 
ATOM      9  N   UNL     1     -28.432 -13.548 -23.328  1.00  0.00    -0.340 N 
ATOM     10  H   UNL     1     -27.552 -13.469 -22.772  1.00  0.00     0.168 HD
ENDROOT
BRANCH   7  11
ATOM     11  N   UNL     1     -27.097 -16.250 -23.644  1.00  0.00    -0.382 N 
ATOM     12  H   UNL     1     -26.536 -15.560 -23.099  1.00  0.00     0.158 HD
ATOM     13  H   UNL     1     -26.728 -17.220 -23.752  1.00  0.00     0.158 HD
ENDBRANCH   7  11
TORSDOF 1
ENDMDL
MODEL 4
REMARK VINA RESULT:    -4.077      0.959      2.954
REMARK INTER + INTRA:          -4.196
REMARK INTER:                  -4.196
REMARK INTRA:                   0.000
REMARK UNBOUND:                 0.000
REMARK SMILES Nc1ncnc2nc[nH]c12
REMARK SMILES IDX 8 1 7 2 6 3 5 4 4 5 3 6 2 7 10 8 9 9 1 11
REMARK H PARENT 9 10 1 12 1 13
REMARK Flexibility Score: inf
ROOT
ATOM      1  C   UNL     1     -31.236 -15.978 -27.062  1.00  0.00     0.199 A 
ATOM      2  N   UNL     1     -29.984 -15.903 -27.590  1.00  0.00    -0.217 NA
ATOM      3  C   UNL     1     -29.208 -15.969 -26.496  1.00  0.00     0.182 A 
ATOM      4  N   UNL     1     -27.855 -15.935 -26.461  1.00  0.00    -0.215 NA
ATOM      5  C   UNL     1     -27.238 -16.014 -25.244  1.00  0.00     0.226 A 
ATOM      6  N   UNL     1     -27.979 -16.124 -24.094  1.00  0.00    -0.217 NA
ATOM      7  C   UNL     1     -29.345 -16.157 -24.127  1.00  0.00     0.152 A 
ATOM      8  C   UNL     1     -29.957 -16.076 -25.374  1.00  0.00     0.127 A 
ATOM      9  N   UNL     1     -31.253 -16.084 -25.710  1.00  0.00    -0.340 N 
ATOM     10  H   UNL     1     -32.089 -16.155 -25.087  1.00  0.00     0.168 HD
ENDROOT
BRANCH   7  11
ATOM     11  N   UNL     1     -30.095 -16.272 -22.916  1.00  0.00    -0.382 N 
ATOM     12  H   UNL     1     -30.342 -17.215 -22.542  1.00  0.00     0.158 HD
ATOM     13  H   UNL     1     -30.406 -15.428 -22.388  1.00  0.00     0.158 HD
ENDBRANCH   7  11
TORSDOF 1
ENDMDL
MODEL 5
REMARK VINA RESULT:    -4.069      3.412      3.912
REMARK INTER + INTRA:          -4.188
REMARK INTER:                  -4.188
REMARK INTRA:                   0.000
REMARK UNBOUND:                 0.000
REMARK SMILES Nc1ncnc2nc[nH]c12
REMARK SMILES IDX 8 1 7 2 6 3 5 4 4 5 3 6 2 7 10 8 9 9 1 11
REMARK H PARENT 9 10 1 12 1 13
REMARK Flexibility Score: inf
ROOT
ATOM      1  C   UNL     1     -27.339 -14.189 -24.101  1.00  0.00     0.199 A 
ATOM      2  N   UNL     1     -28.500 -14.892 -24.208  1.00  0.00    -0.217 NA
ATOM      3  C   UNL     1     -29.405 -14.023 -23.729  1.00  0.00     0.182 A 
ATOM      4  N   UNL     1     -30.738 -14.227 -23.613  1.00  0.00    -0.215 NA
ATOM      5  C   UNL     1     -31.503 -13.218 -23.098  1.00  0.00     0.226 A 
ATOM      6  N   UNL     1     -30.926 -12.034 -22.712  1.00  0.00    -0.217 NA
ATOM      7  C   UNL     1     -29.581 -11.827 -22.828  1.00  0.00     0.152 A 
ATOM      8  C   UNL     1     -28.816 -12.864 -23.355  1.00  0.00     0.127 A 
ATOM      9  N   UNL     1     -27.499 -12.946 -23.582  1.00  0.00    -0.340 N 
ATOM     10  H   UNL     1     -26.760 -12.230 -23.406  1.00  0.00     0.168 HD
ENDROOT
BRANCH   7  11
ATOM     11  N   UNL     1     -29.002 -10.585 -22.420  1.00  0.00    -0.382 N 
ATOM     12  H   UNL     1     -29.608  -9.830 -22.029  1.00  0.00     0.158 HD
ATOM     13  H   UNL     1     -27.977 -10.411 -22.503  1.00  0.00     0.158 HD
ENDBRANCH   7  11
TORSDOF 1
ENDMDL
MODEL 6
REMARK VINA RESULT:    -4.025      2.674      3.745
REMARK INTER + INTRA:          -4.142
REMARK INTER:                  -4.142
REMARK INTRA:                   0.000
REMARK UNBOUND:                 0.000
REMARK SMILES Nc1ncnc2nc[nH]c12
REMARK SMILES IDX 8 1 7 2 6 3 5 4 4 5 3 6 2 7 10 8 9 9 1 11
REMARK H PARENT 9 10 1 12 1 13
REMARK Flexibility Score: inf
ROOT
ATOM      1  C   UNL     1     -30.599 -12.101 -22.251  1.00  0.00     0.199 A 
ATOM      2  N   UNL     1     -30.815 -11.837 -23.569  1.00  0.00    -0.217 NA
ATOM      3  C   UNL     1     -30.728 -13.057 -24.123  1.00  0.00     0.182 A 
ATOM      4  N   UNL     1     -30.867 -13.360 -25.435  1.00  0.00    -0.215 NA
ATOM      5  C   UNL     1     -30.743 -14.668 -25.812  1.00  0.00     0.226 A 
ATOM      6  N   UNL     1     -30.484 -15.640 -24.879  1.00  0.00    -0.217 NA
ATOM      7  C   UNL     1     -30.342 -15.336 -23.554  1.00  0.00     0.152 A 
ATOM      8  C   UNL     1     -30.472 -14.000 -23.187  1.00  0.00     0.127 A 
ATOM      9  N   UNL     1     -30.385 -13.414 -21.986  1.00  0.00    -0.340 N 
ATOM     10  H   UNL     1     -30.198 -13.854 -21.057  1.00  0.00     0.168 HD
ENDROOT
BRANCH   7  11
ATOM     11  N   UNL     1     -30.073 -16.365 -22.600  1.00  0.00    -0.382 N 
ATOM     12  H   UNL     1     -29.846 -17.331 -22.924  1.00  0.00     0.158 HD
ATOM     13  H   UNL     1     -30.096 -16.175 -21.575  1.00  0.00     0.158 HD
ENDBRANCH   7  11
TORSDOF 1
ENDMDL
MODEL 7
REMARK VINA RESULT:    -3.933      1.241      2.152
REMARK INTER + INTRA:          -4.048
REMARK INTER:                  -4.048
REMARK INTRA:                   0.000
REMARK UNBOUND:                 0.000
REMARK SMILES Nc1ncnc2nc[nH]c12
REMARK SMILES IDX 8 1 7 2 6 3 5 4 4 5 3 6 2 7 10 8 9 9 1 11
REMARK H PARENT 9 10 1 12 1 13
REMARK Flexibility Score: inf
ROOT
ATOM      1  C   UNL     1     -26.759 -16.058 -27.654  1.00  0.00     0.199 A 
ATOM      2  N   UNL     1     -28.082 -15.996 -27.970  1.00  0.00    -0.217 NA
ATOM      3  C   UNL     1     -28.667 -16.046 -26.762  1.00  0.00     0.182 A 
ATOM      4  N   UNL     1     -29.996 -16.017 -26.506  1.00  0.00    -0.215 NA
ATOM      5  C   UNL     1     -30.404 -16.080 -25.203  1.00  0.00     0.226 A 
ATOM      6  N   UNL     1     -29.484 -16.169 -24.189  1.00  0.00    -0.217 NA
ATOM      7  C   UNL     1     -28.142 -16.199 -24.445  1.00  0.00     0.152 A 
ATOM      8  C   UNL     1     -27.744 -16.135 -25.777  1.00  0.00     0.127 A 
ATOM      9  N   UNL     1     -26.520 -16.144 -26.321  1.00  0.00    -0.340 N 
ATOM     10  H   UNL     1     -25.593 -16.203 -25.843  1.00  0.00     0.168 HD
ENDROOT
BRANCH   7  11
ATOM     11  N   UNL     1     -27.203 -16.293 -23.372  1.00  0.00    -0.382 N 
ATOM     12  H   UNL     1     -27.449 -16.822 -22.507  1.00  0.00     0.158 HD
ATOM     13  H   UNL     1     -26.264 -15.842 -23.432  1.00  0.00     0.158 HD
ENDBRANCH   7  11
TORSDOF 1
ENDMDL
MODEL 8
REMARK VINA RESULT:    -3.916      3.711      4.938
REMARK INTER + INTRA:          -4.030
REMARK INTER:                  -4.030
REMARK INTRA:                   0.000
REMARK UNBOUND:                 0.000
REMARK SMILES Nc1ncnc2nc[nH]c12
REMARK SMILES IDX 8 1 7 2 6 3 5 4 4 5 3 6 2 7 10 8 9 9 1 11
REMARK H PARENT 9 10 1 12 1 13
REMARK Flexibility Score: inf
ROOT
ATOM      1  C   UNL     1     -30.057 -10.720 -22.059  1.00  0.00     0.199 A 
ATOM      2  N   UNL     1     -30.992 -11.703 -21.946  1.00  0.00    -0.217 NA
ATOM      3  C   UNL     1     -30.424 -12.715 -22.621  1.00  0.00     0.182 A 
ATOM      4  N   UNL     1     -30.946 -13.949 -22.817  1.00  0.00    -0.215 NA
ATOM      5  C   UNL     1     -30.215 -14.853 -23.536  1.00  0.00     0.226 A 
ATOM      6  N   UNL     1     -28.986 -14.509 -24.042  1.00  0.00    -0.217 NA
ATOM      7  C   UNL     1     -28.458 -13.264 -23.847  1.00  0.00     0.152 A 
ATOM      8  C   UNL     1     -29.215 -12.356 -23.112  1.00  0.00     0.127 A 
ATOM      9  N   UNL     1     -28.959 -11.088 -22.767  1.00  0.00    -0.340 N 
ATOM     10  H   UNL     1     -28.118 -10.509 -22.984  1.00  0.00     0.168 HD
ENDROOT
BRANCH   7  11
ATOM     11  N   UNL     1     -27.177 -12.929 -24.384  1.00  0.00    -0.382 N 
ATOM     12  H   UNL     1     -26.988 -13.059 -25.402  1.00  0.00     0.158 HD
ATOM     13  H   UNL     1     -26.416 -12.553 -23.778  1.00  0.00     0.158 HD
ENDBRANCH   7  11
TORSDOF 1
ENDMDL
MODEL 9
REMARK VINA RESULT:    -3.813      2.819      3.306
REMARK INTER + INTRA:          -3.924
REMARK INTER:                  -3.924
REMARK INTRA:                   0.000
REMARK UNBOUND:                 0.000
REMARK SMILES Nc1ncnc2nc[nH]c12
REMARK SMILES IDX 8 1 7 2 6 3 5 4 4 5 3 6 2 7 10 8 9 9 1 11
REMARK H PARENT 9 10 1 12 1 13
REMARK Flexibility Score: inf
ROOT
ATOM      1  C   UNL     1     -27.555 -13.635 -24.850  1.00  0.00     0.199 A 
ATOM      2  N   UNL     1     -28.275 -12.480 -24.819  1.00  0.00    -0.217 NA
ATOM      3  C   UNL     1     -29.381 -12.852 -24.154  1.00  0.00     0.182 A 
ATOM      4  N   UNL     1     -30.440 -12.067 -23.845  1.00  0.00    -0.215 NA
ATOM      5  C   UNL     1     -31.481 -12.628 -23.159  1.00  0.00     0.226 A 
ATOM      6  N   UNL     1     -31.444 -13.951 -22.796  1.00  0.00    -0.217 NA
ATOM      7  C   UNL     1     -30.376 -14.744 -23.107  1.00  0.00     0.152 A 
ATOM      8  C   UNL     1     -29.325 -14.158 -23.806  1.00  0.00     0.127 A 
ATOM      9  N   UNL     1     -28.169 -14.679 -24.240  1.00  0.00    -0.340 N 
ATOM     10  H   UNL     1     -27.814 -15.656 -24.138  1.00  0.00     0.168 HD
ENDROOT
BRANCH   7  11
ATOM     11  N   UNL     1     -30.360 -16.120 -22.720  1.00  0.00    -0.382 N 
ATOM     12  H   UNL     1     -30.835 -16.420 -21.841  1.00  0.00     0.158 HD
ATOM     13  H   UNL     1     -29.879 -16.842 -23.300  1.00  0.00     0.158 HD
ENDBRANCH   7  11
TORSDOF 1
ENDMDL
