MODEL 1
REMARK VINA RESULT:    -4.709      0.000      0.000
REMARK INTER + INTRA:          -5.174
REMARK INTER:                  -5.122
REMARK INTRA:                  -0.053
REMARK UNBOUND:                -0.053
REMARK SMILES CCc1cccc(O)c1
REMARK SMILES IDX 3 1 9 2 7 3 6 4 5 5 4 6 2 7 1 8 8 9
REMARK H PARENT 8 10
REMARK Flexibility Score: inf
ROOT
ATOM      1  C   UNL     1      34.343  30.936 -12.791  1.00  0.00    -0.045 A 
ATOM      2  C   UNL     1      35.195  31.605 -11.898  1.00  0.00     0.049 A 
ATOM      3  C   UNL     1      36.237  32.406 -12.379  1.00  0.00     0.115 A 
ATOM      4  C   UNL     1      36.424  32.549 -13.761  1.00  0.00     0.046 A 
ATOM      5  C   UNL     1      35.570  31.896 -14.655  1.00  0.00     0.004 A 
ATOM      6  C   UNL     1      34.531  31.096 -14.174  1.00  0.00     0.004 A 
ENDROOT
BRANCH   1   7
ATOM      7  C   UNL     1      33.203  30.100 -12.273  1.00  0.00     0.032 C 
ATOM      8  C   UNL     1      33.549  28.616 -12.334  1.00  0.00     0.009 C 
ENDBRANCH   1   7
BRANCH   3   9
ATOM      9  O   UNL     1      37.077  33.057 -11.478  1.00  0.00    -0.508 OA
ATOM     10  H   UNL     1      37.465  32.578 -10.675  1.00  0.00     0.293 HD
ENDBRANCH   3   9
TORSDOF 2
ENDMDL
MODEL 2
REMARK VINA RESULT:    -4.684     13.017     14.126
REMARK INTER + INTRA:          -5.148
REMARK INTER:                  -5.098
REMARK INTRA:                  -0.050
REMARK UNBOUND:                -0.053
REMARK SMILES CCc1cccc(O)c1
REMARK SMILES IDX 3 1 9 2 7 3 6 4 5 5 4 6 2 7 1 8 8 9
REMARK H PARENT 8 10
REMARK Flexibility Score: inf
ROOT
ATOM      1  C   UNL     1      22.488  29.925 -19.584  1.00  0.00    -0.045 A 
ATOM      2  C   UNL     1      22.927  28.592 -19.621  1.00  0.00     0.049 A 
ATOM      3  C   UNL     1      23.815  28.111 -18.653  1.00  0.00     0.115 A 
ATOM      4  C   UNL     1      24.263  28.964 -17.634  1.00  0.00     0.046 A 
ATOM      5  C   UNL     1      23.819  30.289 -17.584  1.00  0.00     0.004 A 
ATOM      6  C   UNL     1      22.932  30.768 -18.551  1.00  0.00     0.004 A 
ENDROOT
BRANCH   1   7
ATOM      7  C   UNL     1      21.507  30.432 -20.608  1.00  0.00     0.032 C 
ATOM      8  C   UNL     1      21.578  29.597 -21.883  1.00  0.00     0.009 C 
ENDBRANCH   1   7
BRANCH   3   9
ATOM      9  O   UNL     1      24.245  26.787 -18.709  1.00  0.00    -0.508 OA
ATOM     10  H   UNL     1      24.146  26.234 -19.552  1.00  0.00     0.293 HD
ENDBRANCH   3   9
TORSDOF 2
ENDMDL
MODEL 3
REMARK VINA RESULT:    -4.604     12.678     13.772
REMARK INTER + INTRA:          -5.060
REMARK INTER:                  -4.984
REMARK INTRA:                  -0.076
REMARK UNBOUND:                -0.053
REMARK SMILES CCc1cccc(O)c1
REMARK SMILES IDX 3 1 9 2 7 3 6 4 5 5 4 6 2 7 1 8 8 9
REMARK H PARENT 8 10
REMARK Flexibility Score: inf
ROOT
ATOM      1  C   UNL     1      22.558  29.766 -19.409  1.00  0.00    -0.045 A 
ATOM      2  C   UNL     1      22.787  30.355 -18.155  1.00  0.00     0.049 A 
ATOM      3  C   UNL     1      23.666  29.760 -17.244  1.00  0.00     0.115 A 
ATOM      4  C   UNL     1      24.329  28.574 -17.588  1.00  0.00     0.046 A 
ATOM      5  C   UNL     1      24.117  27.990 -18.841  1.00  0.00     0.004 A 
ATOM      6  C   UNL     1      23.238  28.585 -19.750  1.00  0.00     0.004 A 
ENDROOT
BRANCH   1   7
ATOM      7  C   UNL     1      21.637  30.424 -20.402  1.00  0.00     0.032 C 
ATOM      8  C   UNL     1      21.572  29.618 -21.696  1.00  0.00     0.009 C 
ENDBRANCH   1   7
BRANCH   3   9
ATOM      9  O   UNL     1      23.876  30.355 -16.002  1.00  0.00    -0.508 OA
ATOM     10  H   UNL     1      23.974  29.802 -15.159  1.00  0.00     0.293 HD
ENDBRANCH   3   9
TORSDOF 2
ENDMDL
MODEL 4
REMARK VINA RESULT:    -4.596      1.041      2.803
REMARK INTER + INTRA:          -5.052
REMARK INTER:                  -4.994
REMARK INTRA:                  -0.059
REMARK UNBOUND:                -0.053
REMARK SMILES CCc1cccc(O)c1
REMARK SMILES IDX 3 1 9 2 7 3 6 4 5 5 4 6 2 7 1 8 8 9
REMARK H PARENT 8 10
REMARK Flexibility Score: inf
ROOT
ATOM      1  C   UNL     1      35.117  31.493 -14.305  1.00  0.00    -0.045 A 
ATOM      2  C   UNL     1      36.102  32.253 -13.653  1.00  0.00     0.049 A 
ATOM      3  C   UNL     1      36.120  32.339 -12.256  1.00  0.00     0.115 A 
ATOM      4  C   UNL     1      35.155  31.656 -11.503  1.00  0.00     0.046 A 
ATOM      5  C   UNL     1      34.181  30.886 -12.146  1.00  0.00     0.004 A 
ATOM      6  C   UNL     1      34.163  30.801 -13.541  1.00  0.00     0.004 A 
ENDROOT
BRANCH   1   7
ATOM      7  C   UNL     1      35.118  31.374 -15.806  1.00  0.00     0.032 C 
ATOM      8  C   UNL     1      33.853  31.988 -16.397  1.00  0.00     0.009 C 
ENDBRANCH   1   7
BRANCH   3   9
ATOM      9  O   UNL     1      37.101  33.103 -11.627  1.00  0.00    -0.508 OA
ATOM     10  H   UNL     1      36.931  33.552 -10.736  1.00  0.00     0.293 HD
ENDBRANCH   3   9
TORSDOF 2
ENDMDL
MODEL 5
REMARK VINA RESULT:    -4.596     14.211     15.259
REMARK INTER + INTRA:          -5.052
REMARK INTER:                  -5.001
REMARK INTRA:                  -0.051
REMARK UNBOUND:                -0.053
REMARK SMILES CCc1cccc(O)c1
REMARK SMILES IDX 3 1 9 2 7 3 6 4 5 5 4 6 2 7 1 8 8 9
REMARK H PARENT 8 10
REMARK Flexibility Score: inf
ROOT
ATOM      1  C   UNL     1      22.400  29.857 -19.642  1.00  0.00    -0.045 A 
ATOM      2  C   UNL     1      22.667  28.494 -19.849  1.00  0.00     0.049 A 
ATOM      3  C   UNL     1      22.238  27.860 -21.021  1.00  0.00     0.115 A 
ATOM      4  C   UNL     1      21.546  28.591 -21.996  1.00  0.00     0.046 A 
ATOM      5  C   UNL     1      21.291  29.952 -21.801  1.00  0.00     0.004 A 
ATOM      6  C   UNL     1      21.719  30.585 -20.631  1.00  0.00     0.004 A 
ENDROOT
BRANCH   1   7
ATOM      7  C   UNL     1      22.891  30.547 -18.396  1.00  0.00     0.032 C 
ATOM      8  C   UNL     1      24.267  30.025 -17.996  1.00  0.00     0.009 C 
ENDBRANCH   1   7
BRANCH   3   9
ATOM      9  O   UNL     1      22.506  26.505 -21.207  1.00  0.00    -0.508 OA
ATOM     10  H   UNL     1      23.260  26.042 -20.715  1.00  0.00     0.293 HD
ENDBRANCH   3   9
TORSDOF 2
ENDMDL
MODEL 6
REMARK VINA RESULT:    -4.584     15.300     16.931
REMARK INTER + INTRA:          -5.039
REMARK INTER:                  -4.987
REMARK INTRA:                  -0.051
REMARK UNBOUND:                -0.053
REMARK SMILES CCc1cccc(O)c1
REMARK SMILES IDX 3 1 9 2 7 3 6 4 5 5 4 6 2 7 1 8 8 9
REMARK H PARENT 8 10
REMARK Flexibility Score: inf
ROOT
ATOM      1  C   UNL     1      19.654  28.495 -12.961  1.00  0.00    -0.045 A 
ATOM      2  C   UNL     1      18.773  27.730 -12.179  1.00  0.00     0.049 A 
ATOM      3  C   UNL     1      17.744  27.000 -12.782  1.00  0.00     0.115 A 
ATOM      4  C   UNL     1      17.595  27.024 -14.175  1.00  0.00     0.046 A 
ATOM      5  C   UNL     1      18.478  27.772 -14.961  1.00  0.00     0.004 A 
ATOM      6  C   UNL     1      19.506  28.502 -14.357  1.00  0.00     0.004 A 
ENDROOT
BRANCH   1   7
ATOM      7  C   UNL     1      20.782  29.254 -12.314  1.00  0.00     0.032 C 
ATOM      8  C   UNL     1      20.781  29.039 -10.804  1.00  0.00     0.009 C 
ENDBRANCH   1   7
BRANCH   3   9
ATOM      9  O   UNL     1      16.875  26.252 -11.989  1.00  0.00    -0.508 OA
ATOM     10  H   UNL     1      17.205  25.740 -11.180  1.00  0.00     0.293 HD
ENDBRANCH   3   9
TORSDOF 2
ENDMDL
MODEL 7
REMARK VINA RESULT:    -4.582     16.100     17.117
REMARK INTER + INTRA:          -5.037
REMARK INTER:                  -4.978
REMARK INTRA:                  -0.059
REMARK UNBOUND:                -0.053
REMARK SMILES CCc1cccc(O)c1
REMARK SMILES IDX 3 1 9 2 7 3 6 4 5 5 4 6 2 7 1 8 8 9
REMARK H PARENT 8 10
REMARK Flexibility Score: inf
ROOT
ATOM      1  C   UNL     1      18.839  28.455 -14.170  1.00  0.00    -0.045 A 
ATOM      2  C   UNL     1      17.847  27.558 -13.741  1.00  0.00     0.049 A 
ATOM      3  C   UNL     1      17.864  27.056 -12.435  1.00  0.00     0.115 A 
ATOM      4  C   UNL     1      18.873  27.456 -11.548  1.00  0.00     0.046 A 
ATOM      5  C   UNL     1      19.856  28.359 -11.965  1.00  0.00     0.004 A 
ATOM      6  C   UNL     1      19.838  28.860 -13.270  1.00  0.00     0.004 A 
ENDROOT
BRANCH   1   7
ATOM      7  C   UNL     1      18.801  29.020 -15.565  1.00  0.00     0.032 C 
ATOM      8  C   UNL     1      20.033  28.590 -16.356  1.00  0.00     0.009 C 
ENDBRANCH   1   7
BRANCH   3   9
ATOM      9  O   UNL     1      16.875  26.163 -12.029  1.00  0.00    -0.508 OA
ATOM     10  H   UNL     1      16.354  26.304 -11.172  1.00  0.00     0.293 HD
ENDBRANCH   3   9
TORSDOF 2
ENDMDL
MODEL 8
REMARK VINA RESULT:    -4.555      4.375      5.603
REMARK INTER + INTRA:          -5.008
REMARK INTER:                  -4.961
REMARK INTRA:                  -0.047
REMARK UNBOUND:                -0.053
REMARK SMILES CCc1cccc(O)c1
REMARK SMILES IDX 3 1 9 2 7 3 6 4 5 5 4 6 2 7 1 8 8 9
REMARK H PARENT 8 10
REMARK Flexibility Score: inf
ROOT
ATOM      1  C   UNL     1      33.253  32.253 -15.727  1.00  0.00    -0.045 A 
ATOM      2  C   UNL     1      33.303  31.752 -17.038  1.00  0.00     0.049 A 
ATOM      3  C   UNL     1      32.123  31.536 -17.759  1.00  0.00     0.115 A 
ATOM      4  C   UNL     1      30.885  31.830 -17.172  1.00  0.00     0.046 A 
ATOM      5  C   UNL     1      30.829  32.343 -15.872  1.00  0.00     0.004 A 
ATOM      6  C   UNL     1      32.008  32.558 -15.153  1.00  0.00     0.004 A 
ENDROOT
BRANCH   1   7
ATOM      7  C   UNL     1      34.524  32.516 -14.965  1.00  0.00     0.032 C 
ATOM      8  C   UNL     1      35.427  31.286 -14.979  1.00  0.00     0.009 C 
ENDBRANCH   1   7
BRANCH   3   9
ATOM      9  O   UNL     1      32.192  31.032 -19.056  1.00  0.00    -0.508 OA
ATOM     10  H   UNL     1      32.175  31.644 -19.863  1.00  0.00     0.293 HD
ENDBRANCH   3   9
TORSDOF 2
ENDMDL
MODEL 9
REMARK VINA RESULT:    -4.542     14.257     15.307
REMARK INTER + INTRA:          -4.993
REMARK INTER:                  -4.923
REMARK INTRA:                  -0.071
REMARK UNBOUND:                -0.053
REMARK SMILES CCc1cccc(O)c1
REMARK SMILES IDX 3 1 9 2 7 3 6 4 5 5 4 6 2 7 1 8 8 9
REMARK H PARENT 8 10
REMARK Flexibility Score: inf
ROOT
ATOM      1  C   UNL     1      22.515  29.842 -19.484  1.00  0.00    -0.045 A 
ATOM      2  C   UNL     1      21.784  30.602 -20.410  1.00  0.00     0.049 A 
ATOM      3  C   UNL     1      21.368  30.035 -21.620  1.00  0.00     0.115 A 
ATOM      4  C   UNL     1      21.676  28.697 -21.905  1.00  0.00     0.046 A 
ATOM      5  C   UNL     1      22.392  27.931 -20.980  1.00  0.00     0.004 A 
ATOM      6  C   UNL     1      22.807  28.499 -19.772  1.00  0.00     0.004 A 
ENDROOT
BRANCH   1   7
ATOM      7  C   UNL     1      22.934  30.443 -18.168  1.00  0.00     0.032 C 
ATOM      8  C   UNL     1      24.269  29.864 -17.710  1.00  0.00     0.009 C 
ENDBRANCH   1   7
BRANCH   3   9
ATOM      9  O   UNL     1      20.648  30.806 -22.530  1.00  0.00    -0.508 OA
ATOM     10  H   UNL     1      19.801  31.292 -22.260  1.00  0.00     0.293 HD
ENDBRANCH   3   9
TORSDOF 2
ENDMDL
