MODEL 1
REMARK VINA RESULT:    -3.589      0.000      0.000
REMARK INTER + INTRA:          -5.598
REMARK INTER:                  -5.057
REMARK INTRA:                  -0.541
REMARK UNBOUND:                -0.541
REMARK SMILES COc1ccc(-c2cc(=O)c3c(OC)c(OC)c(OC)c(OC)c3o2)cc1OC
REMARK SMILES IDX 7 1 8 2 9 3 10 4 11 5 24 6 25 7 21 8 18 9 15 10 12 11 6 12
REMARK SMILES IDX 3 13 27 14 4 15 26 16 5 17 2 18 1 19 28 20 29 21 22 22 23 23
REMARK SMILES IDX 13 24 14 25 19 26 20 27 16 28 17 29
REMARK H PARENT
REMARK Flexibility Score: inf
ROOT
ATOM      1  C   UNL     1      -3.696   8.386  -7.136  1.00  0.00     0.138 A 
ATOM      2  C   UNL     1      -4.248   8.783  -5.911  1.00  0.00     0.100 A 
ATOM      3  C   UNL     1      -5.509   8.311  -5.546  1.00  0.00     0.197 A 
ATOM      4  O   UNL     1      -5.983   8.654  -4.428  1.00  0.00    -0.289 OA
ATOM      5  C   UNL     1      -6.215   7.451  -6.415  1.00  0.00     0.115 A 
ATOM      6  C   UNL     1      -5.583   7.078  -7.619  1.00  0.00     0.188 A 
ATOM      7  O   UNL     1      -4.378   7.555  -7.920  1.00  0.00    -0.452 OA
ATOM      8  C   UNL     1      -6.204   6.209  -8.521  1.00  0.00     0.209 A 
ATOM      9  C   UNL     1      -7.478   5.663  -8.217  1.00  0.00     0.211 A 
ATOM     10  C   UNL     1      -8.112   6.011  -6.993  1.00  0.00     0.208 A 
ATOM     11  C   UNL     1      -7.505   6.955  -6.131  1.00  0.00     0.179 A 
ENDROOT
BRANCH   1  12
ATOM     12  C   UNL     1      -2.358   8.853  -7.583  1.00  0.00     0.021 A 
ATOM     13  C   UNL     1       0.212   9.682  -8.410  1.00  0.00     0.160 A 
ATOM     14  C   UNL     1       0.075   8.813  -7.317  1.00  0.00     0.161 A 
ATOM     15  C   UNL     1      -0.936  10.125  -9.091  1.00  0.00     0.051 A 
ATOM     16  C   UNL     1      -1.209   8.400  -6.911  1.00  0.00     0.062 A 
ATOM     17  C   UNL     1      -2.206   9.711  -8.685  1.00  0.00     0.016 A 
BRANCH  13  18
ATOM     18  O   UNL     1       1.505  10.077  -8.790  1.00  0.00    -0.493 OA
ATOM     19  C   UNL     1       2.149   9.673  -9.993  1.00  0.00     0.278 C 
ENDBRANCH  13  18
BRANCH  14  20
ATOM     20  O   UNL     1       1.239   8.383  -6.659  1.00  0.00    -0.493 OA
ATOM     21  C   UNL     1       2.146   7.413  -7.172  1.00  0.00     0.278 C 
ENDBRANCH  14  20
ENDBRANCH   1  12
BRANCH   8  22
ATOM     22  O   UNL     1      -5.489   5.926  -9.703  1.00  0.00    -0.490 OA
ATOM     23  C   UNL     1      -4.458   4.960  -9.874  1.00  0.00     0.278 C 
ENDBRANCH   8  22
BRANCH  11  24
ATOM     24  O   UNL     1      -8.199   7.426  -5.015  1.00  0.00    -0.492 OA
ATOM     25  C   UNL     1      -9.289   8.330  -5.158  1.00  0.00     0.278 C 
ENDBRANCH  11  24
BRANCH   9  26
ATOM     26  O   UNL     1      -8.060   4.781  -9.148  1.00  0.00    -0.490 OA
ATOM     27  C   UNL     1      -9.063   5.076 -10.114  1.00  0.00     0.279 C 
ENDBRANCH   9  26
BRANCH  10  28
ATOM     28  O   UNL     1      -9.336   5.404  -6.665  1.00  0.00    -0.490 OA
ATOM     29  C   UNL     1      -9.500   4.118  -6.075  1.00  0.00     0.278 C 
ENDBRANCH  10  28
TORSDOF 7
ENDMDL
MODEL 2
REMARK VINA RESULT:    -3.321      2.368      3.449
REMARK INTER + INTRA:          -5.221
REMARK INTER:                  -5.179
REMARK INTRA:                  -0.042
REMARK UNBOUND:                -0.541
REMARK SMILES COc1ccc(-c2cc(=O)c3c(OC)c(OC)c(OC)c(OC)c3o2)cc1OC
REMARK SMILES IDX 7 1 8 2 9 3 10 4 11 5 24 6 25 7 21 8 18 9 15 10 12 11 6 12
REMARK SMILES IDX 3 13 27 14 4 15 26 16 5 17 2 18 1 19 28 20 29 21 22 22 23 23
REMARK SMILES IDX 13 24 14 25 19 26 20 27 16 28 17 29
REMARK H PARENT
REMARK Flexibility Score: inf
ROOT
ATOM      1  C   UNL     1      -0.791   9.161  -7.256  1.00  0.00     0.138 A 
ATOM      2  C   UNL     1      -0.944   9.618  -5.941  1.00  0.00     0.100 A 
ATOM      3  C   UNL     1      -2.226   9.737  -5.404  1.00  0.00     0.197 A 
ATOM      4  O   UNL     1      -2.348  10.124  -4.210  1.00  0.00    -0.289 OA
ATOM      5  C   UNL     1      -3.350   9.404  -6.192  1.00  0.00     0.115 A 
ATOM      6  C   UNL     1      -3.113   8.929  -7.497  1.00  0.00     0.188 A 
ATOM      7  O   UNL     1      -1.870   8.833  -7.962  1.00  0.00    -0.452 OA
ATOM      8  C   UNL     1      -4.171   8.554  -8.332  1.00  0.00     0.209 A 
ATOM      9  C   UNL     1      -5.506   8.619  -7.856  1.00  0.00     0.211 A 
ATOM     10  C   UNL     1      -5.754   9.071  -6.531  1.00  0.00     0.208 A 
ATOM     11  C   UNL     1      -4.678   9.524  -5.731  1.00  0.00     0.179 A 
ENDROOT
BRANCH   1  12
ATOM     12  C   UNL     1       0.547   9.012  -7.886  1.00  0.00     0.021 A 
ATOM     13  C   UNL     1       3.090   8.666  -9.064  1.00  0.00     0.160 A 
ATOM     14  C   UNL     1       2.733   7.913  -7.935  1.00  0.00     0.161 A 
ATOM     15  C   UNL     1       2.171   9.582  -9.604  1.00  0.00     0.051 A 
ATOM     16  C   UNL     1       1.461   8.087  -7.355  1.00  0.00     0.062 A 
ATOM     17  C   UNL     1       0.912   9.750  -9.025  1.00  0.00     0.016 A 
BRANCH  13  18
ATOM     18  O   UNL     1       4.365   8.471  -9.619  1.00  0.00    -0.493 OA
ATOM     19  C   UNL     1       4.842   7.229 -10.125  1.00  0.00     0.278 C 
ENDBRANCH  13  18
BRANCH  14  20
ATOM     20  O   UNL     1       3.669   7.002  -7.419  1.00  0.00    -0.493 OA
ATOM     21  C   UNL     1       3.380   6.016  -6.433  1.00  0.00     0.278 C 
ENDBRANCH  14  20
ENDBRANCH   1  12
BRANCH   8  22
ATOM     22  O   UNL     1      -3.817   8.116  -9.625  1.00  0.00    -0.490 OA
ATOM     23  C   UNL     1      -3.679   6.772 -10.071  1.00  0.00     0.278 C 
ENDBRANCH   8  22
BRANCH  11  24
ATOM     24  O   UNL     1      -4.933  10.125  -4.497  1.00  0.00    -0.492 OA
ATOM     25  C   UNL     1      -5.023   9.348  -3.308  1.00  0.00     0.278 C 
ENDBRANCH  11  24
BRANCH   9  26
ATOM     26  O   UNL     1      -6.539   8.219  -8.726  1.00  0.00    -0.490 OA
ATOM     27  C   UNL     1      -7.111   8.963  -9.797  1.00  0.00     0.279 C 
ENDBRANCH   9  26
BRANCH  10  28
ATOM     28  O   UNL     1      -7.072   9.058  -6.044  1.00  0.00    -0.490 OA
ATOM     29  C   UNL     1      -7.714   7.961  -5.402  1.00  0.00     0.278 C 
ENDBRANCH  10  28
TORSDOF 7
ENDMDL
MODEL 3
REMARK VINA RESULT:    -3.028      2.580      4.565
REMARK INTER + INTRA:          -4.808
REMARK INTER:                  -5.025
REMARK INTRA:                   0.217
REMARK UNBOUND:                -0.541
REMARK SMILES COc1ccc(-c2cc(=O)c3c(OC)c(OC)c(OC)c(OC)c3o2)cc1OC
REMARK SMILES IDX 7 1 8 2 9 3 10 4 11 5 24 6 25 7 21 8 18 9 15 10 12 11 6 12
REMARK SMILES IDX 3 13 27 14 4 15 26 16 5 17 2 18 1 19 28 20 29 21 22 22 23 23
REMARK SMILES IDX 13 24 14 25 19 26 20 27 16 28 17 29
REMARK H PARENT
REMARK Flexibility Score: inf
ROOT
ATOM      1  C   UNL     1      -1.371   8.812  -8.406  1.00  0.00     0.138 A 
ATOM      2  C   UNL     1      -2.311   8.781  -9.445  1.00  0.00     0.100 A 
ATOM      3  C   UNL     1      -3.671   8.827  -9.139  1.00  0.00     0.197 A 
ATOM      4  O   UNL     1      -4.505   8.826 -10.085  1.00  0.00    -0.289 OA
ATOM      5  C   UNL     1      -4.083   8.894  -7.790  1.00  0.00     0.115 A 
ATOM      6  C   UNL     1      -3.079   8.946  -6.802  1.00  0.00     0.188 A 
ATOM      7  O   UNL     1      -1.794   8.901  -7.148  1.00  0.00    -0.452 OA
ATOM      8  C   UNL     1      -3.404   9.040  -5.445  1.00  0.00     0.209 A 
ATOM      9  C   UNL     1      -4.764   9.116  -5.047  1.00  0.00     0.211 A 
ATOM     10  C   UNL     1      -5.784   9.093  -6.037  1.00  0.00     0.208 A 
ATOM     11  C   UNL     1      -5.438   8.915  -7.397  1.00  0.00     0.179 A 
ENDROOT
BRANCH   1  12
ATOM     12  C   UNL     1       0.091   8.767  -8.666  1.00  0.00     0.021 A 
ATOM     13  C   UNL     1       2.873   8.623  -9.130  1.00  0.00     0.160 A 
ATOM     14  C   UNL     1       2.319   8.005  -7.998  1.00  0.00     0.161 A 
ATOM     15  C   UNL     1       2.033   9.302 -10.030  1.00  0.00     0.051 A 
ATOM     16  C   UNL     1       0.930   8.077  -7.774  1.00  0.00     0.062 A 
ATOM     17  C   UNL     1       0.657   9.369  -9.803  1.00  0.00     0.016 A 
BRANCH  13  18
ATOM     18  O   UNL     1       4.261   8.535  -9.325  1.00  0.00    -0.493 OA
ATOM     19  C   UNL     1       4.900   7.545 -10.124  1.00  0.00     0.278 C 
ENDBRANCH  13  18
BRANCH  14  20
ATOM     20  O   UNL     1       3.181   7.330  -7.119  1.00  0.00    -0.493 OA
ATOM     21  C   UNL     1       2.756   6.420  -6.111  1.00  0.00     0.278 C 
ENDBRANCH  14  20
ENDBRANCH   1  12
BRANCH   8  22
ATOM     22  O   UNL     1      -2.318   9.060  -4.546  1.00  0.00    -0.490 OA
ATOM     23  C   UNL     1      -1.315  10.063  -4.430  1.00  0.00     0.278 C 
ENDBRANCH   8  22
BRANCH  11  24
ATOM     24  O   UNL     1      -6.440   8.722  -8.350  1.00  0.00    -0.492 OA
ATOM     25  C   UNL     1      -7.445   9.707  -8.569  1.00  0.00     0.278 C 
ENDBRANCH  11  24
BRANCH   9  26
ATOM     26  O   UNL     1      -5.045   9.224  -3.671  1.00  0.00    -0.490 OA
ATOM     27  C   UNL     1      -4.463  10.124  -2.733  1.00  0.00     0.279 C 
ENDBRANCH   9  26
BRANCH  10  28
ATOM     28  O   UNL     1      -7.122   9.249  -5.637  1.00  0.00    -0.490 OA
ATOM     29  C   UNL     1      -8.076   8.201  -5.486  1.00  0.00     0.278 C 
ENDBRANCH  10  28
TORSDOF 7
ENDMDL
