MODEL 1
REMARK VINA RESULT:    63.070      0.000      0.000
REMARK INTER + INTRA:          93.094
REMARK INTER:                  92.567
REMARK INTRA:                   0.527
REMARK UNBOUND:                 0.527
REMARK SMILES Cc1cc2c(C(C)C)c(O)c(O)c(C=O)c2c(O)c1-c1c(C)cc2c(C(C)C)c(O)c(O)c(C=O)c2c1O
REMARK SMILES IDX 1 1 2 2 3 3 4 4 16 5 13 6 11 7 9 8 5 9 17 10 19 11 20 12
REMARK SMILES IDX 37 13 21 14 36 15 23 16 22 17 24 18 33 19 25 20 31 21 29 22
REMARK SMILES IDX 38 23 34 25 35 26 26 27 27 28 28 29 32 30 30 32 18 34 6 36
REMARK SMILES IDX 7 37 8 38 14 39 15 40 10 41 12 43
REMARK H PARENT 38 24 32 31 30 33 18 35 10 42 12 44
REMARK Flexibility Score: inf
ROOT
ATOM      1  C   UNL     1       4.011   5.056  13.785  1.00  0.00     0.045 C 
ATOM      2  C   UNL     1       4.270   3.966  14.796  1.00  0.00    -0.039 A 
ATOM      3  C   UNL     1       4.719   2.721  14.355  1.00  0.00     0.013 A 
ATOM      4  C   UNL     1       4.934   1.646  15.240  1.00  0.00    -0.006 A 
ATOM      5  C   UNL     1       4.777   1.873  16.642  1.00  0.00     0.039 A 
ATOM      6  C   UNL     1       5.015   0.799  17.546  1.00  0.00     0.072 A 
ATOM      7  C   UNL     1       5.590  -0.393  17.073  1.00  0.00     0.169 A 
ATOM      8  C   UNL     1       5.799  -0.590  15.705  1.00  0.00     0.162 A 
ATOM      9  C   UNL     1       5.333   0.357  14.761  1.00  0.00     0.008 A 
ATOM     10  C   UNL     1       4.435   3.182  17.097  1.00  0.00     0.132 A 
ATOM     11  C   UNL     1       4.132   4.203  16.172  1.00  0.00     0.031 A 
ENDROOT
BRANCH  11  12
ATOM     12  C   UNL     1       3.695   5.540  16.654  1.00  0.00     0.031 A 
ATOM     13  C   UNL     1       4.634   6.446  17.193  1.00  0.00     0.132 A 
ATOM     14  C   UNL     1       2.342   5.905  16.562  1.00  0.00    -0.039 A 
ATOM     15  C   UNL     1       4.226   7.751  17.598  1.00  0.00     0.039 A 
ATOM     16  C   UNL     1       1.923   7.130  17.086  1.00  0.00     0.013 A 
ATOM     17  C   UNL     1       1.324   4.971  15.954  1.00  0.00     0.045 C 
ATOM     18  C   UNL     1       2.833   8.041  17.667  1.00  0.00    -0.006 A 
ATOM     19  C   UNL     1       5.160   8.763  17.962  1.00  0.00     0.072 A 
ATOM     20  C   UNL     1       2.381   9.245  18.284  1.00  0.00     0.008 A 
ATOM     21  C   UNL     1       4.703  10.010  18.432  1.00  0.00     0.169 A 
ATOM     22  C   UNL     1       3.322  10.261  18.562  1.00  0.00     0.162 A 
BRANCH  13  23
ATOM     23  O   UNL     1       5.960   6.035  17.371  1.00  0.00    -0.507 OA
ATOM     24  H   UNL     1       6.504   6.234  18.201  1.00  0.00     0.293 HD
ENDBRANCH  13  23
BRANCH  19  25
ATOM     25  C   UNL     1       6.617   8.605  17.738  1.00  0.00     0.264 C 
ATOM     26  O   UNL     1       7.292   9.515  17.187  1.00  0.00    -0.298 OA
ENDBRANCH  19  25
BRANCH  20  27
ATOM     27  C   UNL     1       0.897   9.461  18.634  1.00  0.00     0.017 C 
ATOM     28  C   UNL     1       0.394  10.803  18.096  1.00  0.00     0.012 C 
ATOM     29  C   UNL     1       0.585   9.304  20.135  1.00  0.00     0.012 C 
ENDBRANCH  20  27
BRANCH  21  30
ATOM     30  O   UNL     1       5.653  10.985  18.759  1.00  0.00    -0.504 OA
ATOM     31  H   UNL     1       6.649  10.822  18.815  1.00  0.00     0.293 HD
ENDBRANCH  21  30
BRANCH  22  32
ATOM     32  O   UNL     1       2.857  11.530  18.925  1.00  0.00    -0.504 OA
ATOM     33  H   UNL     1       2.523  12.229  18.278  1.00  0.00     0.293 HD
ENDBRANCH  22  32
ENDBRANCH  11  12
BRANCH  10  34
ATOM     34  O   UNL     1       4.446   3.479  18.465  1.00  0.00    -0.507 OA
ATOM     35  H   UNL     1       4.822   2.863  19.174  1.00  0.00     0.293 HD
ENDBRANCH  10  34
BRANCH   9  36
ATOM     36  C   UNL     1       5.210  -0.085  13.290  1.00  0.00     0.017 C 
ATOM     37  C   UNL     1       6.174  -1.215  12.876  1.00  0.00     0.012 C 
ATOM     38  C   UNL     1       3.760  -0.357  12.875  1.00  0.00     0.012 C 
ENDBRANCH   9  36
BRANCH   6  39
ATOM     39  C   UNL     1       4.603   0.857  18.970  1.00  0.00     0.264 C 
ATOM     40  O   UNL     1       3.483   1.320  19.311  1.00  0.00    -0.298 OA
ENDBRANCH   6  39
BRANCH   8  41
ATOM     41  O   UNL     1       6.471  -1.755  15.314  1.00  0.00    -0.504 OA
ATOM     42  H   UNL     1       6.462  -2.617  15.844  1.00  0.00     0.293 HD
ENDBRANCH   8  41
BRANCH   7  43
ATOM     43  O   UNL     1       5.933  -1.402  17.978  1.00  0.00    -0.504 OA
ATOM     44  H   UNL     1       5.318  -1.706  18.723  1.00  0.00     0.293 HD
ENDBRANCH   7  43
TORSDOF 11
ENDMDL
