MODEL 1
REMARK VINA RESULT:    -5.017      0.000      0.000
REMARK INTER + INTRA:         -15.430
REMARK INTER:                 -11.470
REMARK INTRA:                  -3.960
REMARK UNBOUND:                -3.960
REMARK SMILES CCCCCCCCCCCCCCCCCCCCCCCC(=O)[O-]
REMARK SMILES IDX 13 1 14 2 15 3 16 4 17 5 18 6 19 7 20 8 21 9 22 10 23 11
REMARK SMILES IDX 24 12 25 13 26 14 12 15 11 16 10 17 9 18 8 19 7 20 6 21 5 22
REMARK SMILES IDX 4 23 3 24 2 25 1 26
REMARK H PARENT
REMARK Flexibility Score: inf
ROOT
ATOM      1  C   UNL     1      14.611 -30.454  22.800  1.00  0.00     0.000 C 
ENDROOT
BRANCH   1   2
ATOM      2  C   UNL     1      13.562 -31.347  23.497  1.00  0.00     0.000 C 
BRANCH   2   3
ATOM      3  C   UNL     1      14.091 -32.737  23.899  1.00  0.00     0.000 C 
BRANCH   3   4
ATOM      4  C   UNL     1      15.621 -32.888  23.856  1.00  0.00     0.000 C 
BRANCH   4   5
ATOM      5  C   UNL     1      16.076 -34.358  23.894  1.00  0.00     0.000 C 
BRANCH   5   6
ATOM      6  C   UNL     1      17.116 -34.683  22.808  1.00  0.00     0.000 C 
BRANCH   6   7
ATOM      7  C   UNL     1      17.974 -35.929  23.093  1.00  0.00     0.000 C 
BRANCH   7   8
ATOM      8  C   UNL     1      19.236 -35.603  23.912  1.00  0.00     0.000 C 
BRANCH   8   9
ATOM      9  C   UNL     1      19.045 -35.846  25.418  1.00  0.00     0.000 C 
BRANCH   9  10
ATOM     10  C   UNL     1      18.322 -37.168  25.719  1.00  0.00     0.006 C 
BRANCH  10  11
ATOM     11  C   UNL     1      18.051 -37.315  27.219  1.00  0.00     0.053 C 
BRANCH  11  12
ATOM     12  C   UNL     1      16.580 -37.348  27.492  1.00  0.00     0.041 C 
ATOM     13  O   UNL     1      15.786 -37.789  26.620  1.00  0.00    -0.550 OA
ATOM     14  O   UNL     1      16.087 -36.916  28.719  1.00  0.00    -0.550 OA
ENDBRANCH  11  12
ENDBRANCH  10  11
ENDBRANCH   9  10
ENDBRANCH   8   9
ENDBRANCH   7   8
ENDBRANCH   6   7
ENDBRANCH   5   6
ENDBRANCH   4   5
ENDBRANCH   3   4
ENDBRANCH   2   3
ENDBRANCH   1   2
BRANCH   1  15
ATOM     15  C   UNL     1      14.483 -30.497  21.267  1.00  0.00     0.000 C 
BRANCH  15  16
ATOM     16  C   UNL     1      13.211 -31.219  20.797  1.00  0.00     0.000 C 
BRANCH  16  17
ATOM     17  C   UNL     1      13.517 -32.477  19.964  1.00  0.00     0.000 C 
BRANCH  17  18
ATOM     18  C   UNL     1      14.913 -33.049  20.252  1.00  0.00    -0.000 C 
BRANCH  18  19
ATOM     19  C   UNL     1      15.002 -34.560  19.974  1.00  0.00    -0.000 C 
BRANCH  19  20
ATOM     20  C   UNL     1      16.357 -34.965  19.369  1.00  0.00    -0.000 C 
BRANCH  20  21
ATOM     21  C   UNL     1      17.242 -33.751  19.045  1.00  0.00    -0.000 C 
BRANCH  21  22
ATOM     22  C   UNL     1      18.697 -33.936  19.507  1.00  0.00    -0.000 C 
BRANCH  22  23
ATOM     23  C   UNL     1      19.186 -32.821  20.457  1.00  0.00    -0.000 C 
BRANCH  23  24
ATOM     24  C   UNL     1      18.133 -31.714  20.643  1.00  0.00    -0.000 C 
BRANCH  24  25
ATOM     25  C   UNL     1      18.248 -31.011  22.005  1.00  0.00    -0.003 C 
ATOM     26  C   UNL     1      19.231 -31.703  22.949  1.00  0.00     0.004 C 
ENDBRANCH  24  25
ENDBRANCH  23  24
ENDBRANCH  22  23
ENDBRANCH  21  22
ENDBRANCH  20  21
ENDBRANCH  19  20
ENDBRANCH  18  19
ENDBRANCH  17  18
ENDBRANCH  16  17
ENDBRANCH  15  16
ENDBRANCH   1  15
TORSDOF 22
ENDMDL
MODEL 2
REMARK VINA RESULT:    -4.981      2.131      4.936
REMARK INTER + INTRA:         -15.348
REMARK INTER:                 -11.966
REMARK INTRA:                  -3.382
REMARK UNBOUND:                -3.960
REMARK SMILES CCCCCCCCCCCCCCCCCCCCCCCC(=O)[O-]
REMARK SMILES IDX 13 1 14 2 15 3 16 4 17 5 18 6 19 7 20 8 21 9 22 10 23 11
REMARK SMILES IDX 24 12 25 13 26 14 12 15 11 16 10 17 9 18 8 19 7 20 6 21 5 22
REMARK SMILES IDX 4 23 3 24 2 25 1 26
REMARK H PARENT
REMARK Flexibility Score: inf
ROOT
ATOM      1  C   UNL     1      15.138 -33.846  22.415  1.00  0.00     0.000 C 
ENDROOT
BRANCH   1   2
ATOM      2  C   UNL     1      15.047 -34.183  20.911  1.00  0.00     0.000 C 
BRANCH   2   3
ATOM      3  C   UNL     1      16.142 -33.521  20.054  1.00  0.00     0.000 C 
BRANCH   3   4
ATOM      4  C   UNL     1      16.999 -34.494  19.226  1.00  0.00     0.000 C 
BRANCH   4   5
ATOM      5  C   UNL     1      16.557 -35.960  19.384  1.00  0.00     0.000 C 
BRANCH   5   6
ATOM      6  C   UNL     1      17.703 -36.877  19.846  1.00  0.00     0.000 C 
BRANCH   6   7
ATOM      7  C   UNL     1      17.929 -36.903  21.369  1.00  0.00     0.000 C 
BRANCH   7   8
ATOM      8  C   UNL     1      19.037 -35.934  21.819  1.00  0.00     0.000 C 
BRANCH   8   9
ATOM      9  C   UNL     1      18.776 -35.341  23.212  1.00  0.00     0.000 C 
BRANCH   9  10
ATOM     10  C   UNL     1      17.997 -36.298  24.129  1.00  0.00     0.006 C 
BRANCH  10  11
ATOM     11  C   UNL     1      17.945 -35.763  25.562  1.00  0.00     0.053 C 
BRANCH  11  12
ATOM     12  C   UNL     1      17.570 -36.848  26.522  1.00  0.00     0.041 C 
ATOM     13  O   UNL     1      18.387 -37.222  27.404  1.00  0.00    -0.550 OA
ATOM     14  O   UNL     1      16.309 -37.432  26.458  1.00  0.00    -0.550 OA
ENDBRANCH  11  12
ENDBRANCH  10  11
ENDBRANCH   9  10
ENDBRANCH   8   9
ENDBRANCH   7   8
ENDBRANCH   6   7
ENDBRANCH   5   6
ENDBRANCH   4   5
ENDBRANCH   3   4
ENDBRANCH   2   3
ENDBRANCH   1   2
BRANCH   1  15
ATOM     15  C   UNL     1      16.399 -33.030  22.751  1.00  0.00     0.000 C 
BRANCH  15  16
ATOM     16  C   UNL     1      16.090 -31.777  23.584  1.00  0.00     0.000 C 
BRANCH  16  17
ATOM     17  C   UNL     1      16.781 -30.515  23.033  1.00  0.00     0.000 C 
BRANCH  17  18
ATOM     18  C   UNL     1      16.377 -30.208  21.584  1.00  0.00    -0.000 C 
BRANCH  18  19
ATOM     19  C   UNL     1      14.979 -29.573  21.481  1.00  0.00    -0.000 C 
BRANCH  19  20
ATOM     20  C   UNL     1      13.914 -30.576  21.004  1.00  0.00    -0.000 C 
BRANCH  20  21
ATOM     21  C   UNL     1      12.664 -30.575  21.898  1.00  0.00    -0.000 C 
BRANCH  21  22
ATOM     22  C   UNL     1      12.776 -29.590  23.075  1.00  0.00    -0.000 C 
BRANCH  22  23
ATOM     23  C   UNL     1      11.539 -28.678  23.231  1.00  0.00    -0.000 C 
BRANCH  23  24
ATOM     24  C   UNL     1      11.926 -27.229  23.575  1.00  0.00    -0.000 C 
BRANCH  24  25
ATOM     25  C   UNL     1      13.434 -27.062  23.820  1.00  0.00    -0.003 C 
ATOM     26  C   UNL     1      13.751 -25.987  24.860  1.00  0.00     0.004 C 
ENDBRANCH  24  25
ENDBRANCH  23  24
ENDBRANCH  22  23
ENDBRANCH  21  22
ENDBRANCH  20  21
ENDBRANCH  19  20
ENDBRANCH  18  19
ENDBRANCH  17  18
ENDBRANCH  16  17
ENDBRANCH  15  16
ENDBRANCH   1  15
TORSDOF 22
ENDMDL
MODEL 3
REMARK VINA RESULT:    -4.964      1.664      4.659
REMARK INTER + INTRA:         -15.308
REMARK INTER:                 -11.016
REMARK INTRA:                  -4.292
REMARK UNBOUND:                -3.960
REMARK SMILES CCCCCCCCCCCCCCCCCCCCCCCC(=O)[O-]
REMARK SMILES IDX 13 1 14 2 15 3 16 4 17 5 18 6 19 7 20 8 21 9 22 10 23 11
REMARK SMILES IDX 24 12 25 13 26 14 12 15 11 16 10 17 9 18 8 19 7 20 6 21 5 22
REMARK SMILES IDX 4 23 3 24 2 25 1 26
REMARK H PARENT
REMARK Flexibility Score: inf
ROOT
ATOM      1  C   UNL     1      16.148 -32.904  23.766  1.00  0.00     0.000 C 
ENDROOT
BRANCH   1   2
ATOM      2  C   UNL     1      15.949 -34.075  22.780  1.00  0.00     0.000 C 
BRANCH   2   3
ATOM      3  C   UNL     1      14.907 -33.796  21.680  1.00  0.00     0.000 C 
BRANCH   3   4
ATOM      4  C   UNL     1      15.161 -34.516  20.345  1.00  0.00     0.000 C 
BRANCH   4   5
ATOM      5  C   UNL     1      16.383 -33.962  19.591  1.00  0.00     0.000 C 
BRANCH   5   6
ATOM      6  C   UNL     1      17.431 -35.047  19.284  1.00  0.00     0.000 C 
BRANCH   6   7
ATOM      7  C   UNL     1      16.891 -36.489  19.324  1.00  0.00     0.000 C 
BRANCH   7   8
ATOM      8  C   UNL     1      17.641 -37.372  20.337  1.00  0.00     0.000 C 
BRANCH   8   9
ATOM      9  C   UNL     1      18.239 -36.564  21.500  1.00  0.00     0.000 C 
BRANCH   9  10
ATOM     10  C   UNL     1      18.719 -37.453  22.658  1.00  0.00     0.006 C 
BRANCH  10  11
ATOM     11  C   UNL     1      19.101 -36.609  23.876  1.00  0.00     0.053 C 
BRANCH  11  12
ATOM     12  C   UNL     1      18.166 -36.866  25.015  1.00  0.00     0.041 C 
ATOM     13  O   UNL     1      18.029 -38.033  25.468  1.00  0.00    -0.550 OA
ATOM     14  O   UNL     1      17.463 -35.815  25.594  1.00  0.00    -0.550 OA
ENDBRANCH  11  12
ENDBRANCH  10  11
ENDBRANCH   9  10
ENDBRANCH   8   9
ENDBRANCH   7   8
ENDBRANCH   6   7
ENDBRANCH   5   6
ENDBRANCH   4   5
ENDBRANCH   3   4
ENDBRANCH   2   3
ENDBRANCH   1   2
BRANCH   1  15
ATOM     15  C   UNL     1      17.624 -32.723  24.162  1.00  0.00     0.000 C 
BRANCH  15  16
ATOM     16  C   UNL     1      18.594 -33.277  23.106  1.00  0.00     0.000 C 
BRANCH  16  17
ATOM     17  C   UNL     1      19.799 -32.348  22.865  1.00  0.00     0.000 C 
BRANCH  17  18
ATOM     18  C   UNL     1      19.419 -31.083  22.081  1.00  0.00    -0.000 C 
BRANCH  18  19
ATOM     19  C   UNL     1      18.629 -31.397  20.798  1.00  0.00    -0.000 C 
BRANCH  19  20
ATOM     20  C   UNL     1      17.252 -30.712  20.776  1.00  0.00    -0.000 C 
BRANCH  20  21
ATOM     21  C   UNL     1      17.050 -29.760  21.967  1.00  0.00    -0.000 C 
BRANCH  21  22
ATOM     22  C   UNL     1      15.566 -29.497  22.272  1.00  0.00    -0.000 C 
BRANCH  22  23
ATOM     23  C   UNL     1      14.602 -30.238  21.319  1.00  0.00    -0.000 C 
BRANCH  23  24
ATOM     24  C   UNL     1      13.213 -30.448  21.947  1.00  0.00    -0.000 C 
BRANCH  24  25
ATOM     25  C   UNL     1      13.147 -29.977  23.408  1.00  0.00    -0.003 C 
ATOM     26  C   UNL     1      12.201 -28.793  23.607  1.00  0.00     0.004 C 
ENDBRANCH  24  25
ENDBRANCH  23  24
ENDBRANCH  22  23
ENDBRANCH  21  22
ENDBRANCH  20  21
ENDBRANCH  19  20
ENDBRANCH  18  19
ENDBRANCH  17  18
ENDBRANCH  16  17
ENDBRANCH  15  16
ENDBRANCH   1  15
TORSDOF 22
ENDMDL
MODEL 4
REMARK VINA RESULT:    -4.931      1.497      4.772
REMARK INTER + INTRA:         -15.232
REMARK INTER:                 -11.620
REMARK INTRA:                  -3.613
REMARK UNBOUND:                -3.960
REMARK SMILES CCCCCCCCCCCCCCCCCCCCCCCC(=O)[O-]
REMARK SMILES IDX 13 1 14 2 15 3 16 4 17 5 18 6 19 7 20 8 21 9 22 10 23 11
REMARK SMILES IDX 24 12 25 13 26 14 12 15 11 16 10 17 9 18 8 19 7 20 6 21 5 22
REMARK SMILES IDX 4 23 3 24 2 25 1 26
REMARK H PARENT
REMARK Flexibility Score: inf
ROOT
ATOM      1  C   UNL     1      19.352 -32.210  20.670  1.00  0.00     0.000 C 
ENDROOT
BRANCH   1   2
ATOM      2  C   UNL     1      19.201 -33.719  20.380  1.00  0.00     0.000 C 
BRANCH   2   3
ATOM      3  C   UNL     1      18.577 -34.033  19.007  1.00  0.00     0.000 C 
BRANCH   3   4
ATOM      4  C   UNL     1      17.040 -34.002  18.968  1.00  0.00     0.000 C 
BRANCH   4   5
ATOM      5  C   UNL     1      16.405 -35.337  19.398  1.00  0.00     0.000 C 
BRANCH   5   6
ATOM      6  C   UNL     1      17.252 -36.554  18.985  1.00  0.00     0.000 C 
BRANCH   6   7
ATOM      7  C   UNL     1      17.634 -37.492  20.144  1.00  0.00     0.000 C 
BRANCH   7   8
ATOM      8  C   UNL     1      17.824 -36.741  21.475  1.00  0.00     0.000 C 
BRANCH   8   9
ATOM      9  C   UNL     1      19.182 -37.032  22.131  1.00  0.00     0.000 C 
BRANCH   9  10
ATOM     10  C   UNL     1      19.251 -36.560  23.592  1.00  0.00     0.006 C 
BRANCH  10  11
ATOM     11  C   UNL     1      18.768 -37.657  24.545  1.00  0.00     0.053 C 
BRANCH  11  12
ATOM     12  C   UNL     1      17.955 -37.072  25.658  1.00  0.00     0.041 C 
ATOM     13  O   UNL     1      18.214 -35.918  26.090  1.00  0.00    -0.550 OA
ATOM     14  O   UNL     1      16.897 -37.791  26.203  1.00  0.00    -0.550 OA
ENDBRANCH  11  12
ENDBRANCH  10  11
ENDBRANCH   9  10
ENDBRANCH   8   9
ENDBRANCH   7   8
ENDBRANCH   6   7
ENDBRANCH   5   6
ENDBRANCH   4   5
ENDBRANCH   3   4
ENDBRANCH   2   3
ENDBRANCH   1   2
BRANCH   1  15
ATOM     15  C   UNL     1      18.262 -31.691  21.625  1.00  0.00     0.000 C 
BRANCH  15  16
ATOM     16  C   UNL     1      17.221 -30.812  20.915  1.00  0.00     0.000 C 
BRANCH  16  17
ATOM     17  C   UNL     1      17.011 -29.458  21.617  1.00  0.00     0.000 C 
BRANCH  17  18
ATOM     18  C   UNL     1      15.917 -29.516  22.693  1.00  0.00    -0.000 C 
BRANCH  18  19
ATOM     19  C   UNL     1      14.597 -28.874  22.230  1.00  0.00    -0.000 C 
BRANCH  19  20
ATOM     20  C   UNL     1      13.411 -29.258  23.131  1.00  0.00    -0.000 C 
BRANCH  20  21
ATOM     21  C   UNL     1      12.831 -30.638  22.782  1.00  0.00    -0.000 C 
BRANCH  21  22
ATOM     22  C   UNL     1      13.090 -31.038  21.319  1.00  0.00    -0.000 C 
BRANCH  22  23
ATOM     23  C   UNL     1      13.916 -32.335  21.174  1.00  0.00    -0.000 C 
BRANCH  23  24
ATOM     24  C   UNL     1      14.470 -32.824  22.524  1.00  0.00    -0.000 C 
BRANCH  24  25
ATOM     25  C   UNL     1      15.451 -33.997  22.371  1.00  0.00    -0.003 C 
ATOM     26  C   UNL     1      16.332 -34.199  23.604  1.00  0.00     0.004 C 
ENDBRANCH  24  25
ENDBRANCH  23  24
ENDBRANCH  22  23
ENDBRANCH  21  22
ENDBRANCH  20  21
ENDBRANCH  19  20
ENDBRANCH  18  19
ENDBRANCH  17  18
ENDBRANCH  16  17
ENDBRANCH  15  16
ENDBRANCH   1  15
TORSDOF 22
ENDMDL
MODEL 5
REMARK VINA RESULT:    -4.910      2.276      3.934
REMARK INTER + INTRA:         -15.184
REMARK INTER:                 -11.186
REMARK INTRA:                  -3.998
REMARK UNBOUND:                -3.960
REMARK SMILES CCCCCCCCCCCCCCCCCCCCCCCC(=O)[O-]
REMARK SMILES IDX 13 1 14 2 15 3 16 4 17 5 18 6 19 7 20 8 21 9 22 10 23 11
REMARK SMILES IDX 24 12 25 13 26 14 12 15 11 16 10 17 9 18 8 19 7 20 6 21 5 22
REMARK SMILES IDX 4 23 3 24 2 25 1 26
REMARK H PARENT
REMARK Flexibility Score: inf
ROOT
ATOM      1  C   UNL     1      15.211 -32.958  23.493  1.00  0.00     0.000 C 
ENDROOT
BRANCH   1   2
ATOM      2  C   UNL     1      15.229 -34.019  22.372  1.00  0.00     0.000 C 
BRANCH   2   3
ATOM      3  C   UNL     1      14.734 -33.498  21.010  1.00  0.00     0.000 C 
BRANCH   3   4
ATOM      4  C   UNL     1      15.025 -34.421  19.815  1.00  0.00     0.000 C 
BRANCH   4   5
ATOM      5  C   UNL     1      16.277 -33.998  19.026  1.00  0.00     0.000 C 
BRANCH   5   6
ATOM      6  C   UNL     1      17.376 -35.076  19.039  1.00  0.00     0.000 C 
BRANCH   6   7
ATOM      7  C   UNL     1      16.915 -36.456  19.543  1.00  0.00     0.000 C 
BRANCH   7   8
ATOM      8  C   UNL     1      17.684 -36.913  20.796  1.00  0.00     0.000 C 
BRANCH   8   9
ATOM      9  C   UNL     1      18.369 -35.749  21.530  1.00  0.00     0.000 C 
BRANCH   9  10
ATOM     10  C   UNL     1      18.362 -35.922  23.057  1.00  0.00     0.006 C 
BRANCH  10  11
ATOM     11  C   UNL     1      18.937 -34.685  23.751  1.00  0.00     0.053 C 
BRANCH  11  12
ATOM     12  C   UNL     1      18.187 -34.387  25.012  1.00  0.00     0.041 C 
ATOM     13  O   UNL     1      17.381 -35.233  25.482  1.00  0.00    -0.550 OA
ATOM     14  O   UNL     1      18.396 -33.186  25.682  1.00  0.00    -0.550 OA
ENDBRANCH  11  12
ENDBRANCH  10  11
ENDBRANCH   9  10
ENDBRANCH   8   9
ENDBRANCH   7   8
ENDBRANCH   6   7
ENDBRANCH   5   6
ENDBRANCH   4   5
ENDBRANCH   3   4
ENDBRANCH   2   3
ENDBRANCH   1   2
BRANCH   1  15
ATOM     15  C   UNL     1      14.100 -31.913  23.286  1.00  0.00     0.000 C 
BRANCH  15  16
ATOM     16  C   UNL     1      14.653 -30.506  23.011  1.00  0.00     0.000 C 
BRANCH  16  17
ATOM     17  C   UNL     1      16.191 -30.452  23.071  1.00  0.00     0.000 C 
BRANCH  17  18
ATOM     18  C   UNL     1      16.809 -29.850  21.801  1.00  0.00    -0.000 C 
BRANCH  18  19
ATOM     19  C   UNL     1      17.217 -30.922  20.776  1.00  0.00    -0.000 C 
BRANCH  19  20
ATOM     20  C   UNL     1      18.199 -31.950  21.363  1.00  0.00    -0.000 C 
BRANCH  20  21
ATOM     21  C   UNL     1      19.605 -31.835  20.753  1.00  0.00    -0.000 C 
BRANCH  21  22
ATOM     22  C   UNL     1      20.698 -31.630  21.816  1.00  0.00    -0.000 C 
BRANCH  22  23
ATOM     23  C   UNL     1      21.148 -30.159  21.958  1.00  0.00    -0.000 C 
BRANCH  23  24
ATOM     24  C   UNL     1      20.391 -29.225  20.998  1.00  0.00    -0.000 C 
BRANCH  24  25
ATOM     25  C   UNL     1      21.161 -27.928  20.705  1.00  0.00    -0.003 C 
ATOM     26  C   UNL     1      20.239 -26.741  20.424  1.00  0.00     0.004 C 
ENDBRANCH  24  25
ENDBRANCH  23  24
ENDBRANCH  22  23
ENDBRANCH  21  22
ENDBRANCH  20  21
ENDBRANCH  19  20
ENDBRANCH  18  19
ENDBRANCH  17  18
ENDBRANCH  16  17
ENDBRANCH  15  16
ENDBRANCH   1  15
TORSDOF 22
ENDMDL
MODEL 6
REMARK VINA RESULT:    -4.907      5.559      7.850
REMARK INTER + INTRA:         -15.177
REMARK INTER:                 -12.408
REMARK INTRA:                  -2.769
REMARK UNBOUND:                -3.960
REMARK SMILES CCCCCCCCCCCCCCCCCCCCCCCC(=O)[O-]
REMARK SMILES IDX 13 1 14 2 15 3 16 4 17 5 18 6 19 7 20 8 21 9 22 10 23 11
REMARK SMILES IDX 24 12 25 13 26 14 12 15 11 16 10 17 9 18 8 19 7 20 6 21 5 22
REMARK SMILES IDX 4 23 3 24 2 25 1 26
REMARK H PARENT
REMARK Flexibility Score: inf
ROOT
ATOM      1  C   UNL     1      13.700 -30.379  23.019  1.00  0.00     0.000 C 
ENDROOT
BRANCH   1   2
ATOM      2  C   UNL     1      14.754 -29.360  22.537  1.00  0.00     0.000 C 
BRANCH   2   3
ATOM      3  C   UNL     1      16.196 -29.902  22.539  1.00  0.00     0.000 C 
BRANCH   3   4
ATOM      4  C   UNL     1      16.634 -30.591  21.236  1.00  0.00     0.000 C 
BRANCH   4   5
ATOM      5  C   UNL     1      18.162 -30.596  21.049  1.00  0.00     0.000 C 
BRANCH   5   6
ATOM      6  C   UNL     1      18.778 -29.192  21.178  1.00  0.00     0.000 C 
BRANCH   6   7
ATOM      7  C   UNL     1      20.315 -29.171  21.259  1.00  0.00     0.000 C 
BRANCH   7   8
ATOM      8  C   UNL     1      20.922 -27.893  20.653  1.00  0.00     0.000 C 
BRANCH   8   9
ATOM      9  C   UNL     1      19.900 -26.750  20.535  1.00  0.00     0.000 C 
BRANCH   9  10
ATOM     10  C   UNL     1      20.545 -25.416  20.127  1.00  0.00     0.006 C 
BRANCH  10  11
ATOM     11  C   UNL     1      22.014 -25.611  19.744  1.00  0.00     0.053 C 
BRANCH  11  12
ATOM     12  C   UNL     1      22.852 -24.485  20.262  1.00  0.00     0.041 C 
ATOM     13  O   UNL     1      22.830 -24.194  21.487  1.00  0.00    -0.550 OA
ATOM     14  O   UNL     1      23.677 -23.773  19.398  1.00  0.00    -0.550 OA
ENDBRANCH  11  12
ENDBRANCH  10  11
ENDBRANCH   9  10
ENDBRANCH   8   9
ENDBRANCH   7   8
ENDBRANCH   6   7
ENDBRANCH   5   6
ENDBRANCH   4   5
ENDBRANCH   3   4
ENDBRANCH   2   3
ENDBRANCH   1   2
BRANCH   1  15
ATOM     15  C   UNL     1      12.569 -30.574  21.994  1.00  0.00     0.000 C 
BRANCH  15  16
ATOM     16  C   UNL     1      13.043 -31.279  20.714  1.00  0.00     0.000 C 
BRANCH  16  17
ATOM     17  C   UNL     1      13.887 -32.534  21.007  1.00  0.00     0.000 C 
BRANCH  17  18
ATOM     18  C   UNL     1      14.260 -33.303  19.731  1.00  0.00    -0.000 C 
BRANCH  18  19
ATOM     19  C   UNL     1      15.388 -34.324  19.965  1.00  0.00    -0.000 C 
BRANCH  19  20
ATOM     20  C   UNL     1      16.526 -34.184  18.940  1.00  0.00    -0.000 C 
BRANCH  20  21
ATOM     21  C   UNL     1      17.806 -34.912  19.382  1.00  0.00    -0.000 C 
BRANCH  21  22
ATOM     22  C   UNL     1      18.755 -34.010  20.189  1.00  0.00    -0.000 C 
BRANCH  22  23
ATOM     23  C   UNL     1      19.070 -34.556  21.599  1.00  0.00    -0.000 C 
BRANCH  23  24
ATOM     24  C   UNL     1      17.792 -34.860  22.402  1.00  0.00    -0.000 C 
BRANCH  24  25
ATOM     25  C   UNL     1      17.225 -33.617  23.105  1.00  0.00    -0.003 C 
ATOM     26  C   UNL     1      15.921 -33.901  23.851  1.00  0.00     0.004 C 
ENDBRANCH  24  25
ENDBRANCH  23  24
ENDBRANCH  22  23
ENDBRANCH  21  22
ENDBRANCH  20  21
ENDBRANCH  19  20
ENDBRANCH  18  19
ENDBRANCH  17  18
ENDBRANCH  16  17
ENDBRANCH  15  16
ENDBRANCH   1  15
TORSDOF 22
ENDMDL
MODEL 7
REMARK VINA RESULT:    -4.874      2.860      5.504
REMARK INTER + INTRA:         -15.102
REMARK INTER:                 -11.385
REMARK INTRA:                  -3.717
REMARK UNBOUND:                -3.960
REMARK SMILES CCCCCCCCCCCCCCCCCCCCCCCC(=O)[O-]
REMARK SMILES IDX 13 1 14 2 15 3 16 4 17 5 18 6 19 7 20 8 21 9 22 10 23 11
REMARK SMILES IDX 24 12 25 13 26 14 12 15 11 16 10 17 9 18 8 19 7 20 6 21 5 22
REMARK SMILES IDX 4 23 3 24 2 25 1 26
REMARK H PARENT
REMARK Flexibility Score: inf
ROOT
ATOM      1  C   UNL     1      15.129 -33.859  22.156  1.00  0.00     0.000 C 
ENDROOT
BRANCH   1   2
ATOM      2  C   UNL     1      15.222 -34.032  20.625  1.00  0.00     0.000 C 
BRANCH   2   3
ATOM      3  C   UNL     1      16.522 -33.478  20.011  1.00  0.00     0.000 C 
BRANCH   3   4
ATOM      4  C   UNL     1      17.483 -34.541  19.453  1.00  0.00     0.000 C 
BRANCH   4   5
ATOM      5  C   UNL     1      16.879 -35.956  19.463  1.00  0.00     0.000 C 
BRANCH   5   6
ATOM      6  C   UNL     1      17.652 -36.923  20.378  1.00  0.00     0.000 C 
BRANCH   6   7
ATOM      7  C   UNL     1      17.915 -36.390  21.798  1.00  0.00     0.000 C 
BRANCH   7   8
ATOM      8  C   UNL     1      19.266 -36.863  22.366  1.00  0.00     0.000 C 
BRANCH   8   9
ATOM      9  C   UNL     1      20.290 -35.723  22.487  1.00  0.00     0.000 C 
BRANCH   9  10
ATOM     10  C   UNL     1      19.649 -34.390  22.904  1.00  0.00     0.006 C 
BRANCH  10  11
ATOM     11  C   UNL     1      19.523 -34.296  24.427  1.00  0.00     0.053 C 
BRANCH  11  12
ATOM     12  C   UNL     1      19.369 -32.871  24.860  1.00  0.00     0.041 C 
ATOM     13  O   UNL     1      18.764 -32.599  25.931  1.00  0.00    -0.550 OA
ATOM     14  O   UNL     1      19.915 -31.846  24.096  1.00  0.00    -0.550 OA
ENDBRANCH  11  12
ENDBRANCH  10  11
ENDBRANCH   9  10
ENDBRANCH   8   9
ENDBRANCH   7   8
ENDBRANCH   6   7
ENDBRANCH   5   6
ENDBRANCH   4   5
ENDBRANCH   3   4
ENDBRANCH   2   3
ENDBRANCH   1   2
BRANCH   1  15
ATOM     15  C   UNL     1      16.356 -33.134  22.735  1.00  0.00     0.000 C 
BRANCH  15  16
ATOM     16  C   UNL     1      15.978 -31.903  23.573  1.00  0.00     0.000 C 
BRANCH  16  17
ATOM     17  C   UNL     1      16.725 -30.632  23.129  1.00  0.00     0.000 C 
BRANCH  17  18
ATOM     18  C   UNL     1      16.350 -30.196  21.705  1.00  0.00    -0.000 C 
BRANCH  18  19
ATOM     19  C   UNL     1      14.948 -29.567  21.628  1.00  0.00    -0.000 C 
BRANCH  19  20
ATOM     20  C   UNL     1      13.901 -30.538  21.054  1.00  0.00    -0.000 C 
BRANCH  20  21
ATOM     21  C   UNL     1      12.661 -30.664  21.954  1.00  0.00    -0.000 C 
BRANCH  21  22
ATOM     22  C   UNL     1      12.673 -29.666  23.125  1.00  0.00    -0.000 C 
BRANCH  22  23
ATOM     23  C   UNL     1      11.482 -28.682  23.104  1.00  0.00    -0.000 C 
BRANCH  23  24
ATOM     24  C   UNL     1      11.790 -27.384  23.871  1.00  0.00    -0.000 C 
BRANCH  24  25
ATOM     25  C   UNL     1      13.267 -26.974  23.772  1.00  0.00    -0.003 C 
ATOM     26  C   UNL     1      13.706 -26.056  24.913  1.00  0.00     0.004 C 
ENDBRANCH  24  25
ENDBRANCH  23  24
ENDBRANCH  22  23
ENDBRANCH  21  22
ENDBRANCH  20  21
ENDBRANCH  19  20
ENDBRANCH  18  19
ENDBRANCH  17  18
ENDBRANCH  16  17
ENDBRANCH  15  16
ENDBRANCH   1  15
TORSDOF 22
ENDMDL
MODEL 8
REMARK VINA RESULT:    -4.868      1.705      5.036
REMARK INTER + INTRA:         -15.089
REMARK INTER:                 -11.449
REMARK INTRA:                  -3.639
REMARK UNBOUND:                -3.960
REMARK SMILES CCCCCCCCCCCCCCCCCCCCCCCC(=O)[O-]
REMARK SMILES IDX 13 1 14 2 15 3 16 4 17 5 18 6 19 7 20 8 21 9 22 10 23 11
REMARK SMILES IDX 24 12 25 13 26 14 12 15 11 16 10 17 9 18 8 19 7 20 6 21 5 22
REMARK SMILES IDX 4 23 3 24 2 25 1 26
REMARK H PARENT
REMARK Flexibility Score: inf
ROOT
ATOM      1  C   UNL     1      18.317 -33.982  19.088  1.00  0.00     0.000 C 
ENDROOT
BRANCH   1   2
ATOM      2  C   UNL     1      18.800 -33.757  20.537  1.00  0.00     0.000 C 
BRANCH   2   3
ATOM      3  C   UNL     1      19.487 -32.397  20.763  1.00  0.00     0.000 C 
BRANCH   3   4
ATOM      4  C   UNL     1      19.227 -31.756  22.137  1.00  0.00     0.000 C 
BRANCH   4   5
ATOM      5  C   UNL     1      18.045 -30.771  22.122  1.00  0.00     0.000 C 
BRANCH   5   6
ATOM      6  C   UNL     1      17.030 -31.048  23.245  1.00  0.00     0.000 C 
BRANCH   6   7
ATOM      7  C   UNL     1      17.364 -32.267  24.124  1.00  0.00     0.000 C 
BRANCH   7   8
ATOM      8  C   UNL     1      16.157 -33.204  24.317  1.00  0.00     0.000 C 
BRANCH   8   9
ATOM      9  C   UNL     1      16.498 -34.675  24.033  1.00  0.00     0.000 C 
BRANCH   9  10
ATOM     10  C   UNL     1      17.937 -35.041  24.432  1.00  0.00     0.006 C 
BRANCH  10  11
ATOM     11  C   UNL     1      18.062 -36.539  24.721  1.00  0.00     0.053 C 
BRANCH  11  12
ATOM     12  C   UNL     1      17.527 -36.864  26.080  1.00  0.00     0.041 C 
ATOM     13  O   UNL     1      18.233 -36.657  27.102  1.00  0.00    -0.550 OA
ATOM     14  O   UNL     1      16.241 -37.374  26.222  1.00  0.00    -0.550 OA
ENDBRANCH  11  12
ENDBRANCH  10  11
ENDBRANCH   9  10
ENDBRANCH   8   9
ENDBRANCH   7   8
ENDBRANCH   6   7
ENDBRANCH   5   6
ENDBRANCH   4   5
ENDBRANCH   3   4
ENDBRANCH   2   3
ENDBRANCH   1   2
BRANCH   1  15
ATOM     15  C   UNL     1      16.866 -34.491  19.032  1.00  0.00     0.000 C 
BRANCH  15  16
ATOM     16  C   UNL     1      16.363 -35.001  20.392  1.00  0.00     0.000 C 
BRANCH  16  17
ATOM     17  C   UNL     1      14.996 -34.406  20.779  1.00  0.00     0.000 C 
BRANCH  17  18
ATOM     18  C   UNL     1      15.020 -32.872  20.847  1.00  0.00    -0.000 C 
BRANCH  18  19
ATOM     19  C   UNL     1      13.733 -32.235  20.295  1.00  0.00    -0.000 C 
BRANCH  19  20
ATOM     20  C   UNL     1      13.307 -30.990  21.091  1.00  0.00    -0.000 C 
BRANCH  20  21
ATOM     21  C   UNL     1      12.992 -31.312  22.561  1.00  0.00    -0.000 C 
BRANCH  21  22
ATOM     22  C   UNL     1      13.521 -30.242  23.531  1.00  0.00    -0.000 C 
BRANCH  22  23
ATOM     23  C   UNL     1      13.998 -28.954  22.823  1.00  0.00    -0.000 C 
BRANCH  23  24
ATOM     24  C   UNL     1      13.480 -27.684  23.520  1.00  0.00    -0.000 C 
BRANCH  24  25
ATOM     25  C   UNL     1      12.072 -27.864  24.110  1.00  0.00    -0.003 C 
ATOM     26  C   UNL     1      10.964 -27.607  23.089  1.00  0.00     0.004 C 
ENDBRANCH  24  25
ENDBRANCH  23  24
ENDBRANCH  22  23
ENDBRANCH  21  22
ENDBRANCH  20  21
ENDBRANCH  19  20
ENDBRANCH  18  19
ENDBRANCH  17  18
ENDBRANCH  16  17
ENDBRANCH  15  16
ENDBRANCH   1  15
TORSDOF 22
ENDMDL
MODEL 9
REMARK VINA RESULT:    -4.791      3.058      5.897
REMARK INTER + INTRA:         -14.912
REMARK INTER:                 -10.319
REMARK INTRA:                  -4.593
REMARK UNBOUND:                -3.960
REMARK SMILES CCCCCCCCCCCCCCCCCCCCCCCC(=O)[O-]
REMARK SMILES IDX 13 1 14 2 15 3 16 4 17 5 18 6 19 7 20 8 21 9 22 10 23 11
REMARK SMILES IDX 24 12 25 13 26 14 12 15 11 16 10 17 9 18 8 19 7 20 6 21 5 22
REMARK SMILES IDX 4 23 3 24 2 25 1 26
REMARK H PARENT
REMARK Flexibility Score: inf
ROOT
ATOM      1  C   UNL     1      17.722 -30.694  21.682  1.00  0.00     0.000 C 
ENDROOT
BRANCH   1   2
ATOM      2  C   UNL     1      17.578 -31.715  20.534  1.00  0.00     0.000 C 
BRANCH   2   3
ATOM      3  C   UNL     1      18.528 -32.923  20.648  1.00  0.00     0.000 C 
BRANCH   3   4
ATOM      4  C   UNL     1      18.384 -33.973  19.534  1.00  0.00     0.000 C 
BRANCH   4   5
ATOM      5  C   UNL     1      16.962 -34.029  18.948  1.00  0.00     0.000 C 
BRANCH   5   6
ATOM      6  C   UNL     1      16.056 -35.029  19.688  1.00  0.00     0.000 C 
BRANCH   6   7
ATOM      7  C   UNL     1      14.970 -34.382  20.567  1.00  0.00     0.000 C 
BRANCH   7   8
ATOM      8  C   UNL     1      14.245 -33.227  19.853  1.00  0.00     0.000 C 
BRANCH   8   9
ATOM      9  C   UNL     1      13.834 -32.101  20.816  1.00  0.00     0.000 C 
BRANCH   9  10
ATOM     10  C   UNL     1      14.342 -32.328  22.249  1.00  0.00     0.006 C 
BRANCH  10  11
ATOM     11  C   UNL     1      13.500 -31.545  23.259  1.00  0.00     0.053 C 
BRANCH  11  12
ATOM     12  C   UNL     1      13.453 -30.093  22.900  1.00  0.00     0.041 C 
ATOM     13  O   UNL     1      12.344 -29.521  22.728  1.00  0.00    -0.550 OA
ATOM     14  O   UNL     1      14.631 -29.365  22.778  1.00  0.00    -0.550 OA
ENDBRANCH  11  12
ENDBRANCH  10  11
ENDBRANCH   9  10
ENDBRANCH   8   9
ENDBRANCH   7   8
ENDBRANCH   6   7
ENDBRANCH   5   6
ENDBRANCH   4   5
ENDBRANCH   3   4
ENDBRANCH   2   3
ENDBRANCH   1   2
BRANCH   1  15
ATOM     15  C   UNL     1      18.485 -31.276  22.885  1.00  0.00     0.000 C 
BRANCH  15  16
ATOM     16  C   UNL     1      17.560 -31.618  24.064  1.00  0.00     0.000 C 
BRANCH  16  17
ATOM     17  C   UNL     1      17.838 -33.016  24.648  1.00  0.00     0.000 C 
BRANCH  17  18
ATOM     18  C   UNL     1      16.633 -33.959  24.516  1.00  0.00    -0.000 C 
BRANCH  18  19
ATOM     19  C   UNL     1      16.800 -34.976  23.373  1.00  0.00    -0.000 C 
BRANCH  19  20
ATOM     20  C   UNL     1      17.905 -36.006  23.661  1.00  0.00    -0.000 C 
BRANCH  20  21
ATOM     21  C   UNL     1      18.695 -36.387  22.399  1.00  0.00    -0.000 C 
BRANCH  21  22
ATOM     22  C   UNL     1      20.188 -36.629  22.682  1.00  0.00    -0.000 C 
BRANCH  22  23
ATOM     23  C   UNL     1      20.883 -35.433  23.370  1.00  0.00    -0.000 C 
BRANCH  23  24
ATOM     24  C   UNL     1      21.366 -34.381  22.356  1.00  0.00    -0.000 C 
BRANCH  24  25
ATOM     25  C   UNL     1      21.726 -33.042  23.019  1.00  0.00    -0.003 C 
ATOM     26  C   UNL     1      21.908 -31.910  22.008  1.00  0.00     0.004 C 
ENDBRANCH  24  25
ENDBRANCH  23  24
ENDBRANCH  22  23
ENDBRANCH  21  22
ENDBRANCH  20  21
ENDBRANCH  19  20
ENDBRANCH  18  19
ENDBRANCH  17  18
ENDBRANCH  16  17
ENDBRANCH  15  16
ENDBRANCH   1  15
TORSDOF 22
ENDMDL
