MODEL 1
REMARK VINA RESULT:    -2.881      0.000      0.000
REMARK INTER + INTRA:          -3.249
REMARK INTER:                  -3.218
REMARK INTRA:                  -0.031
REMARK UNBOUND:                -0.031
REMARK SMILES CCCC(=O)[O-]
REMARK SMILES IDX 3 1 4 2 5 3 6 4 2 5 1 6
REMARK H PARENT
REMARK Flexibility Score: inf
ROOT
ATOM      1  C   UNL     1       9.763  14.661   1.452  1.00  0.00     0.052 C 
ENDROOT
BRANCH   1   2
ATOM      2  C   UNL     1       9.926  16.140   1.626  1.00  0.00     0.041 C 
ATOM      3  O   UNL     1      11.037  16.687   1.403  1.00  0.00    -0.550 OA
ATOM      4  O   UNL     1       8.839  16.919   2.003  1.00  0.00    -0.550 OA
ENDBRANCH   1   2
BRANCH   1   5
ATOM      5  C   UNL     1      10.017  14.229   0.003  1.00  0.00     0.003 C 
ATOM      6  C   UNL     1      11.384  13.568  -0.177  1.00  0.00     0.004 C 
ENDBRANCH   1   5
TORSDOF 2
ENDMDL
MODEL 2
REMARK VINA RESULT:    -2.415      2.280      3.417
REMARK INTER + INTRA:          -2.729
REMARK INTER:                  -2.693
REMARK INTRA:                  -0.036
REMARK UNBOUND:                -0.031
REMARK SMILES CCCC(=O)[O-]
REMARK SMILES IDX 3 1 4 2 5 3 6 4 2 5 1 6
REMARK H PARENT
REMARK Flexibility Score: inf
ROOT
ATOM      1  C   UNL     1      10.732  14.327   1.599  1.00  0.00     0.052 C 
ENDROOT
BRANCH   1   2
ATOM      2  C   UNL     1      10.778  13.950   0.150  1.00  0.00     0.041 C 
ATOM      3  O   UNL     1       9.728  13.962  -0.543  1.00  0.00    -0.550 OA
ATOM      4  O   UNL     1      11.990  13.616  -0.442  1.00  0.00    -0.550 OA
ENDBRANCH   1   2
BRANCH   1   5
ATOM      5  C   UNL     1       9.397  14.983   1.971  1.00  0.00     0.003 C 
ATOM      6  C   UNL     1       9.458  16.509   1.906  1.00  0.00     0.004 C 
ENDBRANCH   1   5
TORSDOF 2
ENDMDL
MODEL 3
REMARK VINA RESULT:    -1.793      1.731      2.948
REMARK INTER + INTRA:          -2.034
REMARK INTER:                  -2.016
REMARK INTRA:                  -0.018
REMARK UNBOUND:                -0.031
REMARK SMILES CCCC(=O)[O-]
REMARK SMILES IDX 3 1 4 2 5 3 6 4 2 5 1 6
REMARK H PARENT
REMARK Flexibility Score: inf
ROOT
ATOM      1  C   UNL     1       9.638  14.740   0.974  1.00  0.00     0.052 C 
ENDROOT
BRANCH   1   2
ATOM      2  C   UNL     1      11.073  14.827   1.392  1.00  0.00     0.041 C 
ATOM      3  O   UNL     1      11.750  13.779   1.564  1.00  0.00    -0.550 OA
ATOM      4  O   UNL     1      11.675  16.069   1.559  1.00  0.00    -0.550 OA
ENDBRANCH   1   2
BRANCH   1   5
ATOM      5  C   UNL     1       8.690  15.103   2.124  1.00  0.00     0.003 C 
ATOM      6  C   UNL     1       8.307  16.582   2.120  1.00  0.00     0.004 C 
ENDBRANCH   1   5
TORSDOF 2
ENDMDL
MODEL 4
REMARK VINA RESULT:    -1.056      2.411      2.837
REMARK INTER + INTRA:          -1.210
REMARK INTER:                  -1.197
REMARK INTRA:                  -0.014
REMARK UNBOUND:                -0.031
REMARK SMILES CCCC(=O)[O-]
REMARK SMILES IDX 3 1 4 2 5 3 6 4 2 5 1 6
REMARK H PARENT
REMARK Flexibility Score: inf
ROOT
ATOM      1  C   UNL     1       9.440  16.047   1.675  1.00  0.00     0.052 C 
ENDROOT
BRANCH   1   2
ATOM      2  C   UNL     1       8.759  14.755   1.342  1.00  0.00     0.041 C 
ATOM      3  O   UNL     1       9.227  14.003   0.447  1.00  0.00    -0.550 OA
ATOM      4  O   UNL     1       7.626  14.366   2.044  1.00  0.00    -0.550 OA
ENDBRANCH   1   2
BRANCH   1   5
ATOM      5  C   UNL     1      10.894  15.826   2.110  1.00  0.00     0.003 C 
ATOM      6  C   UNL     1      11.796  17.006   1.750  1.00  0.00     0.004 C 
ENDBRANCH   1   5
TORSDOF 2
ENDMDL
MODEL 5
REMARK VINA RESULT:    -0.730     19.265     20.067
REMARK INTER + INTRA:          -0.847
REMARK INTER:                  -1.070
REMARK INTRA:                   0.223
REMARK UNBOUND:                -0.031
REMARK SMILES CCCC(=O)[O-]
REMARK SMILES IDX 3 1 4 2 5 3 6 4 2 5 1 6
REMARK H PARENT
REMARK Flexibility Score: inf
ROOT
ATOM      1  C   UNL     1      22.404  30.834   0.074  1.00  0.00     0.052 C 
ENDROOT
BRANCH   1   2
ATOM      2  C   UNL     1      22.424  32.039   0.964  1.00  0.00     0.041 C 
ATOM      3  O   UNL     1      23.125  33.040   0.662  1.00  0.00    -0.550 OA
ATOM      4  O   UNL     1      21.640  32.068   2.110  1.00  0.00    -0.550 OA
ENDBRANCH   1   2
BRANCH   1   5
ATOM      5  C   UNL     1      22.158  29.546   0.869  1.00  0.00     0.003 C 
ATOM      6  C   UNL     1      23.109  29.402   2.056  1.00  0.00     0.004 C 
ENDBRANCH   1   5
TORSDOF 2
ENDMDL
MODEL 6
REMARK VINA RESULT:    -0.719      2.158      2.944
REMARK INTER + INTRA:          -0.835
REMARK INTER:                  -0.888
REMARK INTRA:                   0.053
REMARK UNBOUND:                -0.031
REMARK SMILES CCCC(=O)[O-]
REMARK SMILES IDX 3 1 4 2 5 3 6 4 2 5 1 6
REMARK H PARENT
REMARK Flexibility Score: inf
ROOT
ATOM      1  C   UNL     1      11.192  13.018   0.824  1.00  0.00     0.052 C 
ENDROOT
BRANCH   1   2
ATOM      2  C   UNL     1      12.143  13.756   1.715  1.00  0.00     0.041 C 
ATOM      3  O   UNL     1      13.225  13.220   2.072  1.00  0.00    -0.550 OA
ATOM      4  O   UNL     1      11.850  15.050   2.125  1.00  0.00    -0.550 OA
ENDBRANCH   1   2
BRANCH   1   5
ATOM      5  C   UNL     1      10.488  13.962  -0.159  1.00  0.00     0.003 C 
ATOM      6  C   UNL     1       9.136  14.446   0.364  1.00  0.00     0.004 C 
ENDBRANCH   1   5
TORSDOF 2
ENDMDL
MODEL 7
REMARK VINA RESULT:    -0.703      2.748      3.475
REMARK INTER + INTRA:          -0.816
REMARK INTER:                  -0.781
REMARK INTRA:                  -0.035
REMARK UNBOUND:                -0.031
REMARK SMILES CCCC(=O)[O-]
REMARK SMILES IDX 3 1 4 2 5 3 6 4 2 5 1 6
REMARK H PARENT
REMARK Flexibility Score: inf
ROOT
ATOM      1  C   UNL     1      11.863  15.038   1.737  1.00  0.00     0.052 C 
ENDROOT
BRANCH   1   2
ATOM      2  C   UNL     1      11.907  13.597   1.332  1.00  0.00     0.041 C 
ATOM      3  O   UNL     1      13.011  13.009   1.192  1.00  0.00    -0.550 OA
ATOM      4  O   UNL     1      10.724  12.893   1.141  1.00  0.00    -0.550 OA
ENDBRANCH   1   2
BRANCH   1   5
ATOM      5  C   UNL     1      10.446  15.476   2.125  1.00  0.00     0.003 C 
ATOM      6  C   UNL     1       9.901  16.569   1.206  1.00  0.00     0.004 C 
ENDBRANCH   1   5
TORSDOF 2
ENDMDL
MODEL 8
REMARK VINA RESULT:    -0.500     12.903     13.522
REMARK INTER + INTRA:          -0.590
REMARK INTER:                  -0.591
REMARK INTRA:                   0.001
REMARK UNBOUND:                -0.031
REMARK SMILES CCCC(=O)[O-]
REMARK SMILES IDX 3 1 4 2 5 3 6 4 2 5 1 6
REMARK H PARENT
REMARK Flexibility Score: inf
ROOT
ATOM      1  C   UNL     1       4.096  12.875 -11.331  1.00  0.00     0.052 C 
ENDROOT
BRANCH   1   2
ATOM      2  C   UNL     1       5.089  13.911 -11.758  1.00  0.00     0.041 C 
ATOM      3  O   UNL     1       4.702  15.057 -12.107  1.00  0.00    -0.550 OA
ATOM      4  O   UNL     1       6.448  13.620 -11.739  1.00  0.00    -0.550 OA
ENDBRANCH   1   2
BRANCH   1   5
ATOM      5  C   UNL     1       3.613  13.111  -9.894  1.00  0.00     0.003 C 
ATOM      6  C   UNL     1       4.768  13.190  -8.897  1.00  0.00     0.004 C 
ENDBRANCH   1   5
TORSDOF 2
ENDMDL
