MODEL 1
REMARK VINA RESULT:    -4.882      0.000      0.000
REMARK INTER + INTRA:          -5.167
REMARK INTER:                  -5.167
REMARK INTRA:                   0.000
REMARK UNBOUND:                 0.000
REMARK SMILES Cc1cc(O)c(C)c(C)c1O
REMARK SMILES IDX 1 1 2 2 3 3 4 4 6 5 8 6 10 7 9 8 7 9 11 10 5 12
REMARK H PARENT 11 11 5 13
REMARK Flexibility Score: inf
ROOT
ATOM      1  C   UNL     1      22.057  44.503  44.126  1.00  0.00     0.048 C 
ATOM      2  C   UNL     1      21.226  45.744  43.934  1.00  0.00    -0.005 A 
ATOM      3  C   UNL     1      21.621  46.932  44.556  1.00  0.00     0.053 A 
ATOM      4  C   UNL     1      20.889  48.108  44.397  1.00  0.00     0.119 A 
ATOM      5  C   UNL     1      19.736  48.121  43.577  1.00  0.00    -0.003 A 
ATOM      6  C   UNL     1      19.289  46.904  42.991  1.00  0.00    -0.002 A 
ATOM      7  C   UNL     1      20.053  45.725  43.152  1.00  0.00     0.121 A 
ATOM      8  C   UNL     1      18.016  46.859  42.175  1.00  0.00     0.049 C 
ATOM      9  C   UNL     1      18.992  49.422  43.369  1.00  0.00     0.049 C 
ENDROOT
BRANCH   7  10
ATOM     10  O   UNL     1      19.629  44.547  42.526  1.00  0.00    -0.507 OA
ATOM     11  H   UNL     1      19.322  43.726  43.030  1.00  0.00     0.293 HD
ENDBRANCH   7  10
BRANCH   4  12
ATOM     12  O   UNL     1      21.334  49.244  45.077  1.00  0.00    -0.508 OA
ATOM     13  H   UNL     1      21.165  50.191  44.759  1.00  0.00     0.293 HD
ENDBRANCH   4  12
TORSDOF 2
ENDMDL
MODEL 2
REMARK VINA RESULT:    -4.577      1.155      4.524
REMARK INTER + INTRA:          -4.845
REMARK INTER:                  -4.845
REMARK INTRA:                   0.000
REMARK UNBOUND:                 0.000
REMARK SMILES Cc1cc(O)c(C)c(C)c1O
REMARK SMILES IDX 1 1 2 2 3 3 4 4 6 5 8 6 10 7 9 8 7 9 11 10 5 12
REMARK H PARENT 11 11 5 13
REMARK Flexibility Score: inf
ROOT
ATOM      1  C   UNL     1      17.333  49.937  42.858  1.00  0.00     0.048 C 
ATOM      2  C   UNL     1      18.402  48.911  43.123  1.00  0.00    -0.005 A 
ATOM      3  C   UNL     1      18.197  47.590  42.716  1.00  0.00     0.053 A 
ATOM      4  C   UNL     1      19.165  46.609  42.932  1.00  0.00     0.119 A 
ATOM      5  C   UNL     1      20.391  46.946  43.551  1.00  0.00    -0.003 A 
ATOM      6  C   UNL     1      20.585  48.272  44.027  1.00  0.00    -0.002 A 
ATOM      7  C   UNL     1      19.598  49.257  43.786  1.00  0.00     0.121 A 
ATOM      8  C   UNL     1      21.849  48.653  44.767  1.00  0.00     0.049 C 
ATOM      9  C   UNL     1      21.451  45.880  43.719  1.00  0.00     0.049 C 
ENDROOT
BRANCH   7  10
ATOM     10  O   UNL     1      19.826  50.570  44.213  1.00  0.00    -0.507 OA
ATOM     11  H   UNL     1      19.086  51.226  44.421  1.00  0.00     0.293 HD
ENDBRANCH   7  10
BRANCH   4  12
ATOM     12  O   UNL     1      18.868  45.307  42.522  1.00  0.00    -0.508 OA
ATOM     13  H   UNL     1      18.016  45.050  42.040  1.00  0.00     0.293 HD
ENDBRANCH   4  12
TORSDOF 2
ENDMDL
MODEL 3
REMARK VINA RESULT:    -4.549      1.335      3.489
REMARK INTER + INTRA:          -4.814
REMARK INTER:                  -4.814
REMARK INTRA:                   0.000
REMARK UNBOUND:                 0.000
REMARK SMILES Cc1cc(O)c(C)c(C)c1O
REMARK SMILES IDX 1 1 2 2 3 3 4 4 6 5 8 6 10 7 9 8 7 9 11 10 5 12
REMARK H PARENT 11 11 5 13
REMARK Flexibility Score: inf
ROOT
ATOM      1  C   UNL     1      22.265  49.270  45.220  1.00  0.00     0.048 C 
ATOM      2  C   UNL     1      21.173  48.595  44.433  1.00  0.00    -0.005 A 
ATOM      3  C   UNL     1      21.345  47.268  44.028  1.00  0.00     0.053 A 
ATOM      4  C   UNL     1      20.356  46.600  43.307  1.00  0.00     0.119 A 
ATOM      5  C   UNL     1      19.142  47.255  42.992  1.00  0.00    -0.003 A 
ATOM      6  C   UNL     1      18.982  48.624  43.343  1.00  0.00    -0.002 A 
ATOM      7  C   UNL     1      19.990  49.280  44.087  1.00  0.00     0.121 A 
ATOM      8  C   UNL     1      17.733  49.383  42.953  1.00  0.00     0.049 C 
ATOM      9  C   UNL     1      18.058  46.491  42.263  1.00  0.00     0.049 C 
ENDROOT
BRANCH   7  10
ATOM     10  O   UNL     1      19.797  50.612  44.472  1.00  0.00    -0.507 OA
ATOM     11  H   UNL     1      20.437  51.359  44.241  1.00  0.00     0.293 HD
ENDBRANCH   7  10
BRANCH   4  12
ATOM     12  O   UNL     1      20.618  45.285  42.914  1.00  0.00    -0.508 OA
ATOM     13  H   UNL     1      21.118  44.617  43.488  1.00  0.00     0.293 HD
ENDBRANCH   4  12
TORSDOF 2
ENDMDL
MODEL 4
REMARK VINA RESULT:    -4.543      1.975      2.828
REMARK INTER + INTRA:          -4.809
REMARK INTER:                  -4.809
REMARK INTRA:                   0.000
REMARK UNBOUND:                 0.000
REMARK SMILES Cc1cc(O)c(C)c(C)c1O
REMARK SMILES IDX 1 1 2 2 3 3 4 4 6 5 8 6 10 7 9 8 7 9 11 10 5 12
REMARK H PARENT 11 11 5 13
REMARK Flexibility Score: inf
ROOT
ATOM      1  C   UNL     1      21.392  47.168  44.507  1.00  0.00     0.048 C 
ATOM      2  C   UNL     1      20.418  48.316  44.500  1.00  0.00    -0.005 A 
ATOM      3  C   UNL     1      20.502  49.288  45.502  1.00  0.00     0.053 A 
ATOM      4  C   UNL     1      19.628  50.374  45.529  1.00  0.00     0.119 A 
ATOM      5  C   UNL     1      18.649  50.523  44.519  1.00  0.00    -0.003 A 
ATOM      6  C   UNL     1      18.513  49.508  43.532  1.00  0.00    -0.002 A 
ATOM      7  C   UNL     1      19.417  48.421  43.512  1.00  0.00     0.121 A 
ATOM      8  C   UNL     1      17.425  49.589  42.483  1.00  0.00     0.049 C 
ATOM      9  C   UNL     1      17.753  51.742  44.533  1.00  0.00     0.049 C 
ENDROOT
BRANCH   7  10
ATOM     10  O   UNL     1      19.304  47.457  42.503  1.00  0.00    -0.507 OA
ATOM     11  H   UNL     1      20.011  47.304  41.796  1.00  0.00     0.293 HD
ENDBRANCH   7  10
BRANCH   4  12
ATOM     12  O   UNL     1      19.760  51.284  46.581  1.00  0.00    -0.508 OA
ATOM     13  H   UNL     1      19.188  51.263  47.416  1.00  0.00     0.293 HD
ENDBRANCH   4  12
TORSDOF 2
ENDMDL
MODEL 5
REMARK VINA RESULT:    -4.541      4.993      5.518
REMARK INTER + INTRA:          -4.806
REMARK INTER:                  -4.806
REMARK INTRA:                   0.000
REMARK UNBOUND:                 0.000
REMARK SMILES Cc1cc(O)c(C)c(C)c1O
REMARK SMILES IDX 1 1 2 2 3 3 4 4 6 5 8 6 10 7 9 8 7 9 11 10 5 12
REMARK H PARENT 11 11 5 13
REMARK Flexibility Score: inf
ROOT
ATOM      1  C   UNL     1      17.255  50.873  40.108  1.00  0.00     0.048 C 
ATOM      2  C   UNL     1      17.051  50.585  41.572  1.00  0.00    -0.005 A 
ATOM      3  C   UNL     1      18.008  51.021  42.493  1.00  0.00     0.053 A 
ATOM      4  C   UNL     1      17.856  50.786  43.859  1.00  0.00     0.119 A 
ATOM      5  C   UNL     1      16.707  50.116  44.339  1.00  0.00    -0.003 A 
ATOM      6  C   UNL     1      15.758  49.612  43.408  1.00  0.00    -0.002 A 
ATOM      7  C   UNL     1      15.922  49.872  42.027  1.00  0.00     0.121 A 
ATOM      8  C   UNL     1      14.557  48.819  43.876  1.00  0.00     0.049 C 
ATOM      9  C   UNL     1      16.532  49.927  45.830  1.00  0.00     0.049 C 
ENDROOT
BRANCH   7  10
ATOM     10  O   UNL     1      14.953  49.416  41.126  1.00  0.00    -0.507 OA
ATOM     11  H   UNL     1      13.998  49.748  41.117  1.00  0.00     0.293 HD
ENDBRANCH   7  10
BRANCH   4  12
ATOM     12  O   UNL     1      18.873  51.227  44.709  1.00  0.00    -0.508 OA
ATOM     13  H   UNL     1      18.916  51.005  45.695  1.00  0.00     0.293 HD
ENDBRANCH   4  12
TORSDOF 2
ENDMDL
MODEL 6
REMARK VINA RESULT:    -4.521      2.067      3.092
REMARK INTER + INTRA:          -4.785
REMARK INTER:                  -4.785
REMARK INTRA:                   0.000
REMARK UNBOUND:                 0.000
REMARK SMILES Cc1cc(O)c(C)c(C)c1O
REMARK SMILES IDX 1 1 2 2 3 3 4 4 6 5 8 6 10 7 9 8 7 9 11 10 5 12
REMARK H PARENT 11 11 5 13
REMARK Flexibility Score: inf
ROOT
ATOM      1  C   UNL     1      19.884  46.224  42.574  1.00  0.00     0.048 C 
ATOM      2  C   UNL     1      20.365  47.202  43.613  1.00  0.00    -0.005 A 
ATOM      3  C   UNL     1      21.397  48.088  43.291  1.00  0.00     0.053 A 
ATOM      4  C   UNL     1      21.866  49.018  44.218  1.00  0.00     0.119 A 
ATOM      5  C   UNL     1      21.282  49.094  45.504  1.00  0.00    -0.003 A 
ATOM      6  C   UNL     1      20.276  48.156  45.865  1.00  0.00    -0.002 A 
ATOM      7  C   UNL     1      19.803  47.230  44.907  1.00  0.00     0.121 A 
ATOM      8  C   UNL     1      19.683  48.152  47.257  1.00  0.00     0.049 C 
ATOM      9  C   UNL     1      21.764  50.152  46.473  1.00  0.00     0.049 C 
ENDROOT
BRANCH   7  10
ATOM     10  O   UNL     1      18.775  46.347  45.259  1.00  0.00    -0.507 OA
ATOM     11  H   UNL     1      17.882  46.312  44.785  1.00  0.00     0.293 HD
ENDBRANCH   7  10
BRANCH   4  12
ATOM     12  O   UNL     1      22.920  49.846  43.827  1.00  0.00    -0.508 OA
ATOM     13  H   UNL     1      23.441  49.724  42.967  1.00  0.00     0.293 HD
ENDBRANCH   4  12
TORSDOF 2
ENDMDL
MODEL 7
REMARK VINA RESULT:    -4.493      1.031      3.020
REMARK INTER + INTRA:          -4.755
REMARK INTER:                  -4.755
REMARK INTRA:                   0.000
REMARK UNBOUND:                 0.000
REMARK SMILES Cc1cc(O)c(C)c(C)c1O
REMARK SMILES IDX 1 1 2 2 3 3 4 4 6 5 8 6 10 7 9 8 7 9 11 10 5 12
REMARK H PARENT 11 11 5 13
REMARK Flexibility Score: inf
ROOT
ATOM      1  C   UNL     1      17.184  46.733  41.837  1.00  0.00     0.048 C 
ATOM      2  C   UNL     1      18.425  47.136  42.588  1.00  0.00    -0.005 A 
ATOM      3  C   UNL     1      18.572  48.463  43.001  1.00  0.00     0.053 A 
ATOM      4  C   UNL     1      19.700  48.878  43.708  1.00  0.00     0.119 A 
ATOM      5  C   UNL     1      20.711  47.947  44.042  1.00  0.00    -0.003 A 
ATOM      6  C   UNL     1      20.602  46.608  43.573  1.00  0.00    -0.002 A 
ATOM      7  C   UNL     1      19.444  46.203  42.869  1.00  0.00     0.121 A 
ATOM      8  C   UNL     1      21.700  45.602  43.840  1.00  0.00     0.049 C 
ATOM      9  C   UNL     1      21.895  48.406  44.864  1.00  0.00     0.049 C 
ENDROOT
BRANCH   7  10
ATOM     10  O   UNL     1      19.327  44.869  42.460  1.00  0.00    -0.507 OA
ATOM     11  H   UNL     1      18.801  44.172  42.970  1.00  0.00     0.293 HD
ENDBRANCH   7  10
BRANCH   4  12
ATOM     12  O   UNL     1      19.784  50.228  44.057  1.00  0.00    -0.508 OA
ATOM     13  H   UNL     1      19.502  50.984  43.445  1.00  0.00     0.293 HD
ENDBRANCH   4  12
TORSDOF 2
ENDMDL
MODEL 8
REMARK VINA RESULT:    -4.469      2.160      5.123
REMARK INTER + INTRA:          -4.730
REMARK INTER:                  -4.730
REMARK INTRA:                   0.000
REMARK UNBOUND:                 0.000
REMARK SMILES Cc1cc(O)c(C)c(C)c1O
REMARK SMILES IDX 1 1 2 2 3 3 4 4 6 5 8 6 10 7 9 8 7 9 11 10 5 12
REMARK H PARENT 11 11 5 13
REMARK Flexibility Score: inf
ROOT
ATOM      1  C   UNL     1      16.896  51.236  44.871  1.00  0.00     0.048 C 
ATOM      2  C   UNL     1      18.035  50.316  44.519  1.00  0.00    -0.005 A 
ATOM      3  C   UNL     1      17.839  49.326  43.553  1.00  0.00     0.053 A 
ATOM      4  C   UNL     1      18.869  48.459  43.188  1.00  0.00     0.119 A 
ATOM      5  C   UNL     1      20.147  48.586  43.782  1.00  0.00    -0.003 A 
ATOM      6  C   UNL     1      20.340  49.548  44.812  1.00  0.00    -0.002 A 
ATOM      7  C   UNL     1      19.288  50.428  45.158  1.00  0.00     0.121 A 
ATOM      8  C   UNL     1      21.668  49.661  45.528  1.00  0.00     0.049 C 
ATOM      9  C   UNL     1      21.266  47.676  43.326  1.00  0.00     0.049 C 
ENDROOT
BRANCH   7  10
ATOM     10  O   UNL     1      19.508  51.404  46.136  1.00  0.00    -0.507 OA
ATOM     11  H   UNL     1      19.487  51.216  47.129  1.00  0.00     0.293 HD
ENDBRANCH   7  10
BRANCH   4  12
ATOM     12  O   UNL     1      18.583  47.478  42.236  1.00  0.00    -0.508 OA
ATOM     13  H   UNL     1      18.875  46.512  42.321  1.00  0.00     0.293 HD
ENDBRANCH   4  12
TORSDOF 2
ENDMDL
MODEL 9
REMARK VINA RESULT:    -4.443      2.351      4.213
REMARK INTER + INTRA:          -4.702
REMARK INTER:                  -4.702
REMARK INTRA:                   0.000
REMARK UNBOUND:                 0.000
REMARK SMILES Cc1cc(O)c(C)c(C)c1O
REMARK SMILES IDX 1 1 2 2 3 3 4 4 6 5 8 6 10 7 9 8 7 9 11 10 5 12
REMARK H PARENT 11 11 5 13
REMARK Flexibility Score: inf
ROOT
ATOM      1  C   UNL     1      16.315  49.779  43.030  1.00  0.00     0.048 C 
ATOM      2  C   UNL     1      17.693  49.766  43.635  1.00  0.00    -0.005 A 
ATOM      3  C   UNL     1      18.019  50.713  44.610  1.00  0.00     0.053 A 
ATOM      4  C   UNL     1      19.280  50.732  45.205  1.00  0.00     0.119 A 
ATOM      5  C   UNL     1      20.250  49.768  44.844  1.00  0.00    -0.003 A 
ATOM      6  C   UNL     1      19.952  48.839  43.808  1.00  0.00    -0.002 A 
ATOM      7  C   UNL     1      18.663  48.827  43.226  1.00  0.00     0.121 A 
ATOM      8  C   UNL     1      20.990  47.845  43.336  1.00  0.00     0.049 C 
ATOM      9  C   UNL     1      21.589  49.768  45.547  1.00  0.00     0.049 C 
ENDROOT
BRANCH   7  10
ATOM     10  O   UNL     1      18.366  47.873  42.245  1.00  0.00    -0.507 OA
ATOM     11  H   UNL     1      19.058  47.262  41.832  1.00  0.00     0.293 HD
ENDBRANCH   7  10
BRANCH   4  12
ATOM     12  O   UNL     1      19.535  51.730  46.149  1.00  0.00    -0.508 OA
ATOM     13  H   UNL     1      18.910  52.506  46.328  1.00  0.00     0.293 HD
ENDBRANCH   4  12
TORSDOF 2
ENDMDL
