MODEL 1
REMARK VINA RESULT:    -3.550      0.000      0.000
REMARK INTER + INTRA:         -12.792
REMARK INTER:                  -8.115
REMARK INTRA:                  -4.677
REMARK UNBOUND:                -4.677
REMARK SMILES CCCCCCCCCCCCCCCCCCCCCCCC(=O)[O-]
REMARK SMILES IDX 13 1 14 2 15 3 16 4 17 5 18 6 19 7 20 8 21 9 22 10 23 11
REMARK SMILES IDX 24 12 25 13 26 14 12 15 11 16 10 17 9 18 8 19 7 20 6 21 5 22
REMARK SMILES IDX 4 23 3 24 2 25 1 26
REMARK H PARENT
REMARK Flexibility Score: inf
ROOT
ATOM      1  C   UNL     1     161.334 175.649 185.074  1.00  0.00     0.000 C 
ENDROOT
BRANCH   1   2
ATOM      2  C   UNL     1     160.599 176.997 184.959  1.00  0.00     0.000 C 
BRANCH   2   3
ATOM      3  C   UNL     1     160.705 177.907 186.200  1.00  0.00     0.000 C 
BRANCH   3   4
ATOM      4  C   UNL     1     160.946 177.174 187.533  1.00  0.00     0.000 C 
BRANCH   4   5
ATOM      5  C   UNL     1     162.235 177.627 188.237  1.00  0.00     0.000 C 
BRANCH   5   6
ATOM      6  C   UNL     1     163.500 177.258 187.445  1.00  0.00     0.000 C 
BRANCH   6   7
ATOM      7  C   UNL     1     164.186 178.485 186.821  1.00  0.00     0.000 C 
BRANCH   7   8
ATOM      8  C   UNL     1     164.993 178.139 185.556  1.00  0.00     0.000 C 
BRANCH   8   9
ATOM      9  C   UNL     1     164.462 176.939 184.744  1.00  0.00     0.000 C 
BRANCH   9  10
ATOM     10  C   UNL     1     164.889 176.910 183.266  1.00  0.00     0.006 C 
BRANCH  10  11
ATOM     11  C   UNL     1     163.754 176.490 182.325  1.00  0.00     0.053 C 
BRANCH  11  12
ATOM     12  C   UNL     1     162.847 177.647 182.050  1.00  0.00     0.041 C 
ATOM     13  O   UNL     1     163.281 178.826 182.138  1.00  0.00    -0.550 OA
ATOM     14  O   UNL     1     161.534 177.424 181.656  1.00  0.00    -0.550 OA
ENDBRANCH  11  12
ENDBRANCH  10  11
ENDBRANCH   9  10
ENDBRANCH   8   9
ENDBRANCH   7   8
ENDBRANCH   6   7
ENDBRANCH   5   6
ENDBRANCH   4   5
ENDBRANCH   3   4
ENDBRANCH   2   3
ENDBRANCH   1   2
BRANCH   1  15
ATOM     15  C   UNL     1     160.625 174.517 184.314  1.00  0.00     0.000 C 
BRANCH  15  16
ATOM     16  C   UNL     1     160.124 173.396 185.242  1.00  0.00     0.000 C 
BRANCH  16  17
ATOM     17  C   UNL     1     160.093 173.759 186.741  1.00  0.00     0.000 C 
BRANCH  17  18
ATOM     18  C   UNL     1     161.119 173.012 187.618  1.00  0.00    -0.000 C 
BRANCH  18  19
ATOM     19  C   UNL     1     162.489 173.702 187.744  1.00  0.00    -0.000 C 
BRANCH  19  20
ATOM     20  C   UNL     1     163.635 172.863 187.153  1.00  0.00    -0.000 C 
BRANCH  20  21
ATOM     21  C   UNL     1     164.071 173.359 185.766  1.00  0.00    -0.000 C 
BRANCH  21  22
ATOM     22  C   UNL     1     163.716 172.369 184.646  1.00  0.00    -0.000 C 
BRANCH  22  23
ATOM     23  C   UNL     1     163.252 171.028 185.225  1.00  0.00    -0.000 C 
BRANCH  23  24
ATOM     24  C   UNL     1     162.030 170.492 184.464  1.00  0.00    -0.000 C 
BRANCH  24  25
ATOM     25  C   UNL     1     161.057 169.728 185.373  1.00  0.00    -0.003 C 
ATOM     26  C   UNL     1     161.575 169.585 186.805  1.00  0.00     0.004 C 
ENDBRANCH  24  25
ENDBRANCH  23  24
ENDBRANCH  22  23
ENDBRANCH  21  22
ENDBRANCH  20  21
ENDBRANCH  19  20
ENDBRANCH  18  19
ENDBRANCH  17  18
ENDBRANCH  16  17
ENDBRANCH  15  16
ENDBRANCH   1  15
TORSDOF 22
ENDMDL
MODEL 2
REMARK VINA RESULT:    -3.517      6.616      8.801
REMARK INTER + INTRA:         -12.716
REMARK INTER:                 -10.136
REMARK INTRA:                  -2.580
REMARK UNBOUND:                -4.677
REMARK SMILES CCCCCCCCCCCCCCCCCCCCCCCC(=O)[O-]
REMARK SMILES IDX 13 1 14 2 15 3 16 4 17 5 18 6 19 7 20 8 21 9 22 10 23 11
REMARK SMILES IDX 24 12 25 13 26 14 12 15 11 16 10 17 9 18 8 19 7 20 6 21 5 22
REMARK SMILES IDX 4 23 3 24 2 25 1 26
REMARK H PARENT
REMARK Flexibility Score: inf
ROOT
ATOM      1  C   UNL     1     166.955 176.555 186.371  1.00  0.00     0.000 C 
ENDROOT
BRANCH   1   2
ATOM      2  C   UNL     1     168.122 176.599 187.374  1.00  0.00     0.000 C 
BRANCH   2   3
ATOM      3  C   UNL     1     168.180 177.866 188.253  1.00  0.00     0.000 C 
BRANCH   3   4
ATOM      4  C   UNL     1     169.367 178.806 187.972  1.00  0.00     0.000 C 
BRANCH   4   5
ATOM      5  C   UNL     1     170.193 178.375 186.749  1.00  0.00     0.000 C 
BRANCH   5   6
ATOM      6  C   UNL     1     171.287 179.394 186.388  1.00  0.00     0.000 C 
BRANCH   6   7
ATOM      7  C   UNL     1     172.279 179.630 187.540  1.00  0.00     0.000 C 
BRANCH   7   8
ATOM      8  C   UNL     1     173.325 178.507 187.665  1.00  0.00     0.000 C 
BRANCH   8   9
ATOM      9  C   UNL     1     174.642 178.909 188.361  1.00  0.00     0.000 C 
BRANCH   9  10
ATOM     10  C   UNL     1     175.919 178.661 187.539  1.00  0.00     0.006 C 
BRANCH  10  11
ATOM     11  C   UNL     1     175.648 178.559 186.033  1.00  0.00     0.053 C 
BRANCH  11  12
ATOM     12  C   UNL     1     176.360 177.378 185.453  1.00  0.00     0.041 C 
ATOM     13  O   UNL     1     177.172 176.722 186.155  1.00  0.00    -0.550 OA
ATOM     14  O   UNL     1     176.094 176.977 184.150  1.00  0.00    -0.550 OA
ENDBRANCH  11  12
ENDBRANCH  10  11
ENDBRANCH   9  10
ENDBRANCH   8   9
ENDBRANCH   7   8
ENDBRANCH   6   7
ENDBRANCH   5   6
ENDBRANCH   4   5
ENDBRANCH   3   4
ENDBRANCH   2   3
ENDBRANCH   1   2
BRANCH   1  15
ATOM     15  C   UNL     1     166.170 177.875 186.313  1.00  0.00     0.000 C 
BRANCH  15  16
ATOM     16  C   UNL     1     164.719 177.730 186.804  1.00  0.00     0.000 C 
BRANCH  16  17
ATOM     17  C   UNL     1     164.291 176.288 187.150  1.00  0.00     0.000 C 
BRANCH  17  18
ATOM     18  C   UNL     1     162.896 176.154 187.793  1.00  0.00    -0.000 C 
BRANCH  18  19
ATOM     19  C   UNL     1     162.289 177.472 188.306  1.00  0.00    -0.000 C 
BRANCH  19  20
ATOM     20  C   UNL     1     160.925 177.788 187.666  1.00  0.00    -0.000 C 
BRANCH  20  21
ATOM     21  C   UNL     1     160.705 177.030 186.348  1.00  0.00    -0.000 C 
BRANCH  21  22
ATOM     22  C   UNL     1     160.536 177.972 185.146  1.00  0.00    -0.000 C 
BRANCH  22  23
ATOM     23  C   UNL     1     161.018 177.303 183.853  1.00  0.00    -0.000 C 
BRANCH  23  24
ATOM     24  C   UNL     1     162.050 176.205 184.152  1.00  0.00    -0.000 C 
BRANCH  24  25
ATOM     25  C   UNL     1     163.417 176.490 183.512  1.00  0.00    -0.003 C 
ATOM     26  C   UNL     1     163.607 177.966 183.158  1.00  0.00     0.004 C 
ENDBRANCH  24  25
ENDBRANCH  23  24
ENDBRANCH  22  23
ENDBRANCH  21  22
ENDBRANCH  20  21
ENDBRANCH  19  20
ENDBRANCH  18  19
ENDBRANCH  17  18
ENDBRANCH  16  17
ENDBRANCH  15  16
ENDBRANCH   1  15
TORSDOF 22
ENDMDL
MODEL 3
REMARK VINA RESULT:    -3.508      2.773      5.514
REMARK INTER + INTRA:         -12.697
REMARK INTER:                  -8.111
REMARK INTRA:                  -4.586
REMARK UNBOUND:                -4.677
REMARK SMILES CCCCCCCCCCCCCCCCCCCCCCCC(=O)[O-]
REMARK SMILES IDX 13 1 14 2 15 3 16 4 17 5 18 6 19 7 20 8 21 9 22 10 23 11
REMARK SMILES IDX 24 12 25 13 26 14 12 15 11 16 10 17 9 18 8 19 7 20 6 21 5 22
REMARK SMILES IDX 4 23 3 24 2 25 1 26
REMARK H PARENT
REMARK Flexibility Score: inf
ROOT
ATOM      1  C   UNL     1     163.579 176.442 184.111  1.00  0.00     0.000 C 
ENDROOT
BRANCH   1   2
ATOM      2  C   UNL     1     164.351 176.821 185.388  1.00  0.00     0.000 C 
BRANCH   2   3
ATOM      3  C   UNL     1     164.295 178.317 185.765  1.00  0.00     0.000 C 
BRANCH   3   4
ATOM      4  C   UNL     1     163.802 178.616 187.193  1.00  0.00     0.000 C 
BRANCH   4   5
ATOM      5  C   UNL     1     163.103 177.413 187.846  1.00  0.00     0.000 C 
BRANCH   5   6
ATOM      6  C   UNL     1     161.638 177.710 188.210  1.00  0.00     0.000 C 
BRANCH   6   7
ATOM      7  C   UNL     1     160.691 177.579 187.005  1.00  0.00     0.000 C 
BRANCH   7   8
ATOM      8  C   UNL     1     160.645 176.149 186.436  1.00  0.00     0.000 C 
BRANCH   8   9
ATOM      9  C   UNL     1     160.350 175.039 187.467  1.00  0.00     0.000 C 
BRANCH   9  10
ATOM     10  C   UNL     1     161.040 173.692 187.191  1.00  0.00     0.006 C 
BRANCH  10  11
ATOM     11  C   UNL     1     162.465 173.851 186.646  1.00  0.00     0.053 C 
BRANCH  11  12
ATOM     12  C   UNL     1     163.469 173.574 187.720  1.00  0.00     0.041 C 
ATOM     13  O   UNL     1     163.168 172.833 188.692  1.00  0.00    -0.550 OA
ATOM     14  O   UNL     1     164.752 174.097 187.624  1.00  0.00    -0.550 OA
ENDBRANCH  11  12
ENDBRANCH  10  11
ENDBRANCH   9  10
ENDBRANCH   8   9
ENDBRANCH   7   8
ENDBRANCH   6   7
ENDBRANCH   5   6
ENDBRANCH   4   5
ENDBRANCH   3   4
ENDBRANCH   2   3
ENDBRANCH   1   2
BRANCH   1  15
ATOM     15  C   UNL     1     164.178 177.074 182.844  1.00  0.00     0.000 C 
BRANCH  15  16
ATOM     16  C   UNL     1     163.247 178.117 182.200  1.00  0.00     0.000 C 
BRANCH  16  17
ATOM     17  C   UNL     1     161.770 177.687 182.085  1.00  0.00     0.000 C 
BRANCH  17  18
ATOM     18  C   UNL     1     161.462 176.691 180.948  1.00  0.00    -0.000 C 
BRANCH  18  19
ATOM     19  C   UNL     1     160.445 175.593 181.306  1.00  0.00    -0.000 C 
BRANCH  19  20
ATOM     20  C   UNL     1     160.224 175.456 182.822  1.00  0.00    -0.000 C 
BRANCH  20  21
ATOM     21  C   UNL     1     160.390 174.010 183.313  1.00  0.00    -0.000 C 
BRANCH  21  22
ATOM     22  C   UNL     1     161.329 173.186 182.418  1.00  0.00    -0.000 C 
BRANCH  22  23
ATOM     23  C   UNL     1     162.749 173.156 182.993  1.00  0.00    -0.000 C 
BRANCH  23  24
ATOM     24  C   UNL     1     163.774 172.778 181.913  1.00  0.00    -0.000 C 
BRANCH  24  25
ATOM     25  C   UNL     1     164.169 173.973 181.031  1.00  0.00    -0.003 C 
ATOM     26  C   UNL     1     163.511 173.932 179.651  1.00  0.00     0.004 C 
ENDBRANCH  24  25
ENDBRANCH  23  24
ENDBRANCH  22  23
ENDBRANCH  21  22
ENDBRANCH  20  21
ENDBRANCH  19  20
ENDBRANCH  18  19
ENDBRANCH  17  18
ENDBRANCH  16  17
ENDBRANCH  15  16
ENDBRANCH   1  15
TORSDOF 22
ENDMDL
MODEL 4
REMARK VINA RESULT:    -3.502      1.378      3.421
REMARK INTER + INTRA:         -12.683
REMARK INTER:                  -7.762
REMARK INTRA:                  -4.921
REMARK UNBOUND:                -4.677
REMARK SMILES CCCCCCCCCCCCCCCCCCCCCCCC(=O)[O-]
REMARK SMILES IDX 13 1 14 2 15 3 16 4 17 5 18 6 19 7 20 8 21 9 22 10 23 11
REMARK SMILES IDX 24 12 25 13 26 14 12 15 11 16 10 17 9 18 8 19 7 20 6 21 5 22
REMARK SMILES IDX 4 23 3 24 2 25 1 26
REMARK H PARENT
REMARK Flexibility Score: inf
ROOT
ATOM      1  C   UNL     1     164.581 175.685 184.480  1.00  0.00     0.000 C 
ENDROOT
BRANCH   1   2
ATOM      2  C   UNL     1     165.154 177.113 184.423  1.00  0.00     0.000 C 
BRANCH   2   3
ATOM      3  C   UNL     1     164.382 178.161 185.251  1.00  0.00     0.000 C 
BRANCH   3   4
ATOM      4  C   UNL     1     164.471 177.986 186.778  1.00  0.00     0.000 C 
BRANCH   4   5
ATOM      5  C   UNL     1     163.269 178.593 187.520  1.00  0.00     0.000 C 
BRANCH   5   6
ATOM      6  C   UNL     1     162.396 177.525 188.199  1.00  0.00     0.000 C 
BRANCH   6   7
ATOM      7  C   UNL     1     160.913 177.637 187.807  1.00  0.00     0.000 C 
BRANCH   7   8
ATOM      8  C   UNL     1     160.713 178.161 186.373  1.00  0.00     0.000 C 
BRANCH   8   9
ATOM      9  C   UNL     1     160.696 177.080 185.273  1.00  0.00     0.000 C 
BRANCH   9  10
ATOM     10  C   UNL     1     160.569 177.614 183.835  1.00  0.00     0.006 C 
BRANCH  10  11
ATOM     11  C   UNL     1     161.515 176.911 182.853  1.00  0.00     0.053 C 
BRANCH  11  12
ATOM     12  C   UNL     1     162.032 177.883 181.839  1.00  0.00     0.041 C 
ATOM     13  O   UNL     1     162.920 178.716 182.158  1.00  0.00    -0.550 OA
ATOM     14  O   UNL     1     161.566 177.839 180.532  1.00  0.00    -0.550 OA
ENDBRANCH  11  12
ENDBRANCH  10  11
ENDBRANCH   9  10
ENDBRANCH   8   9
ENDBRANCH   7   8
ENDBRANCH   6   7
ENDBRANCH   5   6
ENDBRANCH   4   5
ENDBRANCH   3   4
ENDBRANCH   2   3
ENDBRANCH   1   2
BRANCH   1  15
ATOM     15  C   UNL     1     165.399 174.752 185.386  1.00  0.00     0.000 C 
BRANCH  15  16
ATOM     16  C   UNL     1     164.573 174.169 186.547  1.00  0.00     0.000 C 
BRANCH  16  17
ATOM     17  C   UNL     1     163.065 174.494 186.498  1.00  0.00     0.000 C 
BRANCH  17  18
ATOM     18  C   UNL     1     162.192 173.710 187.499  1.00  0.00    -0.000 C 
BRANCH  18  19
ATOM     19  C   UNL     1     160.693 174.059 187.463  1.00  0.00    -0.000 C 
BRANCH  19  20
ATOM     20  C   UNL     1     159.982 173.506 186.216  1.00  0.00    -0.000 C 
BRANCH  20  21
ATOM     21  C   UNL     1     160.507 172.121 185.806  1.00  0.00    -0.000 C 
BRANCH  21  22
ATOM     22  C   UNL     1     160.564 171.937 184.282  1.00  0.00    -0.000 C 
BRANCH  22  23
ATOM     23  C   UNL     1     160.860 173.266 183.580  1.00  0.00    -0.000 C 
BRANCH  23  24
ATOM     24  C   UNL     1     162.298 173.296 183.040  1.00  0.00    -0.000 C 
BRANCH  24  25
ATOM     25  C   UNL     1     163.134 172.100 183.523  1.00  0.00    -0.003 C 
ATOM     26  C   UNL     1     164.553 172.102 182.952  1.00  0.00     0.004 C 
ENDBRANCH  24  25
ENDBRANCH  23  24
ENDBRANCH  22  23
ENDBRANCH  21  22
ENDBRANCH  20  21
ENDBRANCH  19  20
ENDBRANCH  18  19
ENDBRANCH  17  18
ENDBRANCH  16  17
ENDBRANCH  15  16
ENDBRANCH   1  15
TORSDOF 22
ENDMDL
MODEL 5
REMARK VINA RESULT:    -3.474      3.622      6.795
REMARK INTER + INTRA:         -12.619
REMARK INTER:                  -8.576
REMARK INTRA:                  -4.042
REMARK UNBOUND:                -4.677
REMARK SMILES CCCCCCCCCCCCCCCCCCCCCCCC(=O)[O-]
REMARK SMILES IDX 13 1 14 2 15 3 16 4 17 5 18 6 19 7 20 8 21 9 22 10 23 11
REMARK SMILES IDX 24 12 25 13 26 14 12 15 11 16 10 17 9 18 8 19 7 20 6 21 5 22
REMARK SMILES IDX 4 23 3 24 2 25 1 26
REMARK H PARENT
REMARK Flexibility Score: inf
ROOT
ATOM      1  C   UNL     1     164.587 175.509 185.329  1.00  0.00     0.000 C 
ENDROOT
BRANCH   1   2
ATOM      2  C   UNL     1     164.884 175.113 186.786  1.00  0.00     0.000 C 
BRANCH   2   3
ATOM      3  C   UNL     1     163.741 174.369 187.507  1.00  0.00     0.000 C 
BRANCH   3   4
ATOM      4  C   UNL     1     162.480 174.123 186.658  1.00  0.00     0.000 C 
BRANCH   4   5
ATOM      5  C   UNL     1     161.179 174.332 187.449  1.00  0.00     0.000 C 
BRANCH   5   6
ATOM      6  C   UNL     1     160.125 173.254 187.146  1.00  0.00     0.000 C 
BRANCH   6   7
ATOM      7  C   UNL     1     160.726 171.838 187.097  1.00  0.00     0.000 C 
BRANCH   7   8
ATOM      8  C   UNL     1     160.754 171.154 188.476  1.00  0.00     0.000 C 
BRANCH   8   9
ATOM      9  C   UNL     1     162.152 171.023 189.117  1.00  0.00     0.000 C 
BRANCH   9  10
ATOM     10  C   UNL     1     163.322 170.944 188.121  1.00  0.00     0.006 C 
BRANCH  10  11
ATOM     11  C   UNL     1     164.069 169.606 188.183  1.00  0.00     0.053 C 
BRANCH  11  12
ATOM     12  C   UNL     1     165.377 169.770 188.891  1.00  0.00     0.041 C 
ATOM     13  O   UNL     1     166.144 168.783 189.039  1.00  0.00    -0.550 OA
ATOM     14  O   UNL     1     165.768 171.022 189.349  1.00  0.00    -0.550 OA
ENDBRANCH  11  12
ENDBRANCH  10  11
ENDBRANCH   9  10
ENDBRANCH   8   9
ENDBRANCH   7   8
ENDBRANCH   6   7
ENDBRANCH   5   6
ENDBRANCH   4   5
ENDBRANCH   3   4
ENDBRANCH   2   3
ENDBRANCH   1   2
BRANCH   1  15
ATOM     15  C   UNL     1     164.234 176.998 185.177  1.00  0.00     0.000 C 
BRANCH  15  16
ATOM     16  C   UNL     1     164.617 177.832 186.414  1.00  0.00     0.000 C 
BRANCH  16  17
ATOM     17  C   UNL     1     163.449 178.603 187.063  1.00  0.00     0.000 C 
BRANCH  17  18
ATOM     18  C   UNL     1     162.571 177.776 188.024  1.00  0.00    -0.000 C 
BRANCH  18  19
ATOM     19  C   UNL     1     161.054 177.957 187.834  1.00  0.00    -0.000 C 
BRANCH  19  20
ATOM     20  C   UNL     1     160.678 178.348 186.394  1.00  0.00    -0.000 C 
BRANCH  20  21
ATOM     21  C   UNL     1     160.598 177.132 185.457  1.00  0.00    -0.000 C 
BRANCH  21  22
ATOM     22  C   UNL     1     160.457 177.532 183.981  1.00  0.00    -0.000 C 
BRANCH  22  23
ATOM     23  C   UNL     1     160.847 176.371 183.059  1.00  0.00    -0.000 C 
BRANCH  23  24
ATOM     24  C   UNL     1     160.561 175.018 183.726  1.00  0.00    -0.000 C 
BRANCH  24  25
ATOM     25  C   UNL     1     161.098 173.832 182.909  1.00  0.00    -0.003 C 
ATOM     26  C   UNL     1     162.626 173.790 182.864  1.00  0.00     0.004 C 
ENDBRANCH  24  25
ENDBRANCH  23  24
ENDBRANCH  22  23
ENDBRANCH  21  22
ENDBRANCH  20  21
ENDBRANCH  19  20
ENDBRANCH  18  19
ENDBRANCH  17  18
ENDBRANCH  16  17
ENDBRANCH  15  16
ENDBRANCH   1  15
TORSDOF 22
ENDMDL
MODEL 6
REMARK VINA RESULT:    -3.454      1.663      3.612
REMARK INTER + INTRA:         -12.574
REMARK INTER:                  -8.036
REMARK INTRA:                  -4.538
REMARK UNBOUND:                -4.677
REMARK SMILES CCCCCCCCCCCCCCCCCCCCCCCC(=O)[O-]
REMARK SMILES IDX 13 1 14 2 15 3 16 4 17 5 18 6 19 7 20 8 21 9 22 10 23 11
REMARK SMILES IDX 24 12 25 13 26 14 12 15 11 16 10 17 9 18 8 19 7 20 6 21 5 22
REMARK SMILES IDX 4 23 3 24 2 25 1 26
REMARK H PARENT
REMARK Flexibility Score: inf
ROOT
ATOM      1  C   UNL     1     161.250 175.153 185.045  1.00  0.00     0.000 C 
ENDROOT
BRANCH   1   2
ATOM      2  C   UNL     1     160.642 176.540 184.770  1.00  0.00     0.000 C 
BRANCH   2   3
ATOM      3  C   UNL     1     160.730 177.537 185.945  1.00  0.00     0.000 C 
BRANCH   3   4
ATOM      4  C   UNL     1     160.942 176.900 187.331  1.00  0.00     0.000 C 
BRANCH   4   5
ATOM      5  C   UNL     1     162.101 177.541 188.111  1.00  0.00     0.000 C 
BRANCH   5   6
ATOM      6  C   UNL     1     163.472 177.237 187.484  1.00  0.00     0.000 C 
BRANCH   6   7
ATOM      7  C   UNL     1     164.165 178.497 186.937  1.00  0.00     0.000 C 
BRANCH   7   8
ATOM      8  C   UNL     1     164.897 178.245 185.607  1.00  0.00     0.000 C 
BRANCH   8   9
ATOM      9  C   UNL     1     164.229 177.216 184.671  1.00  0.00     0.000 C 
BRANCH   9  10
ATOM     10  C   UNL     1     164.478 177.440 183.169  1.00  0.00     0.006 C 
BRANCH  10  11
ATOM     11  C   UNL     1     163.226 177.914 182.421  1.00  0.00     0.053 C 
BRANCH  11  12
ATOM     12  C   UNL     1     162.739 176.850 181.489  1.00  0.00     0.041 C 
ATOM     13  O   UNL     1     162.726 175.646 181.857  1.00  0.00    -0.550 OA
ATOM     14  O   UNL     1     162.260 177.193 180.232  1.00  0.00    -0.550 OA
ENDBRANCH  11  12
ENDBRANCH  10  11
ENDBRANCH   9  10
ENDBRANCH   8   9
ENDBRANCH   7   8
ENDBRANCH   6   7
ENDBRANCH   5   6
ENDBRANCH   4   5
ENDBRANCH   3   4
ENDBRANCH   2   3
ENDBRANCH   1   2
BRANCH   1  15
ATOM     15  C   UNL     1     160.329 174.003 184.606  1.00  0.00     0.000 C 
BRANCH  15  16
ATOM     16  C   UNL     1     160.342 172.818 185.589  1.00  0.00     0.000 C 
BRANCH  16  17
ATOM     17  C   UNL     1     160.505 173.207 187.073  1.00  0.00     0.000 C 
BRANCH  17  18
ATOM     18  C   UNL     1     161.757 172.636 187.768  1.00  0.00    -0.000 C 
BRANCH  18  19
ATOM     19  C   UNL     1     162.893 173.650 187.994  1.00  0.00    -0.000 C 
BRANCH  19  20
ATOM     20  C   UNL     1     164.237 173.180 187.410  1.00  0.00    -0.000 C 
BRANCH  20  21
ATOM     21  C   UNL     1     164.466 173.690 185.980  1.00  0.00    -0.000 C 
BRANCH  21  22
ATOM     22  C   UNL     1     165.885 174.239 185.768  1.00  0.00    -0.000 C 
BRANCH  22  23
ATOM     23  C   UNL     1     166.369 175.001 187.006  1.00  0.00    -0.000 C 
BRANCH  23  24
ATOM     24  C   UNL     1     167.553 175.917 186.661  1.00  0.00    -0.000 C 
BRANCH  24  25
ATOM     25  C   UNL     1     168.185 176.559 187.906  1.00  0.00    -0.003 C 
ATOM     26  C   UNL     1     167.785 178.024 188.083  1.00  0.00     0.004 C 
ENDBRANCH  24  25
ENDBRANCH  23  24
ENDBRANCH  22  23
ENDBRANCH  21  22
ENDBRANCH  20  21
ENDBRANCH  19  20
ENDBRANCH  18  19
ENDBRANCH  17  18
ENDBRANCH  16  17
ENDBRANCH  15  16
ENDBRANCH   1  15
TORSDOF 22
ENDMDL
MODEL 7
REMARK VINA RESULT:    -3.434      2.498      3.702
REMARK INTER + INTRA:         -12.528
REMARK INTER:                  -8.783
REMARK INTRA:                  -3.745
REMARK UNBOUND:                -4.677
REMARK SMILES CCCCCCCCCCCCCCCCCCCCCCCC(=O)[O-]
REMARK SMILES IDX 13 1 14 2 15 3 16 4 17 5 18 6 19 7 20 8 21 9 22 10 23 11
REMARK SMILES IDX 24 12 25 13 26 14 12 15 11 16 10 17 9 18 8 19 7 20 6 21 5 22
REMARK SMILES IDX 4 23 3 24 2 25 1 26
REMARK H PARENT
REMARK Flexibility Score: inf
ROOT
ATOM      1  C   UNL     1     162.334 175.925 184.231  1.00  0.00     0.000 C 
ENDROOT
BRANCH   1   2
ATOM      2  C   UNL     1     161.712 177.328 184.347  1.00  0.00     0.000 C 
BRANCH   2   3
ATOM      3  C   UNL     1     160.481 177.423 185.273  1.00  0.00     0.000 C 
BRANCH   3   4
ATOM      4  C   UNL     1     160.698 178.220 186.573  1.00  0.00     0.000 C 
BRANCH   4   5
ATOM      5  C   UNL     1     161.110 177.330 187.756  1.00  0.00     0.000 C 
BRANCH   5   6
ATOM      6  C   UNL     1     162.629 177.335 187.996  1.00  0.00     0.000 C 
BRANCH   6   7
ATOM      7  C   UNL     1     163.318 178.571 187.394  1.00  0.00     0.000 C 
BRANCH   7   8
ATOM      8  C   UNL     1     164.688 178.246 186.770  1.00  0.00     0.000 C 
BRANCH   8   9
ATOM      9  C   UNL     1     165.036 176.745 186.692  1.00  0.00     0.000 C 
BRANCH   9  10
ATOM     10  C   UNL     1     166.537 176.417 186.784  1.00  0.00     0.006 C 
BRANCH  10  11
ATOM     11  C   UNL     1     167.331 177.470 187.566  1.00  0.00     0.053 C 
BRANCH  11  12
ATOM     12  C   UNL     1     168.316 178.153 186.671  1.00  0.00     0.041 C 
ATOM     13  O   UNL     1     167.995 178.458 185.493  1.00  0.00    -0.550 OA
ATOM     14  O   UNL     1     169.574 178.493 187.153  1.00  0.00    -0.550 OA
ENDBRANCH  11  12
ENDBRANCH  10  11
ENDBRANCH   9  10
ENDBRANCH   8   9
ENDBRANCH   7   8
ENDBRANCH   6   7
ENDBRANCH   5   6
ENDBRANCH   4   5
ENDBRANCH   3   4
ENDBRANCH   2   3
ENDBRANCH   1   2
BRANCH   1  15
ATOM     15  C   UNL     1     161.598 174.876 185.081  1.00  0.00     0.000 C 
BRANCH  15  16
ATOM     16  C   UNL     1     162.547 174.064 185.982  1.00  0.00     0.000 C 
BRANCH  16  17
ATOM     17  C   UNL     1     161.907 173.520 187.276  1.00  0.00     0.000 C 
BRANCH  17  18
ATOM     18  C   UNL     1     162.885 172.840 188.256  1.00  0.00    -0.000 C 
BRANCH  18  19
ATOM     19  C   UNL     1     162.422 171.472 188.789  1.00  0.00    -0.000 C 
BRANCH  19  20
ATOM     20  C   UNL     1     160.933 171.198 188.512  1.00  0.00    -0.000 C 
BRANCH  20  21
ATOM     21  C   UNL     1     160.724 170.114 187.444  1.00  0.00    -0.000 C 
BRANCH  21  22
ATOM     22  C   UNL     1     162.046 169.506 186.952  1.00  0.00    -0.000 C 
BRANCH  22  23
ATOM     23  C   UNL     1     162.452 170.100 185.599  1.00  0.00    -0.000 C 
BRANCH  23  24
ATOM     24  C   UNL     1     161.288 170.040 184.598  1.00  0.00    -0.000 C 
BRANCH  24  25
ATOM     25  C   UNL     1     160.933 171.419 184.022  1.00  0.00    -0.003 C 
ATOM     26  C   UNL     1     161.811 171.805 182.830  1.00  0.00     0.004 C 
ENDBRANCH  24  25
ENDBRANCH  23  24
ENDBRANCH  22  23
ENDBRANCH  21  22
ENDBRANCH  20  21
ENDBRANCH  19  20
ENDBRANCH  18  19
ENDBRANCH  17  18
ENDBRANCH  16  17
ENDBRANCH  15  16
ENDBRANCH   1  15
TORSDOF 22
ENDMDL
MODEL 8
REMARK VINA RESULT:    -3.430      6.253      9.946
REMARK INTER + INTRA:         -12.519
REMARK INTER:                  -9.799
REMARK INTRA:                  -2.720
REMARK UNBOUND:                -4.677
REMARK SMILES CCCCCCCCCCCCCCCCCCCCCCCC(=O)[O-]
REMARK SMILES IDX 13 1 14 2 15 3 16 4 17 5 18 6 19 7 20 8 21 9 22 10 23 11
REMARK SMILES IDX 24 12 25 13 26 14 12 15 11 16 10 17 9 18 8 19 7 20 6 21 5 22
REMARK SMILES IDX 4 23 3 24 2 25 1 26
REMARK H PARENT
REMARK Flexibility Score: inf
ROOT
ATOM      1  C   UNL     1     170.823 176.616 188.004  1.00  0.00     0.000 C 
ENDROOT
BRANCH   1   2
ATOM      2  C   UNL     1     169.592 177.529 188.150  1.00  0.00     0.000 C 
BRANCH   2   3
ATOM      3  C   UNL     1     168.251 176.891 187.730  1.00  0.00     0.000 C 
BRANCH   3   4
ATOM      4  C   UNL     1     167.151 177.887 187.319  1.00  0.00     0.000 C 
BRANCH   4   5
ATOM      5  C   UNL     1     166.079 177.253 186.418  1.00  0.00     0.000 C 
BRANCH   5   6
ATOM      6  C   UNL     1     165.029 178.272 185.945  1.00  0.00     0.000 C 
BRANCH   6   7
ATOM      7  C   UNL     1     164.011 178.625 187.042  1.00  0.00     0.000 C 
BRANCH   7   8
ATOM      8  C   UNL     1     163.245 177.396 187.563  1.00  0.00     0.000 C 
BRANCH   8   9
ATOM      9  C   UNL     1     161.902 177.703 188.258  1.00  0.00     0.000 C 
BRANCH   9  10
ATOM     10  C   UNL     1     160.658 177.126 187.559  1.00  0.00     0.006 C 
BRANCH  10  11
ATOM     11  C   UNL     1     160.636 175.593 187.549  1.00  0.00     0.053 C 
BRANCH  11  12
ATOM     12  C   UNL     1     160.665 175.079 186.144  1.00  0.00     0.041 C 
ATOM     13  O   UNL     1     161.018 173.894 185.911  1.00  0.00    -0.550 OA
ATOM     14  O   UNL     1     160.259 175.896 185.096  1.00  0.00    -0.550 OA
ENDBRANCH  11  12
ENDBRANCH  10  11
ENDBRANCH   9  10
ENDBRANCH   8   9
ENDBRANCH   7   8
ENDBRANCH   6   7
ENDBRANCH   5   6
ENDBRANCH   4   5
ENDBRANCH   3   4
ENDBRANCH   2   3
ENDBRANCH   1   2
BRANCH   1  15
ATOM     15  C   UNL     1     172.079 177.377 187.551  1.00  0.00     0.000 C 
BRANCH  15  16
ATOM     16  C   UNL     1     171.864 178.900 187.489  1.00  0.00     0.000 C 
BRANCH  16  17
ATOM     17  C   UNL     1     173.147 179.744 187.644  1.00  0.00     0.000 C 
BRANCH  17  18
ATOM     18  C   UNL     1     174.409 178.952 188.043  1.00  0.00    -0.000 C 
BRANCH  18  19
ATOM     19  C   UNL     1     175.627 179.169 187.127  1.00  0.00    -0.000 C 
BRANCH  19  20
ATOM     20  C   UNL     1     175.231 179.496 185.677  1.00  0.00    -0.000 C 
BRANCH  20  21
ATOM     21  C   UNL     1     175.265 178.260 184.765  1.00  0.00    -0.000 C 
BRANCH  21  22
ATOM     22  C   UNL     1     173.862 177.786 184.357  1.00  0.00    -0.000 C 
BRANCH  22  23
ATOM     23  C   UNL     1     173.214 178.771 183.378  1.00  0.00    -0.000 C 
BRANCH  23  24
ATOM     24  C   UNL     1     171.900 179.329 183.946  1.00  0.00    -0.000 C 
BRANCH  24  25
ATOM     25  C   UNL     1     170.813 178.252 184.084  1.00  0.00    -0.003 C 
ATOM     26  C   UNL     1     169.465 178.827 184.522  1.00  0.00     0.004 C 
ENDBRANCH  24  25
ENDBRANCH  23  24
ENDBRANCH  22  23
ENDBRANCH  21  22
ENDBRANCH  20  21
ENDBRANCH  19  20
ENDBRANCH  18  19
ENDBRANCH  17  18
ENDBRANCH  16  17
ENDBRANCH  15  16
ENDBRANCH   1  15
TORSDOF 22
ENDMDL
MODEL 9
REMARK VINA RESULT:    -3.417      1.231      2.419
REMARK INTER + INTRA:         -12.490
REMARK INTER:                  -8.302
REMARK INTRA:                  -4.188
REMARK UNBOUND:                -4.677
REMARK SMILES CCCCCCCCCCCCCCCCCCCCCCCC(=O)[O-]
REMARK SMILES IDX 13 1 14 2 15 3 16 4 17 5 18 6 19 7 20 8 21 9 22 10 23 11
REMARK SMILES IDX 24 12 25 13 26 14 12 15 11 16 10 17 9 18 8 19 7 20 6 21 5 22
REMARK SMILES IDX 4 23 3 24 2 25 1 26
REMARK H PARENT
REMARK Flexibility Score: inf
ROOT
ATOM      1  C   UNL     1     161.342 175.310 185.308  1.00  0.00     0.000 C 
ENDROOT
BRANCH   1   2
ATOM      2  C   UNL     1     160.614 176.488 184.635  1.00  0.00     0.000 C 
BRANCH   2   3
ATOM      3  C   UNL     1     160.869 177.867 185.279  1.00  0.00     0.000 C 
BRANCH   3   4
ATOM      4  C   UNL     1     160.932 177.872 186.817  1.00  0.00     0.000 C 
BRANCH   4   5
ATOM      5  C   UNL     1     162.318 178.262 187.356  1.00  0.00     0.000 C 
BRANCH   5   6
ATOM      6  C   UNL     1     163.119 177.049 187.855  1.00  0.00     0.000 C 
BRANCH   6   7
ATOM      7  C   UNL     1     164.355 176.759 186.987  1.00  0.00     0.000 C 
BRANCH   7   8
ATOM      8  C   UNL     1     164.577 177.819 185.892  1.00  0.00     0.000 C 
BRANCH   8   9
ATOM      9  C   UNL     1     165.157 177.285 184.566  1.00  0.00     0.000 C 
BRANCH   9  10
ATOM     10  C   UNL     1     164.116 176.973 183.476  1.00  0.00     0.006 C 
BRANCH  10  11
ATOM     11  C   UNL     1     163.583 178.233 182.783  1.00  0.00     0.053 C 
BRANCH  11  12
ATOM     12  C   UNL     1     162.531 177.873 181.782  1.00  0.00     0.041 C 
ATOM     13  O   UNL     1     161.776 178.763 181.309  1.00  0.00    -0.550 OA
ATOM     14  O   UNL     1     162.412 176.562 181.338  1.00  0.00    -0.550 OA
ENDBRANCH  11  12
ENDBRANCH  10  11
ENDBRANCH   9  10
ENDBRANCH   8   9
ENDBRANCH   7   8
ENDBRANCH   6   7
ENDBRANCH   5   6
ENDBRANCH   4   5
ENDBRANCH   3   4
ENDBRANCH   2   3
ENDBRANCH   1   2
BRANCH   1  15
ATOM     15  C   UNL     1     160.386 174.368 186.056  1.00  0.00     0.000 C 
BRANCH  15  16
ATOM     16  C   UNL     1     160.828 174.096 187.505  1.00  0.00     0.000 C 
BRANCH  16  17
ATOM     17  C   UNL     1     162.226 173.459 187.649  1.00  0.00     0.000 C 
BRANCH  17  18
ATOM     18  C   UNL     1     162.231 171.974 188.068  1.00  0.00    -0.000 C 
BRANCH  18  19
ATOM     19  C   UNL     1     160.837 171.350 188.258  1.00  0.00    -0.000 C 
BRANCH  19  20
ATOM     20  C   UNL     1     160.655 170.046 187.460  1.00  0.00    -0.000 C 
BRANCH  20  21
ATOM     21  C   UNL     1     161.568 169.980 186.226  1.00  0.00    -0.000 C 
BRANCH  21  22
ATOM     22  C   UNL     1     160.934 170.627 184.986  1.00  0.00    -0.000 C 
BRANCH  22  23
ATOM     23  C   UNL     1     162.001 170.978 183.944  1.00  0.00    -0.000 C 
BRANCH  23  24
ATOM     24  C   UNL     1     161.688 172.320 183.265  1.00  0.00    -0.000 C 
BRANCH  24  25
ATOM     25  C   UNL     1     160.189 172.502 182.979  1.00  0.00    -0.003 C 
ATOM     26  C   UNL     1     159.889 173.780 182.195  1.00  0.00     0.004 C 
ENDBRANCH  24  25
ENDBRANCH  23  24
ENDBRANCH  22  23
ENDBRANCH  21  22
ENDBRANCH  20  21
ENDBRANCH  19  20
ENDBRANCH  18  19
ENDBRANCH  17  18
ENDBRANCH  16  17
ENDBRANCH  15  16
ENDBRANCH   1  15
TORSDOF 22
ENDMDL
