MODEL 1
REMARK VINA RESULT:    -6.124      0.000      0.000
REMARK INTER + INTRA:          -8.255
REMARK INTER:                  -8.273
REMARK INTRA:                   0.017
REMARK UNBOUND:                 0.017
REMARK SMILES O=c1c(-c2ccc(O)cc2)coc2c([C@@H]3O[C@@H](CO)[C@H](O)[C@H](O)[C@H]3O)c(O)ccc12
REMARK SMILES IDX 3 1 11 2 12 3 13 4 30 5 2 6 1 7 29 8 28 9 26 10 14 11 4 12
REMARK SMILES IDX 5 13 6 14 7 15 10 16 9 17 8 18 15 20 24 21 16 22 22 23 17 24
REMARK SMILES IDX 20 25 25 26 23 28 18 30 19 31 21 33 27 35
REMARK H PARENT 8 19 25 27 23 29 19 32 21 34 27 36
REMARK Flexibility Score: inf
ROOT
ATOM      1  C   UNL     1       7.119  71.966   8.401  1.00  0.00     0.065 A 
ATOM      2  C   UNL     1       7.629  71.738   9.684  1.00  0.00     0.208 A 
ATOM      3  O   UNL     1       6.829  71.722  10.742  1.00  0.00    -0.463 OA
ATOM      4  C   UNL     1       5.513  71.913  10.674  1.00  0.00     0.147 A 
ATOM      5  C   UNL     1       4.923  72.192   9.417  1.00  0.00     0.066 A 
ATOM      6  C   UNL     1       5.738  72.192   8.269  1.00  0.00     0.200 A 
ATOM      7  O   UNL     1       5.232  72.383   7.128  1.00  0.00    -0.288 OA
ATOM      8  C   UNL     1       3.556  72.486   9.342  1.00  0.00     0.020 A 
ATOM      9  C   UNL     1       2.806  72.593  10.505  1.00  0.00     0.047 A 
ATOM     10  C   UNL     1       3.381  72.342  11.756  1.00  0.00     0.125 A 
ATOM     11  C   UNL     1       4.711  71.851  11.852  1.00  0.00     0.069 A 
ENDROOT
BRANCH   1  12
ATOM     12  C   UNL     1       8.033  71.968   7.230  1.00  0.00    -0.011 A 
ATOM     13  C   UNL     1       8.655  73.161   6.820  1.00  0.00     0.013 A 
ATOM     14  C   UNL     1       9.509  73.168   5.714  1.00  0.00     0.047 A 
ATOM     15  C   UNL     1       9.748  71.990   5.000  1.00  0.00     0.115 A 
ATOM     16  C   UNL     1       8.272  70.787   6.505  1.00  0.00     0.013 A 
ATOM     17  C   UNL     1       9.127  70.799   5.398  1.00  0.00     0.047 A 
BRANCH  15  18
ATOM     18  O   UNL     1      10.603  72.012   3.901  1.00  0.00    -0.508 OA
ATOM     19  H   UNL     1      10.583  72.772   3.230  1.00  0.00     0.293 HD
ENDBRANCH  15  18
ENDBRANCH   1  12
BRANCH  11  20
ATOM     20  C   UNL     1       5.321  71.453  13.222  1.00  0.00     0.188 C 
ATOM     21  C   UNL     1       4.330  71.026  14.353  1.00  0.00     0.179 C 
ATOM     22  O   UNL     1       6.363  70.485  13.121  1.00  0.00    -0.362 OA
ATOM     23  C   UNL     1       3.787  69.613  14.114  1.00  0.00     0.177 C 
ATOM     24  C   UNL     1       5.887  69.179  12.802  1.00  0.00     0.176 C 
ATOM     25  C   UNL     1       4.956  68.638  13.906  1.00  0.00     0.177 C 
BRANCH  21  26
ATOM     26  O   UNL     1       5.002  71.044  15.589  1.00  0.00    -0.387 OA
ATOM     27  H   UNL     1       4.467  70.494  16.218  1.00  0.00     0.211 HD
ENDBRANCH  21  26
BRANCH  23  28
ATOM     28  O   UNL     1       2.939  69.620  12.992  1.00  0.00    -0.387 OA
ATOM     29  H   UNL     1       2.906  68.690  12.646  1.00  0.00     0.211 HD
ENDBRANCH  23  28
BRANCH  24  30
ATOM     30  C   UNL     1       7.113  68.272  12.609  1.00  0.00     0.191 C 
BRANCH  30  31
ATOM     31  O   UNL     1       7.168  67.285  13.606  1.00  0.00    -0.394 OA
ATOM     32  H   UNL     1       8.075  66.885  13.574  1.00  0.00     0.210 HD
ENDBRANCH  30  31
ENDBRANCH  24  30
BRANCH  25  33
ATOM     33  O   UNL     1       4.462  67.372  13.549  1.00  0.00    -0.388 OA
ATOM     34  H   UNL     1       4.206  67.424  12.591  1.00  0.00     0.211 HD
ENDBRANCH  25  33
ENDBRANCH  11  20
BRANCH  10  35
ATOM     35  O   UNL     1       2.635  72.636  12.896  1.00  0.00    -0.507 OA
ATOM     36  H   UNL     1       2.966  72.412  13.827  1.00  0.00     0.293 HD
ENDBRANCH  10  35
TORSDOF 9
ENDMDL
MODEL 2
REMARK VINA RESULT:    -5.880      1.114      1.593
REMARK INTER + INTRA:          -7.926
REMARK INTER:                  -8.370
REMARK INTRA:                   0.444
REMARK UNBOUND:                 0.017
REMARK SMILES O=c1c(-c2ccc(O)cc2)coc2c([C@@H]3O[C@@H](CO)[C@H](O)[C@H](O)[C@H]3O)c(O)ccc12
REMARK SMILES IDX 3 1 11 2 12 3 13 4 30 5 2 6 1 7 29 8 28 9 26 10 14 11 4 12
REMARK SMILES IDX 5 13 6 14 7 15 10 16 9 17 8 18 15 20 24 21 16 22 22 23 17 24
REMARK SMILES IDX 20 25 25 26 23 28 18 30 19 31 21 33 27 35
REMARK H PARENT 8 19 25 27 23 29 19 32 21 34 27 36
REMARK Flexibility Score: inf
ROOT
ATOM      1  C   UNL     1       7.473  72.176   7.712  1.00  0.00     0.065 A 
ATOM      2  C   UNL     1       7.939  72.201   9.032  1.00  0.00     0.208 A 
ATOM      3  O   UNL     1       7.094  72.156  10.054  1.00  0.00    -0.463 OA
ATOM      4  C   UNL     1       5.771  72.083   9.913  1.00  0.00     0.147 A 
ATOM      5  C   UNL     1       5.217  72.097   8.611  1.00  0.00     0.066 A 
ATOM      6  C   UNL     1       6.085  72.119   7.503  1.00  0.00     0.200 A 
ATOM      7  O   UNL     1       5.622  72.076   6.330  1.00  0.00    -0.288 OA
ATOM      8  C   UNL     1       3.826  72.115   8.450  1.00  0.00     0.020 A 
ATOM      9  C   UNL     1       3.000  72.211   9.562  1.00  0.00     0.047 A 
ATOM     10  C   UNL     1       3.537  72.221  10.855  1.00  0.00     0.125 A 
ATOM     11  C   UNL     1       4.926  72.007  11.060  1.00  0.00     0.069 A 
ENDROOT
BRANCH   1  12
ATOM     12  C   UNL     1       8.440  72.216   6.586  1.00  0.00    -0.011 A 
ATOM     13  C   UNL     1       8.599  71.096   5.751  1.00  0.00     0.013 A 
ATOM     14  C   UNL     1       9.514  71.126   4.694  1.00  0.00     0.047 A 
ATOM     15  C   UNL     1      10.284  72.269   4.462  1.00  0.00     0.115 A 
ATOM     16  C   UNL     1       9.221  73.361   6.351  1.00  0.00     0.013 A 
ATOM     17  C   UNL     1      10.136  73.387   5.293  1.00  0.00     0.047 A 
BRANCH  15  18
ATOM     18  O   UNL     1      11.192  72.285   3.405  1.00  0.00    -0.508 OA
ATOM     19  H   UNL     1      12.185  72.414   3.561  1.00  0.00     0.293 HD
ENDBRANCH  15  18
ENDBRANCH   1  12
BRANCH  11  20
ATOM     20  C   UNL     1       5.516  71.894  12.491  1.00  0.00     0.188 C 
ATOM     21  C   UNL     1       4.691  71.087  13.546  1.00  0.00     0.179 C 
ATOM     22  O   UNL     1       6.870  71.449  12.514  1.00  0.00    -0.362 OA
ATOM     23  C   UNL     1       4.810  69.578  13.311  1.00  0.00     0.177 C 
ATOM     24  C   UNL     1       7.013  70.065  12.202  1.00  0.00     0.176 C 
ATOM     25  C   UNL     1       6.293  69.180  13.240  1.00  0.00     0.177 C 
BRANCH  21  26
ATOM     26  O   UNL     1       5.177  71.380  14.834  1.00  0.00    -0.387 OA
ATOM     27  H   UNL     1       5.011  72.345  14.993  1.00  0.00     0.211 HD
ENDBRANCH  21  26
BRANCH  23  28
ATOM     28  O   UNL     1       4.144  69.235  12.120  1.00  0.00    -0.387 OA
ATOM     29  H   UNL     1       3.917  70.084  11.659  1.00  0.00     0.211 HD
ENDBRANCH  23  28
BRANCH  24  30
ATOM     30  C   UNL     1       8.517  69.753  12.147  1.00  0.00     0.191 C 
BRANCH  30  31
ATOM     31  O   UNL     1       8.973  69.724  10.820  1.00  0.00    -0.394 OA
ATOM     32  H   UNL     1       9.225  70.652  10.575  1.00  0.00     0.210 HD
ENDBRANCH  30  31
ENDBRANCH  24  30
BRANCH  25  33
ATOM     33  O   UNL     1       6.406  67.825  12.886  1.00  0.00    -0.388 OA
ATOM     34  H   UNL     1       6.139  67.298  13.684  1.00  0.00     0.211 HD
ENDBRANCH  25  33
ENDBRANCH  11  20
BRANCH  10  35
ATOM     35  O   UNL     1       2.682  72.498  11.920  1.00  0.00    -0.507 OA
ATOM     36  H   UNL     1       1.884  71.912  12.134  1.00  0.00     0.293 HD
ENDBRANCH  10  35
TORSDOF 9
ENDMDL
MODEL 3
REMARK VINA RESULT:    -5.860      3.067      8.069
REMARK INTER + INTRA:          -7.899
REMARK INTER:                  -7.884
REMARK INTRA:                  -0.014
REMARK UNBOUND:                 0.017
REMARK SMILES O=c1c(-c2ccc(O)cc2)coc2c([C@@H]3O[C@@H](CO)[C@H](O)[C@H](O)[C@H]3O)c(O)ccc12
REMARK SMILES IDX 3 1 11 2 12 3 13 4 30 5 2 6 1 7 29 8 28 9 26 10 14 11 4 12
REMARK SMILES IDX 5 13 6 14 7 15 10 16 9 17 8 18 15 20 24 21 16 22 22 23 17 24
REMARK SMILES IDX 20 25 25 26 23 28 18 30 19 31 21 33 27 35
REMARK H PARENT 8 19 25 27 23 29 19 32 21 34 27 36
REMARK Flexibility Score: inf
ROOT
ATOM      1  C   UNL     1       2.823  71.878  12.489  1.00  0.00     0.065 A 
ATOM      2  C   UNL     1       2.365  71.656  11.185  1.00  0.00     0.208 A 
ATOM      3  O   UNL     1       3.213  71.604  10.166  1.00  0.00    -0.463 OA
ATOM      4  C   UNL     1       4.531  71.752  10.295  1.00  0.00     0.147 A 
ATOM      5  C   UNL     1       5.070  72.022  11.576  1.00  0.00     0.066 A 
ATOM      6  C   UNL     1       4.202  72.059  12.684  1.00  0.00     0.200 A 
ATOM      7  O   UNL     1       4.661  72.243  13.845  1.00  0.00    -0.288 OA
ATOM      8  C   UNL     1       6.441  72.271  11.712  1.00  0.00     0.020 A 
ATOM      9  C   UNL     1       7.248  72.343  10.585  1.00  0.00     0.047 A 
ATOM     10  C   UNL     1       6.723  72.099   9.310  1.00  0.00     0.125 A 
ATOM     11  C   UNL     1       5.383  71.652   9.155  1.00  0.00     0.069 A 
ENDROOT
BRANCH   1  12
ATOM     12  C   UNL     1       1.856  71.920  13.615  1.00  0.00    -0.011 A 
ATOM     13  C   UNL     1       1.471  70.732  14.262  1.00  0.00     0.013 A 
ATOM     14  C   UNL     1       0.554  70.767  15.317  1.00  0.00     0.047 A 
ATOM     15  C   UNL     1       0.006  71.983  15.734  1.00  0.00     0.115 A 
ATOM     16  C   UNL     1       1.296  73.140  14.036  1.00  0.00     0.013 A 
ATOM     17  C   UNL     1       0.378  73.170  15.091  1.00  0.00     0.047 A 
BRANCH  15  18
ATOM     18  O   UNL     1      -0.906  72.003  16.787  1.00  0.00    -0.508 OA
ATOM     19  H   UNL     1      -1.868  71.710  16.660  1.00  0.00     0.293 HD
ENDBRANCH  15  18
ENDBRANCH   1  12
BRANCH  11  20
ATOM     20  C   UNL     1       4.825  71.263   7.761  1.00  0.00     0.188 C 
ATOM     21  C   UNL     1       5.847  70.744   6.698  1.00  0.00     0.179 C 
ATOM     22  O   UNL     1       3.717  70.368   7.822  1.00  0.00    -0.362 OA
ATOM     23  C   UNL     1       6.279  69.305   6.996  1.00  0.00     0.177 C 
ATOM     24  C   UNL     1       4.085  69.042   8.194  1.00  0.00     0.176 C 
ATOM     25  C   UNL     1       5.037  68.414   7.156  1.00  0.00     0.177 C 
BRANCH  21  26
ATOM     26  O   UNL     1       5.247  70.778   5.426  1.00  0.00    -0.387 OA
ATOM     27  H   UNL     1       4.931  71.707   5.279  1.00  0.00     0.211 HD
ENDBRANCH  21  26
BRANCH  23  28
ATOM     28  O   UNL     1       7.063  69.283   8.164  1.00  0.00    -0.387 OA
ATOM     29  H   UNL     1       7.730  70.013   8.081  1.00  0.00     0.211 HD
ENDBRANCH  23  28
BRANCH  24  30
ATOM     30  C   UNL     1       2.792  68.223   8.335  1.00  0.00     0.191 C 
BRANCH  30  31
ATOM     31  O   UNL     1       2.667  67.300   7.285  1.00  0.00    -0.394 OA
ATOM     32  H   UNL     1       2.612  67.820   6.442  1.00  0.00     0.210 HD
ENDBRANCH  30  31
ENDBRANCH  24  30
BRANCH  25  33
ATOM     33  O   UNL     1       5.425  67.127   7.566  1.00  0.00    -0.388 OA
ATOM     34  H   UNL     1       6.148  67.246   8.236  1.00  0.00     0.211 HD
ENDBRANCH  25  33
ENDBRANCH  11  20
BRANCH  10  35
ATOM     35  O   UNL     1       7.531  72.359   8.205  1.00  0.00    -0.507 OA
ATOM     36  H   UNL     1       7.907  71.615   7.629  1.00  0.00     0.293 HD
ENDBRANCH  10  35
TORSDOF 9
ENDMDL
MODEL 4
REMARK VINA RESULT:    -5.784      2.964      8.489
REMARK INTER + INTRA:          -7.795
REMARK INTER:                  -8.244
REMARK INTRA:                   0.449
REMARK UNBOUND:                 0.017
REMARK SMILES O=c1c(-c2ccc(O)cc2)coc2c([C@@H]3O[C@@H](CO)[C@H](O)[C@H](O)[C@H]3O)c(O)ccc12
REMARK SMILES IDX 3 1 11 2 12 3 13 4 30 5 2 6 1 7 29 8 28 9 26 10 14 11 4 12
REMARK SMILES IDX 5 13 6 14 7 15 10 16 9 17 8 18 15 20 24 21 16 22 22 23 17 24
REMARK SMILES IDX 20 25 25 26 23 28 18 30 19 31 21 33 27 35
REMARK H PARENT 8 19 25 27 23 29 19 32 21 34 27 36
REMARK Flexibility Score: inf
ROOT
ATOM      1  C   UNL     1       2.766  72.355  14.198  1.00  0.00     0.065 A 
ATOM      2  C   UNL     1       2.574  72.778  12.878  1.00  0.00     0.208 A 
ATOM      3  O   UNL     1       3.508  72.578  11.956  1.00  0.00    -0.463 OA
ATOM      4  C   UNL     1       4.669  71.975  12.203  1.00  0.00     0.147 A 
ATOM      5  C   UNL     1       4.959  71.555  13.524  1.00  0.00     0.066 A 
ATOM      6  C   UNL     1       3.981  71.728  14.521  1.00  0.00     0.200 A 
ATOM      7  O   UNL     1       4.189  71.314  15.695  1.00  0.00    -0.288 OA
ATOM      8  C   UNL     1       6.212  71.004  13.816  1.00  0.00     0.020 A 
ATOM      9  C   UNL     1       7.195  70.956  12.836  1.00  0.00     0.047 A 
ATOM     10  C   UNL     1       6.928  71.389  11.532  1.00  0.00     0.125 A 
ATOM     11  C   UNL     1       5.613  71.769  11.153  1.00  0.00     0.069 A 
ENDROOT
BRANCH   1  12
ATOM     12  C   UNL     1       1.701  72.579  15.209  1.00  0.00    -0.011 A 
ATOM     13  C   UNL     1       0.394  72.116  14.974  1.00  0.00     0.013 A 
ATOM     14  C   UNL     1      -0.614  72.333  15.919  1.00  0.00     0.047 A 
ATOM     15  C   UNL     1      -0.331  73.017  17.104  1.00  0.00     0.115 A 
ATOM     16  C   UNL     1       1.977  73.272  16.400  1.00  0.00     0.013 A 
ATOM     17  C   UNL     1       0.966  73.487  17.343  1.00  0.00     0.047 A 
BRANCH  15  18
ATOM     18  O   UNL     1      -1.345  73.225  18.037  1.00  0.00    -0.508 OA
ATOM     19  H   UNL     1      -1.563  74.151  18.385  1.00  0.00     0.293 HD
ENDBRANCH  15  18
ENDBRANCH   1  12
BRANCH  11  20
ATOM     20  C   UNL     1       5.277  72.134   9.683  1.00  0.00     0.188 C 
ATOM     21  C   UNL     1       6.181  71.519   8.565  1.00  0.00     0.179 C 
ATOM     22  O   UNL     1       3.907  71.928   9.344  1.00  0.00    -0.362 OA
ATOM     23  C   UNL     1       5.856  70.039   8.338  1.00  0.00     0.177 C 
ATOM     24  C   UNL     1       3.560  70.551   9.223  1.00  0.00     0.176 C 
ATOM     25  C   UNL     1       4.349  69.873   8.085  1.00  0.00     0.177 C 
BRANCH  21  26
ATOM     26  O   UNL     1       5.966  72.215   7.362  1.00  0.00    -0.387 OA
ATOM     27  H   UNL     1       6.752  72.040   6.781  1.00  0.00     0.211 HD
ENDBRANCH  21  26
BRANCH  23  28
ATOM     28  O   UNL     1       6.259  69.292   9.460  1.00  0.00    -0.387 OA
ATOM     29  H   UNL     1       6.875  68.586   9.133  1.00  0.00     0.211 HD
ENDBRANCH  23  28
BRANCH  24  30
ATOM     30  C   UNL     1       2.044  70.473   8.976  1.00  0.00     0.191 C 
BRANCH  30  31
ATOM     31  O   UNL     1       1.577  71.647   8.363  1.00  0.00    -0.394 OA
ATOM     32  H   UNL     1       0.730  71.419   7.899  1.00  0.00     0.210 HD
ENDBRANCH  30  31
ENDBRANCH  24  30
BRANCH  25  33
ATOM     33  O   UNL     1       4.027  68.507   8.014  1.00  0.00    -0.388 OA
ATOM     34  H   UNL     1       3.800  68.219   8.937  1.00  0.00     0.211 HD
ENDBRANCH  25  33
ENDBRANCH  11  20
BRANCH  10  35
ATOM     35  O   UNL     1       7.994  71.486  10.639  1.00  0.00    -0.507 OA
ATOM     36  H   UNL     1       8.754  70.816  10.637  1.00  0.00     0.293 HD
ENDBRANCH  10  35
TORSDOF 9
ENDMDL
MODEL 5
REMARK VINA RESULT:    -5.722      3.641      5.799
REMARK INTER + INTRA:          -7.711
REMARK INTER:                  -7.754
REMARK INTRA:                   0.043
REMARK UNBOUND:                 0.017
REMARK SMILES O=c1c(-c2ccc(O)cc2)coc2c([C@@H]3O[C@@H](CO)[C@H](O)[C@H](O)[C@H]3O)c(O)ccc12
REMARK SMILES IDX 3 1 11 2 12 3 13 4 30 5 2 6 1 7 29 8 28 9 26 10 14 11 4 12
REMARK SMILES IDX 5 13 6 14 7 15 10 16 9 17 8 18 15 20 24 21 16 22 22 23 17 24
REMARK SMILES IDX 20 25 25 26 23 28 18 30 19 31 21 33 27 35
REMARK H PARENT 8 19 25 27 23 29 19 32 21 34 27 36
REMARK Flexibility Score: inf
ROOT
ATOM      1  C   UNL     1       3.760  71.719  12.825  1.00  0.00     0.065 A 
ATOM      2  C   UNL     1       4.814  70.984  13.381  1.00  0.00     0.208 A 
ATOM      3  O   UNL     1       5.050  71.015  14.686  1.00  0.00    -0.463 OA
ATOM      4  C   UNL     1       4.326  71.724  15.550  1.00  0.00     0.147 A 
ATOM      5  C   UNL     1       3.268  72.529  15.062  1.00  0.00     0.066 A 
ATOM      6  C   UNL     1       2.973  72.501  13.686  1.00  0.00     0.200 A 
ATOM      7  O   UNL     1       2.001  73.165  13.230  1.00  0.00    -0.288 OA
ATOM      8  C   UNL     1       2.558  73.350  15.946  1.00  0.00     0.020 A 
ATOM      9  C   UNL     1       2.950  73.442  17.274  1.00  0.00     0.047 A 
ATOM     10  C   UNL     1       4.009  72.668  17.765  1.00  0.00     0.125 A 
ATOM     11  C   UNL     1       4.621  71.683  16.945  1.00  0.00     0.069 A 
ENDROOT
BRANCH   1  12
ATOM     12  C   UNL     1       3.508  71.660  11.362  1.00  0.00    -0.011 A 
ATOM     13  C   UNL     1       2.594  70.728  10.840  1.00  0.00     0.013 A 
ATOM     14  C   UNL     1       2.360  70.663   9.463  1.00  0.00     0.047 A 
ATOM     15  C   UNL     1       3.039  71.520   8.592  1.00  0.00     0.115 A 
ATOM     16  C   UNL     1       4.192  72.515  10.481  1.00  0.00     0.013 A 
ATOM     17  C   UNL     1       3.956  72.446   9.104  1.00  0.00     0.047 A 
BRANCH  15  18
ATOM     18  O   UNL     1       2.795  71.444   7.222  1.00  0.00    -0.508 OA
ATOM     19  H   UNL     1       2.826  70.561   6.727  1.00  0.00     0.293 HD
ENDBRANCH  15  18
ENDBRANCH   1  12
BRANCH  11  20
ATOM     20  C   UNL     1       5.712  70.736  17.511  1.00  0.00     0.188 C 
ATOM     21  C   UNL     1       5.596  70.324  19.015  1.00  0.00     0.179 C 
ATOM     22  O   UNL     1       5.918  69.568  16.720  1.00  0.00    -0.362 OA
ATOM     23  C   UNL     1       4.494  69.281  19.223  1.00  0.00     0.177 C 
ATOM     24  C   UNL     1       4.855  68.624  16.824  1.00  0.00     0.176 C 
ATOM     25  C   UNL     1       4.713  68.098  18.267  1.00  0.00     0.177 C 
BRANCH  21  26
ATOM     26  O   UNL     1       6.820  69.775  19.439  1.00  0.00    -0.387 OA
ATOM     27  H   UNL     1       6.702  69.501  20.387  1.00  0.00     0.211 HD
ENDBRANCH  21  26
BRANCH  23  28
ATOM     28  O   UNL     1       3.238  69.875  19.003  1.00  0.00    -0.387 OA
ATOM     29  H   UNL     1       3.405  70.774  18.618  1.00  0.00     0.211 HD
ENDBRANCH  23  28
BRANCH  24  30
ATOM     30  C   UNL     1       5.148  67.482  15.838  1.00  0.00     0.191 C 
BRANCH  30  31
ATOM     31  O   UNL     1       6.007  67.913  14.815  1.00  0.00    -0.394 OA
ATOM     32  H   UNL     1       5.438  68.265  14.082  1.00  0.00     0.210 HD
ENDBRANCH  30  31
ENDBRANCH  24  30
BRANCH  25  33
ATOM     33  O   UNL     1       3.631  67.207  18.357  1.00  0.00    -0.388 OA
ATOM     34  H   UNL     1       2.809  67.761  18.421  1.00  0.00     0.211 HD
ENDBRANCH  25  33
ENDBRANCH  11  20
BRANCH  10  35
ATOM     35  O   UNL     1       4.474  72.930  19.052  1.00  0.00    -0.507 OA
ATOM     36  H   UNL     1       5.057  72.272  19.556  1.00  0.00     0.293 HD
ENDBRANCH  10  35
TORSDOF 9
ENDMDL
MODEL 6
REMARK VINA RESULT:    -5.621      1.612      2.102
REMARK INTER + INTRA:          -7.576
REMARK INTER:                  -8.008
REMARK INTRA:                   0.432
REMARK UNBOUND:                 0.017
REMARK SMILES O=c1c(-c2ccc(O)cc2)coc2c([C@@H]3O[C@@H](CO)[C@H](O)[C@H](O)[C@H]3O)c(O)ccc12
REMARK SMILES IDX 3 1 11 2 12 3 13 4 30 5 2 6 1 7 29 8 28 9 26 10 14 11 4 12
REMARK SMILES IDX 5 13 6 14 7 15 10 16 9 17 8 18 15 20 24 21 16 22 22 23 17 24
REMARK SMILES IDX 20 25 25 26 23 28 18 30 19 31 21 33 27 35
REMARK H PARENT 8 19 25 27 23 29 19 32 21 34 27 36
REMARK Flexibility Score: inf
ROOT
ATOM      1  C   UNL     1       6.444  71.947   7.645  1.00  0.00     0.065 A 
ATOM      2  C   UNL     1       6.660  72.287   8.986  1.00  0.00     0.208 A 
ATOM      3  O   UNL     1       5.812  71.902   9.931  1.00  0.00    -0.463 OA
ATOM      4  C   UNL     1       4.720  71.179   9.691  1.00  0.00     0.147 A 
ATOM      5  C   UNL     1       4.407  70.829   8.355  1.00  0.00     0.066 A 
ATOM      6  C   UNL     1       5.297  71.200   7.329  1.00  0.00     0.200 A 
ATOM      7  O   UNL     1       5.074  70.855   6.136  1.00  0.00    -0.288 OA
ATOM      8  C   UNL     1       3.215  70.149   8.077  1.00  0.00     0.020 A 
ATOM      9  C   UNL     1       2.304  69.902   9.096  1.00  0.00     0.047 A 
ATOM     10  C   UNL     1       2.591  70.263  10.417  1.00  0.00     0.125 A 
ATOM     11  C   UNL     1       3.871  70.775  10.763  1.00  0.00     0.069 A 
ENDROOT
BRANCH   1  12
ATOM     12  C   UNL     1       7.414  72.380   6.607  1.00  0.00    -0.011 A 
ATOM     13  C   UNL     1       8.780  72.077   6.745  1.00  0.00     0.013 A 
ATOM     14  C   UNL     1       9.697  72.491   5.774  1.00  0.00     0.047 A 
ATOM     15  C   UNL     1       9.265  73.216   4.660  1.00  0.00     0.115 A 
ATOM     16  C   UNL     1       6.986  73.115   5.488  1.00  0.00     0.013 A 
ATOM     17  C   UNL     1       7.907  73.528   4.519  1.00  0.00     0.047 A 
BRANCH  15  18
ATOM     18  O   UNL     1      10.190  73.621   3.701  1.00  0.00    -0.508 OA
ATOM     19  H   UNL     1       9.940  73.693   2.721  1.00  0.00     0.293 HD
ENDBRANCH  15  18
ENDBRANCH   1  12
BRANCH  11  20
ATOM     20  C   UNL     1       4.244  71.064  12.241  1.00  0.00     0.188 C 
ATOM     21  C   UNL     1       3.752  70.045  13.320  1.00  0.00     0.179 C 
ATOM     22  O   UNL     1       5.633  71.320  12.437  1.00  0.00    -0.362 OA
ATOM     23  C   UNL     1       4.586  68.761  13.295  1.00  0.00     0.177 C 
ATOM     24  C   UNL     1       6.441  70.151  12.322  1.00  0.00     0.176 C 
ATOM     25  C   UNL     1       6.079  69.112  13.402  1.00  0.00     0.177 C 
BRANCH  21  26
ATOM     26  O   UNL     1       3.866  70.630  14.594  1.00  0.00    -0.387 OA
ATOM     27  H   UNL     1       4.699  71.170  14.592  1.00  0.00     0.211 HD
ENDBRANCH  21  26
BRANCH  23  28
ATOM     28  O   UNL     1       4.324  68.054  12.108  1.00  0.00    -0.387 OA
ATOM     29  H   UNL     1       4.954  67.286  12.082  1.00  0.00     0.211 HD
ENDBRANCH  23  28
BRANCH  24  30
ATOM     30  C   UNL     1       7.910  70.588  12.436  1.00  0.00     0.191 C 
BRANCH  30  31
ATOM     31  O   UNL     1       8.049  71.954  12.144  1.00  0.00    -0.394 OA
ATOM     32  H   UNL     1       7.821  72.456  12.969  1.00  0.00     0.210 HD
ENDBRANCH  30  31
ENDBRANCH  24  30
BRANCH  25  33
ATOM     33  O   UNL     1       6.853  67.951  13.240  1.00  0.00    -0.388 OA
ATOM     34  H   UNL     1       6.873  67.754  12.267  1.00  0.00     0.211 HD
ENDBRANCH  25  33
ENDBRANCH  11  20
BRANCH  10  35
ATOM     35  O   UNL     1       1.574  70.156  11.365  1.00  0.00    -0.507 OA
ATOM     36  H   UNL     1       0.854  70.862  11.461  1.00  0.00     0.293 HD
ENDBRANCH  10  35
TORSDOF 9
ENDMDL
MODEL 7
REMARK VINA RESULT:    -5.555      2.963      7.923
REMARK INTER + INTRA:          -7.486
REMARK INTER:                  -7.596
REMARK INTRA:                   0.110
REMARK UNBOUND:                 0.017
REMARK SMILES O=c1c(-c2ccc(O)cc2)coc2c([C@@H]3O[C@@H](CO)[C@H](O)[C@H](O)[C@H]3O)c(O)ccc12
REMARK SMILES IDX 3 1 11 2 12 3 13 4 30 5 2 6 1 7 29 8 28 9 26 10 14 11 4 12
REMARK SMILES IDX 5 13 6 14 7 15 10 16 9 17 8 18 15 20 24 21 16 22 22 23 17 24
REMARK SMILES IDX 20 25 25 26 23 28 18 30 19 31 21 33 27 35
REMARK H PARENT 8 19 25 27 23 29 19 32 21 34 27 36
REMARK Flexibility Score: inf
ROOT
ATOM      1  C   UNL     1       3.525  71.868  11.985  1.00  0.00     0.065 A 
ATOM      2  C   UNL     1       2.786  71.585  10.831  1.00  0.00     0.208 A 
ATOM      3  O   UNL     1       3.379  71.499   9.647  1.00  0.00    -0.463 OA
ATOM      4  C   UNL     1       4.688  71.666   9.464  1.00  0.00     0.147 A 
ATOM      5  C   UNL     1       5.500  71.998  10.575  1.00  0.00     0.066 A 
ATOM      6  C   UNL     1       4.909  72.073  11.850  1.00  0.00     0.200 A 
ATOM      7  O   UNL     1       5.617  72.312  12.868  1.00  0.00    -0.288 OA
ATOM      8  C   UNL     1       6.860  72.267  10.383  1.00  0.00     0.020 A 
ATOM      9  C   UNL     1       7.387  72.299   9.099  1.00  0.00     0.047 A 
ATOM     10  C   UNL     1       6.589  71.995   7.989  1.00  0.00     0.125 A 
ATOM     11  C   UNL     1       5.259  71.527   8.164  1.00  0.00     0.069 A 
ENDROOT
BRANCH   1  12
ATOM     12  C   UNL     1       2.841  71.949  13.300  1.00  0.00    -0.011 A 
ATOM     13  C   UNL     1       2.077  73.082  13.632  1.00  0.00     0.013 A 
ATOM     14  C   UNL     1       1.438  73.166  14.873  1.00  0.00     0.047 A 
ATOM     15  C   UNL     1       1.558  72.125  15.798  1.00  0.00     0.115 A 
ATOM     16  C   UNL     1       2.963  70.908  14.238  1.00  0.00     0.013 A 
ATOM     17  C   UNL     1       2.322  70.996  15.478  1.00  0.00     0.047 A 
BRANCH  15  18
ATOM     18  O   UNL     1       0.915  72.222  17.030  1.00  0.00    -0.508 OA
ATOM     19  H   UNL     1       1.264  71.737  17.849  1.00  0.00     0.293 HD
ENDBRANCH  15  18
ENDBRANCH   1  12
BRANCH  11  20
ATOM     20  C   UNL     1       4.405  71.071   6.952  1.00  0.00     0.188 C 
ATOM     21  C   UNL     1       5.168  70.600   5.672  1.00  0.00     0.179 C 
ATOM     22  O   UNL     1       3.411  70.106   7.287  1.00  0.00    -0.362 OA
ATOM     23  C   UNL     1       5.760  69.200   5.860  1.00  0.00     0.177 C 
ATOM     24  C   UNL     1       3.951  68.815   7.562  1.00  0.00     0.176 C 
ATOM     25  C   UNL     1       4.661  68.231   6.325  1.00  0.00     0.177 C 
BRANCH  21  26
ATOM     26  O   UNL     1       4.274  70.566   4.586  1.00  0.00    -0.387 OA
ATOM     27  H   UNL     1       4.765  70.172   3.818  1.00  0.00     0.211 HD
ENDBRANCH  21  26
BRANCH  23  28
ATOM     28  O   UNL     1       6.806  69.255   6.800  1.00  0.00    -0.387 OA
ATOM     29  H   UNL     1       7.655  69.149   6.296  1.00  0.00     0.211 HD
ENDBRANCH  23  28
BRANCH  24  30
ATOM     30  C   UNL     1       2.794  67.914   8.021  1.00  0.00     0.191 C 
BRANCH  30  31
ATOM     31  O   UNL     1       2.559  66.889   7.092  1.00  0.00    -0.394 OA
ATOM     32  H   UNL     1       3.428  66.680   6.660  1.00  0.00     0.210 HD
ENDBRANCH  30  31
ENDBRANCH  24  30
BRANCH  25  33
ATOM     33  O   UNL     1       5.227  66.982   6.632  1.00  0.00    -0.388 OA
ATOM     34  H   UNL     1       5.698  67.087   7.500  1.00  0.00     0.211 HD
ENDBRANCH  25  33
ENDBRANCH  11  20
BRANCH  10  35
ATOM     35  O   UNL     1       7.117  72.216   6.718  1.00  0.00    -0.507 OA
ATOM     36  H   UNL     1       7.724  71.542   6.266  1.00  0.00     0.293 HD
ENDBRANCH  10  35
TORSDOF 9
ENDMDL
MODEL 8
REMARK VINA RESULT:    -5.500      3.106      7.842
REMARK INTER + INTRA:          -7.412
REMARK INTER:                  -7.665
REMARK INTRA:                   0.253
REMARK UNBOUND:                 0.017
REMARK SMILES O=c1c(-c2ccc(O)cc2)coc2c([C@@H]3O[C@@H](CO)[C@H](O)[C@H](O)[C@H]3O)c(O)ccc12
REMARK SMILES IDX 3 1 11 2 12 3 13 4 30 5 2 6 1 7 29 8 28 9 26 10 14 11 4 12
REMARK SMILES IDX 5 13 6 14 7 15 10 16 9 17 8 18 15 20 24 21 16 22 22 23 17 24
REMARK SMILES IDX 20 25 25 26 23 28 18 30 19 31 21 33 27 35
REMARK H PARENT 8 19 25 27 23 29 19 32 21 34 27 36
REMARK Flexibility Score: inf
ROOT
ATOM      1  C   UNL     1       2.089  68.271  11.833  1.00  0.00     0.065 A 
ATOM      2  C   UNL     1       3.412  67.830  11.705  1.00  0.00     0.208 A 
ATOM      3  O   UNL     1       4.236  68.394  10.831  1.00  0.00    -0.463 OA
ATOM      4  C   UNL     1       3.886  69.397  10.029  1.00  0.00     0.147 A 
ATOM      5  C   UNL     1       2.553  69.873  10.066  1.00  0.00     0.066 A 
ATOM      6  C   UNL     1       1.658  69.315  10.998  1.00  0.00     0.200 A 
ATOM      7  O   UNL     1       0.479  69.757  11.092  1.00  0.00    -0.288 OA
ATOM      8  C   UNL     1       2.146  70.864   9.164  1.00  0.00     0.020 A 
ATOM      9  C   UNL     1       3.019  71.308   8.181  1.00  0.00     0.047 A 
ATOM     10  C   UNL     1       4.333  70.829   8.119  1.00  0.00     0.125 A 
ATOM     11  C   UNL     1       4.837  69.973   9.135  1.00  0.00     0.069 A 
ENDROOT
BRANCH   1  12
ATOM     12  C   UNL     1       1.189  67.632  12.826  1.00  0.00    -0.011 A 
ATOM     13  C   UNL     1       0.353  66.569  12.442  1.00  0.00     0.013 A 
ATOM     14  C   UNL     1      -0.502  65.970  13.372  1.00  0.00     0.047 A 
ATOM     15  C   UNL     1      -0.538  66.428  14.692  1.00  0.00     0.115 A 
ATOM     16  C   UNL     1       1.144  68.092  14.154  1.00  0.00     0.013 A 
ATOM     17  C   UNL     1       0.286  67.491  15.081  1.00  0.00     0.047 A 
BRANCH  15  18
ATOM     18  O   UNL     1      -1.395  65.822  15.608  1.00  0.00    -0.508 OA
ATOM     19  H   UNL     1      -1.044  65.378  16.449  1.00  0.00     0.293 HD
ENDBRANCH  15  18
ENDBRANCH   1  12
BRANCH  11  20
ATOM     20  C   UNL     1       6.324  69.533   9.147  1.00  0.00     0.188 C 
ATOM     21  C   UNL     1       7.399  70.622   8.827  1.00  0.00     0.179 C 
ATOM     22  O   UNL     1       6.702  68.834  10.331  1.00  0.00    -0.362 OA
ATOM     23  C   UNL     1       7.605  71.566  10.015  1.00  0.00     0.177 C 
ATOM     24  C   UNL     1       6.805  69.681  11.473  1.00  0.00     0.176 C 
ATOM     25  C   UNL     1       7.903  70.747  11.281  1.00  0.00     0.177 C 
BRANCH  21  26
ATOM     26  O   UNL     1       8.623  69.993   8.536  1.00  0.00    -0.387 OA
ATOM     27  H   UNL     1       9.308  70.406   9.124  1.00  0.00     0.211 HD
ENDBRANCH  21  26
BRANCH  23  28
ATOM     28  O   UNL     1       6.455  72.357  10.192  1.00  0.00    -0.387 OA
ATOM     29  H   UNL     1       5.825  71.833  10.751  1.00  0.00     0.211 HD
ENDBRANCH  23  28
BRANCH  24  30
ATOM     30  C   UNL     1       7.099  68.788  12.689  1.00  0.00     0.191 C 
BRANCH  30  31
ATOM     31  O   UNL     1       6.416  69.250  13.825  1.00  0.00    -0.394 OA
ATOM     32  H   UNL     1       6.685  70.194  13.966  1.00  0.00     0.210 HD
ENDBRANCH  30  31
ENDBRANCH  24  30
BRANCH  25  33
ATOM     33  O   UNL     1       7.955  71.599  12.398  1.00  0.00    -0.388 OA
ATOM     34  H   UNL     1       7.257  71.284  13.031  1.00  0.00     0.211 HD
ENDBRANCH  25  33
ENDBRANCH  11  20
BRANCH  10  35
ATOM     35  O   UNL     1       5.107  71.171   7.012  1.00  0.00    -0.507 OA
ATOM     36  H   UNL     1       5.903  70.615   6.721  1.00  0.00     0.293 HD
ENDBRANCH  10  35
TORSDOF 9
ENDMDL
MODEL 9
REMARK VINA RESULT:    -5.464      3.315      8.014
REMARK INTER + INTRA:          -7.364
REMARK INTER:                  -7.347
REMARK INTRA:                  -0.017
REMARK UNBOUND:                 0.017
REMARK SMILES O=c1c(-c2ccc(O)cc2)coc2c([C@@H]3O[C@@H](CO)[C@H](O)[C@H](O)[C@H]3O)c(O)ccc12
REMARK SMILES IDX 3 1 11 2 12 3 13 4 30 5 2 6 1 7 29 8 28 9 26 10 14 11 4 12
REMARK SMILES IDX 5 13 6 14 7 15 10 16 9 17 8 18 15 20 24 21 16 22 22 23 17 24
REMARK SMILES IDX 20 25 25 26 23 28 18 30 19 31 21 33 27 35
REMARK H PARENT 8 19 25 27 23 29 19 32 21 34 27 36
REMARK Flexibility Score: inf
ROOT
ATOM      1  C   UNL     1       2.353  71.599  12.990  1.00  0.00     0.065 A 
ATOM      2  C   UNL     1       1.947  70.926  11.832  1.00  0.00     0.208 A 
ATOM      3  O   UNL     1       2.772  70.782  10.803  1.00  0.00    -0.463 OA
ATOM      4  C   UNL     1       4.019  71.250  10.788  1.00  0.00     0.147 A 
ATOM      5  C   UNL     1       4.493  71.980  11.905  1.00  0.00     0.066 A 
ATOM      6  C   UNL     1       3.653  72.130  13.024  1.00  0.00     0.200 A 
ATOM      7  O   UNL     1       4.067  72.728  14.056  1.00  0.00    -0.288 OA
ATOM      8  C   UNL     1       5.768  72.556  11.865  1.00  0.00     0.020 A 
ATOM      9  C   UNL     1       6.524  72.489  10.703  1.00  0.00     0.047 A 
ATOM     10  C   UNL     1       6.058  71.789   9.584  1.00  0.00     0.125 A 
ATOM     11  C   UNL     1       4.859  71.029   9.656  1.00  0.00     0.069 A 
ENDROOT
BRANCH   1  12
ATOM     12  C   UNL     1       1.414  71.737  14.133  1.00  0.00    -0.011 A 
ATOM     13  C   UNL     1       0.691  72.929  14.314  1.00  0.00     0.013 A 
ATOM     14  C   UNL     1      -0.187  73.066  15.394  1.00  0.00     0.047 A 
ATOM     15  C   UNL     1      -0.349  72.020  16.307  1.00  0.00     0.115 A 
ATOM     16  C   UNL     1       1.252  70.691  15.059  1.00  0.00     0.013 A 
ATOM     17  C   UNL     1       0.373  70.833  16.138  1.00  0.00     0.047 A 
BRANCH  15  18
ATOM     18  O   UNL     1      -1.227  72.171  17.377  1.00  0.00    -0.508 OA
ATOM     19  H   UNL     1      -1.827  71.413  17.682  1.00  0.00     0.293 HD
ENDBRANCH  15  18
ENDBRANCH   1  12
BRANCH  11  20
ATOM     20  C   UNL     1       4.394  70.152   8.465  1.00  0.00     0.188 C 
ATOM     21  C   UNL     1       5.497  69.606   7.500  1.00  0.00     0.179 C 
ATOM     22  O   UNL     1       3.535  69.081   8.848  1.00  0.00    -0.362 OA
ATOM     23  C   UNL     1       6.267  68.445   8.136  1.00  0.00     0.177 C 
ATOM     24  C   UNL     1       4.217  68.030   9.529  1.00  0.00     0.176 C 
ATOM     25  C   UNL     1       5.279  67.374   8.624  1.00  0.00     0.177 C 
BRANCH  21  26
ATOM     26  O   UNL     1       4.890  69.148   6.316  1.00  0.00    -0.387 OA
ATOM     27  H   UNL     1       5.622  68.939   5.678  1.00  0.00     0.211 HD
ENDBRANCH  21  26
BRANCH  23  28
ATOM     28  O   UNL     1       7.048  68.926   9.202  1.00  0.00    -0.387 OA
ATOM     29  H   UNL     1       7.997  68.751   8.970  1.00  0.00     0.211 HD
ENDBRANCH  23  28
BRANCH  24  30
ATOM     30  C   UNL     1       3.161  67.009   9.985  1.00  0.00     0.191 C 
BRANCH  30  31
ATOM     31  O   UNL     1       3.076  65.941   9.079  1.00  0.00    -0.394 OA
ATOM     32  H   UNL     1       3.906  65.406   9.176  1.00  0.00     0.210 HD
ENDBRANCH  30  31
ENDBRANCH  24  30
BRANCH  25  33
ATOM     33  O   UNL     1       5.970  66.375   9.330  1.00  0.00    -0.388 OA
ATOM     34  H   UNL     1       6.789  66.169   8.807  1.00  0.00     0.211 HD
ENDBRANCH  25  33
ENDBRANCH  11  20
BRANCH  10  35
ATOM     35  O   UNL     1       6.771  71.903   8.391  1.00  0.00    -0.507 OA
ATOM     36  H   UNL     1       7.767  72.086   8.378  1.00  0.00     0.293 HD
ENDBRANCH  10  35
TORSDOF 9
ENDMDL
