MODEL 1
REMARK VINA RESULT:    -8.584      0.000      0.000
REMARK INTER + INTRA:         -13.141
REMARK INTER:                 -11.846
REMARK INTRA:                  -1.295
REMARK UNBOUND:                -1.295
REMARK SMILES O=C([O-])[C@H]1O[C@H](Oc2cc3oc(-c4ccccc4)cc(=O)c3c(O)c2O)[C@H](O)[C@H](O)[C@@H]1O
REMARK SMILES IDX 7 1 6 2 4 3 31 4 5 5 29 6 27 7 2 8 1 9 3 10 32 11 30 13
REMARK SMILES IDX 28 15 8 17 25 18 9 19 23 20 10 21 22 22 11 23 20 24 12 25
REMARK SMILES IDX 19 26 21 27 26 28 24 30 13 32 14 33 18 34 15 35 17 36 16 37
REMARK H PARENT 32 12 30 14 28 16 26 29 24 31
REMARK Flexibility Score: inf
ROOT
ATOM      1  O   UNL     1      55.439 -20.395   3.745  1.00  0.00    -0.458 OA
ENDROOT
BRANCH   1   2
ATOM      2  C   UNL     1      54.619 -19.506   4.510  1.00  0.00     0.339 C 
ATOM      3  C   UNL     1      52.746 -19.823   3.132  1.00  0.00     0.199 C 
ATOM      4  C   UNL     1      51.924 -20.539   4.228  1.00  0.00     0.180 C 
ATOM      5  O   UNL     1      53.637 -18.878   3.700  1.00  0.00    -0.328 OA
ATOM      6  C   UNL     1      52.850 -21.205   5.270  1.00  0.00     0.181 C 
ATOM      7  C   UNL     1      53.964 -20.229   5.709  1.00  0.00     0.214 C 
BRANCH   3   8
ATOM      8  C   UNL     1      51.821 -19.093   2.202  1.00  0.00     0.073 C 
ATOM      9  O   UNL     1      51.658 -17.849   2.318  1.00  0.00    -0.547 OA
ATOM     10  O   UNL     1      51.168 -19.778   1.185  1.00  0.00    -0.547 OA
ENDBRANCH   3   8
BRANCH   4  11
ATOM     11  O   UNL     1      51.082 -21.500   3.644  1.00  0.00    -0.387 OA
ATOM     12  H   UNL     1      50.179 -21.093   3.588  1.00  0.00     0.211 HD
ENDBRANCH   4  11
BRANCH   6  13
ATOM     13  O   UNL     1      53.367 -22.433   4.814  1.00  0.00    -0.387 OA
ATOM     14  H   UNL     1      54.228 -22.263   4.358  1.00  0.00     0.211 HD
ENDBRANCH   6  13
BRANCH   7  15
ATOM     15  O   UNL     1      54.919 -20.862   6.525  1.00  0.00    -0.384 OA
ATOM     16  H   UNL     1      54.442 -21.494   7.124  1.00  0.00     0.211 HD
ENDBRANCH   7  15
ENDBRANCH   1   2
BRANCH   1  17
ATOM     17  C   UNL     1      56.799 -20.200   3.454  1.00  0.00     0.172 A 
ATOM     18  C   UNL     1      57.739 -21.080   4.013  1.00  0.00     0.201 A 
ATOM     19  C   UNL     1      57.241 -19.163   2.621  1.00  0.00     0.098 A 
ATOM     20  C   UNL     1      59.110 -20.937   3.743  1.00  0.00     0.176 A 
ATOM     21  C   UNL     1      58.600 -18.982   2.367  1.00  0.00     0.146 A 
ATOM     22  C   UNL     1      59.565 -19.850   2.938  1.00  0.00     0.111 A 
ATOM     23  O   UNL     1      58.969 -17.973   1.584  1.00  0.00    -0.456 OA
ATOM     24  C   UNL     1      60.925 -19.549   2.684  1.00  0.00     0.197 A 
ATOM     25  C   UNL     1      60.237 -17.689   1.301  1.00  0.00     0.138 A 
ATOM     26  C   UNL     1      61.255 -18.481   1.849  1.00  0.00     0.100 A 
ATOM     27  O   UNL     1      61.863 -20.202   3.210  1.00  0.00    -0.289 OA
BRANCH  18  28
ATOM     28  O   UNL     1      57.324 -22.127   4.838  1.00  0.00    -0.502 OA
ATOM     29  H   UNL     1      56.981 -21.975   5.778  1.00  0.00     0.293 HD
ENDBRANCH  18  28
BRANCH  20  30
ATOM     30  O   UNL     1      59.957 -21.914   4.277  1.00  0.00    -0.504 OA
ATOM     31  H   UNL     1      60.653 -22.424   3.756  1.00  0.00     0.293 HD
ENDBRANCH  20  30
BRANCH  25  32
ATOM     32  C   UNL     1      60.529 -16.541   0.407  1.00  0.00     0.017 A 
ATOM     33  C   UNL     1      60.790 -15.251   0.915  1.00  0.00     0.012 A 
ATOM     34  C   UNL     1      60.514 -16.728  -0.989  1.00  0.00     0.012 A 
ATOM     35  C   UNL     1      61.051 -14.187   0.046  1.00  0.00     0.001 A 
ATOM     36  C   UNL     1      60.775 -15.660  -1.852  1.00  0.00     0.001 A 
ATOM     37  C   UNL     1      61.047 -14.391  -1.335  1.00  0.00     0.000 A 
ENDBRANCH  25  32
ENDBRANCH   1  17
TORSDOF 9
ENDMDL
MODEL 2
REMARK VINA RESULT:    -8.093      2.148      3.633
REMARK INTER + INTRA:         -12.464
REMARK INTER:                 -11.191
REMARK INTRA:                  -1.273
REMARK UNBOUND:                -1.295
REMARK SMILES O=C([O-])[C@H]1O[C@H](Oc2cc3oc(-c4ccccc4)cc(=O)c3c(O)c2O)[C@H](O)[C@H](O)[C@@H]1O
REMARK SMILES IDX 7 1 6 2 4 3 31 4 5 5 29 6 27 7 2 8 1 9 3 10 32 11 30 13
REMARK SMILES IDX 28 15 8 17 25 18 9 19 23 20 10 21 22 22 11 23 20 24 12 25
REMARK SMILES IDX 19 26 21 27 26 28 24 30 13 32 14 33 18 34 15 35 17 36 16 37
REMARK H PARENT 32 12 30 14 28 16 26 29 24 31
REMARK Flexibility Score: inf
ROOT
ATOM      1  O   UNL     1      53.223 -21.728   2.828  1.00  0.00    -0.458 OA
ENDROOT
BRANCH   1   2
ATOM      2  C   UNL     1      52.072 -20.980   3.234  1.00  0.00     0.339 C 
ATOM      3  C   UNL     1      51.534 -20.352   1.036  1.00  0.00     0.199 C 
ATOM      4  C   UNL     1      50.226 -21.176   1.005  1.00  0.00     0.180 C 
ATOM      5  O   UNL     1      51.818 -19.898   2.350  1.00  0.00    -0.328 OA
ATOM      6  C   UNL     1      50.290 -22.357   1.999  1.00  0.00     0.181 C 
ATOM      7  C   UNL     1      50.826 -21.886   3.369  1.00  0.00     0.214 C 
BRANCH   3   8
ATOM      8  C   UNL     1      51.396 -19.151   0.147  1.00  0.00     0.073 C 
ATOM      9  O   UNL     1      50.259 -18.786  -0.255  1.00  0.00    -0.547 OA
ATOM     10  O   UNL     1      52.518 -18.412  -0.208  1.00  0.00    -0.547 OA
ENDBRANCH   3   8
BRANCH   4  11
ATOM     11  O   UNL     1      49.991 -21.651  -0.296  1.00  0.00    -0.387 OA
ATOM     12  H   UNL     1      49.037 -21.920  -0.334  1.00  0.00     0.211 HD
ENDBRANCH   4  11
BRANCH   6  13
ATOM     13  O   UNL     1      51.022 -23.445   1.486  1.00  0.00    -0.387 OA
ATOM     14  H   UNL     1      51.924 -23.436   1.891  1.00  0.00     0.211 HD
ENDBRANCH   6  13
BRANCH   7  15
ATOM     15  O   UNL     1      51.056 -22.967   4.239  1.00  0.00    -0.384 OA
ATOM     16  H   UNL     1      50.904 -23.807   3.732  1.00  0.00     0.211 HD
ENDBRANCH   7  15
ENDBRANCH   1   2
BRANCH   1  17
ATOM     17  C   UNL     1      54.503 -21.623   3.396  1.00  0.00     0.172 A 
ATOM     18  C   UNL     1      54.739 -22.231   4.639  1.00  0.00     0.201 A 
ATOM     19  C   UNL     1      55.547 -20.938   2.758  1.00  0.00     0.098 A 
ATOM     20  C   UNL     1      56.005 -22.167   5.244  1.00  0.00     0.176 A 
ATOM     21  C   UNL     1      56.801 -20.833   3.357  1.00  0.00     0.146 A 
ATOM     22  C   UNL     1      57.052 -21.425   4.620  1.00  0.00     0.111 A 
ATOM     23  O   UNL     1      57.752 -20.157   2.719  1.00  0.00    -0.456 OA
ATOM     24  C   UNL     1      58.332 -21.208   5.185  1.00  0.00     0.197 A 
ATOM     25  C   UNL     1      58.973 -19.968   3.210  1.00  0.00     0.138 A 
ATOM     26  C   UNL     1      59.295 -20.496   4.468  1.00  0.00     0.100 A 
ATOM     27  O   UNL     1      58.633 -21.615   6.336  1.00  0.00    -0.289 OA
BRANCH  18  28
ATOM     28  O   UNL     1      53.719 -22.927   5.290  1.00  0.00    -0.502 OA
ATOM     29  H   UNL     1      53.323 -22.617   6.168  1.00  0.00     0.293 HD
ENDBRANCH  18  28
BRANCH  20  30
ATOM     30  O   UNL     1      56.163 -22.877   6.439  1.00  0.00    -0.504 OA
ATOM     31  H   UNL     1      56.715 -23.713   6.547  1.00  0.00     0.293 HD
ENDBRANCH  20  30
BRANCH  25  32
ATOM     32  C   UNL     1      59.957 -19.204   2.403  1.00  0.00     0.017 A 
ATOM     33  C   UNL     1      60.988 -19.845   1.686  1.00  0.00     0.012 A 
ATOM     34  C   UNL     1      59.885 -17.797   2.374  1.00  0.00     0.012 A 
ATOM     35  C   UNL     1      61.907 -19.096   0.944  1.00  0.00     0.001 A 
ATOM     36  C   UNL     1      60.807 -17.055   1.630  1.00  0.00     0.001 A 
ATOM     37  C   UNL     1      61.814 -17.703   0.913  1.00  0.00     0.000 A 
ENDBRANCH  25  32
ENDBRANCH   1  17
TORSDOF 9
ENDMDL
MODEL 3
REMARK VINA RESULT:    -7.641      2.101      4.526
REMARK INTER + INTRA:         -11.839
REMARK INTER:                 -10.409
REMARK INTRA:                  -1.430
REMARK UNBOUND:                -1.295
REMARK SMILES O=C([O-])[C@H]1O[C@H](Oc2cc3oc(-c4ccccc4)cc(=O)c3c(O)c2O)[C@H](O)[C@H](O)[C@@H]1O
REMARK SMILES IDX 7 1 6 2 4 3 31 4 5 5 29 6 27 7 2 8 1 9 3 10 32 11 30 13
REMARK SMILES IDX 28 15 8 17 25 18 9 19 23 20 10 21 22 22 11 23 20 24 12 25
REMARK SMILES IDX 19 26 21 27 26 28 24 30 13 32 14 33 18 34 15 35 17 36 16 37
REMARK H PARENT 32 12 30 14 28 16 26 29 24 31
REMARK Flexibility Score: inf
ROOT
ATOM      1  O   UNL     1      52.027 -19.981   2.899  1.00  0.00    -0.458 OA
ENDROOT
BRANCH   1   2
ATOM      2  C   UNL     1      51.328 -20.468   1.748  1.00  0.00     0.339 C 
ATOM      3  C   UNL     1      49.581 -21.381   3.024  1.00  0.00     0.199 C 
ATOM      4  C   UNL     1      48.523 -20.389   2.487  1.00  0.00     0.180 C 
ATOM      5  O   UNL     1      50.580 -21.636   2.050  1.00  0.00    -0.328 OA
ATOM      6  C   UNL     1      49.185 -19.077   2.011  1.00  0.00     0.181 C 
ATOM      7  C   UNL     1      50.420 -19.377   1.134  1.00  0.00     0.214 C 
BRANCH   3   8
ATOM      8  C   UNL     1      48.922 -22.685   3.370  1.00  0.00     0.073 C 
ATOM      9  O   UNL     1      47.737 -22.912   3.008  1.00  0.00    -0.547 OA
ATOM     10  O   UNL     1      49.629 -23.663   4.058  1.00  0.00    -0.547 OA
ENDBRANCH   3   8
BRANCH   4  11
ATOM     11  O   UNL     1      47.572 -20.119   3.483  1.00  0.00    -0.387 OA
ATOM     12  H   UNL     1      46.685 -20.115   3.038  1.00  0.00     0.211 HD
ENDBRANCH   4  11
BRANCH   6  13
ATOM     13  O   UNL     1      49.489 -18.216   3.084  1.00  0.00    -0.387 OA
ATOM     14  H   UNL     1      50.056 -17.479   2.745  1.00  0.00     0.211 HD
ENDBRANCH   6  13
BRANCH   7  15
ATOM     15  O   UNL     1      51.140 -18.207   0.829  1.00  0.00    -0.384 OA
ATOM     16  H   UNL     1      52.090 -18.458   0.690  1.00  0.00     0.211 HD
ENDBRANCH   7  15
ENDBRANCH   1   2
BRANCH   1  17
ATOM     17  C   UNL     1      53.319 -20.370   3.289  1.00  0.00     0.172 A 
ATOM     18  C   UNL     1      53.458 -21.443   4.182  1.00  0.00     0.201 A 
ATOM     19  C   UNL     1      54.467 -19.724   2.810  1.00  0.00     0.098 A 
ATOM     20  C   UNL     1      54.728 -21.880   4.593  1.00  0.00     0.176 A 
ATOM     21  C   UNL     1      55.736 -20.119   3.231  1.00  0.00     0.146 A 
ATOM     22  C   UNL     1      55.893 -21.189   4.147  1.00  0.00     0.111 A 
ATOM     23  O   UNL     1      56.793 -19.462   2.761  1.00  0.00    -0.456 OA
ATOM     24  C   UNL     1      57.213 -21.475   4.575  1.00  0.00     0.197 A 
ATOM     25  C   UNL     1      58.044 -19.734   3.119  1.00  0.00     0.138 A 
ATOM     26  C   UNL     1      58.285 -20.759   4.043  1.00  0.00     0.100 A 
ATOM     27  O   UNL     1      57.458 -22.347   5.448  1.00  0.00    -0.289 OA
BRANCH  18  28
ATOM     28  O   UNL     1      52.330 -22.109   4.667  1.00  0.00    -0.502 OA
ATOM     29  H   UNL     1      51.532 -21.620   5.051  1.00  0.00     0.293 HD
ENDBRANCH  18  28
BRANCH  20  30
ATOM     30  O   UNL     1      54.763 -23.011   5.416  1.00  0.00    -0.504 OA
ATOM     31  H   UNL     1      55.468 -23.730   5.382  1.00  0.00     0.293 HD
ENDBRANCH  20  30
BRANCH  25  32
ATOM     32  C   UNL     1      59.146 -18.939   2.521  1.00  0.00     0.017 A 
ATOM     33  C   UNL     1      59.039 -17.545   2.332  1.00  0.00     0.012 A 
ATOM     34  C   UNL     1      60.320 -19.591   2.097  1.00  0.00     0.012 A 
ATOM     35  C   UNL     1      60.090 -16.825   1.755  1.00  0.00     0.001 A 
ATOM     36  C   UNL     1      61.367 -18.866   1.521  1.00  0.00     0.001 A 
ATOM     37  C   UNL     1      61.254 -17.484   1.354  1.00  0.00     0.000 A 
ENDBRANCH  25  32
ENDBRANCH   1  17
TORSDOF 9
ENDMDL
MODEL 4
REMARK VINA RESULT:    -7.595      4.736      7.846
REMARK INTER + INTRA:         -11.777
REMARK INTER:                 -10.371
REMARK INTRA:                  -1.405
REMARK UNBOUND:                -1.295
REMARK SMILES O=C([O-])[C@H]1O[C@H](Oc2cc3oc(-c4ccccc4)cc(=O)c3c(O)c2O)[C@H](O)[C@H](O)[C@@H]1O
REMARK SMILES IDX 7 1 6 2 4 3 31 4 5 5 29 6 27 7 2 8 1 9 3 10 32 11 30 13
REMARK SMILES IDX 28 15 8 17 25 18 9 19 23 20 10 21 22 22 11 23 20 24 12 25
REMARK SMILES IDX 19 26 21 27 26 28 24 30 13 32 14 33 18 34 15 35 17 36 16 37
REMARK H PARENT 32 12 30 14 28 16 26 29 24 31
REMARK Flexibility Score: inf
ROOT
ATOM      1  O   UNL     1      51.976 -19.591   1.628  1.00  0.00    -0.458 OA
ENDROOT
BRANCH   1   2
ATOM      2  C   UNL     1      52.757 -20.788   1.706  1.00  0.00     0.339 C 
ATOM      3  C   UNL     1      53.413 -20.382   3.923  1.00  0.00     0.199 C 
ATOM      4  C   UNL     1      52.630 -21.588   4.491  1.00  0.00     0.180 C 
ATOM      5  O   UNL     1      53.851 -20.638   2.598  1.00  0.00    -0.328 OA
ATOM      6  C   UNL     1      51.443 -21.960   3.575  1.00  0.00     0.181 C 
ATOM      7  C   UNL     1      51.890 -22.007   2.098  1.00  0.00     0.214 C 
BRANCH   3   8
ATOM      8  C   UNL     1      54.623 -20.119   4.772  1.00  0.00     0.073 C 
ATOM      9  O   UNL     1      55.776 -20.175   4.268  1.00  0.00    -0.547 OA
ATOM     10  O   UNL     1      54.476 -19.775   6.110  1.00  0.00    -0.547 OA
ENDBRANCH   3   8
BRANCH   4  11
ATOM     11  O   UNL     1      52.170 -21.293   5.785  1.00  0.00    -0.387 OA
ATOM     12  H   UNL     1      52.921 -20.857   6.263  1.00  0.00     0.211 HD
ENDBRANCH   4  11
BRANCH   6  13
ATOM     13  O   UNL     1      50.335 -21.112   3.770  1.00  0.00    -0.387 OA
ATOM     14  H   UNL     1      50.144 -21.061   4.739  1.00  0.00     0.211 HD
ENDBRANCH   6  13
BRANCH   7  15
ATOM     15  O   UNL     1      50.797 -22.174   1.227  1.00  0.00    -0.384 OA
ATOM     16  H   UNL     1      51.090 -22.750   0.473  1.00  0.00     0.211 HD
ENDBRANCH   7  15
ENDBRANCH   1   2
BRANCH   1  17
ATOM     17  C   UNL     1      51.516 -18.996   0.442  1.00  0.00     0.172 A 
ATOM     18  C   UNL     1      50.139 -19.008   0.173  1.00  0.00     0.201 A 
ATOM     19  C   UNL     1      52.388 -18.387  -0.472  1.00  0.00     0.098 A 
ATOM     20  C   UNL     1      49.626 -18.414  -0.992  1.00  0.00     0.176 A 
ATOM     21  C   UNL     1      51.904 -17.822  -1.651  1.00  0.00     0.146 A 
ATOM     22  C   UNL     1      50.518 -17.842  -1.947  1.00  0.00     0.111 A 
ATOM     23  O   UNL     1      52.774 -17.273  -2.493  1.00  0.00    -0.456 OA
ATOM     24  C   UNL     1      50.124 -17.309  -3.198  1.00  0.00     0.197 A 
ATOM     25  C   UNL     1      52.427 -16.734  -3.659  1.00  0.00     0.138 A 
ATOM     26  C   UNL     1      51.079 -16.739  -4.041  1.00  0.00     0.100 A 
ATOM     27  O   UNL     1      48.932 -17.352  -3.598  1.00  0.00    -0.289 OA
BRANCH  18  28
ATOM     28  O   UNL     1      49.249 -19.599   1.072  1.00  0.00    -0.502 OA
ATOM     29  H   UNL     1      49.199 -19.328   2.046  1.00  0.00     0.293 HD
ENDBRANCH  18  28
BRANCH  20  30
ATOM     30  O   UNL     1      48.234 -18.403  -1.126  1.00  0.00    -0.504 OA
ATOM     31  H   UNL     1      47.657 -19.220  -1.247  1.00  0.00     0.293 HD
ENDBRANCH  20  30
BRANCH  25  32
ATOM     32  C   UNL     1      53.486 -16.142  -4.514  1.00  0.00     0.017 A 
ATOM     33  C   UNL     1      54.537 -16.920  -5.042  1.00  0.00     0.012 A 
ATOM     34  C   UNL     1      53.465 -14.760  -4.784  1.00  0.00     0.012 A 
ATOM     35  C   UNL     1      55.526 -16.331  -5.835  1.00  0.00     0.001 A 
ATOM     36  C   UNL     1      54.457 -14.177  -5.579  1.00  0.00     0.001 A 
ATOM     37  C   UNL     1      55.484 -14.962  -6.107  1.00  0.00     0.000 A 
ENDBRANCH  25  32
ENDBRANCH   1  17
TORSDOF 9
ENDMDL
MODEL 5
REMARK VINA RESULT:    -7.574      3.145      5.577
REMARK INTER + INTRA:         -11.747
REMARK INTER:                 -10.317
REMARK INTRA:                  -1.431
REMARK UNBOUND:                -1.295
REMARK SMILES O=C([O-])[C@H]1O[C@H](Oc2cc3oc(-c4ccccc4)cc(=O)c3c(O)c2O)[C@H](O)[C@H](O)[C@@H]1O
REMARK SMILES IDX 7 1 6 2 4 3 31 4 5 5 29 6 27 7 2 8 1 9 3 10 32 11 30 13
REMARK SMILES IDX 28 15 8 17 25 18 9 19 23 20 10 21 22 22 11 23 20 24 12 25
REMARK SMILES IDX 19 26 21 27 26 28 24 30 13 32 14 33 18 34 15 35 17 36 16 37
REMARK H PARENT 32 12 30 14 28 16 26 29 24 31
REMARK Flexibility Score: inf
ROOT
ATOM      1  O   UNL     1      52.403 -19.885   1.310  1.00  0.00    -0.458 OA
ENDROOT
BRANCH   1   2
ATOM      2  C   UNL     1      52.108 -18.484   1.299  1.00  0.00     0.339 C 
ATOM      3  C   UNL     1      51.258 -18.537  -0.889  1.00  0.00     0.199 C 
ATOM      4  C   UNL     1      49.811 -18.213  -0.452  1.00  0.00     0.180 C 
ATOM      5  O   UNL     1      52.200 -17.943  -0.010  1.00  0.00    -0.328 OA
ATOM      6  C   UNL     1      49.562 -18.650   1.009  1.00  0.00     0.181 C 
ATOM      7  C   UNL     1      50.722 -18.192   1.919  1.00  0.00     0.214 C 
BRANCH   3   8
ATOM      8  C   UNL     1      51.502 -17.999  -2.269  1.00  0.00     0.073 C 
ATOM      9  O   UNL     1      52.379 -17.114  -2.458  1.00  0.00    -0.547 OA
ATOM     10  O   UNL     1      50.790 -18.500  -3.351  1.00  0.00    -0.547 OA
ENDBRANCH   3   8
BRANCH   4  11
ATOM     11  O   UNL     1      48.898 -18.848  -1.310  1.00  0.00    -0.387 OA
ATOM     12  H   UNL     1      49.098 -19.819  -1.271  1.00  0.00     0.211 HD
ENDBRANCH   4  11
BRANCH   6  13
ATOM     13  O   UNL     1      49.315 -20.032   1.116  1.00  0.00    -0.387 OA
ATOM     14  H   UNL     1      49.954 -20.512   0.532  1.00  0.00     0.211 HD
ENDBRANCH   6  13
BRANCH   7  15
ATOM     15  O   UNL     1      50.607 -18.721   3.218  1.00  0.00    -0.384 OA
ATOM     16  H   UNL     1      50.862 -18.011   3.863  1.00  0.00     0.211 HD
ENDBRANCH   7  15
ENDBRANCH   1   2
BRANCH   1  17
ATOM     17  C   UNL     1      53.265 -20.528   2.213  1.00  0.00     0.172 A 
ATOM     18  C   UNL     1      52.712 -21.398   3.166  1.00  0.00     0.201 A 
ATOM     19  C   UNL     1      54.652 -20.332   2.186  1.00  0.00     0.098 A 
ATOM     20  C   UNL     1      53.531 -22.076   4.083  1.00  0.00     0.176 A 
ATOM     21  C   UNL     1      55.481 -20.969   3.108  1.00  0.00     0.146 A 
ATOM     22  C   UNL     1      54.938 -21.836   4.090  1.00  0.00     0.111 A 
ATOM     23  O   UNL     1      56.788 -20.736   3.052  1.00  0.00    -0.456 OA
ATOM     24  C   UNL     1      55.844 -22.383   5.030  1.00  0.00     0.197 A 
ATOM     25  C   UNL     1      57.665 -21.264   3.900  1.00  0.00     0.138 A 
ATOM     26  C   UNL     1      57.208 -22.111   4.919  1.00  0.00     0.100 A 
ATOM     27  O   UNL     1      55.459 -23.097   5.992  1.00  0.00    -0.289 OA
BRANCH  18  28
ATOM     28  O   UNL     1      51.334 -21.617   3.208  1.00  0.00    -0.502 OA
ATOM     29  H   UNL     1      50.860 -21.942   4.040  1.00  0.00     0.293 HD
ENDBRANCH  18  28
BRANCH  20  30
ATOM     30  O   UNL     1      52.896 -22.985   4.935  1.00  0.00    -0.504 OA
ATOM     31  H   UNL     1      51.919 -23.233   4.893  1.00  0.00     0.293 HD
ENDBRANCH  20  30
BRANCH  25  32
ATOM     32  C   UNL     1      59.104 -20.939   3.734  1.00  0.00     0.017 A 
ATOM     33  C   UNL     1      60.008 -20.994   4.816  1.00  0.00     0.012 A 
ATOM     34  C   UNL     1      59.581 -20.533   2.473  1.00  0.00     0.012 A 
ATOM     35  C   UNL     1      61.356 -20.671   4.630  1.00  0.00     0.001 A 
ATOM     36  C   UNL     1      60.930 -20.211   2.294  1.00  0.00     0.001 A 
ATOM     37  C   UNL     1      61.817 -20.283   3.371  1.00  0.00     0.000 A 
ENDBRANCH  25  32
ENDBRANCH   1  17
TORSDOF 9
ENDMDL
MODEL 6
REMARK VINA RESULT:    -7.474      5.163      8.068
REMARK INTER + INTRA:         -11.609
REMARK INTER:                 -10.245
REMARK INTRA:                  -1.364
REMARK UNBOUND:                -1.295
REMARK SMILES O=C([O-])[C@H]1O[C@H](Oc2cc3oc(-c4ccccc4)cc(=O)c3c(O)c2O)[C@H](O)[C@H](O)[C@@H]1O
REMARK SMILES IDX 7 1 6 2 4 3 31 4 5 5 29 6 27 7 2 8 1 9 3 10 32 11 30 13
REMARK SMILES IDX 28 15 8 17 25 18 9 19 23 20 10 21 22 22 11 23 20 24 12 25
REMARK SMILES IDX 19 26 21 27 26 28 24 30 13 32 14 33 18 34 15 35 17 36 16 37
REMARK H PARENT 32 12 30 14 28 16 26 29 24 31
REMARK Flexibility Score: inf
ROOT
ATOM      1  O   UNL     1      51.349 -20.511   1.405  1.00  0.00    -0.458 OA
ENDROOT
BRANCH   1   2
ATOM      2  C   UNL     1      52.520 -21.288   1.680  1.00  0.00     0.339 C 
ATOM      3  C   UNL     1      52.883 -20.261   3.760  1.00  0.00     0.199 C 
ATOM      4  C   UNL     1      52.589 -21.546   4.568  1.00  0.00     0.180 C 
ATOM      5  O   UNL     1      53.439 -20.574   2.492  1.00  0.00    -0.328 OA
ATOM      6  C   UNL     1      51.668 -22.501   3.777  1.00  0.00     0.181 C 
ATOM      7  C   UNL     1      52.160 -22.648   2.320  1.00  0.00     0.214 C 
BRANCH   3   8
ATOM      8  C   UNL     1      53.869 -19.410   4.505  1.00  0.00     0.073 C 
ATOM      9  O   UNL     1      53.978 -18.183   4.237  1.00  0.00    -0.547 OA
ATOM     10  O   UNL     1      54.641 -19.960   5.520  1.00  0.00    -0.547 OA
ENDBRANCH   3   8
BRANCH   4  11
ATOM     11  O   UNL     1      51.999 -21.213   5.798  1.00  0.00    -0.387 OA
ATOM     12  H   UNL     1      51.692 -22.063   6.208  1.00  0.00     0.211 HD
ENDBRANCH   4  11
BRANCH   6  13
ATOM     13  O   UNL     1      50.316 -22.113   3.846  1.00  0.00    -0.387 OA
ATOM     14  H   UNL     1      49.767 -22.915   4.032  1.00  0.00     0.211 HD
ENDBRANCH   6  13
BRANCH   7  15
ATOM     15  O   UNL     1      51.247 -23.373   1.533  1.00  0.00    -0.384 OA
ATOM     16  H   UNL     1      50.377 -23.393   2.010  1.00  0.00     0.211 HD
ENDBRANCH   7  15
ENDBRANCH   1   2
BRANCH   1  17
ATOM     17  C   UNL     1      50.972 -20.027   0.142  1.00  0.00     0.172 A 
ATOM     18  C   UNL     1      49.912 -20.656  -0.530  1.00  0.00     0.201 A 
ATOM     19  C   UNL     1      51.615 -18.938  -0.461  1.00  0.00     0.098 A 
ATOM     20  C   UNL     1      49.486 -20.203  -1.789  1.00  0.00     0.176 A 
ATOM     21  C   UNL     1      51.231 -18.493  -1.725  1.00  0.00     0.146 A 
ATOM     22  C   UNL     1      50.175 -19.128  -2.426  1.00  0.00     0.111 A 
ATOM     23  O   UNL     1      51.885 -17.467  -2.261  1.00  0.00    -0.456 OA
ATOM     24  C   UNL     1      49.900 -18.656  -3.732  1.00  0.00     0.197 A 
ATOM     25  C   UNL     1      51.624 -16.982  -3.471  1.00  0.00     0.138 A 
ATOM     26  C   UNL     1      50.613 -17.571  -4.242  1.00  0.00     0.100 A 
ATOM     27  O   UNL     1      49.042 -19.202  -4.473  1.00  0.00    -0.289 OA
BRANCH  18  28
ATOM     28  O   UNL     1      49.249 -21.738   0.054  1.00  0.00    -0.502 OA
ATOM     29  H   UNL     1      49.064 -21.791   1.047  1.00  0.00     0.293 HD
ENDBRANCH  18  28
BRANCH  20  30
ATOM     30  O   UNL     1      48.368 -20.840  -2.336  1.00  0.00    -0.504 OA
ATOM     31  H   UNL     1      47.653 -20.387  -2.883  1.00  0.00     0.293 HD
ENDBRANCH  20  30
BRANCH  25  32
ATOM     32  C   UNL     1      52.414 -15.825  -3.962  1.00  0.00     0.017 A 
ATOM     33  C   UNL     1      51.931 -14.503  -3.874  1.00  0.00     0.012 A 
ATOM     34  C   UNL     1      53.668 -16.048  -4.564  1.00  0.00     0.012 A 
ATOM     35  C   UNL     1      52.694 -13.435  -4.356  1.00  0.00     0.001 A 
ATOM     36  C   UNL     1      54.426 -14.976  -5.044  1.00  0.00     0.001 A 
ATOM     37  C   UNL     1      53.942 -13.671  -4.936  1.00  0.00     0.000 A 
ENDBRANCH  25  32
ENDBRANCH   1  17
TORSDOF 9
ENDMDL
MODEL 7
REMARK VINA RESULT:    -7.343      2.848      4.772
REMARK INTER + INTRA:         -11.429
REMARK INTER:                 -10.150
REMARK INTRA:                  -1.279
REMARK UNBOUND:                -1.295
REMARK SMILES O=C([O-])[C@H]1O[C@H](Oc2cc3oc(-c4ccccc4)cc(=O)c3c(O)c2O)[C@H](O)[C@H](O)[C@@H]1O
REMARK SMILES IDX 7 1 6 2 4 3 31 4 5 5 29 6 27 7 2 8 1 9 3 10 32 11 30 13
REMARK SMILES IDX 28 15 8 17 25 18 9 19 23 20 10 21 22 22 11 23 20 24 12 25
REMARK SMILES IDX 19 26 21 27 26 28 24 30 13 32 14 33 18 34 15 35 17 36 16 37
REMARK H PARENT 32 12 30 14 28 16 26 29 24 31
REMARK Flexibility Score: inf
ROOT
ATOM      1  O   UNL     1      52.464 -20.599   2.730  1.00  0.00    -0.458 OA
ENDROOT
BRANCH   1   2
ATOM      2  C   UNL     1      51.549 -20.642   3.831  1.00  0.00     0.339 C 
ATOM      3  C   UNL     1      49.658 -20.653   2.438  1.00  0.00     0.199 C 
ATOM      4  C   UNL     1      49.241 -22.089   2.831  1.00  0.00     0.180 C 
ATOM      5  O   UNL     1      50.322 -20.004   3.511  1.00  0.00    -0.328 OA
ATOM      6  C   UNL     1      50.460 -22.909   3.309  1.00  0.00     0.181 C 
ATOM      7  C   UNL     1      51.307 -22.092   4.310  1.00  0.00     0.214 C 
BRANCH   3   8
ATOM      8  C   UNL     1      48.439 -19.850   2.089  1.00  0.00     0.073 C 
ATOM      9  O   UNL     1      47.295 -20.256   2.424  1.00  0.00    -0.547 OA
ATOM     10  O   UNL     1      48.569 -18.635   1.428  1.00  0.00    -0.547 OA
ENDBRANCH   3   8
BRANCH   4  11
ATOM     11  O   UNL     1      48.628 -22.725   1.740  1.00  0.00    -0.387 OA
ATOM     12  H   UNL     1      48.679 -22.094   0.976  1.00  0.00     0.211 HD
ENDBRANCH   4  11
BRANCH   6  13
ATOM     13  O   UNL     1      51.228 -23.395   2.234  1.00  0.00    -0.387 OA
ATOM     14  H   UNL     1      52.122 -22.973   2.269  1.00  0.00     0.211 HD
ENDBRANCH   6  13
BRANCH   7  15
ATOM     15  O   UNL     1      52.511 -22.746   4.630  1.00  0.00    -0.384 OA
ATOM     16  H   UNL     1      52.580 -23.557   4.062  1.00  0.00     0.211 HD
ENDBRANCH   7  15
ENDBRANCH   1   2
BRANCH   1  17
ATOM     17  C   UNL     1      53.574 -19.745   2.628  1.00  0.00     0.172 A 
ATOM     18  C   UNL     1      53.355 -18.392   2.325  1.00  0.00     0.201 A 
ATOM     19  C   UNL     1      54.885 -20.200   2.826  1.00  0.00     0.098 A 
ATOM     20  C   UNL     1      54.429 -17.492   2.226  1.00  0.00     0.176 A 
ATOM     21  C   UNL     1      55.968 -19.332   2.698  1.00  0.00     0.146 A 
ATOM     22  C   UNL     1      55.766 -17.966   2.374  1.00  0.00     0.111 A 
ATOM     23  O   UNL     1      57.193 -19.817   2.877  1.00  0.00    -0.456 OA
ATOM     24  C   UNL     1      56.927 -17.175   2.195  1.00  0.00     0.197 A 
ATOM     25  C   UNL     1      58.297 -19.087   2.749  1.00  0.00     0.138 A 
ATOM     26  C   UNL     1      58.188 -17.734   2.403  1.00  0.00     0.100 A 
ATOM     27  O   UNL     1      56.865 -15.974   1.824  1.00  0.00    -0.289 OA
BRANCH  18  28
ATOM     28  O   UNL     1      52.058 -17.912   2.133  1.00  0.00    -0.502 OA
ATOM     29  H   UNL     1      51.842 -17.175   1.474  1.00  0.00     0.293 HD
ENDBRANCH  18  28
BRANCH  20  30
ATOM     30  O   UNL     1      54.101 -16.151   2.006  1.00  0.00    -0.504 OA
ATOM     31  H   UNL     1      54.711 -15.368   2.186  1.00  0.00     0.293 HD
ENDBRANCH  20  30
BRANCH  25  32
ATOM     32  C   UNL     1      59.612 -19.736   2.983  1.00  0.00     0.017 A 
ATOM     33  C   UNL     1      60.112 -19.953   4.284  1.00  0.00     0.012 A 
ATOM     34  C   UNL     1      60.401 -20.118   1.882  1.00  0.00     0.012 A 
ATOM     35  C   UNL     1      61.360 -20.556   4.471  1.00  0.00     0.001 A 
ATOM     36  C   UNL     1      61.648 -20.720   2.076  1.00  0.00     0.001 A 
ATOM     37  C   UNL     1      62.125 -20.943   3.369  1.00  0.00     0.000 A 
ENDBRANCH  25  32
ENDBRANCH   1  17
TORSDOF 9
ENDMDL
MODEL 8
REMARK VINA RESULT:    -7.284      2.803      5.861
REMARK INTER + INTRA:         -11.347
REMARK INTER:                  -9.905
REMARK INTRA:                  -1.442
REMARK UNBOUND:                -1.295
REMARK SMILES O=C([O-])[C@H]1O[C@H](Oc2cc3oc(-c4ccccc4)cc(=O)c3c(O)c2O)[C@H](O)[C@H](O)[C@@H]1O
REMARK SMILES IDX 7 1 6 2 4 3 31 4 5 5 29 6 27 7 2 8 1 9 3 10 32 11 30 13
REMARK SMILES IDX 28 15 8 17 25 18 9 19 23 20 10 21 22 22 11 23 20 24 12 25
REMARK SMILES IDX 19 26 21 27 26 28 24 30 13 32 14 33 18 34 15 35 17 36 16 37
REMARK H PARENT 32 12 30 14 28 16 26 29 24 31
REMARK Flexibility Score: inf
ROOT
ATOM      1  O   UNL     1      50.294 -19.355   2.507  1.00  0.00    -0.458 OA
ENDROOT
BRANCH   1   2
ATOM      2  C   UNL     1      49.536 -19.839   1.393  1.00  0.00     0.339 C 
ATOM      3  C   UNL     1      47.715 -20.475   2.731  1.00  0.00     0.199 C 
ATOM      4  C   UNL     1      46.763 -19.415   2.132  1.00  0.00     0.180 C 
ATOM      5  O   UNL     1      48.672 -20.899   1.774  1.00  0.00    -0.328 OA
ATOM      6  C   UNL     1      47.555 -18.214   1.568  1.00  0.00     0.181 C 
ATOM      7  C   UNL     1      48.743 -18.701   0.710  1.00  0.00     0.214 C 
BRANCH   3   8
ATOM      8  C   UNL     1      46.925 -21.676   3.165  1.00  0.00     0.073 C 
ATOM      9  O   UNL     1      45.728 -21.815   2.797  1.00  0.00    -0.547 OA
ATOM     10  O   UNL     1      47.522 -22.660   3.944  1.00  0.00    -0.547 OA
ENDBRANCH   3   8
BRANCH   4  11
ATOM     11  O   UNL     1      45.855 -18.979   3.111  1.00  0.00    -0.387 OA
ATOM     12  H   UNL     1      46.049 -18.020   3.274  1.00  0.00     0.211 HD
ENDBRANCH   4  11
BRANCH   6  13
ATOM     13  O   UNL     1      47.959 -17.322   2.580  1.00  0.00    -0.387 OA
ATOM     14  H   UNL     1      48.933 -17.425   2.720  1.00  0.00     0.211 HD
ENDBRANCH   6  13
BRANCH   7  15
ATOM     15  O   UNL     1      49.579 -17.637   0.325  1.00  0.00    -0.384 OA
ATOM     16  H   UNL     1      49.008 -16.918  -0.052  1.00  0.00     0.211 HD
ENDBRANCH   7  15
ENDBRANCH   1   2
BRANCH   1  17
ATOM     17  C   UNL     1      51.550 -19.840   2.908  1.00  0.00     0.172 A 
ATOM     18  C   UNL     1      51.604 -21.014   3.674  1.00  0.00     0.201 A 
ATOM     19  C   UNL     1      52.744 -19.192   2.561  1.00  0.00     0.098 A 
ATOM     20  C   UNL     1      52.835 -21.549   4.089  1.00  0.00     0.176 A 
ATOM     21  C   UNL     1      53.974 -19.686   2.991  1.00  0.00     0.146 A 
ATOM     22  C   UNL     1      54.046 -20.861   3.781  1.00  0.00     0.111 A 
ATOM     23  O   UNL     1      55.076 -19.025   2.650  1.00  0.00    -0.456 OA
ATOM     24  C   UNL     1      55.331 -21.250   4.232  1.00  0.00     0.197 A 
ATOM     25  C   UNL     1      56.297 -19.388   3.031  1.00  0.00     0.138 A 
ATOM     26  C   UNL     1      56.454 -20.522   3.838  1.00  0.00     0.100 A 
ATOM     27  O   UNL     1      55.499 -22.226   5.008  1.00  0.00    -0.289 OA
BRANCH  18  28
ATOM     28  O   UNL     1      50.430 -21.684   4.025  1.00  0.00    -0.502 OA
ATOM     29  H   UNL     1      49.873 -22.195   3.352  1.00  0.00     0.293 HD
ENDBRANCH  18  28
BRANCH  20  30
ATOM     30  O   UNL     1      52.787 -22.767   4.774  1.00  0.00    -0.504 OA
ATOM     31  H   UNL     1      53.557 -23.179   5.278  1.00  0.00     0.293 HD
ENDBRANCH  20  30
BRANCH  25  32
ATOM     32  C   UNL     1      57.456 -18.576   2.581  1.00  0.00     0.017 A 
ATOM     33  C   UNL     1      58.784 -19.014   2.762  1.00  0.00     0.012 A 
ATOM     34  C   UNL     1      57.232 -17.319   1.987  1.00  0.00     0.012 A 
ATOM     35  C   UNL     1      59.856 -18.221   2.338  1.00  0.00     0.001 A 
ATOM     36  C   UNL     1      58.307 -16.532   1.565  1.00  0.00     0.001 A 
ATOM     37  C   UNL     1      59.618 -16.984   1.737  1.00  0.00     0.000 A 
ENDBRANCH  25  32
ENDBRANCH   1  17
TORSDOF 9
ENDMDL
MODEL 9
REMARK VINA RESULT:    -7.237      3.319      6.806
REMARK INTER + INTRA:         -11.282
REMARK INTER:                  -9.894
REMARK INTRA:                  -1.388
REMARK UNBOUND:                -1.295
REMARK SMILES O=C([O-])[C@H]1O[C@H](Oc2cc3oc(-c4ccccc4)cc(=O)c3c(O)c2O)[C@H](O)[C@H](O)[C@@H]1O
REMARK SMILES IDX 7 1 6 2 4 3 31 4 5 5 29 6 27 7 2 8 1 9 3 10 32 11 30 13
REMARK SMILES IDX 28 15 8 17 25 18 9 19 23 20 10 21 22 22 11 23 20 24 12 25
REMARK SMILES IDX 19 26 21 27 26 28 24 30 13 32 14 33 18 34 15 35 17 36 16 37
REMARK H PARENT 32 12 30 14 28 16 26 29 24 31
REMARK Flexibility Score: inf
ROOT
ATOM      1  O   UNL     1      50.675 -22.459   3.691  1.00  0.00    -0.458 OA
ENDROOT
BRANCH   1   2
ATOM      2  C   UNL     1      50.529 -23.621   2.867  1.00  0.00     0.339 C 
ATOM      3  C   UNL     1      48.901 -24.577   4.263  1.00  0.00     0.199 C 
ATOM      4  C   UNL     1      47.770 -24.446   3.218  1.00  0.00     0.180 C 
ATOM      5  O   UNL     1      50.159 -24.757   3.633  1.00  0.00    -0.328 OA
ATOM      6  C   UNL     1      48.063 -23.301   2.223  1.00  0.00     0.181 C 
ATOM      7  C   UNL     1      49.521 -23.378   1.720  1.00  0.00     0.214 C 
BRANCH   3   8
ATOM      8  C   UNL     1      48.644 -25.767   5.141  1.00  0.00     0.073 C 
ATOM      9  O   UNL     1      49.277 -25.907   6.222  1.00  0.00    -0.547 OA
ATOM     10  O   UNL     1      47.680 -26.701   4.786  1.00  0.00    -0.547 OA
ENDBRANCH   3   8
BRANCH   4  11
ATOM     11  O   UNL     1      46.544 -24.224   3.865  1.00  0.00    -0.387 OA
ATOM     12  H   UNL     1      46.330 -25.053   4.366  1.00  0.00     0.211 HD
ENDBRANCH   4  11
BRANCH   6  13
ATOM     13  O   UNL     1      47.752 -22.037   2.761  1.00  0.00    -0.387 OA
ATOM     14  H   UNL     1      46.796 -21.848   2.587  1.00  0.00     0.211 HD
ENDBRANCH   6  13
BRANCH   7  15
ATOM     15  O   UNL     1      49.867 -22.253   0.948  1.00  0.00    -0.384 OA
ATOM     16  H   UNL     1      49.074 -21.995   0.410  1.00  0.00     0.211 HD
ENDBRANCH   7  15
ENDBRANCH   1   2
BRANCH   1  17
ATOM     17  C   UNL     1      51.568 -21.401   3.454  1.00  0.00     0.172 A 
ATOM     18  C   UNL     1      51.044 -20.142   3.119  1.00  0.00     0.201 A 
ATOM     19  C   UNL     1      52.957 -21.563   3.548  1.00  0.00     0.098 A 
ATOM     20  C   UNL     1      51.893 -19.047   2.886  1.00  0.00     0.176 A 
ATOM     21  C   UNL     1      53.818 -20.498   3.287  1.00  0.00     0.146 A 
ATOM     22  C   UNL     1      53.307 -19.225   2.929  1.00  0.00     0.111 A 
ATOM     23  O   UNL     1      55.128 -20.708   3.372  1.00  0.00    -0.456 OA
ATOM     24  C   UNL     1      54.256 -18.223   2.612  1.00  0.00     0.197 A 
ATOM     25  C   UNL     1      56.040 -19.775   3.114  1.00  0.00     0.138 A 
ATOM     26  C   UNL     1      55.619 -18.496   2.726  1.00  0.00     0.100 A 
ATOM     27  O   UNL     1      53.913 -17.084   2.201  1.00  0.00    -0.289 OA
BRANCH  18  28
ATOM     28  O   UNL     1      49.664 -19.952   3.028  1.00  0.00    -0.502 OA
ATOM     29  H   UNL     1      49.112 -19.594   3.797  1.00  0.00     0.293 HD
ENDBRANCH  18  28
BRANCH  20  30
ATOM     30  O   UNL     1      51.272 -17.818   2.644  1.00  0.00    -0.504 OA
ATOM     31  H   UNL     1      51.369 -17.276   1.799  1.00  0.00     0.293 HD
ENDBRANCH  20  30
BRANCH  25  32
ATOM     32  C   UNL     1      57.476 -20.123   3.252  1.00  0.00     0.017 A 
ATOM     33  C   UNL     1      57.894 -21.342   3.825  1.00  0.00     0.012 A 
ATOM     34  C   UNL     1      58.455 -19.203   2.830  1.00  0.00     0.012 A 
ATOM     35  C   UNL     1      59.255 -21.636   3.951  1.00  0.00     0.001 A 
ATOM     36  C   UNL     1      59.814 -19.503   2.959  1.00  0.00     0.001 A 
ATOM     37  C   UNL     1      60.214 -20.720   3.515  1.00  0.00     0.000 A 
ENDBRANCH  25  32
ENDBRANCH   1  17
TORSDOF 9
ENDMDL
