MODEL 1
REMARK VINA RESULT:    -8.216      0.000      0.000
REMARK INTER + INTRA:         -11.855
REMARK INTER:                 -10.377
REMARK INTRA:                  -1.477
REMARK UNBOUND:                -1.477
REMARK SMILES CC(C)[C@@H](C)C=C[C@H](C)[C@@H]1CC[C@@H]2C3=CC=C4C[C@H](O)CC[C@]4(C)[C@H]3CC[C@@]21C
REMARK SMILES IDX 8 1 9 2 7 3 6 4 4 5 5 6 2 7 1 8 3 9 10 10 11 11 28 12 12 13
REMARK SMILES IDX 13 14 27 15 29 16 14 17 26 18 25 19 15 20 23 21 16 22 17 23
REMARK SMILES IDX 22 24 24 25 18 26 21 27 19 28 20 29
REMARK H PARENT 20 30
REMARK Flexibility Score: inf
ROOT
ATOM      1  C   UNL     1      -1.432  25.686  51.032  1.00  0.00     0.012 C 
ATOM      2  C   UNL     1      -1.309  27.154  50.566  1.00  0.00     0.012 C 
ENDROOT
BRANCH   1   3
ATOM      3  C   UNL     1      -1.608  25.675  52.536  1.00  0.00    -0.028 C 
ATOM      4  C   UNL     1      -1.178  24.685  53.353  1.00  0.00    -0.028 C 
BRANCH   4   5
ATOM      5  C   UNL     1      -0.331  23.498  52.930  1.00  0.00     0.011 C 
ATOM      6  C   UNL     1      -0.637  22.295  53.847  1.00  0.00     0.012 C 
BRANCH   5   7
ATOM      7  C   UNL     1       1.195  23.866  52.919  1.00  0.00    -0.011 C 
ATOM      8  C   UNL     1       2.006  22.994  53.892  1.00  0.00     0.008 C 
ATOM      9  C   UNL     1       1.826  23.738  51.517  1.00  0.00     0.008 C 
ENDBRANCH   5   7
ENDBRANCH   4   5
ENDBRANCH   1   3
BRANCH   1  10
ATOM     10  C   UNL     1      -2.552  24.935  50.201  1.00  0.00     0.002 C 
ATOM     11  C   UNL     1      -3.580  24.202  51.059  1.00  0.00     0.005 C 
ATOM     12  C   UNL     1      -2.196  23.960  49.016  1.00  0.00    -0.023 C 
ATOM     13  C   UNL     1      -4.385  23.351  50.090  1.00  0.00     0.009 C 
ATOM     14  C   UNL     1      -3.524  23.143  48.823  1.00  0.00     0.021 C 
ATOM     15  C   UNL     1      -0.998  23.014  49.325  1.00  0.00     0.008 C 
ATOM     16  C   UNL     1      -1.872  24.794  47.735  1.00  0.00     0.012 C 
ATOM     17  C   UNL     1      -3.386  21.635  48.550  1.00  0.00    -0.063 C 
ATOM     18  C   UNL     1      -0.859  21.874  48.303  1.00  0.00     0.009 C 
ATOM     19  C   UNL     1      -2.052  20.917  48.420  1.00  0.00     0.025 C 
ATOM     20  C   UNL     1      -4.509  20.912  48.401  1.00  0.00    -0.000 C 
ATOM     21  C   UNL     1      -2.123  19.780  47.321  1.00  0.00    -0.005 C 
ATOM     22  C   UNL     1      -4.440  19.458  48.141  1.00  0.00    -0.000 C 
ATOM     23  C   UNL     1      -3.314  18.888  47.704  1.00  0.00    -0.061 C 
ATOM     24  C   UNL     1      -0.786  18.981  47.307  1.00  0.00     0.014 C 
ATOM     25  C   UNL     1      -2.414  20.366  45.897  1.00  0.00     0.017 C 
ATOM     26  C   UNL     1      -3.345  17.404  47.393  1.00  0.00     0.063 C 
ATOM     27  C   UNL     1      -0.905  17.606  46.629  1.00  0.00     0.033 C 
ATOM     28  C   UNL     1      -1.962  16.728  47.315  1.00  0.00     0.118 C 
BRANCH  28  29
ATOM     29  O   UNL     1      -1.528  16.278  48.577  1.00  0.00    -0.393 OA
ATOM     30  H   UNL     1      -2.114  16.675  49.272  1.00  0.00     0.210 HD
ENDBRANCH  28  29
ENDBRANCH   1  10
TORSDOF 5
ENDMDL
MODEL 2
REMARK VINA RESULT:    -7.845      1.506      2.074
REMARK INTER + INTRA:         -11.386
REMARK INTER:                 -10.082
REMARK INTRA:                  -1.304
REMARK UNBOUND:                -1.477
REMARK SMILES CC(C)[C@@H](C)C=C[C@H](C)[C@@H]1CC[C@@H]2C3=CC=C4C[C@H](O)CC[C@]4(C)[C@H]3CC[C@@]21C
REMARK SMILES IDX 8 1 9 2 7 3 6 4 4 5 5 6 2 7 1 8 3 9 10 10 11 11 28 12 12 13
REMARK SMILES IDX 13 14 27 15 29 16 14 17 26 18 25 19 15 20 23 21 16 22 17 23
REMARK SMILES IDX 22 24 24 25 18 26 21 27 19 28 20 29
REMARK H PARENT 20 30
REMARK Flexibility Score: inf
ROOT
ATOM      1  C   UNL     1      -3.530  26.754  50.103  1.00  0.00     0.012 C 
ATOM      2  C   UNL     1      -3.555  28.141  49.423  1.00  0.00     0.012 C 
ENDROOT
BRANCH   1   3
ATOM      3  C   UNL     1      -4.011  26.912  51.530  1.00  0.00    -0.028 C 
ATOM      4  C   UNL     1      -3.448  26.309  52.603  1.00  0.00    -0.028 C 
BRANCH   4   5
ATOM      5  C   UNL     1      -2.166  25.493  52.584  1.00  0.00     0.011 C 
ATOM      6  C   UNL     1      -2.501  24.020  52.272  1.00  0.00     0.012 C 
BRANCH   5   7
ATOM      7  C   UNL     1      -1.374  25.653  53.929  1.00  0.00    -0.011 C 
ATOM      8  C   UNL     1      -0.199  24.666  54.028  1.00  0.00     0.008 C 
ATOM      9  C   UNL     1      -0.821  27.080  54.125  1.00  0.00     0.008 C 
ENDBRANCH   5   7
ENDBRANCH   4   5
ENDBRANCH   1   3
BRANCH   1  10
ATOM     10  C   UNL     1      -4.313  25.694  49.225  1.00  0.00     0.002 C 
ATOM     11  C   UNL     1      -5.318  24.854  50.009  1.00  0.00     0.005 C 
ATOM     12  C   UNL     1      -3.566  24.697  48.262  1.00  0.00    -0.023 C 
ATOM     13  C   UNL     1      -5.753  23.749  49.060  1.00  0.00     0.009 C 
ATOM     14  C   UNL     1      -4.653  23.596  47.985  1.00  0.00     0.021 C 
ATOM     15  C   UNL     1      -2.284  24.070  48.885  1.00  0.00     0.008 C 
ATOM     16  C   UNL     1      -3.183  25.437  46.940  1.00  0.00     0.012 C 
ATOM     17  C   UNL     1      -4.177  22.133  47.955  1.00  0.00    -0.063 C 
ATOM     18  C   UNL     1      -1.743  22.883  48.072  1.00  0.00     0.009 C 
ATOM     19  C   UNL     1      -2.729  21.710  48.138  1.00  0.00     0.025 C 
ATOM     20  C   UNL     1      -5.093  21.173  47.739  1.00  0.00    -0.000 C 
ATOM     21  C   UNL     1      -2.377  20.472  47.216  1.00  0.00    -0.005 C 
ATOM     22  C   UNL     1      -4.698  19.749  47.704  1.00  0.00    -0.000 C 
ATOM     23  C   UNL     1      -3.422  19.391  47.533  1.00  0.00    -0.061 C 
ATOM     24  C   UNL     1      -0.931  19.984  47.524  1.00  0.00     0.014 C 
ATOM     25  C   UNL     1      -2.514  20.824  45.695  1.00  0.00     0.017 C 
ATOM     26  C   UNL     1      -3.108  17.910  47.438  1.00  0.00     0.063 C 
ATOM     27  C   UNL     1      -0.656  18.550  47.040  1.00  0.00     0.033 C 
ATOM     28  C   UNL     1      -1.630  17.543  47.672  1.00  0.00     0.118 C 
BRANCH  28  29
ATOM     29  O   UNL     1      -1.353  17.337  49.038  1.00  0.00    -0.393 OA
ATOM     30  H   UNL     1      -1.418  18.208  49.508  1.00  0.00     0.210 HD
ENDBRANCH  28  29
ENDBRANCH   1  10
TORSDOF 5
ENDMDL
MODEL 3
REMARK VINA RESULT:    -7.401      3.592      6.116
REMARK INTER + INTRA:         -10.825
REMARK INTER:                 -10.057
REMARK INTRA:                  -0.768
REMARK UNBOUND:                -1.477
REMARK SMILES CC(C)[C@@H](C)C=C[C@H](C)[C@@H]1CC[C@@H]2C3=CC=C4C[C@H](O)CC[C@]4(C)[C@H]3CC[C@@]21C
REMARK SMILES IDX 8 1 9 2 7 3 6 4 4 5 5 6 2 7 1 8 3 9 10 10 11 11 28 12 12 13
REMARK SMILES IDX 13 14 27 15 29 16 14 17 26 18 25 19 15 20 23 21 16 22 17 23
REMARK SMILES IDX 22 24 24 25 18 26 21 27 19 28 20 29
REMARK H PARENT 20 30
REMARK Flexibility Score: inf
ROOT
ATOM      1  C   UNL     1      -5.338  26.386  48.896  1.00  0.00     0.012 C 
ATOM      2  C   UNL     1      -6.134  26.404  50.220  1.00  0.00     0.012 C 
ENDROOT
BRANCH   1   3
ATOM      3  C   UNL     1      -5.188  27.811  48.408  1.00  0.00    -0.028 C 
ATOM      4  C   UNL     1      -5.944  28.377  47.439  1.00  0.00    -0.028 C 
BRANCH   4   5
ATOM      5  C   UNL     1      -7.152  27.737  46.777  1.00  0.00     0.011 C 
ATOM      6  C   UNL     1      -6.693  26.909  45.559  1.00  0.00     0.012 C 
BRANCH   5   7
ATOM      7  C   UNL     1      -8.226  28.816  46.394  1.00  0.00    -0.011 C 
ATOM      8  C   UNL     1      -9.595  28.518  47.027  1.00  0.00     0.008 C 
ATOM      9  C   UNL     1      -7.805  30.242  46.806  1.00  0.00     0.008 C 
ENDBRANCH   5   7
ENDBRANCH   4   5
ENDBRANCH   1   3
BRANCH   1  10
ATOM     10  C   UNL     1      -3.992  25.571  49.071  1.00  0.00     0.002 C 
ATOM     11  C   UNL     1      -2.969  25.809  47.963  1.00  0.00     0.005 C 
ATOM     12  C   UNL     1      -3.987  24.020  49.345  1.00  0.00    -0.023 C 
ATOM     13  C   UNL     1      -1.890  24.759  48.173  1.00  0.00     0.009 C 
ATOM     14  C   UNL     1      -2.513  23.606  48.993  1.00  0.00     0.021 C 
ATOM     15  C   UNL     1      -5.011  23.230  48.478  1.00  0.00     0.008 C 
ATOM     16  C   UNL     1      -4.287  23.757  50.856  1.00  0.00     0.012 C 
ATOM     17  C   UNL     1      -2.319  22.284  48.231  1.00  0.00    -0.063 C 
ATOM     18  C   UNL     1      -4.786  21.710  48.525  1.00  0.00     0.009 C 
ATOM     19  C   UNL     1      -3.458  21.356  47.843  1.00  0.00     0.025 C 
ATOM     20  C   UNL     1      -1.068  21.919  47.903  1.00  0.00    -0.000 C 
ATOM     21  C   UNL     1      -3.020  19.839  47.956  1.00  0.00    -0.005 C 
ATOM     22  C   UNL     1      -0.818  20.661  47.166  1.00  0.00    -0.000 C 
ATOM     23  C   UNL     1      -1.743  19.698  47.112  1.00  0.00    -0.061 C 
ATOM     24  C   UNL     1      -4.162  18.922  47.428  1.00  0.00     0.014 C 
ATOM     25  C   UNL     1      -2.654  19.447  49.428  1.00  0.00     0.017 C 
ATOM     26  C   UNL     1      -1.384  18.410  46.397  1.00  0.00     0.063 C 
ATOM     27  C   UNL     1      -3.689  17.505  47.065  1.00  0.00     0.033 C 
ATOM     28  C   UNL     1      -2.586  17.533  45.996  1.00  0.00     0.118 C 
BRANCH  28  29
ATOM     29  O   UNL     1      -3.095  17.890  44.731  1.00  0.00    -0.393 OA
ATOM     30  H   UNL     1      -2.477  17.547  44.035  1.00  0.00     0.210 HD
ENDBRANCH  28  29
ENDBRANCH   1  10
TORSDOF 5
ENDMDL
MODEL 4
REMARK VINA RESULT:    -7.252      5.077      7.776
REMARK INTER + INTRA:         -10.637
REMARK INTER:                  -9.546
REMARK INTRA:                  -1.091
REMARK UNBOUND:                -1.477
REMARK SMILES CC(C)[C@@H](C)C=C[C@H](C)[C@@H]1CC[C@@H]2C3=CC=C4C[C@H](O)CC[C@]4(C)[C@H]3CC[C@@]21C
REMARK SMILES IDX 8 1 9 2 7 3 6 4 4 5 5 6 2 7 1 8 3 9 10 10 11 11 28 12 12 13
REMARK SMILES IDX 13 14 27 15 29 16 14 17 26 18 25 19 15 20 23 21 16 22 17 23
REMARK SMILES IDX 22 24 24 25 18 26 21 27 19 28 20 29
REMARK H PARENT 20 30
REMARK Flexibility Score: inf
ROOT
ATOM      1  C   UNL     1      -6.482  29.370  47.918  1.00  0.00     0.012 C 
ATOM      2  C   UNL     1      -6.345  30.897  48.114  1.00  0.00     0.012 C 
ENDROOT
BRANCH   1   3
ATOM      3  C   UNL     1      -6.922  29.108  46.493  1.00  0.00    -0.028 C 
ATOM      4  C   UNL     1      -8.189  28.808  46.122  1.00  0.00    -0.028 C 
BRANCH   4   5
ATOM      5  C   UNL     1      -9.402  28.821  47.036  1.00  0.00     0.011 C 
ATOM      6  C   UNL     1      -9.484  27.483  47.800  1.00  0.00     0.012 C 
BRANCH   5   7
ATOM      7  C   UNL     1     -10.714  29.130  46.231  1.00  0.00    -0.011 C 
ATOM      8  C   UNL     1     -10.661  30.506  45.548  1.00  0.00     0.008 C 
ATOM      9  C   UNL     1     -11.009  28.068  45.152  1.00  0.00     0.008 C 
ENDBRANCH   5   7
ENDBRANCH   4   5
ENDBRANCH   1   3
BRANCH   1  10
ATOM     10  C   UNL     1      -5.159  28.633  48.379  1.00  0.00     0.002 C 
ATOM     11  C   UNL     1      -4.004  28.745  47.386  1.00  0.00     0.005 C 
ATOM     12  C   UNL     1      -5.168  27.138  48.873  1.00  0.00    -0.023 C 
ATOM     13  C   UNL     1      -2.947  27.772  47.880  1.00  0.00     0.009 C 
ATOM     14  C   UNL     1      -3.654  26.726  48.773  1.00  0.00     0.021 C 
ATOM     15  C   UNL     1      -6.058  26.200  48.006  1.00  0.00     0.008 C 
ATOM     16  C   UNL     1      -5.657  27.082  50.355  1.00  0.00     0.012 C 
ATOM     17  C   UNL     1      -3.344  25.317  48.241  1.00  0.00    -0.063 C 
ATOM     18  C   UNL     1      -5.820  24.710  48.301  1.00  0.00     0.009 C 
ATOM     19  C   UNL     1      -4.410  24.306  47.851  1.00  0.00     0.025 C 
ATOM     20  C   UNL     1      -2.056  24.950  48.130  1.00  0.00    -0.000 C 
ATOM     21  C   UNL     1      -3.969  22.836  48.236  1.00  0.00    -0.005 C 
ATOM     22  C   UNL     1      -1.695  23.609  47.620  1.00  0.00    -0.000 C 
ATOM     23  C   UNL     1      -2.591  22.619  47.590  1.00  0.00    -0.061 C 
ATOM     24  C   UNL     1      -5.020  21.816  47.706  1.00  0.00     0.014 C 
ATOM     25  C   UNL     1      -3.791  22.669  49.784  1.00  0.00     0.017 C 
ATOM     26  C   UNL     1      -2.124  21.255  47.120  1.00  0.00     0.063 C 
ATOM     27  C   UNL     1      -4.484  20.378  47.616  1.00  0.00     0.033 C 
ATOM     28  C   UNL     1      -3.252  20.291  46.701  1.00  0.00     0.118 C 
BRANCH  28  29
ATOM     29  O   UNL     1      -3.597  20.448  45.344  1.00  0.00    -0.393 OA
ATOM     30  H   UNL     1      -2.779  20.691  44.837  1.00  0.00     0.210 HD
ENDBRANCH  28  29
ENDBRANCH   1  10
TORSDOF 5
ENDMDL
MODEL 5
REMARK VINA RESULT:    -7.077      3.560      7.947
REMARK INTER + INTRA:         -10.416
REMARK INTER:                 -10.319
REMARK INTRA:                  -0.097
REMARK UNBOUND:                -1.477
REMARK SMILES CC(C)[C@@H](C)C=C[C@H](C)[C@@H]1CC[C@@H]2C3=CC=C4C[C@H](O)CC[C@]4(C)[C@H]3CC[C@@]21C
REMARK SMILES IDX 8 1 9 2 7 3 6 4 4 5 5 6 2 7 1 8 3 9 10 10 11 11 28 12 12 13
REMARK SMILES IDX 13 14 27 15 29 16 14 17 26 18 25 19 15 20 23 21 16 22 17 23
REMARK SMILES IDX 22 24 24 25 18 26 21 27 19 28 20 29
REMARK H PARENT 20 30
REMARK Flexibility Score: inf
ROOT
ATOM      1  C   UNL     1      -1.510  20.575  46.633  1.00  0.00     0.012 C 
ATOM      2  C   UNL     1      -0.724  21.809  46.134  1.00  0.00     0.012 C 
ENDROOT
BRANCH   1   3
ATOM      3  C   UNL     1      -0.518  19.556  47.155  1.00  0.00    -0.028 C 
ATOM      4  C   UNL     1      -0.778  18.236  47.301  1.00  0.00    -0.028 C 
BRANCH   4   5
ATOM      5  C   UNL     1      -2.041  17.529  46.841  1.00  0.00     0.011 C 
ATOM      6  C   UNL     1      -2.264  16.266  47.699  1.00  0.00     0.012 C 
BRANCH   5   7
ATOM      7  C   UNL     1      -1.981  17.204  45.306  1.00  0.00    -0.011 C 
ATOM      8  C   UNL     1      -0.859  16.208  44.970  1.00  0.00     0.008 C 
ATOM      9  C   UNL     1      -3.309  16.632  44.770  1.00  0.00     0.008 C 
ENDBRANCH   5   7
ENDBRANCH   4   5
ENDBRANCH   1   3
BRANCH   1  10
ATOM     10  C   UNL     1      -2.644  21.015  47.647  1.00  0.00     0.002 C 
ATOM     11  C   UNL     1      -4.059  20.916  47.082  1.00  0.00     0.005 C 
ATOM     12  C   UNL     1      -2.579  22.382  48.426  1.00  0.00    -0.023 C 
ATOM     13  C   UNL     1      -4.951  21.619  48.092  1.00  0.00     0.009 C 
ATOM     14  C   UNL     1      -4.060  22.578  48.914  1.00  0.00     0.021 C 
ATOM     15  C   UNL     1      -2.119  23.581  47.546  1.00  0.00     0.008 C 
ATOM     16  C   UNL     1      -1.612  22.242  49.645  1.00  0.00     0.012 C 
ATOM     17  C   UNL     1      -4.642  24.000  48.834  1.00  0.00    -0.063 C 
ATOM     18  C   UNL     1      -2.354  24.942  48.220  1.00  0.00     0.009 C 
ATOM     19  C   UNL     1      -3.859  25.209  48.351  1.00  0.00     0.025 C 
ATOM     20  C   UNL     1      -5.914  24.187  49.228  1.00  0.00    -0.000 C 
ATOM     21  C   UNL     1      -4.251  26.505  49.170  1.00  0.00    -0.005 C 
ATOM     22  C   UNL     1      -6.531  25.530  49.170  1.00  0.00    -0.000 C 
ATOM     23  C   UNL     1      -5.779  26.631  49.069  1.00  0.00    -0.061 C 
ATOM     24  C   UNL     1      -3.530  27.746  48.566  1.00  0.00     0.014 C 
ATOM     25  C   UNL     1      -3.893  26.363  50.689  1.00  0.00     0.017 C 
ATOM     26  C   UNL     1      -6.484  27.973  49.086  1.00  0.00     0.063 C 
ATOM     27  C   UNL     1      -4.174  29.083  48.971  1.00  0.00     0.033 C 
ATOM     28  C   UNL     1      -5.649  29.152  48.547  1.00  0.00     0.118 C 
BRANCH  28  29
ATOM     29  O   UNL     1      -5.785  29.293  47.152  1.00  0.00    -0.393 OA
ATOM     30  H   UNL     1      -4.882  29.254  46.742  1.00  0.00     0.210 HD
ENDBRANCH  28  29
ENDBRANCH   1  10
TORSDOF 5
ENDMDL
MODEL 6
REMARK VINA RESULT:    -7.015      3.068      7.925
REMARK INTER + INTRA:         -10.338
REMARK INTER:                  -9.660
REMARK INTRA:                  -0.678
REMARK UNBOUND:                -1.477
REMARK SMILES CC(C)[C@@H](C)C=C[C@H](C)[C@@H]1CC[C@@H]2C3=CC=C4C[C@H](O)CC[C@]4(C)[C@H]3CC[C@@]21C
REMARK SMILES IDX 8 1 9 2 7 3 6 4 4 5 5 6 2 7 1 8 3 9 10 10 11 11 28 12 12 13
REMARK SMILES IDX 13 14 27 15 29 16 14 17 26 18 25 19 15 20 23 21 16 22 17 23
REMARK SMILES IDX 22 24 24 25 18 26 21 27 19 28 20 29
REMARK H PARENT 20 30
REMARK Flexibility Score: inf
ROOT
ATOM      1  C   UNL     1      -2.616  20.653  46.160  1.00  0.00     0.012 C 
ATOM      2  C   UNL     1      -2.172  21.837  45.272  1.00  0.00     0.012 C 
ENDROOT
BRANCH   1   3
ATOM      3  C   UNL     1      -1.381  19.891  46.594  1.00  0.00    -0.028 C 
ATOM      4  C   UNL     1      -1.313  18.546  46.723  1.00  0.00    -0.028 C 
BRANCH   4   5
ATOM      5  C   UNL     1      -2.403  17.566  46.325  1.00  0.00     0.011 C 
ATOM      6  C   UNL     1      -2.476  16.428  47.365  1.00  0.00     0.012 C 
BRANCH   5   7
ATOM      7  C   UNL     1      -2.177  17.028  44.868  1.00  0.00    -0.011 C 
ATOM      8  C   UNL     1      -0.878  16.213  44.749  1.00  0.00     0.008 C 
ATOM      9  C   UNL     1      -3.343  16.148  44.373  1.00  0.00     0.008 C 
ENDBRANCH   5   7
ENDBRANCH   4   5
ENDBRANCH   1   3
BRANCH   1  10
ATOM     10  C   UNL     1      -3.558  21.161  47.328  1.00  0.00     0.002 C 
ATOM     11  C   UNL     1      -4.674  22.096  46.867  1.00  0.00     0.005 C 
ATOM     12  C   UNL     1      -2.980  21.787  48.651  1.00  0.00    -0.023 C 
ATOM     13  C   UNL     1      -5.280  22.663  48.140  1.00  0.00     0.009 C 
ATOM     14  C   UNL     1      -4.224  22.528  49.262  1.00  0.00     0.021 C 
ATOM     15  C   UNL     1      -1.804  22.779  48.410  1.00  0.00     0.008 C 
ATOM     16  C   UNL     1      -2.499  20.645  49.602  1.00  0.00     0.012 C 
ATOM     17  C   UNL     1      -3.978  23.910  49.892  1.00  0.00    -0.063 C 
ATOM     18  C   UNL     1      -1.457  23.609  49.657  1.00  0.00     0.009 C 
ATOM     19  C   UNL     1      -2.610  24.565  49.987  1.00  0.00     0.025 C 
ATOM     20  C   UNL     1      -5.032  24.570  50.403  1.00  0.00    -0.000 C 
ATOM     21  C   UNL     1      -2.459  25.372  51.340  1.00  0.00    -0.005 C 
ATOM     22  C   UNL     1      -4.859  25.904  51.018  1.00  0.00    -0.000 C 
ATOM     23  C   UNL     1      -3.654  26.336  51.400  1.00  0.00    -0.061 C 
ATOM     24  C   UNL     1      -1.102  26.136  51.346  1.00  0.00     0.014 C 
ATOM     25  C   UNL     1      -2.551  24.432  52.591  1.00  0.00     0.017 C 
ATOM     26  C   UNL     1      -3.570  27.686  52.087  1.00  0.00     0.063 C 
ATOM     27  C   UNL     1      -1.052  27.284  52.368  1.00  0.00     0.033 C 
ATOM     28  C   UNL     1      -2.163  28.314  52.114  1.00  0.00     0.118 C 
BRANCH  28  29
ATOM     29  O   UNL     1      -1.911  29.081  50.959  1.00  0.00    -0.393 OA
ATOM     30  H   UNL     1      -2.074  28.513  50.162  1.00  0.00     0.210 HD
ENDBRANCH  28  29
ENDBRANCH   1  10
TORSDOF 5
ENDMDL
MODEL 7
REMARK VINA RESULT:    -6.979      4.328      8.049
REMARK INTER + INTRA:         -10.292
REMARK INTER:                  -9.958
REMARK INTRA:                  -0.334
REMARK UNBOUND:                -1.477
REMARK SMILES CC(C)[C@@H](C)C=C[C@H](C)[C@@H]1CC[C@@H]2C3=CC=C4C[C@H](O)CC[C@]4(C)[C@H]3CC[C@@]21C
REMARK SMILES IDX 8 1 9 2 7 3 6 4 4 5 5 6 2 7 1 8 3 9 10 10 11 11 28 12 12 13
REMARK SMILES IDX 13 14 27 15 29 16 14 17 26 18 25 19 15 20 23 21 16 22 17 23
REMARK SMILES IDX 22 24 24 25 18 26 21 27 19 28 20 29
REMARK H PARENT 20 30
REMARK Flexibility Score: inf
ROOT
ATOM      1  C   UNL     1      -2.160  21.523  46.255  1.00  0.00     0.012 C 
ATOM      2  C   UNL     1      -0.727  21.076  46.622  1.00  0.00     0.012 C 
ENDROOT
BRANCH   1   3
ATOM      3  C   UNL     1      -2.909  20.327  45.707  1.00  0.00    -0.028 C 
ATOM      4  C   UNL     1      -2.775  19.060  46.163  1.00  0.00    -0.028 C 
BRANCH   4   5
ATOM      5  C   UNL     1      -1.968  18.643  47.381  1.00  0.00     0.011 C 
ATOM      6  C   UNL     1      -0.994  17.512  46.989  1.00  0.00     0.012 C 
BRANCH   5   7
ATOM      7  C   UNL     1      -2.908  18.234  48.570  1.00  0.00    -0.011 C 
ATOM      8  C   UNL     1      -4.377  18.119  48.130  1.00  0.00     0.008 C 
ATOM      9  C   UNL     1      -2.495  16.898  49.220  1.00  0.00     0.008 C 
ENDBRANCH   5   7
ENDBRANCH   4   5
ENDBRANCH   1   3
BRANCH   1  10
ATOM     10  C   UNL     1      -2.839  22.261  47.481  1.00  0.00     0.002 C 
ATOM     11  C   UNL     1      -4.116  21.591  47.982  1.00  0.00     0.005 C 
ATOM     12  C   UNL     1      -3.134  23.807  47.462  1.00  0.00    -0.023 C 
ATOM     13  C   UNL     1      -4.736  22.577  48.958  1.00  0.00     0.009 C 
ATOM     14  C   UNL     1      -4.178  23.979  48.625  1.00  0.00     0.021 C 
ATOM     15  C   UNL     1      -3.717  24.315  46.111  1.00  0.00     0.008 C 
ATOM     16  C   UNL     1      -1.822  24.592  47.780  1.00  0.00     0.012 C 
ATOM     17  C   UNL     1      -5.350  24.944  48.378  1.00  0.00    -0.063 C 
ATOM     18  C   UNL     1      -4.285  25.741  46.202  1.00  0.00     0.009 C 
ATOM     19  C   UNL     1      -5.526  25.753  47.103  1.00  0.00     0.025 C 
ATOM     20  C   UNL     1      -6.265  25.092  49.351  1.00  0.00    -0.000 C 
ATOM     21  C   UNL     1      -6.125  27.185  47.417  1.00  0.00    -0.005 C 
ATOM     22  C   UNL     1      -7.418  26.001  49.170  1.00  0.00    -0.000 C 
ATOM     23  C   UNL     1      -7.410  26.944  48.224  1.00  0.00    -0.061 C 
ATOM     24  C   UNL     1      -6.414  27.936  46.084  1.00  0.00     0.014 C 
ATOM     25  C   UNL     1      -5.161  28.034  48.314  1.00  0.00     0.017 C 
ATOM     26  C   UNL     1      -8.600  27.882  48.149  1.00  0.00     0.063 C 
ATOM     27  C   UNL     1      -7.395  29.108  46.245  1.00  0.00     0.033 C 
ATOM     28  C   UNL     1      -8.744  28.643  46.817  1.00  0.00     0.118 C 
BRANCH  28  29
ATOM     29  O   UNL     1      -9.485  27.907  45.872  1.00  0.00    -0.393 OA
ATOM     30  H   UNL     1      -9.878  27.117  46.326  1.00  0.00     0.210 HD
ENDBRANCH  28  29
ENDBRANCH   1  10
TORSDOF 5
ENDMDL
MODEL 8
REMARK VINA RESULT:    -6.872      2.832      5.326
REMARK INTER + INTRA:         -10.157
REMARK INTER:                  -9.371
REMARK INTRA:                  -0.785
REMARK UNBOUND:                -1.477
REMARK SMILES CC(C)[C@@H](C)C=C[C@H](C)[C@@H]1CC[C@@H]2C3=CC=C4C[C@H](O)CC[C@]4(C)[C@H]3CC[C@@]21C
REMARK SMILES IDX 8 1 9 2 7 3 6 4 4 5 5 6 2 7 1 8 3 9 10 10 11 11 28 12 12 13
REMARK SMILES IDX 13 14 27 15 29 16 14 17 26 18 25 19 15 20 23 21 16 22 17 23
REMARK SMILES IDX 22 24 24 25 18 26 21 27 19 28 20 29
REMARK H PARENT 20 30
REMARK Flexibility Score: inf
ROOT
ATOM      1  C   UNL     1      -3.281  25.390  47.892  1.00  0.00     0.012 C 
ATOM      2  C   UNL     1      -1.874  25.603  47.290  1.00  0.00     0.012 C 
ENDROOT
BRANCH   1   3
ATOM      3  C   UNL     1      -4.302  25.524  46.782  1.00  0.00    -0.028 C 
ATOM      4  C   UNL     1      -5.500  26.141  46.910  1.00  0.00    -0.028 C 
BRANCH   4   5
ATOM      5  C   UNL     1      -5.966  26.919  48.129  1.00  0.00     0.011 C 
ATOM      6  C   UNL     1      -6.755  25.981  49.066  1.00  0.00     0.012 C 
BRANCH   5   7
ATOM      7  C   UNL     1      -6.800  28.182  47.709  1.00  0.00    -0.011 C 
ATOM      8  C   UNL     1      -6.360  28.736  46.344  1.00  0.00     0.008 C 
ATOM      9  C   UNL     1      -8.314  27.898  47.648  1.00  0.00     0.008 C 
ENDBRANCH   5   7
ENDBRANCH   4   5
ENDBRANCH   1   3
BRANCH   1  10
ATOM     10  C   UNL     1      -3.331  24.037  48.715  1.00  0.00     0.002 C 
ATOM     11  C   UNL     1      -2.022  23.685  49.417  1.00  0.00     0.005 C 
ATOM     12  C   UNL     1      -3.862  22.697  48.081  1.00  0.00    -0.023 C 
ATOM     13  C   UNL     1      -2.198  22.259  49.913  1.00  0.00     0.009 C 
ATOM     14  C   UNL     1      -3.309  21.601  49.063  1.00  0.00     0.021 C 
ATOM     15  C   UNL     1      -3.358  22.450  46.629  1.00  0.00     0.008 C 
ATOM     16  C   UNL     1      -5.425  22.701  48.087  1.00  0.00     0.012 C 
ATOM     17  C   UNL     1      -2.763  20.308  48.434  1.00  0.00    -0.063 C 
ATOM     18  C   UNL     1      -3.622  21.017  46.140  1.00  0.00     0.009 C 
ATOM     19  C   UNL     1      -2.768  20.025  46.941  1.00  0.00     0.025 C 
ATOM     20  C   UNL     1      -2.267  19.365  49.254  1.00  0.00    -0.000 C 
ATOM     21  C   UNL     1      -3.053  18.495  46.652  1.00  0.00    -0.005 C 
ATOM     22  C   UNL     1      -1.724  18.102  48.708  1.00  0.00    -0.000 C 
ATOM     23  C   UNL     1      -2.016  17.705  47.466  1.00  0.00    -0.061 C 
ATOM     24  C   UNL     1      -2.922  18.216  45.126  1.00  0.00     0.014 C 
ATOM     25  C   UNL     1      -4.473  18.063  47.157  1.00  0.00     0.017 C 
ATOM     26  C   UNL     1      -1.478  16.365  47.006  1.00  0.00     0.063 C 
ATOM     27  C   UNL     1      -2.725  16.728  44.793  1.00  0.00     0.033 C 
ATOM     28  C   UNL     1      -1.474  16.156  45.479  1.00  0.00     0.118 C 
BRANCH  28  29
ATOM     29  O   UNL     1      -0.289  16.639  44.888  1.00  0.00    -0.393 OA
ATOM     30  H   UNL     1       0.415  15.947  44.983  1.00  0.00     0.210 HD
ENDBRANCH  28  29
ENDBRANCH   1  10
TORSDOF 5
ENDMDL
MODEL 9
REMARK VINA RESULT:    -6.828      2.864      4.807
REMARK INTER + INTRA:         -10.102
REMARK INTER:                  -9.359
REMARK INTRA:                  -0.743
REMARK UNBOUND:                -1.477
REMARK SMILES CC(C)[C@@H](C)C=C[C@H](C)[C@@H]1CC[C@@H]2C3=CC=C4C[C@H](O)CC[C@]4(C)[C@H]3CC[C@@]21C
REMARK SMILES IDX 8 1 9 2 7 3 6 4 4 5 5 6 2 7 1 8 3 9 10 10 11 11 28 12 12 13
REMARK SMILES IDX 13 14 27 15 29 16 14 17 26 18 25 19 15 20 23 21 16 22 17 23
REMARK SMILES IDX 22 24 24 25 18 26 21 27 19 28 20 29
REMARK H PARENT 20 30
REMARK Flexibility Score: inf
ROOT
ATOM      1  C   UNL     1      -3.071  26.601  49.282  1.00  0.00     0.012 C 
ATOM      2  C   UNL     1      -2.078  27.169  48.243  1.00  0.00     0.012 C 
ENDROOT
BRANCH   1   3
ATOM      3  C   UNL     1      -3.814  27.758  49.916  1.00  0.00    -0.028 C 
ATOM      4  C   UNL     1      -4.550  28.666  49.233  1.00  0.00    -0.028 C 
BRANCH   4   5
ATOM      5  C   UNL     1      -4.873  28.604  47.750  1.00  0.00     0.011 C 
ATOM      6  C   UNL     1      -4.808  30.025  47.151  1.00  0.00     0.012 C 
BRANCH   5   7
ATOM      7  C   UNL     1      -6.260  27.914  47.501  1.00  0.00    -0.011 C 
ATOM      8  C   UNL     1      -7.392  28.941  47.327  1.00  0.00     0.008 C 
ATOM      9  C   UNL     1      -6.250  26.995  46.262  1.00  0.00     0.008 C 
ENDBRANCH   5   7
ENDBRANCH   4   5
ENDBRANCH   1   3
BRANCH   1  10
ATOM     10  C   UNL     1      -3.975  25.477  48.626  1.00  0.00     0.002 C 
ATOM     11  C   UNL     1      -4.924  24.790  49.604  1.00  0.00     0.005 C 
ATOM     12  C   UNL     1      -3.363  24.334  47.733  1.00  0.00    -0.023 C 
ATOM     13  C   UNL     1      -5.491  23.598  48.851  1.00  0.00     0.009 C 
ATOM     14  C   UNL     1      -4.510  23.260  47.704  1.00  0.00     0.021 C 
ATOM     15  C   UNL     1      -2.048  23.730  48.306  1.00  0.00     0.008 C 
ATOM     16  C   UNL     1      -3.090  24.885  46.296  1.00  0.00     0.012 C 
ATOM     17  C   UNL     1      -4.091  21.784  47.818  1.00  0.00    -0.063 C 
ATOM     18  C   UNL     1      -1.633  22.427  47.604  1.00  0.00     0.009 C 
ATOM     19  C   UNL     1      -2.648  21.319  47.915  1.00  0.00     0.025 C 
ATOM     20  C   UNL     1      -5.057  20.849  47.815  1.00  0.00    -0.000 C 
ATOM     21  C   UNL     1      -2.433  19.961  47.131  1.00  0.00    -0.005 C 
ATOM     22  C   UNL     1      -4.717  19.414  47.926  1.00  0.00    -0.000 C 
ATOM     23  C   UNL     1      -3.478  18.978  47.683  1.00  0.00    -0.061 C 
ATOM     24  C   UNL     1      -0.981  19.447  47.359  1.00  0.00     0.014 C 
ATOM     25  C   UNL     1      -2.710  20.126  45.597  1.00  0.00     0.017 C 
ATOM     26  C   UNL     1      -3.226  17.484  47.749  1.00  0.00     0.063 C 
ATOM     27  C   UNL     1      -0.806  17.953  47.040  1.00  0.00     0.033 C 
ATOM     28  C   UNL     1      -1.746  17.080  47.886  1.00  0.00     0.118 C 
BRANCH  28  29
ATOM     29  O   UNL     1      -1.340  17.033  49.235  1.00  0.00    -0.393 OA
ATOM     30  H   UNL     1      -1.740  17.805  49.712  1.00  0.00     0.210 HD
ENDBRANCH  28  29
ENDBRANCH   1  10
TORSDOF 5
ENDMDL
