MODEL 1
REMARK VINA RESULT:    -4.582      0.000      0.000
REMARK INTER + INTRA:          -9.635
REMARK INTER:                  -8.601
REMARK INTRA:                  -1.035
REMARK UNBOUND:                -1.035
REMARK SMILES O=C([O-])CCCCCCCCCCCCCCC(=O)[O-]
REMARK SMILES IDX 10 1 9 2 8 3 7 4 6 5 5 6 4 7 2 8 1 9 3 10 11 11 12 12 13 13
REMARK SMILES IDX 14 14 15 15 16 16 17 17 18 18 19 19 20 20
REMARK H PARENT
REMARK Flexibility Score: inf
ROOT
ATOM      1  C   UNL     1       9.732  48.666  96.060  1.00  0.00     0.000 C 
ENDROOT
BRANCH   1   2
ATOM      2  C   UNL     1       9.539  47.231  95.530  1.00  0.00     0.000 C 
BRANCH   2   3
ATOM      3  C   UNL     1      10.664  46.725  94.610  1.00  0.00     0.000 C 
BRANCH   3   4
ATOM      4  C   UNL     1      10.503  45.241  94.235  1.00  0.00     0.000 C 
BRANCH   4   5
ATOM      5  C   UNL     1       9.999  44.386  95.408  1.00  0.00     0.000 C 
BRANCH   5   6
ATOM      6  C   UNL     1      10.884  43.157  95.665  1.00  0.00     0.006 C 
BRANCH   6   7
ATOM      7  C   UNL     1      11.972  43.031  94.595  1.00  0.00     0.053 C 
BRANCH   7   8
ATOM      8  C   UNL     1      13.225  42.465  95.187  1.00  0.00     0.041 C 
ATOM      9  O   UNL     1      13.298  42.248  96.426  1.00  0.00    -0.550 OA
ATOM     10  O   UNL     1      14.294  42.131  94.365  1.00  0.00    -0.550 OA
ENDBRANCH   7   8
ENDBRANCH   6   7
ENDBRANCH   5   6
ENDBRANCH   4   5
ENDBRANCH   3   4
ENDBRANCH   2   3
ENDBRANCH   1   2
BRANCH   1  11
ATOM     11  C   UNL     1       9.899  48.784  97.589  1.00  0.00     0.000 C 
BRANCH  11  12
ATOM     12  C   UNL     1      11.133  49.579  98.052  1.00  0.00     0.000 C 
BRANCH  12  13
ATOM     13  C   UNL     1      12.409  49.202  97.281  1.00  0.00     0.000 C 
BRANCH  13  14
ATOM     14  C   UNL     1      13.551  50.207  97.505  1.00  0.00     0.000 C 
BRANCH  14  15
ATOM     15  C   UNL     1      14.283  50.573  96.201  1.00  0.00     0.000 C 
BRANCH  15  16
ATOM     16  C   UNL     1      14.958  49.359  95.540  1.00  0.00     0.006 C 
BRANCH  16  17
ATOM     17  C   UNL     1      15.323  49.570  94.061  1.00  0.00     0.053 C 
BRANCH  17  18
ATOM     18  C   UNL     1      16.119  48.426  93.510  1.00  0.00     0.041 C 
ATOM     19  O   UNL     1      16.119  48.195  92.273  1.00  0.00    -0.550 OA
ATOM     20  O   UNL     1      16.889  47.640  94.359  1.00  0.00    -0.550 OA
ENDBRANCH  17  18
ENDBRANCH  16  17
ENDBRANCH  15  16
ENDBRANCH  14  15
ENDBRANCH  13  14
ENDBRANCH  12  13
ENDBRANCH  11  12
ENDBRANCH   1  11
TORSDOF 15
ENDMDL
MODEL 2
REMARK VINA RESULT:    -4.516      1.654      6.163
REMARK INTER + INTRA:          -9.511
REMARK INTER:                  -8.089
REMARK INTRA:                  -1.422
REMARK UNBOUND:                -1.035
REMARK SMILES O=C([O-])CCCCCCCCCCCCCCC(=O)[O-]
REMARK SMILES IDX 10 1 9 2 8 3 7 4 6 5 5 6 4 7 2 8 1 9 3 10 11 11 12 12 13 13
REMARK SMILES IDX 14 14 15 15 16 16 17 17 18 18 19 19 20 20
REMARK H PARENT
REMARK Flexibility Score: inf
ROOT
ATOM      1  C   UNL     1      12.611  48.906  96.203  1.00  0.00     0.000 C 
ENDROOT
BRANCH   1   2
ATOM      2  C   UNL     1      13.102  49.765  97.386  1.00  0.00     0.000 C 
BRANCH   2   3
ATOM      3  C   UNL     1      14.102  50.873  97.009  1.00  0.00     0.000 C 
BRANCH   3   4
ATOM      4  C   UNL     1      14.237  51.060  95.488  1.00  0.00     0.000 C 
BRANCH   4   5
ATOM      5  C   UNL     1      15.645  50.721  94.973  1.00  0.00     0.000 C 
BRANCH   5   6
ATOM      6  C   UNL     1      15.710  49.346  94.293  1.00  0.00     0.006 C 
BRANCH   6   7
ATOM      7  C   UNL     1      16.375  48.312  95.205  1.00  0.00     0.053 C 
BRANCH   7   8
ATOM      8  C   UNL     1      17.136  47.311  94.394  1.00  0.00     0.041 C 
ATOM      9  O   UNL     1      17.047  47.315  93.137  1.00  0.00    -0.550 OA
ATOM     10  O   UNL     1      17.982  46.406  95.021  1.00  0.00    -0.550 OA
ENDBRANCH   7   8
ENDBRANCH   6   7
ENDBRANCH   5   6
ENDBRANCH   4   5
ENDBRANCH   3   4
ENDBRANCH   2   3
ENDBRANCH   1   2
BRANCH   1  11
ATOM     11  C   UNL     1      11.094  48.627  96.180  1.00  0.00     0.000 C 
BRANCH  11  12
ATOM     12  C   UNL     1      10.409  48.631  97.559  1.00  0.00     0.000 C 
BRANCH  12  13
ATOM     13  C   UNL     1       8.953  48.139  97.502  1.00  0.00     0.000 C 
BRANCH  13  14
ATOM     14  C   UNL     1       8.374  48.175  96.079  1.00  0.00     0.000 C 
BRANCH  14  15
ATOM     15  C   UNL     1       7.868  46.799  95.609  1.00  0.00     0.000 C 
BRANCH  15  16
ATOM     16  C   UNL     1       8.882  46.071  94.709  1.00  0.00     0.006 C 
BRANCH  16  17
ATOM     17  C   UNL     1       9.747  45.035  95.445  1.00  0.00     0.053 C 
BRANCH  17  18
ATOM     18  C   UNL     1      10.805  44.454  94.559  1.00  0.00     0.041 C 
ATOM     19  O   UNL     1      11.072  44.996  93.454  1.00  0.00    -0.550 OA
ATOM     20  O   UNL     1      11.521  43.335  94.969  1.00  0.00    -0.550 OA
ENDBRANCH  17  18
ENDBRANCH  16  17
ENDBRANCH  15  16
ENDBRANCH  14  15
ENDBRANCH  13  14
ENDBRANCH  12  13
ENDBRANCH  11  12
ENDBRANCH   1  11
TORSDOF 15
ENDMDL
MODEL 3
REMARK VINA RESULT:    -4.381      0.849      6.254
REMARK INTER + INTRA:          -9.258
REMARK INTER:                  -8.544
REMARK INTRA:                  -0.714
REMARK UNBOUND:                -1.035
REMARK SMILES O=C([O-])CCCCCCCCCCCCCCC(=O)[O-]
REMARK SMILES IDX 10 1 9 2 8 3 7 4 6 5 5 6 4 7 2 8 1 9 3 10 11 11 12 12 13 13
REMARK SMILES IDX 14 14 15 15 16 16 17 17 18 18 19 19 20 20
REMARK H PARENT
REMARK Flexibility Score: inf
ROOT
ATOM      1  C   UNL     1       9.230  48.630  97.627  1.00  0.00     0.000 C 
ENDROOT
BRANCH   1   2
ATOM      2  C   UNL     1      10.500  49.436  97.967  1.00  0.00     0.000 C 
BRANCH   2   3
ATOM      3  C   UNL     1      11.813  48.824  97.445  1.00  0.00     0.000 C 
BRANCH   3   4
ATOM      4  C   UNL     1      12.947  49.857  97.334  1.00  0.00     0.000 C 
BRANCH   4   5
ATOM      5  C   UNL     1      14.125  49.352  96.485  1.00  0.00     0.000 C 
BRANCH   5   6
ATOM      6  C   UNL     1      15.065  50.485  96.048  1.00  0.00     0.006 C 
BRANCH   6   7
ATOM      7  C   UNL     1      15.409  50.370  94.560  1.00  0.00     0.053 C 
BRANCH   7   8
ATOM      8  C   UNL     1      15.878  48.986  94.236  1.00  0.00     0.041 C 
ATOM      9  O   UNL     1      16.558  48.336  95.075  1.00  0.00    -0.550 OA
ATOM     10  O   UNL     1      15.522  48.395  93.031  1.00  0.00    -0.550 OA
ENDBRANCH   7   8
ENDBRANCH   6   7
ENDBRANCH   5   6
ENDBRANCH   4   5
ENDBRANCH   3   4
ENDBRANCH   2   3
ENDBRANCH   1   2
BRANCH   1  11
ATOM     11  C   UNL     1       9.451  47.120  97.401  1.00  0.00     0.000 C 
BRANCH  11  12
ATOM     12  C   UNL     1       8.935  46.579  96.056  1.00  0.00     0.000 C 
BRANCH  12  13
ATOM     13  C   UNL     1      10.005  46.611  94.951  1.00  0.00     0.000 C 
BRANCH  13  14
ATOM     14  C   UNL     1      10.529  45.209  94.599  1.00  0.00     0.000 C 
BRANCH  14  15
ATOM     15  C   UNL     1       9.967  44.116  95.526  1.00  0.00     0.000 C 
BRANCH  15  16
ATOM     16  C   UNL     1      11.055  43.153  96.034  1.00  0.00     0.006 C 
BRANCH  16  17
ATOM     17  C   UNL     1      11.773  42.373  94.920  1.00  0.00     0.053 C 
BRANCH  17  18
ATOM     18  C   UNL     1      13.263  42.469  95.038  1.00  0.00     0.041 C 
ATOM     19  O   UNL     1      13.822  42.292  96.152  1.00  0.00    -0.550 OA
ATOM     20  O   UNL     1      14.037  42.718  93.910  1.00  0.00    -0.550 OA
ENDBRANCH  17  18
ENDBRANCH  16  17
ENDBRANCH  15  16
ENDBRANCH  14  15
ENDBRANCH  13  14
ENDBRANCH  12  13
ENDBRANCH  11  12
ENDBRANCH   1  11
TORSDOF 15
ENDMDL
MODEL 4
REMARK VINA RESULT:    -4.259      4.186      6.481
REMARK INTER + INTRA:          -9.028
REMARK INTER:                  -8.338
REMARK INTRA:                  -0.690
REMARK UNBOUND:                -1.035
REMARK SMILES O=C([O-])CCCCCCCCCCCCCCC(=O)[O-]
REMARK SMILES IDX 10 1 9 2 8 3 7 4 6 5 5 6 4 7 2 8 1 9 3 10 11 11 12 12 13 13
REMARK SMILES IDX 14 14 15 15 16 16 17 17 18 18 19 19 20 20
REMARK H PARENT
REMARK Flexibility Score: inf
ROOT
ATOM      1  C   UNL     1      14.100  50.660  96.877  1.00  0.00     0.000 C 
ENDROOT
BRANCH   1   2
ATOM      2  C   UNL     1      13.392  49.346  97.264  1.00  0.00     0.000 C 
BRANCH   2   3
ATOM      3  C   UNL     1      11.880  49.476  97.519  1.00  0.00     0.000 C 
BRANCH   3   4
ATOM      4  C   UNL     1      11.055  48.428  96.753  1.00  0.00     0.000 C 
BRANCH   4   5
ATOM      5  C   UNL     1       9.698  48.143  97.417  1.00  0.00     0.000 C 
BRANCH   5   6
ATOM      6  C   UNL     1       8.643  49.208  97.083  1.00  0.00     0.006 C 
BRANCH   6   7
ATOM      7  C   UNL     1       8.216  49.971  98.340  1.00  0.00     0.053 C 
BRANCH   7   8
ATOM      8  C   UNL     1       6.835  50.524  98.172  1.00  0.00     0.041 C 
ATOM      9  O   UNL     1       6.025  49.975  97.378  1.00  0.00    -0.550 OA
ATOM     10  O   UNL     1       6.426  51.614  98.930  1.00  0.00    -0.550 OA
ENDBRANCH   7   8
ENDBRANCH   6   7
ENDBRANCH   5   6
ENDBRANCH   4   5
ENDBRANCH   3   4
ENDBRANCH   2   3
ENDBRANCH   1   2
BRANCH   1  11
ATOM     11  C   UNL     1      14.250  50.902  95.361  1.00  0.00     0.000 C 
BRANCH  11  12
ATOM     12  C   UNL     1      15.650  50.619  94.789  1.00  0.00     0.000 C 
BRANCH  12  13
ATOM     13  C   UNL     1      15.986  49.119  94.749  1.00  0.00     0.000 C 
BRANCH  13  14
ATOM     14  C   UNL     1      15.744  48.498  93.364  1.00  0.00     0.000 C 
BRANCH  14  15
ATOM     15  C   UNL     1      16.790  47.427  93.003  1.00  0.00     0.000 C 
BRANCH  15  16
ATOM     16  C   UNL     1      17.288  46.649  94.234  1.00  0.00     0.006 C 
BRANCH  16  17
ATOM     17  C   UNL     1      18.797  46.354  94.222  1.00  0.00     0.053 C 
BRANCH  17  18
ATOM     18  C   UNL     1      19.263  45.859  92.887  1.00  0.00     0.041 C 
ATOM     19  O   UNL     1      18.867  44.746  92.452  1.00  0.00    -0.550 OA
ATOM     20  O   UNL     1      20.105  46.643  92.109  1.00  0.00    -0.550 OA
ENDBRANCH  17  18
ENDBRANCH  16  17
ENDBRANCH  15  16
ENDBRANCH  14  15
ENDBRANCH  13  14
ENDBRANCH  12  13
ENDBRANCH  11  12
ENDBRANCH   1  11
TORSDOF 15
ENDMDL
MODEL 5
REMARK VINA RESULT:    -4.250      3.243      6.098
REMARK INTER + INTRA:          -9.012
REMARK INTER:                  -7.599
REMARK INTRA:                  -1.413
REMARK UNBOUND:                -1.035
REMARK SMILES O=C([O-])CCCCCCCCCCCCCCC(=O)[O-]
REMARK SMILES IDX 10 1 9 2 8 3 7 4 6 5 5 6 4 7 2 8 1 9 3 10 11 11 12 12 13 13
REMARK SMILES IDX 14 14 15 15 16 16 17 17 18 18 19 19 20 20
REMARK H PARENT
REMARK Flexibility Score: inf
ROOT
ATOM      1  C   UNL     1      12.244  49.046  96.871  1.00  0.00     0.000 C 
ENDROOT
BRANCH   1   2
ATOM      2  C   UNL     1      13.682  49.420  97.285  1.00  0.00     0.000 C 
BRANCH   2   3
ATOM      3  C   UNL     1      14.077  50.881  97.003  1.00  0.00     0.000 C 
BRANCH   3   4
ATOM      4  C   UNL     1      14.335  51.149  95.510  1.00  0.00     0.000 C 
BRANCH   4   5
ATOM      5  C   UNL     1      15.617  50.471  95.000  1.00  0.00     0.000 C 
BRANCH   5   6
ATOM      6  C   UNL     1      15.329  49.345  93.997  1.00  0.00     0.006 C 
BRANCH   6   7
ATOM      7  C   UNL     1      16.338  48.203  94.149  1.00  0.00     0.053 C 
BRANCH   7   8
ATOM      8  C   UNL     1      16.544  47.508  92.840  1.00  0.00     0.041 C 
ATOM      9  O   UNL     1      16.703  46.258  92.805  1.00  0.00    -0.550 OA
ATOM     10  O   UNL     1      16.511  48.231  91.655  1.00  0.00    -0.550 OA
ENDBRANCH   7   8
ENDBRANCH   6   7
ENDBRANCH   5   6
ENDBRANCH   4   5
ENDBRANCH   3   4
ENDBRANCH   2   3
ENDBRANCH   1   2
BRANCH   1  11
ATOM     11  C   UNL     1      11.157  49.359  97.919  1.00  0.00     0.000 C 
BRANCH  11  12
ATOM     12  C   UNL     1       9.866  48.531  97.788  1.00  0.00     0.000 C 
BRANCH  12  13
ATOM     13  C   UNL     1       8.691  49.346  97.220  1.00  0.00     0.000 C 
BRANCH  13  14
ATOM     14  C   UNL     1       8.745  49.467  95.688  1.00  0.00     0.000 C 
BRANCH  14  15
ATOM     15  C   UNL     1       9.122  48.141  95.002  1.00  0.00     0.000 C 
BRANCH  15  16
ATOM     16  C   UNL     1      10.017  48.348  93.767  1.00  0.00     0.006 C 
BRANCH  16  17
ATOM     17  C   UNL     1      10.207  49.821  93.368  1.00  0.00     0.053 C 
BRANCH  17  18
ATOM     18  C   UNL     1       9.423  50.177  92.142  1.00  0.00     0.041 C 
ATOM     19  O   UNL     1      10.018  50.557  91.099  1.00  0.00    -0.550 OA
ATOM     20  O   UNL     1       8.039  50.053  92.140  1.00  0.00    -0.550 OA
ENDBRANCH  17  18
ENDBRANCH  16  17
ENDBRANCH  15  16
ENDBRANCH  14  15
ENDBRANCH  13  14
ENDBRANCH  12  13
ENDBRANCH  11  12
ENDBRANCH   1  11
TORSDOF 15
ENDMDL
MODEL 6
REMARK VINA RESULT:    -4.242      3.834      5.575
REMARK INTER + INTRA:          -8.996
REMARK INTER:                  -7.796
REMARK INTRA:                  -1.200
REMARK UNBOUND:                -1.035
REMARK SMILES O=C([O-])CCCCCCCCCCCCCCC(=O)[O-]
REMARK SMILES IDX 10 1 9 2 8 3 7 4 6 5 5 6 4 7 2 8 1 9 3 10 11 11 12 12 13 13
REMARK SMILES IDX 14 14 15 15 16 16 17 17 18 18 19 19 20 20
REMARK H PARENT
REMARK Flexibility Score: inf
ROOT
ATOM      1  C   UNL     1      13.987  50.663  96.912  1.00  0.00     0.000 C 
ENDROOT
BRANCH   1   2
ATOM      2  C   UNL     1      13.210  49.379  97.267  1.00  0.00     0.000 C 
BRANCH   2   3
ATOM      3  C   UNL     1      11.746  49.604  97.686  1.00  0.00     0.000 C 
BRANCH   3   4
ATOM      4  C   UNL     1      10.835  48.417  97.326  1.00  0.00     0.000 C 
BRANCH   4   5
ATOM      5  C   UNL     1      10.197  48.563  95.935  1.00  0.00     0.000 C 
BRANCH   5   6
ATOM      6  C   UNL     1      11.096  48.020  94.814  1.00  0.00     0.006 C 
BRANCH   6   7
ATOM      7  C   UNL     1      11.509  49.137  93.853  1.00  0.00     0.053 C 
BRANCH   7   8
ATOM      8  C   UNL     1      10.488  49.304  92.772  1.00  0.00     0.041 C 
ATOM      9  O   UNL     1       9.817  48.313  92.377  1.00  0.00    -0.550 OA
ATOM     10  O   UNL     1      10.240  50.561  92.237  1.00  0.00    -0.550 OA
ENDBRANCH   7   8
ENDBRANCH   6   7
ENDBRANCH   5   6
ENDBRANCH   4   5
ENDBRANCH   3   4
ENDBRANCH   2   3
ENDBRANCH   1   2
BRANCH   1  11
ATOM     11  C   UNL     1      14.213  50.898  95.405  1.00  0.00     0.000 C 
BRANCH  11  12
ATOM     12  C   UNL     1      15.624  50.556  94.894  1.00  0.00     0.000 C 
BRANCH  12  13
ATOM     13  C   UNL     1      15.849  49.043  94.734  1.00  0.00     0.000 C 
BRANCH  13  14
ATOM     14  C   UNL     1      15.751  48.585  93.270  1.00  0.00     0.000 C 
BRANCH  14  15
ATOM     15  C   UNL     1      16.683  47.401  92.955  1.00  0.00     0.000 C 
BRANCH  15  16
ATOM     16  C   UNL     1      17.299  47.490  91.547  1.00  0.00     0.006 C 
BRANCH  16  17
ATOM     17  C   UNL     1      16.777  48.667  90.706  1.00  0.00     0.053 C 
BRANCH  17  18
ATOM     18  C   UNL     1      16.979  48.443  89.239  1.00  0.00     0.041 C 
ATOM     19  O   UNL     1      17.896  47.679  88.837  1.00  0.00    -0.550 OA
ATOM     20  O   UNL     1      16.133  49.049  88.319  1.00  0.00    -0.550 OA
ENDBRANCH  17  18
ENDBRANCH  16  17
ENDBRANCH  15  16
ENDBRANCH  14  15
ENDBRANCH  13  14
ENDBRANCH  12  13
ENDBRANCH  11  12
ENDBRANCH   1  11
TORSDOF 15
ENDMDL
MODEL 7
REMARK VINA RESULT:    -4.091      3.659      6.515
REMARK INTER + INTRA:          -8.713
REMARK INTER:                  -7.716
REMARK INTRA:                  -0.997
REMARK UNBOUND:                -1.035
REMARK SMILES O=C([O-])CCCCCCCCCCCCCCC(=O)[O-]
REMARK SMILES IDX 10 1 9 2 8 3 7 4 6 5 5 6 4 7 2 8 1 9 3 10 11 11 12 12 13 13
REMARK SMILES IDX 14 14 15 15 16 16 17 17 18 18 19 19 20 20
REMARK H PARENT
REMARK Flexibility Score: inf
ROOT
ATOM      1  C   UNL     1      14.121  50.899  95.635  1.00  0.00     0.000 C 
ENDROOT
BRANCH   1   2
ATOM      2  C   UNL     1      15.522  50.564  95.085  1.00  0.00     0.000 C 
BRANCH   2   3
ATOM      3  C   UNL     1      15.852  49.061  95.025  1.00  0.00     0.000 C 
BRANCH   3   4
ATOM      4  C   UNL     1      16.051  48.553  93.586  1.00  0.00     0.000 C 
BRANCH   4   5
ATOM      5  C   UNL     1      16.943  47.303  93.519  1.00  0.00     0.000 C 
BRANCH   5   6
ATOM      6  C   UNL     1      17.233  46.862  92.077  1.00  0.00     0.006 C 
BRANCH   6   7
ATOM      7  C   UNL     1      17.086  48.035  91.104  1.00  0.00     0.053 C 
BRANCH   7   8
ATOM      8  C   UNL     1      18.342  48.217  90.310  1.00  0.00     0.041 C 
ATOM      9  O   UNL     1      18.713  49.372  89.969  1.00  0.00    -0.550 OA
ATOM     10  O   UNL     1      19.129  47.118  89.991  1.00  0.00    -0.550 OA
ENDBRANCH   7   8
ENDBRANCH   6   7
ENDBRANCH   5   6
ENDBRANCH   4   5
ENDBRANCH   3   4
ENDBRANCH   2   3
ENDBRANCH   1   2
BRANCH   1  11
ATOM     11  C   UNL     1      13.850  50.420  97.076  1.00  0.00     0.000 C 
BRANCH  11  12
ATOM     12  C   UNL     1      12.907  49.210  97.195  1.00  0.00     0.000 C 
BRANCH  12  13
ATOM     13  C   UNL     1      11.568  49.561  97.865  1.00  0.00     0.000 C 
BRANCH  13  14
ATOM     14  C   UNL     1      10.540  48.423  97.758  1.00  0.00     0.000 C 
BRANCH  14  15
ATOM     15  C   UNL     1       9.289  48.828  96.955  1.00  0.00     0.000 C 
BRANCH  15  16
ATOM     16  C   UNL     1       9.052  47.921  95.734  1.00  0.00     0.006 C 
BRANCH  16  17
ATOM     17  C   UNL     1      10.282  47.750  94.829  1.00  0.00     0.053 C 
BRANCH  17  18
ATOM     18  C   UNL     1      10.489  48.932  93.932  1.00  0.00     0.041 C 
ATOM     19  O   UNL     1       9.497  49.557  93.471  1.00  0.00    -0.550 OA
ATOM     20  O   UNL     1      11.775  49.366  93.636  1.00  0.00    -0.550 OA
ENDBRANCH  17  18
ENDBRANCH  16  17
ENDBRANCH  15  16
ENDBRANCH  14  15
ENDBRANCH  13  14
ENDBRANCH  12  13
ENDBRANCH  11  12
ENDBRANCH   1  11
TORSDOF 15
ENDMDL
MODEL 8
REMARK VINA RESULT:    -4.008      3.221      6.644
REMARK INTER + INTRA:          -8.558
REMARK INTER:                  -6.771
REMARK INTRA:                  -1.787
REMARK UNBOUND:                -1.035
REMARK SMILES O=C([O-])CCCCCCCCCCCCCCC(=O)[O-]
REMARK SMILES IDX 10 1 9 2 8 3 7 4 6 5 5 6 4 7 2 8 1 9 3 10 11 11 12 12 13 13
REMARK SMILES IDX 14 14 15 15 16 16 17 17 18 18 19 19 20 20
REMARK H PARENT
REMARK Flexibility Score: inf
ROOT
ATOM      1  C   UNL     1       7.722  51.360  97.991  1.00  0.00     0.000 C 
ENDROOT
BRANCH   1   2
ATOM      2  C   UNL     1       8.282  49.923  97.964  1.00  0.00     0.000 C 
BRANCH   2   3
ATOM      3  C   UNL     1       9.777  49.805  98.310  1.00  0.00     0.000 C 
BRANCH   3   4
ATOM      4  C   UNL     1      10.387  48.464  97.866  1.00  0.00     0.000 C 
BRANCH   4   5
ATOM      5  C   UNL     1      11.357  48.620  96.684  1.00  0.00     0.000 C 
BRANCH   5   6
ATOM      6  C   UNL     1      12.681  49.285  97.091  1.00  0.00     0.006 C 
BRANCH   6   7
ATOM      7  C   UNL     1      13.593  49.482  95.876  1.00  0.00     0.053 C 
BRANCH   7   8
ATOM      8  C   UNL     1      14.645  50.503  96.172  1.00  0.00     0.041 C 
ATOM      9  O   UNL     1      15.545  50.748  95.325  1.00  0.00    -0.550 OA
ATOM     10  O   UNL     1      14.605  51.220  97.361  1.00  0.00    -0.550 OA
ENDBRANCH   7   8
ENDBRANCH   6   7
ENDBRANCH   5   6
ENDBRANCH   4   5
ENDBRANCH   3   4
ENDBRANCH   2   3
ENDBRANCH   1   2
BRANCH   1  11
ATOM     11  C   UNL     1       6.303  51.522  97.408  1.00  0.00     0.000 C 
BRANCH  11  12
ATOM     12  C   UNL     1       6.251  51.949  95.930  1.00  0.00     0.000 C 
BRANCH  12  13
ATOM     13  C   UNL     1       6.514  50.782  94.962  1.00  0.00     0.000 C 
BRANCH  13  14
ATOM     14  C   UNL     1       7.887  50.883  94.279  1.00  0.00     0.000 C 
BRANCH  14  15
ATOM     15  C   UNL     1       8.694  49.575  94.374  1.00  0.00     0.000 C 
BRANCH  15  16
ATOM     16  C   UNL     1       7.802  48.323  94.304  1.00  0.00     0.006 C 
BRANCH  16  17
ATOM     17  C   UNL     1       8.096  47.280  95.395  1.00  0.00     0.053 C 
BRANCH  17  18
ATOM     18  C   UNL     1       9.051  46.227  94.923  1.00  0.00     0.041 C 
ATOM     19  O   UNL     1       9.442  46.219  93.726  1.00  0.00    -0.550 OA
ATOM     20  O   UNL     1       9.537  45.278  95.814  1.00  0.00    -0.550 OA
ENDBRANCH  17  18
ENDBRANCH  16  17
ENDBRANCH  15  16
ENDBRANCH  14  15
ENDBRANCH  13  14
ENDBRANCH  12  13
ENDBRANCH  11  12
ENDBRANCH   1  11
TORSDOF 15
ENDMDL
MODEL 9
REMARK VINA RESULT:    -4.007      4.035      7.367
REMARK INTER + INTRA:          -8.556
REMARK INTER:                  -7.844
REMARK INTRA:                  -0.712
REMARK UNBOUND:                -1.035
REMARK SMILES O=C([O-])CCCCCCCCCCCCCCC(=O)[O-]
REMARK SMILES IDX 10 1 9 2 8 3 7 4 6 5 5 6 4 7 2 8 1 9 3 10 11 11 12 12 13 13
REMARK SMILES IDX 14 14 15 15 16 16 17 17 18 18 19 19 20 20
REMARK H PARENT
REMARK Flexibility Score: inf
ROOT
ATOM      1  C   UNL     1      15.601  50.312  94.942  1.00  0.00     0.000 C 
ENDROOT
BRANCH   1   2
ATOM      2  C   UNL     1      15.937  48.831  95.210  1.00  0.00     0.000 C 
BRANCH   2   3
ATOM      3  C   UNL     1      16.576  48.087  94.023  1.00  0.00     0.000 C 
BRANCH   3   4
ATOM      4  C   UNL     1      17.515  46.953  94.468  1.00  0.00     0.000 C 
BRANCH   4   5
ATOM      5  C   UNL     1      17.329  45.672  93.639  1.00  0.00     0.000 C 
BRANCH   5   6
ATOM      6  C   UNL     1      18.549  45.356  92.760  1.00  0.00     0.006 C 
BRANCH   6   7
ATOM      7  C   UNL     1      18.383  45.945  91.357  1.00  0.00     0.053 C 
BRANCH   7   8
ATOM      8  C   UNL     1      19.253  47.150  91.188  1.00  0.00     0.041 C 
ATOM      9  O   UNL     1      20.456  47.120  91.564  1.00  0.00    -0.550 OA
ATOM     10  O   UNL     1      18.753  48.289  90.571  1.00  0.00    -0.550 OA
ENDBRANCH   7   8
ENDBRANCH   6   7
ENDBRANCH   5   6
ENDBRANCH   4   5
ENDBRANCH   3   4
ENDBRANCH   2   3
ENDBRANCH   1   2
BRANCH   1  11
ATOM     11  C   UNL     1      14.295  50.816  95.589  1.00  0.00     0.000 C 
BRANCH  11  12
ATOM     12  C   UNL     1      13.227  49.734  95.830  1.00  0.00     0.000 C 
BRANCH  12  13
ATOM     13  C   UNL     1      12.811  49.626  97.307  1.00  0.00     0.000 C 
BRANCH  13  14
ATOM     14  C   UNL     1      11.461  48.913  97.488  1.00  0.00     0.000 C 
BRANCH  14  15
ATOM     15  C   UNL     1      10.530  49.647  98.470  1.00  0.00     0.000 C 
BRANCH  15  16
ATOM     16  C   UNL     1       9.077  49.717  97.967  1.00  0.00     0.006 C 
BRANCH  16  17
ATOM     17  C   UNL     1       8.688  48.580  97.008  1.00  0.00     0.053 C 
BRANCH  17  18
ATOM     18  C   UNL     1       7.485  47.827  97.486  1.00  0.00     0.041 C 
ATOM     19  O   UNL     1       7.589  46.620  97.827  1.00  0.00    -0.550 OA
ATOM     20  O   UNL     1       6.257  48.470  97.591  1.00  0.00    -0.550 OA
ENDBRANCH  17  18
ENDBRANCH  16  17
ENDBRANCH  15  16
ENDBRANCH  14  15
ENDBRANCH  13  14
ENDBRANCH  12  13
ENDBRANCH  11  12
ENDBRANCH   1  11
TORSDOF 15
ENDMDL
