MODEL 1
REMARK VINA RESULT:    -3.920      0.000      0.000
REMARK INTER + INTRA:         -14.056
REMARK INTER:                 -10.337
REMARK INTRA:                  -3.719
REMARK UNBOUND:                -3.719
REMARK SMILES CCCCCCCCCCCCCCCCCCCCCCCCCCCCCC(=O)[O-]
REMARK SMILES IDX 16 1 17 2 18 3 19 4 20 5 21 6 22 7 23 8 24 9 25 10 26 11
REMARK SMILES IDX 27 12 28 13 29 14 30 15 31 16 32 17 15 18 14 19 13 20 12 21
REMARK SMILES IDX 11 22 10 23 9 24 8 25 7 26 6 27 5 28 4 29 3 30 2 31 1 32
REMARK H PARENT
REMARK Flexibility Score: inf
ROOT
ATOM      1  C   UNL     1     -93.013 -61.418 -66.814  1.00  0.00     0.000 C 
ENDROOT
BRANCH   1   2
ATOM      2  C   UNL     1     -92.918 -62.066 -68.203  1.00  0.00     0.000 C 
BRANCH   2   3
ATOM      3  C   UNL     1     -93.186 -63.579 -68.167  1.00  0.00     0.000 C 
BRANCH   3   4
ATOM      4  C   UNL     1     -93.543 -64.152 -69.552  1.00  0.00     0.000 C 
BRANCH   4   5
ATOM      5  C   UNL     1     -92.906 -63.330 -70.685  1.00  0.00     0.000 C 
BRANCH   5   6
ATOM      6  C   UNL     1     -93.855 -63.151 -71.887  1.00  0.00     0.000 C 
BRANCH   6   7
ATOM      7  C   UNL     1     -94.457 -61.738 -71.944  1.00  0.00     0.000 C 
BRANCH   7   8
ATOM      8  C   UNL     1     -95.972 -61.762 -71.675  1.00  0.00     0.000 C 
BRANCH   8   9
ATOM      9  C   UNL     1     -96.385 -60.870 -70.495  1.00  0.00     0.000 C 
BRANCH   9  10
ATOM     10  C   UNL     1     -96.574 -61.671 -69.194  1.00  0.00     0.000 C 
BRANCH  10  11
ATOM     11  C   UNL     1     -98.053 -61.820 -68.790  1.00  0.00     0.000 C 
BRANCH  11  12
ATOM     12  C   UNL     1     -98.846 -62.890 -69.571  1.00  0.00     0.000 C 
BRANCH  12  13
ATOM     13  C   UNL     1     -99.906 -63.651 -68.750  1.00  0.00     0.006 C 
BRANCH  13  14
ATOM     14  C   UNL     1    -101.357 -63.362 -69.169  1.00  0.00     0.053 C 
BRANCH  14  15
ATOM     15  C   UNL     1    -101.955 -64.507 -69.929  1.00  0.00     0.041 C 
ATOM     16  O   UNL     1    -101.381 -64.955 -70.957  1.00  0.00    -0.550 OA
ATOM     17  O   UNL     1    -103.135 -65.093 -69.492  1.00  0.00    -0.550 OA
ENDBRANCH  14  15
ENDBRANCH  13  14
ENDBRANCH  12  13
ENDBRANCH  11  12
ENDBRANCH  10  11
ENDBRANCH   9  10
ENDBRANCH   8   9
ENDBRANCH   7   8
ENDBRANCH   6   7
ENDBRANCH   5   6
ENDBRANCH   4   5
ENDBRANCH   3   4
ENDBRANCH   2   3
ENDBRANCH   1   2
BRANCH   1  18
ATOM     18  C   UNL     1     -94.460 -61.029 -66.489  1.00  0.00     0.000 C 
BRANCH  18  19
ATOM     19  C   UNL     1     -95.131 -62.090 -65.608  1.00  0.00     0.000 C 
BRANCH  19  20
ATOM     20  C   UNL     1     -96.398 -61.536 -64.947  1.00  0.00     0.000 C 
BRANCH  20  21
ATOM     21  C   UNL     1     -96.927 -62.498 -63.873  1.00  0.00     0.000 C 
BRANCH  21  22
ATOM     22  C   UNL     1     -98.355 -62.132 -63.412  1.00  0.00     0.000 C 
BRANCH  22  23
ATOM     23  C   UNL     1     -99.379 -62.072 -64.561  1.00  0.00     0.000 C 
BRANCH  23  24
ATOM     24  C   UNL     1    -100.772 -61.548 -64.161  1.00  0.00    -0.000 C 
BRANCH  24  25
ATOM     25  C   UNL     1    -101.234 -60.297 -64.930  1.00  0.00    -0.000 C 
BRANCH  25  26
ATOM     26  C   UNL     1    -101.964 -60.638 -66.241  1.00  0.00    -0.000 C 
BRANCH  26  27
ATOM     27  C   UNL     1    -101.145 -60.262 -67.487  1.00  0.00    -0.000 C 
BRANCH  27  28
ATOM     28  C   UNL     1    -100.217 -59.059 -67.240  1.00  0.00    -0.000 C 
BRANCH  28  29
ATOM     29  C   UNL     1     -98.826 -59.482 -66.740  1.00  0.00    -0.000 C 
BRANCH  29  30
ATOM     30  C   UNL     1     -97.739 -58.440 -67.056  1.00  0.00    -0.000 C 
BRANCH  30  31
ATOM     31  C   UNL     1     -96.826 -58.159 -65.853  1.00  0.00    -0.003 C 
ATOM     32  C   UNL     1     -96.150 -56.790 -65.931  1.00  0.00     0.004 C 
ENDBRANCH  30  31
ENDBRANCH  29  30
ENDBRANCH  28  29
ENDBRANCH  27  28
ENDBRANCH  26  27
ENDBRANCH  25  26
ENDBRANCH  24  25
ENDBRANCH  23  24
ENDBRANCH  22  23
ENDBRANCH  21  22
ENDBRANCH  20  21
ENDBRANCH  19  20
ENDBRANCH  18  19
ENDBRANCH   1  18
TORSDOF 28
ENDMDL
MODEL 2
REMARK VINA RESULT:    -3.716     15.196     19.077
REMARK INTER + INTRA:         -13.519
REMARK INTER:                  -8.102
REMARK INTRA:                  -5.417
REMARK UNBOUND:                -3.719
REMARK SMILES CCCCCCCCCCCCCCCCCCCCCCCCCCCCCC(=O)[O-]
REMARK SMILES IDX 16 1 17 2 18 3 19 4 20 5 21 6 22 7 23 8 24 9 25 10 26 11
REMARK SMILES IDX 27 12 28 13 29 14 30 15 31 16 32 17 15 18 14 19 13 20 12 21
REMARK SMILES IDX 11 22 10 23 9 24 8 25 7 26 6 27 5 28 4 29 3 30 2 31 1 32
REMARK H PARENT
REMARK Flexibility Score: inf
ROOT
ATOM      1  C   UNL     1    -110.439 -50.817 -59.774  1.00  0.00     0.000 C 
ENDROOT
BRANCH   1   2
ATOM      2  C   UNL     1    -109.597 -50.922 -61.054  1.00  0.00     0.000 C 
BRANCH   2   3
ATOM      3  C   UNL     1    -109.723 -49.676 -61.945  1.00  0.00     0.000 C 
BRANCH   3   4
ATOM      4  C   UNL     1    -108.484 -48.763 -61.866  1.00  0.00     0.000 C 
BRANCH   4   5
ATOM      5  C   UNL     1    -108.752 -47.519 -61.002  1.00  0.00     0.000 C 
BRANCH   5   6
ATOM      6  C   UNL     1    -110.190 -46.986 -61.168  1.00  0.00     0.000 C 
BRANCH   6   7
ATOM      7  C   UNL     1    -110.225 -45.628 -61.887  1.00  0.00     0.000 C 
BRANCH   7   8
ATOM      8  C   UNL     1    -111.068 -45.694 -63.173  1.00  0.00     0.000 C 
BRANCH   8   9
ATOM      9  C   UNL     1    -110.601 -46.794 -64.138  1.00  0.00     0.000 C 
BRANCH   9  10
ATOM     10  C   UNL     1    -109.935 -46.220 -65.403  1.00  0.00     0.000 C 
BRANCH  10  11
ATOM     11  C   UNL     1    -109.141 -47.275 -66.194  1.00  0.00     0.000 C 
BRANCH  11  12
ATOM     12  C   UNL     1    -109.024 -48.659 -65.517  1.00  0.00     0.000 C 
BRANCH  12  13
ATOM     13  C   UNL     1    -107.585 -49.180 -65.332  1.00  0.00     0.006 C 
BRANCH  13  14
ATOM     14  C   UNL     1    -107.420 -50.685 -65.600  1.00  0.00     0.053 C 
BRANCH  14  15
ATOM     15  C   UNL     1    -107.311 -51.467 -64.325  1.00  0.00     0.041 C 
ATOM     16  O   UNL     1    -108.217 -52.277 -63.998  1.00  0.00    -0.550 OA
ATOM     17  O   UNL     1    -106.198 -51.315 -63.508  1.00  0.00    -0.550 OA
ENDBRANCH  14  15
ENDBRANCH  13  14
ENDBRANCH  12  13
ENDBRANCH  11  12
ENDBRANCH  10  11
ENDBRANCH   9  10
ENDBRANCH   8   9
ENDBRANCH   7   8
ENDBRANCH   6   7
ENDBRANCH   5   6
ENDBRANCH   4   5
ENDBRANCH   3   4
ENDBRANCH   2   3
ENDBRANCH   1   2
BRANCH   1  18
ATOM     18  C   UNL     1    -109.585 -50.331 -58.596  1.00  0.00     0.000 C 
BRANCH  18  19
ATOM     19  C   UNL     1    -110.278 -49.186 -57.848  1.00  0.00     0.000 C 
BRANCH  19  20
ATOM     20  C   UNL     1    -109.253 -48.202 -57.275  1.00  0.00     0.000 C 
BRANCH  20  21
ATOM     21  C   UNL     1    -107.821 -48.620 -57.639  1.00  0.00     0.000 C 
BRANCH  21  22
ATOM     22  C   UNL     1    -106.850 -48.484 -56.446  1.00  0.00     0.000 C 
BRANCH  22  23
ATOM     23  C   UNL     1    -105.712 -49.523 -56.453  1.00  0.00     0.000 C 
BRANCH  23  24
ATOM     24  C   UNL     1    -106.172 -50.985 -56.616  1.00  0.00    -0.000 C 
BRANCH  24  25
ATOM     25  C   UNL     1    -106.286 -51.773 -55.298  1.00  0.00    -0.000 C 
BRANCH  25  26
ATOM     26  C   UNL     1    -107.700 -52.329 -55.055  1.00  0.00    -0.000 C 
BRANCH  26  27
ATOM     27  C   UNL     1    -108.742 -51.217 -54.850  1.00  0.00    -0.000 C 
BRANCH  27  28
ATOM     28  C   UNL     1    -110.173 -51.687 -55.167  1.00  0.00    -0.000 C 
BRANCH  28  29
ATOM     29  C   UNL     1    -110.197 -52.967 -56.019  1.00  0.00    -0.000 C 
BRANCH  29  30
ATOM     30  C   UNL     1    -111.522 -53.151 -56.779  1.00  0.00    -0.000 C 
BRANCH  30  31
ATOM     31  C   UNL     1    -111.352 -53.972 -58.066  1.00  0.00    -0.003 C 
ATOM     32  C   UNL     1    -109.887 -54.247 -58.403  1.00  0.00     0.004 C 
ENDBRANCH  30  31
ENDBRANCH  29  30
ENDBRANCH  28  29
ENDBRANCH  27  28
ENDBRANCH  26  27
ENDBRANCH  25  26
ENDBRANCH  24  25
ENDBRANCH  23  24
ENDBRANCH  22  23
ENDBRANCH  21  22
ENDBRANCH  20  21
ENDBRANCH  19  20
ENDBRANCH  18  19
ENDBRANCH   1  18
TORSDOF 28
ENDMDL
MODEL 3
REMARK VINA RESULT:    -3.693     15.392     19.507
REMARK INTER + INTRA:         -13.456
REMARK INTER:                  -7.807
REMARK INTRA:                  -5.649
REMARK UNBOUND:                -3.719
REMARK SMILES CCCCCCCCCCCCCCCCCCCCCCCCCCCCCC(=O)[O-]
REMARK SMILES IDX 16 1 17 2 18 3 19 4 20 5 21 6 22 7 23 8 24 9 25 10 26 11
REMARK SMILES IDX 27 12 28 13 29 14 30 15 31 16 32 17 15 18 14 19 13 20 12 21
REMARK SMILES IDX 11 22 10 23 9 24 8 25 7 26 6 27 5 28 4 29 3 30 2 31 1 32
REMARK H PARENT
REMARK Flexibility Score: inf
ROOT
ATOM      1  C   UNL     1    -109.649 -48.366 -55.254  1.00  0.00     0.000 C 
ENDROOT
BRANCH   1   2
ATOM      2  C   UNL     1    -110.222 -48.692 -56.641  1.00  0.00     0.000 C 
BRANCH   2   3
ATOM      3  C   UNL     1    -110.114 -47.508 -57.616  1.00  0.00     0.000 C 
BRANCH   3   4
ATOM      4  C   UNL     1    -109.029 -47.720 -58.689  1.00  0.00     0.000 C 
BRANCH   4   5
ATOM      5  C   UNL     1    -109.329 -46.912 -59.963  1.00  0.00     0.000 C 
BRANCH   5   6
ATOM      6  C   UNL     1    -110.721 -46.248 -59.925  1.00  0.00     0.000 C 
BRANCH   6   7
ATOM      7  C   UNL     1    -111.692 -46.879 -60.935  1.00  0.00     0.000 C 
BRANCH   7   8
ATOM      8  C   UNL     1    -112.433 -48.082 -60.326  1.00  0.00     0.000 C 
BRANCH   8   9
ATOM      9  C   UNL     1    -112.132 -49.401 -61.052  1.00  0.00     0.000 C 
BRANCH   9  10
ATOM     10  C   UNL     1    -111.095 -50.259 -60.304  1.00  0.00     0.000 C 
BRANCH  10  11
ATOM     11  C   UNL     1    -109.785 -50.440 -61.093  1.00  0.00     0.000 C 
BRANCH  11  12
ATOM     12  C   UNL     1    -109.677 -49.612 -62.393  1.00  0.00     0.000 C 
BRANCH  12  13
ATOM     13  C   UNL     1    -108.246 -49.201 -62.793  1.00  0.00     0.006 C 
BRANCH  13  14
ATOM     14  C   UNL     1    -107.755 -49.823 -64.110  1.00  0.00     0.053 C 
BRANCH  14  15
ATOM     15  C   UNL     1    -107.237 -51.215 -63.908  1.00  0.00     0.041 C 
ATOM     16  O   UNL     1    -106.042 -51.403 -63.560  1.00  0.00    -0.550 OA
ATOM     17  O   UNL     1    -108.080 -52.305 -64.083  1.00  0.00    -0.550 OA
ENDBRANCH  14  15
ENDBRANCH  13  14
ENDBRANCH  12  13
ENDBRANCH  11  12
ENDBRANCH  10  11
ENDBRANCH   9  10
ENDBRANCH   8   9
ENDBRANCH   7   8
ENDBRANCH   6   7
ENDBRANCH   5   6
ENDBRANCH   4   5
ENDBRANCH   3   4
ENDBRANCH   2   3
ENDBRANCH   1   2
BRANCH   1  18
ATOM     18  C   UNL     1    -108.394 -49.200 -54.971  1.00  0.00     0.000 C 
BRANCH  18  19
ATOM     19  C   UNL     1    -107.126 -48.346 -55.091  1.00  0.00     0.000 C 
BRANCH  19  20
ATOM     20  C   UNL     1    -106.385 -48.642 -56.399  1.00  0.00     0.000 C 
BRANCH  20  21
ATOM     21  C   UNL     1    -106.294 -50.154 -56.654  1.00  0.00     0.000 C 
BRANCH  21  22
ATOM     22  C   UNL     1    -104.859 -50.692 -56.471  1.00  0.00     0.000 C 
BRANCH  22  23
ATOM     23  C   UNL     1    -104.738 -51.774 -55.381  1.00  0.00     0.000 C 
BRANCH  23  24
ATOM     24  C   UNL     1    -105.915 -51.826 -54.388  1.00  0.00    -0.000 C 
BRANCH  24  25
ATOM     25  C   UNL     1    -106.846 -53.041 -54.560  1.00  0.00    -0.000 C 
BRANCH  25  26
ATOM     26  C   UNL     1    -108.246 -52.809 -53.964  1.00  0.00    -0.000 C 
BRANCH  26  27
ATOM     27  C   UNL     1    -109.364 -53.400 -54.839  1.00  0.00    -0.000 C 
BRANCH  27  28
ATOM     28  C   UNL     1    -110.441 -52.361 -55.198  1.00  0.00    -0.000 C 
BRANCH  28  29
ATOM     29  C   UNL     1    -110.662 -52.245 -56.715  1.00  0.00    -0.000 C 
BRANCH  29  30
ATOM     30  C   UNL     1    -109.344 -52.154 -57.503  1.00  0.00    -0.000 C 
BRANCH  30  31
ATOM     31  C   UNL     1    -109.259 -53.192 -58.632  1.00  0.00    -0.003 C 
ATOM     32  C   UNL     1    -110.398 -54.211 -58.583  1.00  0.00     0.004 C 
ENDBRANCH  30  31
ENDBRANCH  29  30
ENDBRANCH  28  29
ENDBRANCH  27  28
ENDBRANCH  26  27
ENDBRANCH  25  26
ENDBRANCH  24  25
ENDBRANCH  23  24
ENDBRANCH  22  23
ENDBRANCH  21  22
ENDBRANCH  20  21
ENDBRANCH  19  20
ENDBRANCH  18  19
ENDBRANCH   1  18
TORSDOF 28
ENDMDL
MODEL 4
REMARK VINA RESULT:    -3.670     14.927     19.209
REMARK INTER + INTRA:         -13.395
REMARK INTER:                  -7.871
REMARK INTRA:                  -5.524
REMARK UNBOUND:                -3.719
REMARK SMILES CCCCCCCCCCCCCCCCCCCCCCCCCCCCCC(=O)[O-]
REMARK SMILES IDX 16 1 17 2 18 3 19 4 20 5 21 6 22 7 23 8 24 9 25 10 26 11
REMARK SMILES IDX 27 12 28 13 29 14 30 15 31 16 32 17 15 18 14 19 13 20 12 21
REMARK SMILES IDX 11 22 10 23 9 24 8 25 7 26 6 27 5 28 4 29 3 30 2 31 1 32
REMARK H PARENT
REMARK Flexibility Score: inf
ROOT
ATOM      1  C   UNL     1    -111.400 -51.140 -60.466  1.00  0.00     0.000 C 
ENDROOT
BRANCH   1   2
ATOM      2  C   UNL     1    -111.787 -49.910 -59.633  1.00  0.00     0.000 C 
BRANCH   2   3
ATOM      3  C   UNL     1    -112.287 -48.744 -60.500  1.00  0.00     0.000 C 
BRANCH   3   4
ATOM      4  C   UNL     1    -112.064 -47.371 -59.837  1.00  0.00     0.000 C 
BRANCH   4   5
ATOM      5  C   UNL     1    -111.042 -47.457 -58.691  1.00  0.00     0.000 C 
BRANCH   5   6
ATOM      6  C   UNL     1    -109.712 -46.756 -59.036  1.00  0.00     0.000 C 
BRANCH   6   7
ATOM      7  C   UNL     1    -108.714 -47.709 -59.713  1.00  0.00     0.000 C 
BRANCH   7   8
ATOM      8  C   UNL     1    -108.630 -47.451 -61.227  1.00  0.00     0.000 C 
BRANCH   8   9
ATOM      9  C   UNL     1    -108.981 -48.690 -62.065  1.00  0.00     0.000 C 
BRANCH   9  10
ATOM     10  C   UNL     1    -108.956 -48.401 -63.577  1.00  0.00     0.000 C 
BRANCH  10  11
ATOM     11  C   UNL     1    -110.040 -49.171 -64.353  1.00  0.00     0.000 C 
BRANCH  11  12
ATOM     12  C   UNL     1    -110.273 -50.627 -63.893  1.00  0.00     0.000 C 
BRANCH  12  13
ATOM     13  C   UNL     1    -109.375 -51.682 -64.570  1.00  0.00     0.006 C 
BRANCH  13  14
ATOM     14  C   UNL     1    -108.160 -52.109 -63.730  1.00  0.00     0.053 C 
BRANCH  14  15
ATOM     15  C   UNL     1    -106.890 -51.497 -64.239  1.00  0.00     0.041 C 
ATOM     16  O   UNL     1    -105.792 -51.758 -63.682  1.00  0.00    -0.550 OA
ATOM     17  O   UNL     1    -106.917 -50.653 -65.342  1.00  0.00    -0.550 OA
ENDBRANCH  14  15
ENDBRANCH  13  14
ENDBRANCH  12  13
ENDBRANCH  11  12
ENDBRANCH  10  11
ENDBRANCH   9  10
ENDBRANCH   8   9
ENDBRANCH   7   8
ENDBRANCH   6   7
ENDBRANCH   5   6
ENDBRANCH   4   5
ENDBRANCH   3   4
ENDBRANCH   2   3
ENDBRANCH   1   2
BRANCH   1  18
ATOM     18  C   UNL     1    -110.051 -51.710 -60.009  1.00  0.00     0.000 C 
BRANCH  18  19
ATOM     19  C   UNL     1    -109.419 -50.827 -58.927  1.00  0.00     0.000 C 
BRANCH  19  20
ATOM     20  C   UNL     1    -108.948 -51.668 -57.735  1.00  0.00     0.000 C 
BRANCH  20  21
ATOM     21  C   UNL     1    -110.015 -51.707 -56.631  1.00  0.00     0.000 C 
BRANCH  21  22
ATOM     22  C   UNL     1    -109.696 -50.731 -55.477  1.00  0.00     0.000 C 
BRANCH  22  23
ATOM     23  C   UNL     1    -110.317 -49.333 -55.660  1.00  0.00     0.000 C 
BRANCH  23  24
ATOM     24  C   UNL     1    -109.314 -48.165 -55.586  1.00  0.00    -0.000 C 
BRANCH  24  25
ATOM     25  C   UNL     1    -107.852 -48.587 -55.349  1.00  0.00    -0.000 C 
BRANCH  25  26
ATOM     26  C   UNL     1    -107.031 -48.651 -56.648  1.00  0.00    -0.000 C 
BRANCH  26  27
ATOM     27  C   UNL     1    -105.639 -49.270 -56.436  1.00  0.00    -0.000 C 
BRANCH  27  28
ATOM     28  C   UNL     1    -105.605 -50.771 -56.772  1.00  0.00    -0.000 C 
BRANCH  28  29
ATOM     29  C   UNL     1    -105.199 -51.635 -55.566  1.00  0.00    -0.000 C 
BRANCH  29  30
ATOM     30  C   UNL     1    -106.296 -51.706 -54.489  1.00  0.00    -0.000 C 
BRANCH  30  31
ATOM     31  C   UNL     1    -106.690 -53.149 -54.144  1.00  0.00    -0.003 C 
ATOM     32  C   UNL     1    -105.479 -54.064 -53.962  1.00  0.00     0.004 C 
ENDBRANCH  30  31
ENDBRANCH  29  30
ENDBRANCH  28  29
ENDBRANCH  27  28
ENDBRANCH  26  27
ENDBRANCH  25  26
ENDBRANCH  24  25
ENDBRANCH  23  24
ENDBRANCH  22  23
ENDBRANCH  21  22
ENDBRANCH  20  21
ENDBRANCH  19  20
ENDBRANCH  18  19
ENDBRANCH   1  18
TORSDOF 28
ENDMDL
MODEL 5
REMARK VINA RESULT:    -3.642     15.240     19.742
REMARK INTER + INTRA:         -13.324
REMARK INTER:                  -8.164
REMARK INTRA:                  -5.160
REMARK UNBOUND:                -3.719
REMARK SMILES CCCCCCCCCCCCCCCCCCCCCCCCCCCCCC(=O)[O-]
REMARK SMILES IDX 16 1 17 2 18 3 19 4 20 5 21 6 22 7 23 8 24 9 25 10 26 11
REMARK SMILES IDX 27 12 28 13 29 14 30 15 31 16 32 17 15 18 14 19 13 20 12 21
REMARK SMILES IDX 11 22 10 23 9 24 8 25 7 26 6 27 5 28 4 29 3 30 2 31 1 32
REMARK H PARENT
REMARK Flexibility Score: inf
ROOT
ATOM      1  C   UNL     1    -107.767 -48.850 -54.133  1.00  0.00     0.000 C 
ENDROOT
BRANCH   1   2
ATOM      2  C   UNL     1    -108.967 -48.215 -53.415  1.00  0.00     0.000 C 
BRANCH   2   3
ATOM      3  C   UNL     1    -109.206 -46.758 -53.842  1.00  0.00     0.000 C 
BRANCH   3   4
ATOM      4  C   UNL     1    -110.613 -46.535 -54.429  1.00  0.00     0.000 C 
BRANCH   4   5
ATOM      5  C   UNL     1    -110.994 -47.646 -55.422  1.00  0.00     0.000 C 
BRANCH   5   6
ATOM      6  C   UNL     1    -111.197 -47.111 -56.854  1.00  0.00     0.000 C 
BRANCH   6   7
ATOM      7  C   UNL     1    -110.437 -47.947 -57.897  1.00  0.00     0.000 C 
BRANCH   7   8
ATOM      8  C   UNL     1    -109.338 -47.120 -58.587  1.00  0.00     0.000 C 
BRANCH   8   9
ATOM      9  C   UNL     1    -108.670 -47.865 -59.752  1.00  0.00     0.000 C 
BRANCH   9  10
ATOM     10  C   UNL     1    -109.678 -48.271 -60.843  1.00  0.00     0.000 C 
BRANCH  10  11
ATOM     11  C   UNL     1    -109.150 -48.022 -62.269  1.00  0.00     0.000 C 
BRANCH  11  12
ATOM     12  C   UNL     1    -109.286 -49.216 -63.240  1.00  0.00     0.000 C 
BRANCH  12  13
ATOM     13  C   UNL     1    -108.602 -50.518 -62.780  1.00  0.00     0.006 C 
BRANCH  13  14
ATOM     14  C   UNL     1    -108.364 -51.538 -63.906  1.00  0.00     0.053 C 
BRANCH  14  15
ATOM     15  C   UNL     1    -106.992 -51.406 -64.494  1.00  0.00     0.041 C 
ATOM     16  O   UNL     1    -106.821 -50.786 -65.576  1.00  0.00    -0.550 OA
ATOM     17  O   UNL     1    -105.897 -51.951 -63.836  1.00  0.00    -0.550 OA
ENDBRANCH  14  15
ENDBRANCH  13  14
ENDBRANCH  12  13
ENDBRANCH  11  12
ENDBRANCH  10  11
ENDBRANCH   9  10
ENDBRANCH   8   9
ENDBRANCH   7   8
ENDBRANCH   6   7
ENDBRANCH   5   6
ENDBRANCH   4   5
ENDBRANCH   3   4
ENDBRANCH   2   3
ENDBRANCH   1   2
BRANCH   1  18
ATOM     18  C   UNL     1    -107.178 -47.887 -55.171  1.00  0.00     0.000 C 
BRANCH  18  19
ATOM     19  C   UNL     1    -106.413 -48.649 -56.259  1.00  0.00     0.000 C 
BRANCH  19  20
ATOM     20  C   UNL     1    -107.300 -49.716 -56.911  1.00  0.00     0.000 C 
BRANCH  20  21
ATOM     21  C   UNL     1    -106.578 -51.069 -56.979  1.00  0.00     0.000 C 
BRANCH  21  22
ATOM     22  C   UNL     1    -105.229 -51.051 -56.228  1.00  0.00     0.000 C 
BRANCH  22  23
ATOM     23  C   UNL     1    -105.166 -52.038 -55.046  1.00  0.00     0.000 C 
BRANCH  23  24
ATOM     24  C   UNL     1    -106.300 -51.885 -54.014  1.00  0.00    -0.000 C 
BRANCH  24  25
ATOM     25  C   UNL     1    -107.121 -53.164 -53.767  1.00  0.00    -0.000 C 
BRANCH  25  26
ATOM     26  C   UNL     1    -108.225 -53.377 -54.816  1.00  0.00    -0.000 C 
BRANCH  26  27
ATOM     27  C   UNL     1    -109.235 -52.218 -54.852  1.00  0.00    -0.000 C 
BRANCH  27  28
ATOM     28  C   UNL     1    -110.036 -52.175 -56.166  1.00  0.00    -0.000 C 
BRANCH  28  29
ATOM     29  C   UNL     1    -109.747 -53.385 -57.070  1.00  0.00    -0.000 C 
BRANCH  29  30
ATOM     30  C   UNL     1    -109.442 -52.982 -58.523  1.00  0.00    -0.000 C 
BRANCH  30  31
ATOM     31  C   UNL     1    -109.903 -51.553 -58.847  1.00  0.00    -0.003 C 
ATOM     32  C   UNL     1    -110.888 -51.501 -60.014  1.00  0.00     0.004 C 
ENDBRANCH  30  31
ENDBRANCH  29  30
ENDBRANCH  28  29
ENDBRANCH  27  28
ENDBRANCH  26  27
ENDBRANCH  25  26
ENDBRANCH  24  25
ENDBRANCH  23  24
ENDBRANCH  22  23
ENDBRANCH  21  22
ENDBRANCH  20  21
ENDBRANCH  19  20
ENDBRANCH  18  19
ENDBRANCH   1  18
TORSDOF 28
ENDMDL
MODEL 6
REMARK VINA RESULT:    -3.627     15.472     19.690
REMARK INTER + INTRA:         -13.284
REMARK INTER:                  -7.855
REMARK INTRA:                  -5.430
REMARK UNBOUND:                -3.719
REMARK SMILES CCCCCCCCCCCCCCCCCCCCCCCCCCCCCC(=O)[O-]
REMARK SMILES IDX 16 1 17 2 18 3 19 4 20 5 21 6 22 7 23 8 24 9 25 10 26 11
REMARK SMILES IDX 27 12 28 13 29 14 30 15 31 16 32 17 15 18 14 19 13 20 12 21
REMARK SMILES IDX 11 22 10 23 9 24 8 25 7 26 6 27 5 28 4 29 3 30 2 31 1 32
REMARK H PARENT
REMARK Flexibility Score: inf
ROOT
ATOM      1  C   UNL     1    -106.966 -48.676 -56.530  1.00  0.00     0.000 C 
ENDROOT
BRANCH   1   2
ATOM      2  C   UNL     1    -107.024 -48.091 -55.111  1.00  0.00     0.000 C 
BRANCH   2   3
ATOM      3  C   UNL     1    -108.445 -47.667 -54.707  1.00  0.00     0.000 C 
BRANCH   3   4
ATOM      4  C   UNL     1    -109.516 -48.684 -55.148  1.00  0.00     0.000 C 
BRANCH   4   5
ATOM      5  C   UNL     1    -110.884 -48.011 -55.351  1.00  0.00     0.000 C 
BRANCH   5   6
ATOM      6  C   UNL     1    -110.826 -46.859 -56.375  1.00  0.00     0.000 C 
BRANCH   6   7
ATOM      7  C   UNL     1    -111.208 -47.322 -57.790  1.00  0.00     0.000 C 
BRANCH   7   8
ATOM      8  C   UNL     1    -110.226 -46.780 -58.843  1.00  0.00     0.000 C 
BRANCH   8   9
ATOM      9  C   UNL     1    -108.933 -47.605 -58.937  1.00  0.00     0.000 C 
BRANCH   9  10
ATOM     10  C   UNL     1    -108.571 -47.962 -60.390  1.00  0.00     0.000 C 
BRANCH  10  11
ATOM     11  C   UNL     1    -109.648 -48.814 -61.085  1.00  0.00     0.000 C 
BRANCH  11  12
ATOM     12  C   UNL     1    -109.828 -48.549 -62.596  1.00  0.00     0.000 C 
BRANCH  12  13
ATOM     13  C   UNL     1    -108.650 -48.994 -63.486  1.00  0.00     0.006 C 
BRANCH  13  14
ATOM     14  C   UNL     1    -108.111 -50.398 -63.163  1.00  0.00     0.053 C 
BRANCH  14  15
ATOM     15  C   UNL     1    -107.116 -50.858 -64.185  1.00  0.00     0.041 C 
ATOM     16  O   UNL     1    -106.380 -51.853 -63.951  1.00  0.00    -0.550 OA
ATOM     17  O   UNL     1    -107.014 -50.201 -65.404  1.00  0.00    -0.550 OA
ENDBRANCH  14  15
ENDBRANCH  13  14
ENDBRANCH  12  13
ENDBRANCH  11  12
ENDBRANCH  10  11
ENDBRANCH   9  10
ENDBRANCH   8   9
ENDBRANCH   7   8
ENDBRANCH   6   7
ENDBRANCH   5   6
ENDBRANCH   4   5
ENDBRANCH   3   4
ENDBRANCH   2   3
ENDBRANCH   1   2
BRANCH   1  18
ATOM     18  C   UNL     1    -106.001 -49.867 -56.592  1.00  0.00     0.000 C 
BRANCH  18  19
ATOM     19  C   UNL     1    -106.738 -51.154 -56.981  1.00  0.00     0.000 C 
BRANCH  19  20
ATOM     20  C   UNL     1    -108.159 -50.849 -57.467  1.00  0.00     0.000 C 
BRANCH  20  21
ATOM     21  C   UNL     1    -108.638 -51.906 -58.474  1.00  0.00     0.000 C 
BRANCH  21  22
ATOM     22  C   UNL     1    -110.144 -51.774 -58.789  1.00  0.00     0.000 C 
BRANCH  22  23
ATOM     23  C   UNL     1    -110.901 -50.853 -57.813  1.00  0.00     0.000 C 
BRANCH  23  24
ATOM     24  C   UNL     1    -111.799 -51.585 -56.797  1.00  0.00    -0.000 C 
BRANCH  24  25
ATOM     25  C   UNL     1    -111.082 -52.031 -55.510  1.00  0.00    -0.000 C 
BRANCH  25  26
ATOM     26  C   UNL     1    -110.527 -53.463 -55.601  1.00  0.00    -0.000 C 
BRANCH  26  27
ATOM     27  C   UNL     1    -109.120 -53.589 -54.994  1.00  0.00    -0.000 C 
BRANCH  27  28
ATOM     28  C   UNL     1    -108.721 -52.351 -54.171  1.00  0.00    -0.000 C 
BRANCH  28  29
ATOM     29  C   UNL     1    -107.576 -52.644 -53.186  1.00  0.00    -0.000 C 
BRANCH  29  30
ATOM     30  C   UNL     1    -106.254 -51.969 -53.594  1.00  0.00    -0.000 C 
BRANCH  30  31
ATOM     31  C   UNL     1    -105.125 -52.983 -53.829  1.00  0.00    -0.003 C 
ATOM     32  C   UNL     1    -104.005 -52.427 -54.709  1.00  0.00     0.004 C 
ENDBRANCH  30  31
ENDBRANCH  29  30
ENDBRANCH  28  29
ENDBRANCH  27  28
ENDBRANCH  26  27
ENDBRANCH  25  26
ENDBRANCH  24  25
ENDBRANCH  23  24
ENDBRANCH  22  23
ENDBRANCH  21  22
ENDBRANCH  20  21
ENDBRANCH  19  20
ENDBRANCH  18  19
ENDBRANCH   1  18
TORSDOF 28
ENDMDL
MODEL 7
REMARK VINA RESULT:    -3.601     15.808     19.536
REMARK INTER + INTRA:         -13.213
REMARK INTER:                  -8.098
REMARK INTRA:                  -5.115
REMARK UNBOUND:                -3.719
REMARK SMILES CCCCCCCCCCCCCCCCCCCCCCCCCCCCCC(=O)[O-]
REMARK SMILES IDX 16 1 17 2 18 3 19 4 20 5 21 6 22 7 23 8 24 9 25 10 26 11
REMARK SMILES IDX 27 12 28 13 29 14 30 15 31 16 32 17 15 18 14 19 13 20 12 21
REMARK SMILES IDX 11 22 10 23 9 24 8 25 7 26 6 27 5 28 4 29 3 30 2 31 1 32
REMARK H PARENT
REMARK Flexibility Score: inf
ROOT
ATOM      1  C   UNL     1    -111.013 -48.164 -56.302  1.00  0.00     0.000 C 
ENDROOT
BRANCH   1   2
ATOM      2  C   UNL     1    -110.783 -49.662 -56.551  1.00  0.00     0.000 C 
BRANCH   2   3
ATOM      3  C   UNL     1    -111.030 -50.060 -58.015  1.00  0.00     0.000 C 
BRANCH   3   4
ATOM      4  C   UNL     1    -109.722 -50.282 -58.799  1.00  0.00     0.000 C 
BRANCH   4   5
ATOM      5  C   UNL     1    -109.482 -49.164 -59.827  1.00  0.00     0.000 C 
BRANCH   5   6
ATOM      6  C   UNL     1    -108.786 -47.935 -59.208  1.00  0.00     0.000 C 
BRANCH   6   7
ATOM      7  C   UNL     1    -109.544 -46.630 -59.504  1.00  0.00     0.000 C 
BRANCH   7   8
ATOM      8  C   UNL     1    -110.956 -46.912 -60.046  1.00  0.00     0.000 C 
BRANCH   8   9
ATOM      9  C   UNL     1    -111.241 -46.198 -61.376  1.00  0.00     0.000 C 
BRANCH   9  10
ATOM     10  C   UNL     1    -111.249 -47.168 -62.572  1.00  0.00     0.000 C 
BRANCH  10  11
ATOM     11  C   UNL     1    -109.842 -47.429 -63.140  1.00  0.00     0.000 C 
BRANCH  11  12
ATOM     12  C   UNL     1    -109.505 -48.912 -63.415  1.00  0.00     0.000 C 
BRANCH  12  13
ATOM     13  C   UNL     1    -108.053 -49.324 -63.104  1.00  0.00     0.006 C 
BRANCH  13  14
ATOM     14  C   UNL     1    -107.565 -50.555 -63.885  1.00  0.00     0.053 C 
BRANCH  14  15
ATOM     15  C   UNL     1    -107.620 -50.330 -65.366  1.00  0.00     0.041 C 
ATOM     16  O   UNL     1    -106.891 -49.455 -65.903  1.00  0.00    -0.550 OA
ATOM     17  O   UNL     1    -108.461 -51.103 -66.157  1.00  0.00    -0.550 OA
ENDBRANCH  14  15
ENDBRANCH  13  14
ENDBRANCH  12  13
ENDBRANCH  11  12
ENDBRANCH  10  11
ENDBRANCH   9  10
ENDBRANCH   8   9
ENDBRANCH   7   8
ENDBRANCH   6   7
ENDBRANCH   5   6
ENDBRANCH   4   5
ENDBRANCH   3   4
ENDBRANCH   2   3
ENDBRANCH   1   2
BRANCH   1  18
ATOM     18  C   UNL     1    -109.798 -47.531 -55.612  1.00  0.00     0.000 C 
BRANCH  18  19
ATOM     19  C   UNL     1    -108.795 -48.603 -55.169  1.00  0.00     0.000 C 
BRANCH  19  20
ATOM     20  C   UNL     1    -107.370 -48.039 -55.124  1.00  0.00     0.000 C 
BRANCH  20  21
ATOM     21  C   UNL     1    -106.561 -48.482 -56.351  1.00  0.00     0.000 C 
BRANCH  21  22
ATOM     22  C   UNL     1    -106.829 -49.956 -56.727  1.00  0.00     0.000 C 
BRANCH  22  23
ATOM     23  C   UNL     1    -105.583 -50.856 -56.630  1.00  0.00     0.000 C 
BRANCH  23  24
ATOM     24  C   UNL     1    -105.479 -51.678 -55.331  1.00  0.00    -0.000 C 
BRANCH  24  25
ATOM     25  C   UNL     1    -106.813 -51.884 -54.591  1.00  0.00    -0.000 C 
BRANCH  25  26
ATOM     26  C   UNL     1    -107.107 -53.364 -54.290  1.00  0.00    -0.000 C 
BRANCH  26  27
ATOM     27  C   UNL     1    -108.466 -53.820 -54.846  1.00  0.00    -0.000 C 
BRANCH  27  28
ATOM     28  C   UNL     1    -109.048 -52.827 -55.866  1.00  0.00    -0.000 C 
BRANCH  28  29
ATOM     29  C   UNL     1    -110.234 -53.415 -56.649  1.00  0.00    -0.000 C 
BRANCH  29  30
ATOM     30  C   UNL     1    -109.826 -53.949 -58.034  1.00  0.00    -0.000 C 
BRANCH  30  31
ATOM     31  C   UNL     1    -110.386 -55.352 -58.312  1.00  0.00    -0.003 C 
ATOM     32  C   UNL     1    -109.457 -56.466 -57.827  1.00  0.00     0.004 C 
ENDBRANCH  30  31
ENDBRANCH  29  30
ENDBRANCH  28  29
ENDBRANCH  27  28
ENDBRANCH  26  27
ENDBRANCH  25  26
ENDBRANCH  24  25
ENDBRANCH  23  24
ENDBRANCH  22  23
ENDBRANCH  21  22
ENDBRANCH  20  21
ENDBRANCH  19  20
ENDBRANCH  18  19
ENDBRANCH   1  18
TORSDOF 28
ENDMDL
MODEL 8
REMARK VINA RESULT:    -3.597     16.303     19.646
REMARK INTER + INTRA:         -13.203
REMARK INTER:                  -7.605
REMARK INTRA:                  -5.598
REMARK UNBOUND:                -3.719
REMARK SMILES CCCCCCCCCCCCCCCCCCCCCCCCCCCCCC(=O)[O-]
REMARK SMILES IDX 16 1 17 2 18 3 19 4 20 5 21 6 22 7 23 8 24 9 25 10 26 11
REMARK SMILES IDX 27 12 28 13 29 14 30 15 31 16 32 17 15 18 14 19 13 20 12 21
REMARK SMILES IDX 11 22 10 23 9 24 8 25 7 26 6 27 5 28 4 29 3 30 2 31 1 32
REMARK H PARENT
REMARK Flexibility Score: inf
ROOT
ATOM      1  C   UNL     1    -109.174 -51.846 -58.616  1.00  0.00     0.000 C 
ENDROOT
BRANCH   1   2
ATOM      2  C   UNL     1    -110.156 -51.173 -59.587  1.00  0.00     0.000 C 
BRANCH   2   3
ATOM      3  C   UNL     1    -110.243 -49.653 -59.377  1.00  0.00     0.000 C 
BRANCH   3   4
ATOM      4  C   UNL     1    -108.898 -49.034 -58.948  1.00  0.00     0.000 C 
BRANCH   4   5
ATOM      5  C   UNL     1    -108.989 -47.503 -58.840  1.00  0.00     0.000 C 
BRANCH   5   6
ATOM      6  C   UNL     1    -110.354 -47.032 -58.296  1.00  0.00     0.000 C 
BRANCH   6   7
ATOM      7  C   UNL     1    -111.038 -46.030 -59.240  1.00  0.00     0.000 C 
BRANCH   7   8
ATOM      8  C   UNL     1    -110.043 -45.451 -60.262  1.00  0.00     0.000 C 
BRANCH   8   9
ATOM      9  C   UNL     1    -110.462 -45.706 -61.717  1.00  0.00     0.000 C 
BRANCH   9  10
ATOM     10  C   UNL     1    -111.313 -46.980 -61.867  1.00  0.00     0.000 C 
BRANCH  10  11
ATOM     11  C   UNL     1    -110.601 -48.087 -62.665  1.00  0.00     0.000 C 
BRANCH  11  12
ATOM     12  C   UNL     1    -109.058 -48.020 -62.656  1.00  0.00     0.000 C 
BRANCH  12  13
ATOM     13  C   UNL     1    -108.340 -49.384 -62.624  1.00  0.00     0.006 C 
BRANCH  13  14
ATOM     14  C   UNL     1    -107.839 -49.865 -63.995  1.00  0.00     0.053 C 
BRANCH  14  15
ATOM     15  C   UNL     1    -108.694 -50.967 -64.544  1.00  0.00     0.041 C 
ATOM     16  O   UNL     1    -109.483 -51.594 -63.789  1.00  0.00    -0.550 OA
ATOM     17  O   UNL     1    -108.635 -51.288 -65.894  1.00  0.00    -0.550 OA
ENDBRANCH  14  15
ENDBRANCH  13  14
ENDBRANCH  12  13
ENDBRANCH  11  12
ENDBRANCH  10  11
ENDBRANCH   9  10
ENDBRANCH   8   9
ENDBRANCH   7   8
ENDBRANCH   6   7
ENDBRANCH   5   6
ENDBRANCH   4   5
ENDBRANCH   3   4
ENDBRANCH   2   3
ENDBRANCH   1   2
BRANCH   1  18
ATOM     18  C   UNL     1    -109.905 -52.368 -57.373  1.00  0.00     0.000 C 
BRANCH  18  19
ATOM     19  C   UNL     1    -109.534 -51.549 -56.131  1.00  0.00     0.000 C 
BRANCH  19  20
ATOM     20  C   UNL     1    -110.569 -50.450 -55.866  1.00  0.00     0.000 C 
BRANCH  20  21
ATOM     21  C   UNL     1    -109.897 -49.175 -55.334  1.00  0.00     0.000 C 
BRANCH  21  22
ATOM     22  C   UNL     1    -108.402 -49.392 -55.015  1.00  0.00     0.000 C 
BRANCH  22  23
ATOM     23  C   UNL     1    -107.496 -48.239 -55.489  1.00  0.00     0.000 C 
BRANCH  23  24
ATOM     24  C   UNL     1    -106.314 -48.669 -56.380  1.00  0.00    -0.000 C 
BRANCH  24  25
ATOM     25  C   UNL     1    -106.248 -50.178 -56.676  1.00  0.00    -0.000 C 
BRANCH  25  26
ATOM     26  C   UNL     1    -104.834 -50.760 -56.504  1.00  0.00    -0.000 C 
BRANCH  26  27
ATOM     27  C   UNL     1    -104.762 -51.812 -55.384  1.00  0.00    -0.000 C 
BRANCH  27  28
ATOM     28  C   UNL     1    -106.124 -52.045 -54.707  1.00  0.00    -0.000 C 
BRANCH  28  29
ATOM     29  C   UNL     1    -106.272 -53.476 -54.163  1.00  0.00    -0.000 C 
BRANCH  29  30
ATOM     30  C   UNL     1    -107.698 -53.780 -53.671  1.00  0.00    -0.000 C 
BRANCH  30  31
ATOM     31  C   UNL     1    -108.437 -54.769 -54.585  1.00  0.00    -0.003 C 
ATOM     32  C   UNL     1    -108.846 -56.051 -53.860  1.00  0.00     0.004 C 
ENDBRANCH  30  31
ENDBRANCH  29  30
ENDBRANCH  28  29
ENDBRANCH  27  28
ENDBRANCH  26  27
ENDBRANCH  25  26
ENDBRANCH  24  25
ENDBRANCH  23  24
ENDBRANCH  22  23
ENDBRANCH  21  22
ENDBRANCH  20  21
ENDBRANCH  19  20
ENDBRANCH  18  19
ENDBRANCH   1  18
TORSDOF 28
ENDMDL
MODEL 9
REMARK VINA RESULT:    -3.569     15.611     19.660
REMARK INTER + INTRA:         -13.131
REMARK INTER:                  -7.695
REMARK INTRA:                  -5.437
REMARK UNBOUND:                -3.719
REMARK SMILES CCCCCCCCCCCCCCCCCCCCCCCCCCCCCC(=O)[O-]
REMARK SMILES IDX 16 1 17 2 18 3 19 4 20 5 21 6 22 7 23 8 24 9 25 10 26 11
REMARK SMILES IDX 27 12 28 13 29 14 30 15 31 16 32 17 15 18 14 19 13 20 12 21
REMARK SMILES IDX 11 22 10 23 9 24 8 25 7 26 6 27 5 28 4 29 3 30 2 31 1 32
REMARK H PARENT
REMARK Flexibility Score: inf
ROOT
ATOM      1  C   UNL     1    -106.846 -48.511 -56.225  1.00  0.00     0.000 C 
ENDROOT
BRANCH   1   2
ATOM      2  C   UNL     1    -107.177 -47.809 -54.900  1.00  0.00     0.000 C 
BRANCH   2   3
ATOM      3  C   UNL     1    -107.941 -48.720 -53.926  1.00  0.00     0.000 C 
BRANCH   3   4
ATOM      4  C   UNL     1    -109.463 -48.483 -53.961  1.00  0.00     0.000 C 
BRANCH   4   5
ATOM      5  C   UNL     1    -109.824 -47.249 -54.806  1.00  0.00     0.000 C 
BRANCH   5   6
ATOM      6  C   UNL     1    -110.856 -47.570 -55.906  1.00  0.00     0.000 C 
BRANCH   6   7
ATOM      7  C   UNL     1    -110.223 -47.583 -57.307  1.00  0.00     0.000 C 
BRANCH   7   8
ATOM      8  C   UNL     1    -111.075 -48.392 -58.301  1.00  0.00     0.000 C 
BRANCH   8   9
ATOM      9  C   UNL     1    -110.296 -48.809 -59.557  1.00  0.00     0.000 C 
BRANCH   9  10
ATOM     10  C   UNL     1    -108.880 -48.205 -59.596  1.00  0.00     0.000 C 
BRANCH  10  11
ATOM     11  C   UNL     1    -108.577 -47.471 -60.916  1.00  0.00     0.000 C 
BRANCH  11  12
ATOM     12  C   UNL     1    -109.187 -48.112 -62.183  1.00  0.00     0.000 C 
BRANCH  12  13
ATOM     13  C   UNL     1    -108.296 -49.156 -62.884  1.00  0.00     0.006 C 
BRANCH  13  14
ATOM     14  C   UNL     1    -108.773 -50.608 -62.714  1.00  0.00     0.053 C 
BRANCH  14  15
ATOM     15  C   UNL     1    -108.090 -51.533 -63.676  1.00  0.00     0.041 C 
ATOM     16  O   UNL     1    -108.768 -52.292 -64.417  1.00  0.00    -0.550 OA
ATOM     17  O   UNL     1    -106.704 -51.541 -63.770  1.00  0.00    -0.550 OA
ENDBRANCH  14  15
ENDBRANCH  13  14
ENDBRANCH  12  13
ENDBRANCH  11  12
ENDBRANCH  10  11
ENDBRANCH   9  10
ENDBRANCH   8   9
ENDBRANCH   7   8
ENDBRANCH   6   7
ENDBRANCH   5   6
ENDBRANCH   4   5
ENDBRANCH   3   4
ENDBRANCH   2   3
ENDBRANCH   1   2
BRANCH   1  18
ATOM     18  C   UNL     1    -106.030 -49.786 -55.981  1.00  0.00     0.000 C 
BRANCH  18  19
ATOM     19  C   UNL     1    -106.726 -51.010 -56.586  1.00  0.00     0.000 C 
BRANCH  19  20
ATOM     20  C   UNL     1    -108.094 -50.635 -57.166  1.00  0.00     0.000 C 
BRANCH  20  21
ATOM     21  C   UNL     1    -108.701 -51.806 -57.953  1.00  0.00     0.000 C 
BRANCH  21  22
ATOM     22  C   UNL     1    -110.159 -52.098 -57.535  1.00  0.00     0.000 C 
BRANCH  22  23
ATOM     23  C   UNL     1    -110.569 -51.427 -56.211  1.00  0.00     0.000 C 
BRANCH  23  24
ATOM     24  C   UNL     1    -110.565 -52.359 -54.984  1.00  0.00    -0.000 C 
BRANCH  24  25
ATOM     25  C   UNL     1    -109.467 -52.054 -53.948  1.00  0.00    -0.000 C 
BRANCH  25  26
ATOM     26  C   UNL     1    -108.427 -53.181 -53.832  1.00  0.00    -0.000 C 
BRANCH  26  27
ATOM     27  C   UNL     1    -108.537 -54.206 -54.974  1.00  0.00    -0.000 C 
BRANCH  27  28
ATOM     28  C   UNL     1    -108.913 -55.610 -54.470  1.00  0.00    -0.000 C 
BRANCH  28  29
ATOM     29  C   UNL     1    -109.536 -56.482 -55.573  1.00  0.00    -0.000 C 
BRANCH  29  30
ATOM     30  C   UNL     1    -110.310 -55.658 -56.617  1.00  0.00    -0.000 C 
BRANCH  30  31
ATOM     31  C   UNL     1    -109.781 -55.870 -58.043  1.00  0.00    -0.003 C 
ATOM     32  C   UNL     1    -109.044 -57.200 -58.208  1.00  0.00     0.004 C 
ENDBRANCH  30  31
ENDBRANCH  29  30
ENDBRANCH  28  29
ENDBRANCH  27  28
ENDBRANCH  26  27
ENDBRANCH  25  26
ENDBRANCH  24  25
ENDBRANCH  23  24
ENDBRANCH  22  23
ENDBRANCH  21  22
ENDBRANCH  20  21
ENDBRANCH  19  20
ENDBRANCH  18  19
ENDBRANCH   1  18
TORSDOF 28
ENDMDL
