MODEL 1
REMARK VINA RESULT:    -6.849      0.000      0.000
REMARK INTER + INTRA:          -8.614
REMARK INTER:                  -8.251
REMARK INTRA:                  -0.363
REMARK UNBOUND:                -0.363
REMARK SMILES Oc1cc(O)c2c(c1)O[C@H](c1ccc(O)c(O)c1)[C@H](O)C2
REMARK SMILES IDX 21 1 19 2 10 3 9 4 7 5 8 6 2 7 3 8 4 9 6 10 20 11 11 13
REMARK SMILES IDX 18 14 12 15 16 16 13 17 14 18 17 19 15 21 5 23 1 25
REMARK H PARENT 20 12 17 20 15 22 5 24 1 26
REMARK Flexibility Score: inf
ROOT
ATOM      1  C   UNL     1     -25.009  84.999  74.480  1.00  0.00     0.079 C 
ATOM      2  C   UNL     1     -26.000  83.862  74.175  1.00  0.00     0.164 C 
ATOM      3  C   UNL     1     -26.688  83.355  75.460  1.00  0.00     0.232 C 
ATOM      4  O   UNL     1     -27.296  84.448  76.147  1.00  0.00    -0.482 OA
ATOM      5  C   UNL     1     -26.698  85.710  76.227  1.00  0.00     0.131 A 
ATOM      6  C   UNL     1     -27.223  86.659  77.111  1.00  0.00     0.093 A 
ATOM      7  C   UNL     1     -26.644  87.927  77.210  1.00  0.00     0.122 A 
ATOM      8  C   UNL     1     -25.535  88.250  76.418  1.00  0.00     0.092 A 
ATOM      9  C   UNL     1     -25.003  87.308  75.524  1.00  0.00     0.126 A 
ATOM     10  C   UNL     1     -25.594  86.035  75.414  1.00  0.00     0.039 A 
ENDROOT
BRANCH   2  11
ATOM     11  O   UNL     1     -25.330  82.811  73.528  1.00  0.00    -0.389 OA
ATOM     12  H   UNL     1     -26.022  82.145  73.275  1.00  0.00     0.211 HD
ENDBRANCH   2  11
BRANCH   3  13
ATOM     13  C   UNL     1     -25.671  82.562  76.489  1.00  0.00    -0.001 A 
ATOM     14  C   UNL     1     -24.249  82.946  77.009  1.00  0.00     0.057 A 
ATOM     15  C   UNL     1     -26.267  81.285  76.959  1.00  0.00     0.012 A 
ATOM     16  C   UNL     1     -23.640  82.053  77.898  1.00  0.00     0.157 A 
ATOM     17  C   UNL     1     -25.544  80.482  77.830  1.00  0.00     0.050 A 
ATOM     18  C   UNL     1     -24.271  80.842  78.300  1.00  0.00     0.157 A 
BRANCH  16  19
ATOM     19  O   UNL     1     -22.376  82.422  78.363  1.00  0.00    -0.504 OA
ATOM     20  H   UNL     1     -21.863  83.233  78.045  1.00  0.00     0.293 HD
ENDBRANCH  16  19
BRANCH  18  21
ATOM     21  O   UNL     1     -23.654  79.942  79.172  1.00  0.00    -0.504 OA
ATOM     22  H   UNL     1     -22.899  79.323  78.915  1.00  0.00     0.293 HD
ENDBRANCH  18  21
ENDBRANCH   3  13
BRANCH   9  23
ATOM     23  O   UNL     1     -23.892  87.635  74.746  1.00  0.00    -0.507 OA
ATOM     24  H   UNL     1     -23.588  88.595  74.631  1.00  0.00     0.293 HD
ENDBRANCH   9  23
BRANCH   7  25
ATOM     25  O   UNL     1     -27.175  88.858  78.101  1.00  0.00    -0.508 OA
ATOM     26  H   UNL     1     -26.624  89.237  78.863  1.00  0.00     0.293 HD
ENDBRANCH   7  25
TORSDOF 6
ENDMDL
MODEL 2
REMARK VINA RESULT:    -6.663      7.333      9.569
REMARK INTER + INTRA:          -8.389
REMARK INTER:                  -8.068
REMARK INTRA:                  -0.321
REMARK UNBOUND:                -0.363
REMARK SMILES Oc1cc(O)c2c(c1)O[C@H](c1ccc(O)c(O)c1)[C@H](O)C2
REMARK SMILES IDX 21 1 19 2 10 3 9 4 7 5 8 6 2 7 3 8 4 9 6 10 20 11 11 13
REMARK SMILES IDX 18 14 12 15 16 16 13 17 14 18 17 19 15 21 5 23 1 25
REMARK H PARENT 20 12 17 20 15 22 5 24 1 26
REMARK Flexibility Score: inf
ROOT
ATOM      1  C   UNL     1     -26.954  90.260  85.181  1.00  0.00     0.079 C 
ATOM      2  C   UNL     1     -26.641  89.135  86.184  1.00  0.00     0.164 C 
ATOM      3  C   UNL     1     -25.599  88.149  85.616  1.00  0.00     0.232 C 
ATOM      4  O   UNL     1     -24.433  88.861  85.203  1.00  0.00    -0.482 OA
ATOM      5  C   UNL     1     -24.500  90.112  84.580  1.00  0.00     0.131 A 
ATOM      6  C   UNL     1     -23.348  90.641  83.986  1.00  0.00     0.093 A 
ATOM      7  C   UNL     1     -23.387  91.887  83.357  1.00  0.00     0.122 A 
ATOM      8  C   UNL     1     -24.586  92.613  83.323  1.00  0.00     0.092 A 
ATOM      9  C   UNL     1     -25.746  92.096  83.920  1.00  0.00     0.126 A 
ATOM     10  C   UNL     1     -25.703  90.845  84.565  1.00  0.00     0.039 A 
ENDROOT
BRANCH   2  11
ATOM     11  O   UNL     1     -27.825  88.459  86.523  1.00  0.00    -0.389 OA
ATOM     12  H   UNL     1     -27.556  87.560  86.849  1.00  0.00     0.211 HD
ENDBRANCH   2  11
BRANCH   3  13
ATOM     13  C   UNL     1     -26.159  87.243  84.356  1.00  0.00    -0.001 A 
ATOM     14  C   UNL     1     -27.164  87.601  83.216  1.00  0.00     0.057 A 
ATOM     15  C   UNL     1     -25.571  85.879  84.369  1.00  0.00     0.012 A 
ATOM     16  C   UNL     1     -27.431  86.601  82.273  1.00  0.00     0.157 A 
ATOM     17  C   UNL     1     -25.937  84.976  83.380  1.00  0.00     0.050 A 
ATOM     18  C   UNL     1     -26.834  85.311  82.353  1.00  0.00     0.157 A 
BRANCH  16  19
ATOM     19  O   UNL     1     -28.320  86.945  81.253  1.00  0.00    -0.504 OA
ATOM     20  H   UNL     1     -28.766  86.281  80.635  1.00  0.00     0.293 HD
ENDBRANCH  16  19
BRANCH  18  21
ATOM     21  O   UNL     1     -27.115  84.308  81.424  1.00  0.00    -0.504 OA
ATOM     22  H   UNL     1     -27.616  83.457  81.634  1.00  0.00     0.293 HD
ENDBRANCH  18  21
ENDBRANCH   3  13
BRANCH   9  23
ATOM     23  O   UNL     1     -26.937  92.819  83.873  1.00  0.00    -0.507 OA
ATOM     24  H   UNL     1     -26.956  93.794  83.594  1.00  0.00     0.293 HD
ENDBRANCH   9  23
BRANCH   7  25
ATOM     25  O   UNL     1     -22.234  92.396  82.765  1.00  0.00    -0.508 OA
ATOM     26  H   UNL     1     -21.431  91.806  82.573  1.00  0.00     0.293 HD
ENDBRANCH   7  25
TORSDOF 6
ENDMDL
MODEL 3
REMARK VINA RESULT:    -6.607      1.612      6.113
REMARK INTER + INTRA:          -8.322
REMARK INTER:                  -7.888
REMARK INTRA:                  -0.435
REMARK UNBOUND:                -0.363
REMARK SMILES Oc1cc(O)c2c(c1)O[C@H](c1ccc(O)c(O)c1)[C@H](O)C2
REMARK SMILES IDX 21 1 19 2 10 3 9 4 7 5 8 6 2 7 3 8 4 9 6 10 20 11 11 13
REMARK SMILES IDX 18 14 12 15 16 16 13 17 14 18 17 19 15 21 5 23 1 25
REMARK H PARENT 20 12 17 20 15 22 5 24 1 26
REMARK Flexibility Score: inf
ROOT
ATOM      1  C   UNL     1     -26.799  84.320  75.634  1.00  0.00     0.079 C 
ATOM      2  C   UNL     1     -26.215  85.432  74.744  1.00  0.00     0.164 C 
ATOM      3  C   UNL     1     -25.082  86.193  75.463  1.00  0.00     0.232 C 
ATOM      4  O   UNL     1     -24.091  85.270  75.916  1.00  0.00    -0.482 OA
ATOM      5  C   UNL     1     -24.418  84.015  76.439  1.00  0.00     0.131 A 
ATOM      6  C   UNL     1     -23.428  83.265  77.083  1.00  0.00     0.093 A 
ATOM      7  C   UNL     1     -23.727  82.009  77.615  1.00  0.00     0.122 A 
ATOM      8  C   UNL     1     -25.026  81.496  77.500  1.00  0.00     0.092 A 
ATOM      9  C   UNL     1     -26.027  82.236  76.852  1.00  0.00     0.126 A 
ATOM     10  C   UNL     1     -25.721  83.497  76.304  1.00  0.00     0.039 A 
ENDROOT
BRANCH   2  11
ATOM     11  O   UNL     1     -27.237  86.317  74.361  1.00  0.00    -0.389 OA
ATOM     12  H   UNL     1     -26.824  86.980  73.748  1.00  0.00     0.211 HD
ENDBRANCH   2  11
BRANCH   3  13
ATOM     13  C   UNL     1     -25.599  87.105  76.737  1.00  0.00    -0.001 A 
ATOM     14  C   UNL     1     -26.154  86.680  78.132  1.00  0.00     0.057 A 
ATOM     15  C   UNL     1     -25.489  88.557  76.439  1.00  0.00     0.012 A 
ATOM     16  C   UNL     1     -26.502  87.710  79.014  1.00  0.00     0.157 A 
ATOM     17  C   UNL     1     -25.888  89.475  77.401  1.00  0.00     0.050 A 
ATOM     18  C   UNL     1     -26.376  89.082  78.657  1.00  0.00     0.157 A 
BRANCH  16  19
ATOM     19  O   UNL     1     -26.983  87.309  80.262  1.00  0.00    -0.504 OA
ATOM     20  H   UNL     1     -27.209  86.355  80.509  1.00  0.00     0.293 HD
ENDBRANCH  16  19
BRANCH  18  21
ATOM     21  O   UNL     1     -26.742  90.108  79.530  1.00  0.00    -0.504 OA
ATOM     22  H   UNL     1     -26.928  91.060  79.248  1.00  0.00     0.293 HD
ENDBRANCH  18  21
ENDBRANCH   3  13
BRANCH   9  23
ATOM     23  O   UNL     1     -27.319  81.723  76.751  1.00  0.00    -0.507 OA
ATOM     24  H   UNL     1     -27.714  81.130  77.472  1.00  0.00     0.293 HD
ENDBRANCH   9  23
BRANCH   7  25
ATOM     25  O   UNL     1     -22.731  81.278  78.259  1.00  0.00    -0.508 OA
ATOM     26  H   UNL     1     -22.922  80.749  79.103  1.00  0.00     0.293 HD
ENDBRANCH   7  25
TORSDOF 6
ENDMDL
MODEL 4
REMARK VINA RESULT:    -6.477      9.391     12.256
REMARK INTER + INTRA:          -8.165
REMARK INTER:                  -7.810
REMARK INTRA:                  -0.355
REMARK UNBOUND:                -0.363
REMARK SMILES Oc1cc(O)c2c(c1)O[C@H](c1ccc(O)c(O)c1)[C@H](O)C2
REMARK SMILES IDX 21 1 19 2 10 3 9 4 7 5 8 6 2 7 3 8 4 9 6 10 20 11 11 13
REMARK SMILES IDX 18 14 12 15 16 16 13 17 14 18 17 19 15 21 5 23 1 25
REMARK H PARENT 20 12 17 20 15 22 5 24 1 26
REMARK Flexibility Score: inf
ROOT
ATOM      1  C   UNL     1     -27.859  88.772  84.386  1.00  0.00     0.079 C 
ATOM      2  C   UNL     1     -28.169  89.852  83.335  1.00  0.00     0.164 C 
ATOM      3  C   UNL     1     -27.310  91.115  83.556  1.00  0.00     0.232 C 
ATOM      4  O   UNL     1     -25.928  90.761  83.594  1.00  0.00    -0.482 OA
ATOM      5  C   UNL     1     -25.470  89.591  84.208  1.00  0.00     0.131 A 
ATOM      6  C   UNL     1     -24.097  89.424  84.421  1.00  0.00     0.093 A 
ATOM      7  C   UNL     1     -23.613  88.266  85.033  1.00  0.00     0.122 A 
ATOM      8  C   UNL     1     -24.508  87.264  85.433  1.00  0.00     0.092 A 
ATOM      9  C   UNL     1     -25.886  87.417  85.219  1.00  0.00     0.126 A 
ATOM     10  C   UNL     1     -26.373  88.579  84.590  1.00  0.00     0.039 A 
ENDROOT
BRANCH   2  11
ATOM     11  O   UNL     1     -29.535  90.173  83.374  1.00  0.00    -0.389 OA
ATOM     12  H   UNL     1     -29.594  91.153  83.525  1.00  0.00     0.211 HD
ENDBRANCH   2  11
BRANCH   3  13
ATOM     13  C   UNL     1     -27.696  91.949  84.926  1.00  0.00    -0.001 A 
ATOM     14  C   UNL     1     -27.158  91.811  86.385  1.00  0.00     0.057 A 
ATOM     15  C   UNL     1     -28.729  92.982  84.655  1.00  0.00     0.012 A 
ATOM     16  C   UNL     1     -27.685  92.689  87.339  1.00  0.00     0.157 A 
ATOM     17  C   UNL     1     -29.179  93.778  85.701  1.00  0.00     0.050 A 
ATOM     18  C   UNL     1     -28.680  93.653  87.007  1.00  0.00     0.157 A 
BRANCH  16  19
ATOM     19  O   UNL     1     -27.180  92.560  88.633  1.00  0.00    -0.504 OA
ATOM     20  H   UNL     1     -27.374  91.782  89.249  1.00  0.00     0.293 HD
ENDBRANCH  16  19
BRANCH  18  21
ATOM     21  O   UNL     1     -29.220  94.515  87.963  1.00  0.00    -0.504 OA
ATOM     22  H   UNL     1     -30.109  94.987  87.871  1.00  0.00     0.293 HD
ENDBRANCH  18  21
ENDBRANCH   3  13
BRANCH   9  23
ATOM     23  O   UNL     1     -26.770  86.419  85.629  1.00  0.00    -0.507 OA
ATOM     24  H   UNL     1     -27.762  86.471  85.425  1.00  0.00     0.293 HD
ENDBRANCH   9  23
BRANCH   7  25
ATOM     25  O   UNL     1     -22.244  88.119  85.245  1.00  0.00    -0.508 OA
ATOM     26  H   UNL     1     -21.583  88.832  84.954  1.00  0.00     0.293 HD
ENDBRANCH   7  25
TORSDOF 6
ENDMDL
MODEL 5
REMARK VINA RESULT:    -6.412      2.581      4.332
REMARK INTER + INTRA:          -8.087
REMARK INTER:                  -7.671
REMARK INTRA:                  -0.416
REMARK UNBOUND:                -0.363
REMARK SMILES Oc1cc(O)c2c(c1)O[C@H](c1ccc(O)c(O)c1)[C@H](O)C2
REMARK SMILES IDX 21 1 19 2 10 3 9 4 7 5 8 6 2 7 3 8 4 9 6 10 20 11 11 13
REMARK SMILES IDX 18 14 12 15 16 16 13 17 14 18 17 19 15 21 5 23 1 25
REMARK H PARENT 20 12 17 20 15 22 5 24 1 26
REMARK Flexibility Score: inf
ROOT
ATOM      1  C   UNL     1     -25.369  84.935  77.374  1.00  0.00     0.079 C 
ATOM      2  C   UNL     1     -24.385  84.846  76.194  1.00  0.00     0.164 C 
ATOM      3  C   UNL     1     -25.074  85.199  74.859  1.00  0.00     0.232 C 
ATOM      4  O   UNL     1     -25.699  86.478  74.961  1.00  0.00    -0.482 OA
ATOM      5  C   UNL     1     -26.354  86.902  76.122  1.00  0.00     0.131 A 
ATOM      6  C   UNL     1     -27.147  88.054  76.076  1.00  0.00     0.093 A 
ATOM      7  C   UNL     1     -27.813  88.499  77.221  1.00  0.00     0.122 A 
ATOM      8  C   UNL     1     -27.681  87.790  78.423  1.00  0.00     0.092 A 
ATOM      9  C   UNL     1     -26.884  86.637  78.483  1.00  0.00     0.126 A 
ATOM     10  C   UNL     1     -26.203  86.196  77.332  1.00  0.00     0.039 A 
ENDROOT
BRANCH   2  11
ATOM     11  O   UNL     1     -23.831  83.556  76.136  1.00  0.00    -0.389 OA
ATOM     12  H   UNL     1     -23.255  83.530  75.327  1.00  0.00     0.211 HD
ENDBRANCH   2  11
BRANCH   3  13
ATOM     13  C   UNL     1     -26.188  84.085  74.371  1.00  0.00    -0.001 A 
ATOM     14  C   UNL     1     -27.510  83.606  75.049  1.00  0.00     0.057 A 
ATOM     15  C   UNL     1     -25.809  83.479  73.068  1.00  0.00     0.012 A 
ATOM     16  C   UNL     1     -28.255  82.638  74.366  1.00  0.00     0.157 A 
ATOM     17  C   UNL     1     -26.633  82.512  72.508  1.00  0.00     0.050 A 
ATOM     18  C   UNL     1     -27.826  82.096  73.121  1.00  0.00     0.157 A 
BRANCH  16  19
ATOM     19  O   UNL     1     -29.441  82.234  74.981  1.00  0.00    -0.504 OA
ATOM     20  H   UNL     1     -30.361  82.336  74.574  1.00  0.00     0.293 HD
ENDBRANCH  16  19
BRANCH  18  21
ATOM     21  O   UNL     1     -28.560  81.117  72.450  1.00  0.00    -0.504 OA
ATOM     22  H   UNL     1     -28.164  80.444  71.809  1.00  0.00     0.293 HD
ENDBRANCH  18  21
ENDBRANCH   3  13
BRANCH   9  23
ATOM     23  O   UNL     1     -26.767  85.932  79.680  1.00  0.00    -0.507 OA
ATOM     24  H   UNL     1     -25.877  85.839  80.158  1.00  0.00     0.293 HD
ENDBRANCH   9  23
BRANCH   7  25
ATOM     25  O   UNL     1     -28.605  89.643  77.156  1.00  0.00    -0.508 OA
ATOM     26  H   UNL     1     -28.894  90.137  77.993  1.00  0.00     0.293 HD
ENDBRANCH   7  25
TORSDOF 6
ENDMDL
MODEL 6
REMARK VINA RESULT:    -6.405      2.376      6.044
REMARK INTER + INTRA:          -8.079
REMARK INTER:                  -7.720
REMARK INTRA:                  -0.359
REMARK UNBOUND:                -0.363
REMARK SMILES Oc1cc(O)c2c(c1)O[C@H](c1ccc(O)c(O)c1)[C@H](O)C2
REMARK SMILES IDX 21 1 19 2 10 3 9 4 7 5 8 6 2 7 3 8 4 9 6 10 20 11 11 13
REMARK SMILES IDX 18 14 12 15 16 16 13 17 14 18 17 19 15 21 5 23 1 25
REMARK H PARENT 20 12 17 20 15 22 5 24 1 26
REMARK Flexibility Score: inf
ROOT
ATOM      1  C   UNL     1     -28.020  82.576  74.140  1.00  0.00     0.079 C 
ATOM      2  C   UNL     1     -26.544  82.557  73.704  1.00  0.00     0.164 C 
ATOM      3  C   UNL     1     -25.622  83.104  74.814  1.00  0.00     0.232 C 
ATOM      4  O   UNL     1     -25.849  82.389  76.028  1.00  0.00    -0.482 OA
ATOM      5  C   UNL     1     -27.125  81.983  76.433  1.00  0.00     0.131 A 
ATOM      6  C   UNL     1     -27.308  81.505  77.735  1.00  0.00     0.093 A 
ATOM      7  C   UNL     1     -28.572  81.094  78.165  1.00  0.00     0.122 A 
ATOM      8  C   UNL     1     -29.661  81.158  77.285  1.00  0.00     0.092 A 
ATOM      9  C   UNL     1     -29.489  81.630  75.975  1.00  0.00     0.126 A 
ATOM     10  C   UNL     1     -28.212  82.032  75.538  1.00  0.00     0.039 A 
ENDROOT
BRANCH   2  11
ATOM     11  O   UNL     1     -26.389  83.303  72.524  1.00  0.00    -0.389 OA
ATOM     12  H   UNL     1     -25.760  84.042  72.735  1.00  0.00     0.211 HD
ENDBRANCH   2  11
BRANCH   3  13
ATOM     13  C   UNL     1     -25.804  84.720  75.093  1.00  0.00    -0.001 A 
ATOM     14  C   UNL     1     -27.095  85.586  75.243  1.00  0.00     0.057 A 
ATOM     15  C   UNL     1     -24.488  85.399  75.208  1.00  0.00     0.012 A 
ATOM     16  C   UNL     1     -26.914  86.952  75.491  1.00  0.00     0.157 A 
ATOM     17  C   UNL     1     -24.452  86.768  75.438  1.00  0.00     0.050 A 
ATOM     18  C   UNL     1     -25.618  87.536  75.583  1.00  0.00     0.157 A 
BRANCH  16  19
ATOM     19  O   UNL     1     -28.079  87.706  75.637  1.00  0.00    -0.504 OA
ATOM     20  H   UNL     1     -28.378  88.429  74.997  1.00  0.00     0.293 HD
ENDBRANCH  16  19
BRANCH  18  21
ATOM     21  O   UNL     1     -25.438  88.901  75.809  1.00  0.00    -0.504 OA
ATOM     22  H   UNL     1     -25.284  89.587  75.084  1.00  0.00     0.293 HD
ENDBRANCH  18  21
ENDBRANCH   3  13
BRANCH   9  23
ATOM     23  O   UNL     1     -30.580  81.700  75.110  1.00  0.00    -0.507 OA
ATOM     24  H   UNL     1     -31.083  80.869  74.820  1.00  0.00     0.293 HD
ENDBRANCH   9  23
BRANCH   7  25
ATOM     25  O   UNL     1     -28.738  80.627  79.467  1.00  0.00    -0.508 OA
ATOM     26  H   UNL     1     -28.015  80.742  80.168  1.00  0.00     0.293 HD
ENDBRANCH   7  25
TORSDOF 6
ENDMDL
MODEL 7
REMARK VINA RESULT:    -6.363     10.241     12.465
REMARK INTER + INTRA:          -8.028
REMARK INTER:                  -7.608
REMARK INTRA:                  -0.420
REMARK UNBOUND:                -0.363
REMARK SMILES Oc1cc(O)c2c(c1)O[C@H](c1ccc(O)c(O)c1)[C@H](O)C2
REMARK SMILES IDX 21 1 19 2 10 3 9 4 7 5 8 6 2 7 3 8 4 9 6 10 20 11 11 13
REMARK SMILES IDX 18 14 12 15 16 16 13 17 14 18 17 19 15 21 5 23 1 25
REMARK H PARENT 20 12 17 20 15 22 5 24 1 26
REMARK Flexibility Score: inf
ROOT
ATOM      1  C   UNL     1     -28.678  91.525  84.349  1.00  0.00     0.079 C 
ATOM      2  C   UNL     1     -27.983  90.222  84.783  1.00  0.00     0.164 C 
ATOM      3  C   UNL     1     -26.739  90.510  85.651  1.00  0.00     0.232 C 
ATOM      4  O   UNL     1     -27.102  91.336  86.756  1.00  0.00    -0.482 OA
ATOM      5  C   UNL     1     -28.026  92.380  86.641  1.00  0.00     0.131 A 
ATOM      6  C   UNL     1     -28.155  93.297  87.690  1.00  0.00     0.093 A 
ATOM      7  C   UNL     1     -29.070  94.348  87.601  1.00  0.00     0.122 A 
ATOM      8  C   UNL     1     -29.866  94.483  86.456  1.00  0.00     0.092 A 
ATOM      9  C   UNL     1     -29.751  93.566  85.399  1.00  0.00     0.126 A 
ATOM     10  C   UNL     1     -28.838  92.499  85.496  1.00  0.00     0.039 A 
ENDROOT
BRANCH   2  11
ATOM     11  O   UNL     1     -27.628  89.474  83.648  1.00  0.00    -0.389 OA
ATOM     12  H   UNL     1     -27.003  88.767  83.957  1.00  0.00     0.211 HD
ENDBRANCH   2  11
BRANCH   3  13
ATOM     13  C   UNL     1     -25.501  91.219  84.823  1.00  0.00    -0.001 A 
ATOM     14  C   UNL     1     -25.298  92.699  84.371  1.00  0.00     0.057 A 
ATOM     15  C   UNL     1     -24.443  90.231  84.486  1.00  0.00     0.012 A 
ATOM     16  C   UNL     1     -24.114  92.992  83.683  1.00  0.00     0.157 A 
ATOM     17  C   UNL     1     -23.324  90.655  83.781  1.00  0.00     0.050 A 
ATOM     18  C   UNL     1     -23.146  91.991  83.389  1.00  0.00     0.157 A 
BRANCH  16  19
ATOM     19  O   UNL     1     -23.944  94.324  83.300  1.00  0.00    -0.504 OA
ATOM     20  H   UNL     1     -23.048  94.774  83.175  1.00  0.00     0.293 HD
ENDBRANCH  16  19
BRANCH  18  21
ATOM     21  O   UNL     1     -21.975  92.280  82.686  1.00  0.00    -0.504 OA
ATOM     22  H   UNL     1     -21.423  93.116  82.811  1.00  0.00     0.293 HD
ENDBRANCH  18  21
ENDBRANCH   3  13
BRANCH   9  23
ATOM     23  O   UNL     1     -30.540  93.713  84.259  1.00  0.00    -0.507 OA
ATOM     24  H   UNL     1     -31.284  93.060  84.040  1.00  0.00     0.293 HD
ENDBRANCH   9  23
BRANCH   7  25
ATOM     25  O   UNL     1     -29.179  95.257  88.651  1.00  0.00    -0.508 OA
ATOM     26  H   UNL     1     -28.566  96.061  88.724  1.00  0.00     0.293 HD
ENDBRANCH   7  25
TORSDOF 6
ENDMDL
MODEL 8
REMARK VINA RESULT:    -6.310      2.497      6.132
REMARK INTER + INTRA:          -7.965
REMARK INTER:                  -7.559
REMARK INTRA:                  -0.406
REMARK UNBOUND:                -0.363
REMARK SMILES Oc1cc(O)c2c(c1)O[C@H](c1ccc(O)c(O)c1)[C@H](O)C2
REMARK SMILES IDX 21 1 19 2 10 3 9 4 7 5 8 6 2 7 3 8 4 9 6 10 20 11 11 13
REMARK SMILES IDX 18 14 12 15 16 16 13 17 14 18 17 19 15 21 5 23 1 25
REMARK H PARENT 20 12 17 20 15 22 5 24 1 26
REMARK Flexibility Score: inf
ROOT
ATOM      1  C   UNL     1     -25.113  84.585  75.071  1.00  0.00     0.079 C 
ATOM      2  C   UNL     1     -24.584  84.671  76.513  1.00  0.00     0.164 C 
ATOM      3  C   UNL     1     -25.733  84.867  77.524  1.00  0.00     0.232 C 
ATOM      4  O   UNL     1     -26.708  83.839  77.353  1.00  0.00    -0.482 OA
ATOM      5  C   UNL     1     -27.073  83.352  76.093  1.00  0.00     0.131 A 
ATOM      6  C   UNL     1     -28.196  82.526  75.979  1.00  0.00     0.093 A 
ATOM      7  C   UNL     1     -28.583  82.027  74.733  1.00  0.00     0.122 A 
ATOM      8  C   UNL     1     -27.839  82.353  73.591  1.00  0.00     0.092 A 
ATOM      9  C   UNL     1     -26.707  83.177  73.693  1.00  0.00     0.126 A 
ATOM     10  C   UNL     1     -26.310  83.668  74.952  1.00  0.00     0.039 A 
ENDROOT
BRANCH   2  11
ATOM     11  O   UNL     1     -23.655  85.719  76.616  1.00  0.00    -0.389 OA
ATOM     12  H   UNL     1     -23.011  85.604  75.868  1.00  0.00     0.211 HD
ENDBRANCH   2  11
BRANCH   3  13
ATOM     13  C   UNL     1     -26.470  86.339  77.415  1.00  0.00    -0.001 A 
ATOM     14  C   UNL     1     -27.577  86.852  76.440  1.00  0.00     0.057 A 
ATOM     15  C   UNL     1     -25.948  87.280  78.439  1.00  0.00     0.012 A 
ATOM     16  C   UNL     1     -28.008  88.172  76.613  1.00  0.00     0.157 A 
ATOM     17  C   UNL     1     -26.453  88.572  78.489  1.00  0.00     0.050 A 
ATOM     18  C   UNL     1     -27.456  89.020  77.615  1.00  0.00     0.157 A 
BRANCH  16  19
ATOM     19  O   UNL     1     -29.008  88.606  75.742  1.00  0.00    -0.504 OA
ATOM     20  H   UNL     1     -28.847  88.919  74.794  1.00  0.00     0.293 HD
ENDBRANCH  16  19
BRANCH  18  21
ATOM     21  O   UNL     1     -27.873  90.342  77.774  1.00  0.00    -0.504 OA
ATOM     22  H   UNL     1     -28.817  90.667  77.624  1.00  0.00     0.293 HD
ENDBRANCH  18  21
ENDBRANCH   3  13
BRANCH   9  23
ATOM     23  O   UNL     1     -25.978  83.505  72.551  1.00  0.00    -0.507 OA
ATOM     24  H   UNL     1     -25.980  82.910  71.730  1.00  0.00     0.293 HD
ENDBRANCH   9  23
BRANCH   7  25
ATOM     25  O   UNL     1     -29.708  81.212  74.637  1.00  0.00    -0.508 OA
ATOM     26  H   UNL     1     -29.630  80.221  74.433  1.00  0.00     0.293 HD
ENDBRANCH   7  25
TORSDOF 6
ENDMDL
MODEL 9
REMARK VINA RESULT:    -6.161      1.862      2.963
REMARK INTER + INTRA:          -7.785
REMARK INTER:                  -7.388
REMARK INTRA:                  -0.397
REMARK UNBOUND:                -0.363
REMARK SMILES Oc1cc(O)c2c(c1)O[C@H](c1ccc(O)c(O)c1)[C@H](O)C2
REMARK SMILES IDX 21 1 19 2 10 3 9 4 7 5 8 6 2 7 3 8 4 9 6 10 20 11 11 13
REMARK SMILES IDX 18 14 12 15 16 16 13 17 14 18 17 19 15 21 5 23 1 25
REMARK H PARENT 20 12 17 20 15 22 5 24 1 26
REMARK Flexibility Score: inf
ROOT
ATOM      1  C   UNL     1     -26.959  82.584  75.507  1.00  0.00     0.079 C 
ATOM      2  C   UNL     1     -27.759  82.470  76.817  1.00  0.00     0.164 C 
ATOM      3  C   UNL     1     -26.901  82.862  78.037  1.00  0.00     0.232 C 
ATOM      4  O   UNL     1     -26.345  84.162  77.840  1.00  0.00    -0.482 OA
ATOM      5  C   UNL     1     -25.880  84.599  76.596  1.00  0.00     0.131 A 
ATOM      6  C   UNL     1     -25.133  85.779  76.522  1.00  0.00     0.093 A 
ATOM      7  C   UNL     1     -24.655  86.237  75.292  1.00  0.00     0.122 A 
ATOM      8  C   UNL     1     -24.931  85.512  74.124  1.00  0.00     0.092 A 
ATOM      9  C   UNL     1     -25.684  84.329  74.185  1.00  0.00     0.126 A 
ATOM     10  C   UNL     1     -26.176  83.875  75.423  1.00  0.00     0.039 A 
ENDROOT
BRANCH   2  11
ATOM     11  O   UNL     1     -28.250  81.161  76.960  1.00  0.00    -0.389 OA
ATOM     12  H   UNL     1     -27.615  80.565  76.483  1.00  0.00     0.211 HD
ENDBRANCH   2  11
BRANCH   3  13
ATOM     13  C   UNL     1     -25.686  81.795  78.366  1.00  0.00    -0.001 A 
ATOM     14  C   UNL     1     -24.518  81.278  77.469  1.00  0.00     0.057 A 
ATOM     15  C   UNL     1     -25.781  81.283  79.757  1.00  0.00     0.012 A 
ATOM     16  C   UNL     1     -23.629  80.368  78.053  1.00  0.00     0.157 A 
ATOM     17  C   UNL     1     -24.840  80.365  80.205  1.00  0.00     0.050 A 
ATOM     18  C   UNL     1     -23.786  79.915  79.394  1.00  0.00     0.157 A 
BRANCH  16  19
ATOM     19  O   UNL     1     -22.582  79.929  77.240  1.00  0.00    -0.504 OA
ATOM     20  H   UNL     1     -22.483  80.159  76.260  1.00  0.00     0.293 HD
ENDBRANCH  16  19
BRANCH  18  21
ATOM     21  O   UNL     1     -22.911  78.993  79.969  1.00  0.00    -0.504 OA
ATOM     22  H   UNL     1     -22.836  78.024  79.692  1.00  0.00     0.293 HD
ENDBRANCH  18  21
ENDBRANCH   3  13
BRANCH   9  23
ATOM     23  O   UNL     1     -25.944  83.608  73.020  1.00  0.00    -0.507 OA
ATOM     24  H   UNL     1     -26.535  82.784  73.026  1.00  0.00     0.293 HD
ENDBRANCH   9  23
BRANCH   7  25
ATOM     25  O   UNL     1     -23.907  87.410  75.237  1.00  0.00    -0.508 OA
ATOM     26  H   UNL     1     -24.334  88.303  75.012  1.00  0.00     0.293 HD
ENDBRANCH   7  25
TORSDOF 6
ENDMDL
