MODEL 1
REMARK VINA RESULT:    -5.947      0.000      0.000
REMARK INTER + INTRA:          -9.428
REMARK INTER:                  -8.032
REMARK INTRA:                  -1.395
REMARK UNBOUND:                -1.395
REMARK SMILES CC[C@@H](CC[C@@H](C)[C@@H]1CC[C@@H]2[C@H]3CC(=O)C4=CC(=O)CC[C@]4(C)[C@@H]3CC[C@@]21C)C(C)C
REMARK SMILES IDX 4 1 3 2 2 3 1 4 29 5 30 6 31 7 5 8 6 9 7 10 8 11 9 12 27 13
REMARK SMILES IDX 10 14 11 15 26 16 28 17 12 18 25 19 24 20 13 21 22 22 14 23
REMARK SMILES IDX 16 24 21 25 23 26 15 27 17 28 20 29 18 30 19 31
REMARK H PARENT
REMARK Flexibility Score: inf
ROOT
ATOM      1  C   UNL     1      15.073  -1.454  18.049  1.00  0.00     0.004 C 
ENDROOT
BRANCH   1   2
ATOM      2  C   UNL     1      14.353  -1.249  19.409  1.00  0.00    -0.009 C 
BRANCH   2   3
ATOM      3  C   UNL     1      12.815  -1.057  19.233  1.00  0.00     0.000 C 
ATOM      4  C   UNL     1      12.003  -2.033  20.088  1.00  0.00     0.004 C 
ENDBRANCH   2   3
BRANCH   2   5
ATOM      5  C   UNL     1      15.028  -0.095  20.219  1.00  0.00    -0.014 C 
ATOM      6  C   UNL     1      15.566  -0.582  21.575  1.00  0.00     0.007 C 
ATOM      7  C   UNL     1      14.126   1.139  20.409  1.00  0.00     0.007 C 
ENDBRANCH   2   5
ENDBRANCH   1   2
BRANCH   1   8
ATOM      8  C   UNL     1      16.314  -0.552  17.885  1.00  0.00     0.004 C 
BRANCH   8   9
ATOM      9  C   UNL     1      16.390   0.217  16.535  1.00  0.00    -0.011 C 
ATOM     10  C   UNL     1      15.161  -0.143  15.674  1.00  0.00     0.008 C 
BRANCH   9  11
ATOM     11  C   UNL     1      16.567   1.779  16.660  1.00  0.00    -0.002 C 
ATOM     12  C   UNL     1      17.147   2.172  18.018  1.00  0.00     0.005 C 
ATOM     13  C   UNL     1      15.304   2.701  16.506  1.00  0.00    -0.026 C 
ATOM     14  C   UNL     1      16.928   3.663  18.138  1.00  0.00     0.005 C 
ATOM     15  C   UNL     1      15.664   3.991  17.325  1.00  0.00    -0.001 C 
ATOM     16  C   UNL     1      14.028   2.042  17.095  1.00  0.00     0.007 C 
ATOM     17  C   UNL     1      15.086   3.066  15.010  1.00  0.00     0.012 C 
ATOM     18  C   UNL     1      14.523   4.541  18.247  1.00  0.00     0.004 C 
ATOM     19  C   UNL     1      12.808   2.978  17.186  1.00  0.00     0.005 C 
ATOM     20  C   UNL     1      13.147   4.463  17.535  1.00  0.00     0.003 C 
ATOM     21  C   UNL     1      14.838   5.992  18.645  1.00  0.00     0.085 C 
ATOM     22  C   UNL     1      11.967   5.328  18.216  1.00  0.00    -0.000 C 
ATOM     23  C   UNL     1      13.831   6.477  19.628  1.00  0.00     0.159 C 
ATOM     24  C   UNL     1      12.421   6.052  19.496  1.00  0.00     0.005 C 
ATOM     25  C   UNL     1      10.707   4.464  18.560  1.00  0.00     0.020 C 
ATOM     26  C   UNL     1      11.546   6.432  17.207  1.00  0.00     0.017 C 
ATOM     27  O   UNL     1      14.193   7.263  20.545  1.00  0.00    -0.295 OA
ATOM     28  C   UNL     1      11.535   6.417  20.447  1.00  0.00     0.055 C 
ATOM     29  C   UNL     1       9.578   5.262  19.223  1.00  0.00     0.081 C 
ATOM     30  C   UNL     1      10.107   6.069  20.366  1.00  0.00     0.156 C 
ATOM     31  O   UNL     1       9.316   6.478  21.256  1.00  0.00    -0.295 OA
ENDBRANCH   9  11
ENDBRANCH   8   9
ENDBRANCH   1   8
TORSDOF 6
ENDMDL
MODEL 2
REMARK VINA RESULT:    -5.939      1.704      3.087
REMARK INTER + INTRA:          -9.418
REMARK INTER:                  -7.185
REMARK INTRA:                  -2.233
REMARK UNBOUND:                -1.395
REMARK SMILES CC[C@@H](CC[C@@H](C)[C@@H]1CC[C@@H]2[C@H]3CC(=O)C4=CC(=O)CC[C@]4(C)[C@@H]3CC[C@@]21C)C(C)C
REMARK SMILES IDX 4 1 3 2 2 3 1 4 29 5 30 6 31 7 5 8 6 9 7 10 8 11 9 12 27 13
REMARK SMILES IDX 10 14 11 15 26 16 28 17 12 18 25 19 24 20 13 21 22 22 14 23
REMARK SMILES IDX 16 24 21 25 23 26 15 27 17 28 20 29 18 30 19 31
REMARK H PARENT
REMARK Flexibility Score: inf
ROOT
ATOM      1  C   UNL     1      15.947  -1.032  18.661  1.00  0.00     0.004 C 
ENDROOT
BRANCH   1   2
ATOM      2  C   UNL     1      15.846  -0.119  19.912  1.00  0.00    -0.009 C 
BRANCH   2   3
ATOM      3  C   UNL     1      17.240   0.134  20.565  1.00  0.00     0.000 C 
ATOM      4  C   UNL     1      17.658   1.604  20.497  1.00  0.00     0.004 C 
ENDBRANCH   2   3
BRANCH   2   5
ATOM      5  C   UNL     1      14.788  -0.679  20.917  1.00  0.00    -0.014 C 
ATOM      6  C   UNL     1      13.883  -1.740  20.268  1.00  0.00     0.007 C 
ATOM      7  C   UNL     1      13.939   0.412  21.594  1.00  0.00     0.007 C 
ENDBRANCH   2   5
ENDBRANCH   1   2
BRANCH   1   8
ATOM      8  C   UNL     1      16.350  -0.262  17.386  1.00  0.00     0.004 C 
BRANCH   8   9
ATOM      9  C   UNL     1      16.158   1.279  17.464  1.00  0.00    -0.011 C 
ATOM     10  C   UNL     1      17.389   1.978  16.847  1.00  0.00     0.008 C 
BRANCH   9  11
ATOM     11  C   UNL     1      14.816   1.822  16.839  1.00  0.00    -0.002 C 
ATOM     12  C   UNL     1      15.063   3.028  15.936  1.00  0.00     0.005 C 
ATOM     13  C   UNL     1      13.668   2.298  17.802  1.00  0.00    -0.026 C 
ATOM     14  C   UNL     1      13.706   3.651  15.706  1.00  0.00     0.005 C 
ATOM     15  C   UNL     1      12.861   3.344  16.953  1.00  0.00    -0.001 C 
ATOM     16  C   UNL     1      14.227   2.976  19.082  1.00  0.00     0.007 C 
ATOM     17  C   UNL     1      12.752   1.099  18.177  1.00  0.00     0.012 C 
ATOM     18  C   UNL     1      12.466   4.659  17.708  1.00  0.00     0.004 C 
ATOM     19  C   UNL     1      13.165   3.669  19.954  1.00  0.00     0.005 C 
ATOM     20  C   UNL     1      12.005   4.351  19.158  1.00  0.00     0.003 C 
ATOM     21  C   UNL     1      11.351   5.381  16.935  1.00  0.00     0.085 C 
ATOM     22  C   UNL     1      11.229   5.551  19.905  1.00  0.00    -0.000 C 
ATOM     23  C   UNL     1      11.064   6.695  17.570  1.00  0.00     0.159 C 
ATOM     24  C   UNL     1      11.122   6.822  19.043  1.00  0.00     0.005 C 
ATOM     25  C   UNL     1      11.889   5.939  21.271  1.00  0.00     0.020 C 
ATOM     26  C   UNL     1       9.774   5.077  20.179  1.00  0.00     0.017 C 
ATOM     27  O   UNL     1      10.752   7.677  16.843  1.00  0.00    -0.295 OA
ATOM     28  C   UNL     1      10.957   8.038  19.604  1.00  0.00     0.055 C 
ATOM     29  C   UNL     1      11.177   7.088  21.994  1.00  0.00     0.081 C 
ATOM     30  C   UNL     1      10.961   8.238  21.062  1.00  0.00     0.156 C 
ATOM     31  O   UNL     1      10.751   9.388  21.531  1.00  0.00    -0.295 OA
ENDBRANCH   9  11
ENDBRANCH   8   9
ENDBRANCH   1   8
TORSDOF 6
ENDMDL
MODEL 3
REMARK VINA RESULT:    -5.922      1.471      1.917
REMARK INTER + INTRA:          -9.395
REMARK INTER:                  -8.213
REMARK INTRA:                  -1.182
REMARK UNBOUND:                -1.395
REMARK SMILES CC[C@@H](CC[C@@H](C)[C@@H]1CC[C@@H]2[C@H]3CC(=O)C4=CC(=O)CC[C@]4(C)[C@@H]3CC[C@@]21C)C(C)C
REMARK SMILES IDX 4 1 3 2 2 3 1 4 29 5 30 6 31 7 5 8 6 9 7 10 8 11 9 12 27 13
REMARK SMILES IDX 10 14 11 15 26 16 28 17 12 18 25 19 24 20 13 21 22 22 14 23
REMARK SMILES IDX 16 24 21 25 23 26 15 27 17 28 20 29 18 30 19 31
REMARK H PARENT
REMARK Flexibility Score: inf
ROOT
ATOM      1  C   UNL     1      14.110  -2.072  18.467  1.00  0.00     0.004 C 
ENDROOT
BRANCH   1   2
ATOM      2  C   UNL     1      13.756  -2.007  19.977  1.00  0.00    -0.009 C 
BRANCH   2   3
ATOM      3  C   UNL     1      12.217  -1.916  20.214  1.00  0.00     0.000 C 
ATOM      4  C   UNL     1      11.417  -2.086  18.921  1.00  0.00     0.004 C 
ENDBRANCH   2   3
BRANCH   2   5
ATOM      5  C   UNL     1      14.555  -0.861  20.679  1.00  0.00    -0.014 C 
ATOM      6  C   UNL     1      15.696  -1.408  21.555  1.00  0.00     0.007 C 
ATOM      7  C   UNL     1      13.672   0.106  21.487  1.00  0.00     0.007 C 
ENDBRANCH   2   5
ENDBRANCH   1   2
BRANCH   1   8
ATOM      8  C   UNL     1      14.906  -0.843  17.983  1.00  0.00     0.004 C 
BRANCH   8   9
ATOM      9  C   UNL     1      14.773  -0.533  16.465  1.00  0.00    -0.011 C 
ATOM     10  C   UNL     1      13.511  -1.230  15.912  1.00  0.00     0.008 C 
BRANCH   9  11
ATOM     11  C   UNL     1      14.797   0.997  16.086  1.00  0.00    -0.002 C 
ATOM     12  C   UNL     1      16.121   1.652  16.473  1.00  0.00     0.005 C 
ATOM     13  C   UNL     1      13.708   1.949  16.701  1.00  0.00    -0.026 C 
ATOM     14  C   UNL     1      15.879   3.142  16.393  1.00  0.00     0.005 C 
ATOM     15  C   UNL     1      14.389   3.364  16.703  1.00  0.00    -0.001 C 
ATOM     16  C   UNL     1      13.334   1.543  18.152  1.00  0.00     0.007 C 
ATOM     17  C   UNL     1      12.442   1.971  15.799  1.00  0.00     0.012 C 
ATOM     18  C   UNL     1      14.201   4.197  18.017  1.00  0.00     0.004 C 
ATOM     19  C   UNL     1      12.450   2.562  18.894  1.00  0.00     0.005 C 
ATOM     20  C   UNL     1      12.755   4.058  18.562  1.00  0.00     0.003 C 
ATOM     21  C   UNL     1      14.529   5.674  17.741  1.00  0.00     0.085 C 
ATOM     22  C   UNL     1      12.330   5.143  19.678  1.00  0.00    -0.000 C 
ATOM     23  C   UNL     1      14.485   6.448  19.011  1.00  0.00     0.159 C 
ATOM     24  C   UNL     1      13.473   6.111  20.036  1.00  0.00     0.005 C 
ATOM     25  C   UNL     1      11.816   4.480  21.000  1.00  0.00     0.020 C 
ATOM     26  C   UNL     1      11.185   6.010  19.085  1.00  0.00     0.017 C 
ATOM     27  O   UNL     1      15.298   7.397  19.184  1.00  0.00    -0.295 OA
ATOM     28  C   UNL     1      13.504   6.751  21.223  1.00  0.00     0.055 C 
ATOM     29  C   UNL     1      11.421   5.491  22.082  1.00  0.00     0.081 C 
ATOM     30  C   UNL     1      12.508   6.501  22.277  1.00  0.00     0.156 C 
ATOM     31  O   UNL     1      12.554   7.165  23.346  1.00  0.00    -0.295 OA
ENDBRANCH   9  11
ENDBRANCH   8   9
ENDBRANCH   1   8
TORSDOF 6
ENDMDL
MODEL 4
REMARK VINA RESULT:    -5.806      1.659      2.880
REMARK INTER + INTRA:          -9.237
REMARK INTER:                  -8.045
REMARK INTRA:                  -1.192
REMARK UNBOUND:                -1.395
REMARK SMILES CC[C@@H](CC[C@@H](C)[C@@H]1CC[C@@H]2[C@H]3CC(=O)C4=CC(=O)CC[C@]4(C)[C@@H]3CC[C@@]21C)C(C)C
REMARK SMILES IDX 4 1 3 2 2 3 1 4 29 5 30 6 31 7 5 8 6 9 7 10 8 11 9 12 27 13
REMARK SMILES IDX 10 14 11 15 26 16 28 17 12 18 25 19 24 20 13 21 22 22 14 23
REMARK SMILES IDX 16 24 21 25 23 26 15 27 17 28 20 29 18 30 19 31
REMARK H PARENT
REMARK Flexibility Score: inf
ROOT
ATOM      1  C   UNL     1      16.013  -1.169  18.955  1.00  0.00     0.004 C 
ENDROOT
BRANCH   1   2
ATOM      2  C   UNL     1      16.149   0.090  19.854  1.00  0.00    -0.009 C 
BRANCH   2   3
ATOM      3  C   UNL     1      17.357   0.982  19.430  1.00  0.00     0.000 C 
ATOM      4  C   UNL     1      16.952   2.438  19.194  1.00  0.00     0.004 C 
ENDBRANCH   2   3
BRANCH   2   5
ATOM      5  C   UNL     1      16.182  -0.314  21.363  1.00  0.00    -0.014 C 
ATOM      6  C   UNL     1      17.467   0.166  22.060  1.00  0.00     0.007 C 
ATOM      7  C   UNL     1      15.966  -1.818  21.607  1.00  0.00     0.007 C 
ENDBRANCH   2   5
ENDBRANCH   1   2
BRANCH   1   8
ATOM      8  C   UNL     1      16.121  -0.847  17.450  1.00  0.00     0.004 C 
BRANCH   8   9
ATOM      9  C   UNL     1      14.765  -0.811  16.689  1.00  0.00    -0.011 C 
ATOM     10  C   UNL     1      13.667  -1.438  17.576  1.00  0.00     0.008 C 
BRANCH   9  11
ATOM     11  C   UNL     1      14.332   0.606  16.151  1.00  0.00    -0.002 C 
ATOM     12  C   UNL     1      15.532   1.535  15.985  1.00  0.00     0.005 C 
ATOM     13  C   UNL     1      13.308   1.455  16.989  1.00  0.00    -0.026 C 
ATOM     14  C   UNL     1      14.955   2.922  15.822  1.00  0.00     0.005 C 
ATOM     15  C   UNL     1      13.626   2.941  16.595  1.00  0.00    -0.001 C 
ATOM     16  C   UNL     1      13.505   1.261  18.517  1.00  0.00     0.007 C 
ATOM     17  C   UNL     1      11.852   1.097  16.578  1.00  0.00     0.012 C 
ATOM     18  C   UNL     1      13.679   3.955  17.789  1.00  0.00     0.004 C 
ATOM     19  C   UNL     1      12.695   2.233  19.395  1.00  0.00     0.005 C 
ATOM     20  C   UNL     1      12.543   3.673  18.808  1.00  0.00     0.003 C 
ATOM     21  C   UNL     1      13.570   5.391  17.250  1.00  0.00     0.085 C 
ATOM     22  C   UNL     1      12.260   4.855  19.870  1.00  0.00    -0.000 C 
ATOM     23  C   UNL     1      13.755   6.363  18.361  1.00  0.00     0.159 C 
ATOM     24  C   UNL     1      13.214   6.051  19.701  1.00  0.00     0.005 C 
ATOM     25  C   UNL     1      12.343   4.365  21.355  1.00  0.00     0.020 C 
ATOM     26  C   UNL     1      10.825   5.392  19.609  1.00  0.00     0.017 C 
ATOM     27  O   UNL     1      14.350   7.452  18.135  1.00  0.00    -0.295 OA
ATOM     28  C   UNL     1      13.471   6.892  20.725  1.00  0.00     0.055 C 
ATOM     29  C   UNL     1      12.092   5.474  22.383  1.00  0.00     0.081 C 
ATOM     30  C   UNL     1      12.935   6.672  22.077  1.00  0.00     0.156 C 
ATOM     31  O   UNL     1      13.165   7.517  22.982  1.00  0.00    -0.295 OA
ENDBRANCH   9  11
ENDBRANCH   8   9
ENDBRANCH   1   8
TORSDOF 6
ENDMDL
MODEL 5
REMARK VINA RESULT:    -5.693      3.986      7.664
REMARK INTER + INTRA:          -9.085
REMARK INTER:                  -8.092
REMARK INTRA:                  -0.993
REMARK UNBOUND:                -1.395
REMARK SMILES CC[C@@H](CC[C@@H](C)[C@@H]1CC[C@@H]2[C@H]3CC(=O)C4=CC(=O)CC[C@]4(C)[C@@H]3CC[C@@]21C)C(C)C
REMARK SMILES IDX 4 1 3 2 2 3 1 4 29 5 30 6 31 7 5 8 6 9 7 10 8 11 9 12 27 13
REMARK SMILES IDX 10 14 11 15 26 16 28 17 12 18 25 19 24 20 13 21 22 22 14 23
REMARK SMILES IDX 16 24 21 25 23 26 15 27 17 28 20 29 18 30 19 31
REMARK H PARENT
REMARK Flexibility Score: inf
ROOT
ATOM      1  C   UNL     1      14.499   7.588  23.481  1.00  0.00     0.004 C 
ENDROOT
BRANCH   1   2
ATOM      2  C   UNL     1      14.453   7.441  25.026  1.00  0.00    -0.009 C 
BRANCH   2   3
ATOM      3  C   UNL     1      13.303   8.282  25.660  1.00  0.00     0.000 C 
ATOM      4  C   UNL     1      13.753   9.037  26.912  1.00  0.00     0.004 C 
ENDBRANCH   2   3
BRANCH   2   5
ATOM      5  C   UNL     1      15.854   7.747  25.649  1.00  0.00    -0.014 C 
ATOM      6  C   UNL     1      16.746   8.554  24.690  1.00  0.00     0.007 C 
ATOM      7  C   UNL     1      16.597   6.494  26.149  1.00  0.00     0.007 C 
ENDBRANCH   2   5
ENDBRANCH   1   2
BRANCH   1   8
ATOM      8  C   UNL     1      13.103   7.506  22.829  1.00  0.00     0.004 C 
BRANCH   8   9
ATOM      9  C   UNL     1      12.894   6.292  21.880  1.00  0.00    -0.011 C 
ATOM     10  C   UNL     1      11.809   5.365  22.471  1.00  0.00     0.008 C 
BRANCH   9  11
ATOM     11  C   UNL     1      12.583   6.657  20.379  1.00  0.00    -0.002 C 
ATOM     12  C   UNL     1      11.140   6.322  20.005  1.00  0.00     0.005 C 
ATOM     13  C   UNL     1      13.434   5.985  19.242  1.00  0.00    -0.026 C 
ATOM     14  C   UNL     1      11.085   6.377  18.496  1.00  0.00     0.005 C 
ATOM     15  C   UNL     1      12.487   5.999  17.989  1.00  0.00    -0.001 C 
ATOM     16  C   UNL     1      13.821   4.523  19.592  1.00  0.00     0.007 C 
ATOM     17  C   UNL     1      14.707   6.830  18.954  1.00  0.00     0.012 C 
ATOM     18  C   UNL     1      12.451   4.671  17.160  1.00  0.00     0.004 C 
ATOM     19  C   UNL     1      14.454   3.732  18.432  1.00  0.00     0.005 C 
ATOM     20  C   UNL     1      13.872   4.064  17.020  1.00  0.00     0.003 C 
ATOM     21  C   UNL     1      11.849   4.947  15.772  1.00  0.00     0.085 C 
ATOM     22  C   UNL     1      14.026   2.919  15.893  1.00  0.00    -0.000 C 
ATOM     23  C   UNL     1      11.686   3.669  15.028  1.00  0.00     0.159 C 
ATOM     24  C   UNL     1      12.701   2.604  15.177  1.00  0.00     0.005 C 
ATOM     25  C   UNL     1      14.606   1.582  16.465  1.00  0.00     0.020 C 
ATOM     26  C   UNL     1      15.001   3.453  14.806  1.00  0.00     0.017 C 
ATOM     27  O   UNL     1      10.695   3.523  14.262  1.00  0.00    -0.295 OA
ATOM     28  C   UNL     1      12.494   1.412  14.577  1.00  0.00     0.055 C 
ATOM     29  C   UNL     1      14.748   0.474  15.415  1.00  0.00     0.081 C 
ATOM     30  C   UNL     1      13.475   0.318  14.644  1.00  0.00     0.156 C 
ATOM     31  O   UNL     1      13.254  -0.754  14.022  1.00  0.00    -0.295 OA
ENDBRANCH   9  11
ENDBRANCH   8   9
ENDBRANCH   1   8
TORSDOF 6
ENDMDL
MODEL 6
REMARK VINA RESULT:    -5.651      3.011      7.471
REMARK INTER + INTRA:          -9.029
REMARK INTER:                  -7.091
REMARK INTRA:                  -1.937
REMARK UNBOUND:                -1.395
REMARK SMILES CC[C@@H](CC[C@@H](C)[C@@H]1CC[C@@H]2[C@H]3CC(=O)C4=CC(=O)CC[C@]4(C)[C@@H]3CC[C@@]21C)C(C)C
REMARK SMILES IDX 4 1 3 2 2 3 1 4 29 5 30 6 31 7 5 8 6 9 7 10 8 11 9 12 27 13
REMARK SMILES IDX 10 14 11 15 26 16 28 17 12 18 25 19 24 20 13 21 22 22 14 23
REMARK SMILES IDX 16 24 21 25 23 26 15 27 17 28 20 29 18 30 19 31
REMARK H PARENT
REMARK Flexibility Score: inf
ROOT
ATOM      1  C   UNL     1      11.480   5.990  16.867  1.00  0.00     0.004 C 
ENDROOT
BRANCH   1   2
ATOM      2  C   UNL     1      11.887   6.710  18.181  1.00  0.00    -0.009 C 
BRANCH   2   3
ATOM      3  C   UNL     1      11.012   7.973  18.450  1.00  0.00     0.000 C 
ATOM      4  C   UNL     1      10.262   8.441  17.202  1.00  0.00     0.004 C 
ENDBRANCH   2   3
BRANCH   2   5
ATOM      5  C   UNL     1      13.421   7.011  18.191  1.00  0.00    -0.014 C 
ATOM      6  C   UNL     1      14.174   6.190  17.129  1.00  0.00     0.007 C 
ATOM      7  C   UNL     1      14.078   6.837  19.572  1.00  0.00     0.007 C 
ENDBRANCH   2   5
ENDBRANCH   1   2
BRANCH   1   8
ATOM      8  C   UNL     1      10.464   4.851  17.096  1.00  0.00     0.004 C 
BRANCH   8   9
ATOM      9  C   UNL     1      10.525   4.194  18.504  1.00  0.00    -0.011 C 
ATOM     10  C   UNL     1       9.169   4.391  19.217  1.00  0.00     0.008 C 
BRANCH   9  11
ATOM     11  C   UNL     1      10.969   2.682  18.523  1.00  0.00    -0.002 C 
ATOM     12  C   UNL     1      10.632   2.012  19.853  1.00  0.00     0.005 C 
ATOM     13  C   UNL     1      12.485   2.333  18.296  1.00  0.00    -0.026 C 
ATOM     14  C   UNL     1      11.415   0.719  19.869  1.00  0.00     0.005 C 
ATOM     15  C   UNL     1      12.679   0.957  19.027  1.00  0.00    -0.001 C 
ATOM     16  C   UNL     1      13.426   3.399  18.920  1.00  0.00     0.007 C 
ATOM     17  C   UNL     1      12.777   2.173  16.777  1.00  0.00     0.012 C 
ATOM     18  C   UNL     1      13.974   0.838  19.901  1.00  0.00     0.004 C 
ATOM     19  C   UNL     1      14.915   3.006  18.938  1.00  0.00     0.005 C 
ATOM     20  C   UNL     1      15.189   1.487  19.186  1.00  0.00     0.003 C 
ATOM     21  C   UNL     1      14.258  -0.643  20.200  1.00  0.00     0.085 C 
ATOM     22  C   UNL     1      16.633   1.108  19.798  1.00  0.00    -0.000 C 
ATOM     23  C   UNL     1      15.406  -0.758  21.140  1.00  0.00     0.159 C 
ATOM     24  C   UNL     1      16.537   0.188  21.028  1.00  0.00     0.005 C 
ATOM     25  C   UNL     1      17.471   2.370  20.192  1.00  0.00     0.020 C 
ATOM     26  C   UNL     1      17.415   0.318  18.712  1.00  0.00     0.017 C 
ATOM     27  O   UNL     1      15.406  -1.677  22.003  1.00  0.00    -0.295 OA
ATOM     28  C   UNL     1      17.526   0.138  21.945  1.00  0.00     0.055 C 
ATOM     29  C   UNL     1      18.842   2.035  20.790  1.00  0.00     0.081 C 
ATOM     30  C   UNL     1      18.704   1.017  21.879  1.00  0.00     0.156 C 
ATOM     31  O   UNL     1      19.621   0.893  22.733  1.00  0.00    -0.295 OA
ENDBRANCH   9  11
ENDBRANCH   8   9
ENDBRANCH   1   8
TORSDOF 6
ENDMDL
MODEL 7
REMARK VINA RESULT:    -5.562      9.678     14.611
REMARK INTER + INTRA:          -8.908
REMARK INTER:                  -6.899
REMARK INTRA:                  -2.010
REMARK UNBOUND:                -1.395
REMARK SMILES CC[C@@H](CC[C@@H](C)[C@@H]1CC[C@@H]2[C@H]3CC(=O)C4=CC(=O)CC[C@]4(C)[C@@H]3CC[C@@]21C)C(C)C
REMARK SMILES IDX 4 1 3 2 2 3 1 4 29 5 30 6 31 7 5 8 6 9 7 10 8 11 9 12 27 13
REMARK SMILES IDX 10 14 11 15 26 16 28 17 12 18 25 19 24 20 13 21 22 22 14 23
REMARK SMILES IDX 16 24 21 25 23 26 15 27 17 28 20 29 18 30 19 31
REMARK H PARENT
REMARK Flexibility Score: inf
ROOT
ATOM      1  C   UNL     1      13.360  17.730  26.247  1.00  0.00     0.004 C 
ENDROOT
BRANCH   1   2
ATOM      2  C   UNL     1      11.849  18.069  26.134  1.00  0.00    -0.009 C 
BRANCH   2   3
ATOM      3  C   UNL     1      11.093  17.822  27.475  1.00  0.00     0.000 C 
ATOM      4  C   UNL     1       9.982  16.779  27.335  1.00  0.00     0.004 C 
ENDBRANCH   2   3
BRANCH   2   5
ATOM      5  C   UNL     1      11.209  17.322  24.919  1.00  0.00    -0.014 C 
ATOM      6  C   UNL     1      12.269  16.856  23.906  1.00  0.00     0.007 C 
ATOM      7  C   UNL     1      10.103  18.125  24.211  1.00  0.00     0.007 C 
ENDBRANCH   2   5
ENDBRANCH   1   2
BRANCH   1   8
ATOM      8  C   UNL     1      13.778  17.319  27.675  1.00  0.00     0.004 C 
BRANCH   8   9
ATOM      9  C   UNL     1      14.111  15.810  27.850  1.00  0.00    -0.011 C 
ATOM     10  C   UNL     1      13.814  15.390  29.306  1.00  0.00     0.008 C 
BRANCH   9  11
ATOM     11  C   UNL     1      13.415  14.843  26.819  1.00  0.00    -0.002 C 
ATOM     12  C   UNL     1      12.364  13.963  27.492  1.00  0.00     0.005 C 
ATOM     13  C   UNL     1      14.303  13.825  26.015  1.00  0.00    -0.026 C 
ATOM     14  C   UNL     1      12.049  12.870  26.498  1.00  0.00     0.005 C 
ATOM     15  C   UNL     1      13.322  12.650  25.665  1.00  0.00    -0.001 C 
ATOM     16  C   UNL     1      15.487  13.289  26.864  1.00  0.00     0.007 C 
ATOM     17  C   UNL     1      14.827  14.485  24.708  1.00  0.00     0.012 C 
ATOM     18  C   UNL     1      13.899  11.209  25.879  1.00  0.00     0.004 C 
ATOM     19  C   UNL     1      16.257  12.120  26.222  1.00  0.00     0.005 C 
ATOM     20  C   UNL     1      15.374  11.123  25.404  1.00  0.00     0.003 C 
ATOM     21  C   UNL     1      13.033  10.190  25.119  1.00  0.00     0.085 C 
ATOM     22  C   UNL     1      15.956   9.630  25.224  1.00  0.00    -0.000 C 
ATOM     23  C   UNL     1      13.491   8.808  25.426  1.00  0.00     0.159 C 
ATOM     24  C   UNL     1      14.935   8.541  25.603  1.00  0.00     0.005 C 
ATOM     25  C   UNL     1      17.263   9.387  26.052  1.00  0.00     0.020 C 
ATOM     26  C   UNL     1      16.282   9.426  23.718  1.00  0.00     0.017 C 
ATOM     27  O   UNL     1      12.641   7.880  25.507  1.00  0.00    -0.295 OA
ATOM     28  C   UNL     1      15.333   7.307  25.978  1.00  0.00     0.055 C 
ATOM     29  C   UNL     1      17.827   7.969  25.908  1.00  0.00     0.081 C 
ATOM     30  C   UNL     1      16.752   6.952  26.135  1.00  0.00     0.156 C 
ATOM     31  O   UNL     1      17.068   5.771  26.437  1.00  0.00    -0.295 OA
ENDBRANCH   9  11
ENDBRANCH   8   9
ENDBRANCH   1   8
TORSDOF 6
ENDMDL
MODEL 8
REMARK VINA RESULT:    -5.486      3.604      7.770
REMARK INTER + INTRA:          -8.806
REMARK INTER:                  -7.736
REMARK INTRA:                  -1.070
REMARK UNBOUND:                -1.395
REMARK SMILES CC[C@@H](CC[C@@H](C)[C@@H]1CC[C@@H]2[C@H]3CC(=O)C4=CC(=O)CC[C@]4(C)[C@@H]3CC[C@@]21C)C(C)C
REMARK SMILES IDX 4 1 3 2 2 3 1 4 29 5 30 6 31 7 5 8 6 9 7 10 8 11 9 12 27 13
REMARK SMILES IDX 10 14 11 15 26 16 28 17 12 18 25 19 24 20 13 21 22 22 14 23
REMARK SMILES IDX 16 24 21 25 23 26 15 27 17 28 20 29 18 30 19 31
REMARK H PARENT
REMARK Flexibility Score: inf
ROOT
ATOM      1  C   UNL     1      13.163   6.889  23.160  1.00  0.00     0.004 C 
ENDROOT
BRANCH   1   2
ATOM      2  C   UNL     1      13.378   7.538  24.553  1.00  0.00    -0.009 C 
BRANCH   2   3
ATOM      3  C   UNL     1      12.636   8.904  24.681  1.00  0.00     0.000 C 
ATOM      4  C   UNL     1      12.032   9.113  26.072  1.00  0.00     0.004 C 
ENDBRANCH   2   3
BRANCH   2   5
ATOM      5  C   UNL     1      14.902   7.631  24.887  1.00  0.00    -0.014 C 
ATOM      6  C   UNL     1      15.264   6.829  26.149  1.00  0.00     0.007 C 
ATOM      7  C   UNL     1      15.425   9.075  24.997  1.00  0.00     0.007 C 
ENDBRANCH   2   5
ENDBRANCH   1   2
BRANCH   1   8
ATOM      8  C   UNL     1      12.185   7.684  22.270  1.00  0.00     0.004 C 
BRANCH   8   9
ATOM      9  C   UNL     1      11.446   6.842  21.192  1.00  0.00    -0.011 C 
ATOM     10  C   UNL     1       9.954   7.239  21.170  1.00  0.00     0.008 C 
BRANCH   9  11
ATOM     11  C   UNL     1      12.077   6.894  19.749  1.00  0.00    -0.002 C 
ATOM     12  C   UNL     1      11.085   6.428  18.684  1.00  0.00     0.005 C 
ATOM     13  C   UNL     1      13.371   6.052  19.455  1.00  0.00    -0.026 C 
ATOM     14  C   UNL     1      11.906   6.186  17.439  1.00  0.00     0.005 C 
ATOM     15  C   UNL     1      13.313   5.781  17.909  1.00  0.00    -0.001 C 
ATOM     16  C   UNL     1      13.377   4.705  20.226  1.00  0.00     0.007 C 
ATOM     17  C   UNL     1      14.640   6.882  19.800  1.00  0.00     0.012 C 
ATOM     18  C   UNL     1      13.656   4.316  17.472  1.00  0.00     0.004 C 
ATOM     19  C   UNL     1      14.496   3.733  19.810  1.00  0.00     0.005 C 
ATOM     20  C   UNL     1      14.853   3.758  18.288  1.00  0.00     0.003 C 
ATOM     21  C   UNL     1      13.977   4.290  15.968  1.00  0.00     0.085 C 
ATOM     22  C   UNL     1      15.535   2.425  17.689  1.00  0.00    -0.000 C 
ATOM     23  C   UNL     1      14.172   2.886  15.517  1.00  0.00     0.159 C 
ATOM     24  C   UNL     1      14.836   1.916  16.415  1.00  0.00     0.005 C 
ATOM     25  C   UNL     1      15.581   1.252  18.725  1.00  0.00     0.020 C 
ATOM     26  C   UNL     1      16.993   2.780  17.283  1.00  0.00     0.017 C 
ATOM     27  O   UNL     1      13.788   2.550  14.363  1.00  0.00    -0.295 OA
ATOM     28  C   UNL     1      14.920   0.623  16.037  1.00  0.00     0.055 C 
ATOM     29  C   UNL     1      16.213  -0.032  18.173  1.00  0.00     0.081 C 
ATOM     30  C   UNL     1      15.601  -0.392  16.857  1.00  0.00     0.156 C 
ATOM     31  O   UNL     1      15.694  -1.574  16.431  1.00  0.00    -0.295 OA
ENDBRANCH   9  11
ENDBRANCH   8   9
ENDBRANCH   1   8
TORSDOF 6
ENDMDL
MODEL 9
REMARK VINA RESULT:    -5.474      3.897      7.382
REMARK INTER + INTRA:          -8.789
REMARK INTER:                  -7.759
REMARK INTRA:                  -1.030
REMARK UNBOUND:                -1.395
REMARK SMILES CC[C@@H](CC[C@@H](C)[C@@H]1CC[C@@H]2[C@H]3CC(=O)C4=CC(=O)CC[C@]4(C)[C@@H]3CC[C@@]21C)C(C)C
REMARK SMILES IDX 4 1 3 2 2 3 1 4 29 5 30 6 31 7 5 8 6 9 7 10 8 11 9 12 27 13
REMARK SMILES IDX 10 14 11 15 26 16 28 17 12 18 25 19 24 20 13 21 22 22 14 23
REMARK SMILES IDX 16 24 21 25 23 26 15 27 17 28 20 29 18 30 19 31
REMARK H PARENT
REMARK Flexibility Score: inf
ROOT
ATOM      1  C   UNL     1      13.610   7.096  22.894  1.00  0.00     0.004 C 
ENDROOT
BRANCH   1   2
ATOM      2  C   UNL     1      13.690   7.490  24.393  1.00  0.00    -0.009 C 
BRANCH   2   3
ATOM      3  C   UNL     1      12.872   8.781  24.703  1.00  0.00     0.000 C 
ATOM      4  C   UNL     1      12.242   8.754  26.097  1.00  0.00     0.004 C 
ENDBRANCH   2   3
BRANCH   2   5
ATOM      5  C   UNL     1      15.179   7.578  24.859  1.00  0.00    -0.014 C 
ATOM      6  C   UNL     1      15.429   6.772  26.145  1.00  0.00     0.007 C 
ATOM      7  C   UNL     1      15.695   9.020  25.018  1.00  0.00     0.007 C 
ENDBRANCH   2   5
ENDBRANCH   1   2
BRANCH   1   8
ATOM      8  C   UNL     1      12.253   7.451  22.251  1.00  0.00     0.004 C 
BRANCH   8   9
ATOM      9  C   UNL     1      12.000   6.810  20.857  1.00  0.00    -0.011 C 
ATOM     10  C   UNL     1      11.372   7.864  19.919  1.00  0.00     0.008 C 
BRANCH   9  11
ATOM     11  C   UNL     1      13.256   6.126  20.194  1.00  0.00    -0.002 C 
ATOM     12  C   UNL     1      13.822   6.971  19.055  1.00  0.00     0.005 C 
ATOM     13  C   UNL     1      13.095   4.696  19.562  1.00  0.00    -0.026 C 
ATOM     14  C   UNL     1      14.758   6.059  18.296  1.00  0.00     0.005 C 
ATOM     15  C   UNL     1      14.217   4.630  18.464  1.00  0.00    -0.001 C 
ATOM     16  C   UNL     1      11.702   4.504  18.903  1.00  0.00     0.007 C 
ATOM     17  C   UNL     1      13.342   3.602  20.638  1.00  0.00     0.012 C 
ATOM     18  C   UNL     1      13.775   4.026  17.088  1.00  0.00     0.004 C 
ATOM     19  C   UNL     1      11.561   3.219  18.067  1.00  0.00     0.005 C 
ATOM     20  C   UNL     1      12.850   2.796  17.292  1.00  0.00     0.003 C 
ATOM     21  C   UNL     1      15.020   3.629  16.277  1.00  0.00     0.085 C 
ATOM     22  C   UNL     1      12.634   1.871  15.988  1.00  0.00    -0.000 C 
ATOM     23  C   UNL     1      14.615   3.181  14.917  1.00  0.00     0.159 C 
ATOM     24  C   UNL     1      13.364   2.410  14.745  1.00  0.00     0.005 C 
ATOM     25  C   UNL     1      11.122   1.682  15.626  1.00  0.00     0.020 C 
ATOM     26  C   UNL     1      13.245   0.474  16.291  1.00  0.00     0.017 C 
ATOM     27  O   UNL     1      15.360   3.445  13.934  1.00  0.00    -0.295 OA
ATOM     28  C   UNL     1      12.956   2.093  13.499  1.00  0.00     0.055 C 
ATOM     29  C   UNL     1      10.892   0.818  14.381  1.00  0.00     0.081 C 
ATOM     30  C   UNL     1      11.745   1.295  13.248  1.00  0.00     0.156 C 
ATOM     31  O   UNL     1      11.439   0.985  12.066  1.00  0.00    -0.295 OA
ENDBRANCH   9  11
ENDBRANCH   8   9
ENDBRANCH   1   8
TORSDOF 6
ENDMDL
