MODEL 1
REMARK VINA RESULT:    -6.779      0.000      0.000
REMARK INTER + INTRA:          -7.374
REMARK INTER:                  -7.374
REMARK INTRA:                   0.000
REMARK UNBOUND:                 0.000
REMARK SMILES Cc1cc(O)c2c(c1)C(=O)c1cc(O)cc(O)c1C2=O
REMARK SMILES IDX 1 1 2 2 8 3 7 4 6 5 4 6 3 7 19 8 20 9 18 10 11 11 9 12 10 13
REMARK SMILES IDX 12 14 13 15 15 16 16 17 5 18 17 20 14 22
REMARK H PARENT 5 19 17 21 14 23
REMARK Flexibility Score: inf
ROOT
ATOM      1  C   UNL     1     -12.804  32.754  -2.121  1.00  0.00     0.044 C 
ATOM      2  C   UNL     1     -13.770  33.496  -1.245  1.00  0.00    -0.047 A 
ATOM      3  C   UNL     1     -14.421  34.638  -1.725  1.00  0.00     0.016 A 
ATOM      4  C   UNL     1     -15.307  35.356  -0.904  1.00  0.00     0.038 A 
ATOM      5  C   UNL     1     -15.543  34.924   0.421  1.00  0.00     0.076 A 
ATOM      6  C   UNL     1     -14.816  33.817   0.928  1.00  0.00     0.127 A 
ATOM      7  C   UNL     1     -13.956  33.106   0.085  1.00  0.00     0.050 A 
ATOM      8  C   UNL     1     -16.594  35.619   1.209  1.00  0.00     0.201 C 
ATOM      9  O   UNL     1     -17.235  34.989   2.091  1.00  0.00    -0.288 OA
ATOM     10  C   UNL     1     -17.014  36.993   0.829  1.00  0.00     0.076 A 
ATOM     11  C   UNL     1     -16.774  37.422  -0.496  1.00  0.00     0.041 A 
ATOM     12  C   UNL     1     -15.987  36.568  -1.417  1.00  0.00     0.194 C 
ATOM     13  O   UNL     1     -15.876  36.887  -2.634  1.00  0.00    -0.289 OA
ATOM     14  C   UNL     1     -17.277  38.659  -0.932  1.00  0.00     0.059 A 
ATOM     15  C   UNL     1     -18.001  39.476  -0.064  1.00  0.00     0.120 A 
ATOM     16  C   UNL     1     -18.207  39.074   1.258  1.00  0.00     0.093 A 
ATOM     17  C   UNL     1     -17.699  37.857   1.722  1.00  0.00     0.131 A 
ENDROOT
BRANCH   6  18
ATOM     18  O   UNL     1     -14.888  33.414   2.263  1.00  0.00    -0.507 OA
ATOM     19  H   UNL     1     -14.251  32.751   2.683  1.00  0.00     0.293 HD
ENDBRANCH   6  18
BRANCH  17  20
ATOM     20  O   UNL     1     -17.865  37.565   3.079  1.00  0.00    -0.507 OA
ATOM     21  H   UNL     1     -18.735  37.696   3.576  1.00  0.00     0.293 HD
ENDBRANCH  17  20
BRANCH  15  22
ATOM     22  O   UNL     1     -18.502  40.693  -0.523  1.00  0.00    -0.508 OA
ATOM     23  H   UNL     1     -19.286  41.147  -0.070  1.00  0.00     0.293 HD
ENDBRANCH  15  22
TORSDOF 3
ENDMDL
MODEL 2
REMARK VINA RESULT:    -6.355      2.168      6.525
REMARK INTER + INTRA:          -6.912
REMARK INTER:                  -6.912
REMARK INTRA:                   0.000
REMARK UNBOUND:                 0.000
REMARK SMILES Cc1cc(O)c2c(c1)C(=O)c1cc(O)cc(O)c1C2=O
REMARK SMILES IDX 1 1 2 2 8 3 7 4 6 5 4 6 3 7 19 8 20 9 18 10 11 11 9 12 10 13
REMARK SMILES IDX 12 14 13 15 15 16 16 17 5 18 17 20 14 22
REMARK H PARENT 5 19 17 21 14 23
REMARK Flexibility Score: inf
ROOT
ATOM      1  C   UNL     1     -18.626  38.865   2.036  1.00  0.00     0.044 C 
ATOM      2  C   UNL     1     -17.894  38.612   0.751  1.00  0.00    -0.047 A 
ATOM      3  C   UNL     1     -17.022  37.523   0.641  1.00  0.00     0.016 A 
ATOM      4  C   UNL     1     -16.310  37.292  -0.548  1.00  0.00     0.038 A 
ATOM      5  C   UNL     1     -16.474  38.168  -1.645  1.00  0.00     0.076 A 
ATOM      6  C   UNL     1     -17.292  39.316  -1.498  1.00  0.00     0.127 A 
ATOM      7  C   UNL     1     -18.007  39.513  -0.312  1.00  0.00     0.050 A 
ATOM      8  C   UNL     1     -15.821  37.810  -2.931  1.00  0.00     0.201 C 
ATOM      9  O   UNL     1     -16.345  38.167  -4.020  1.00  0.00    -0.288 OA
ATOM     10  C   UNL     1     -14.664  36.879  -2.939  1.00  0.00     0.076 A 
ATOM     11  C   UNL     1     -14.502  36.006  -1.838  1.00  0.00     0.041 A 
ATOM     12  C   UNL     1     -15.384  36.140  -0.654  1.00  0.00     0.194 C 
ATOM     13  O   UNL     1     -15.328  35.287   0.274  1.00  0.00    -0.289 OA
ATOM     14  C   UNL     1     -13.503  35.019  -1.869  1.00  0.00     0.059 A 
ATOM     15  C   UNL     1     -12.657  34.900  -2.972  1.00  0.00     0.120 A 
ATOM     16  C   UNL     1     -12.787  35.786  -4.045  1.00  0.00     0.093 A 
ATOM     17  C   UNL     1     -13.760  36.790  -4.029  1.00  0.00     0.131 A 
ENDROOT
BRANCH   6  18
ATOM     18  O   UNL     1     -17.396  40.301  -2.484  1.00  0.00    -0.507 OA
ATOM     19  H   UNL     1     -17.049  40.187  -3.426  1.00  0.00     0.293 HD
ENDBRANCH   6  18
BRANCH  17  20
ATOM     20  O   UNL     1     -13.769  37.695  -5.094  1.00  0.00    -0.507 OA
ATOM     21  H   UNL     1     -13.375  37.493  -6.003  1.00  0.00     0.293 HD
ENDBRANCH  17  20
BRANCH  15  22
ATOM     22  O   UNL     1     -11.682  33.905  -2.987  1.00  0.00    -0.508 OA
ATOM     23  H   UNL     1     -11.922  32.928  -2.871  1.00  0.00     0.293 HD
ENDBRANCH  15  22
TORSDOF 3
ENDMDL
MODEL 3
REMARK VINA RESULT:    -6.211      3.185      4.366
REMARK INTER + INTRA:          -6.755
REMARK INTER:                  -6.755
REMARK INTRA:                   0.000
REMARK UNBOUND:                 0.000
REMARK SMILES Cc1cc(O)c2c(c1)C(=O)c1cc(O)cc(O)c1C2=O
REMARK SMILES IDX 1 1 2 2 8 3 7 4 6 5 4 6 3 7 19 8 20 9 18 10 11 11 9 12 10 13
REMARK SMILES IDX 12 14 13 15 15 16 16 17 5 18 17 20 14 22
REMARK H PARENT 5 19 17 21 14 23
REMARK Flexibility Score: inf
ROOT
ATOM      1  C   UNL     1      -8.920  35.750  -4.812  1.00  0.00     0.044 C 
ATOM      2  C   UNL     1     -10.324  35.658  -4.291  1.00  0.00    -0.047 A 
ATOM      3  C   UNL     1     -11.183  36.758  -4.386  1.00  0.00     0.016 A 
ATOM      4  C   UNL     1     -12.491  36.692  -3.876  1.00  0.00     0.038 A 
ATOM      5  C   UNL     1     -12.946  35.503  -3.261  1.00  0.00     0.076 A 
ATOM      6  C   UNL     1     -12.043  34.422  -3.093  1.00  0.00     0.127 A 
ATOM      7  C   UNL     1     -10.754  34.505  -3.627  1.00  0.00     0.050 A 
ATOM      8  C   UNL     1     -14.376  35.419  -2.868  1.00  0.00     0.201 C 
ATOM      9  O   UNL     1     -14.961  34.303  -2.868  1.00  0.00    -0.288 OA
ATOM     10  C   UNL     1     -15.160  36.664  -2.662  1.00  0.00     0.076 A 
ATOM     11  C   UNL     1     -14.701  37.851  -3.277  1.00  0.00     0.041 A 
ATOM     12  C   UNL     1     -13.393  37.864  -3.974  1.00  0.00     0.194 C 
ATOM     13  O   UNL     1     -13.037  38.882  -4.630  1.00  0.00    -0.289 OA
ATOM     14  C   UNL     1     -15.484  39.016  -3.220  1.00  0.00     0.059 A 
ATOM     15  C   UNL     1     -16.707  39.017  -2.549  1.00  0.00     0.120 A 
ATOM     16  C   UNL     1     -17.146  37.857  -1.906  1.00  0.00     0.093 A 
ATOM     17  C   UNL     1     -16.376  36.691  -1.930  1.00  0.00     0.131 A 
ENDROOT
BRANCH   6  18
ATOM     18  O   UNL     1     -12.371  33.270  -2.375  1.00  0.00    -0.507 OA
ATOM     19  H   UNL     1     -13.068  32.603  -2.676  1.00  0.00     0.293 HD
ENDBRANCH   6  18
BRANCH  17  20
ATOM     20  O   UNL     1     -16.835  35.599  -1.188  1.00  0.00    -0.507 OA
ATOM     21  H   UNL     1     -16.240  35.036  -0.596  1.00  0.00     0.293 HD
ENDBRANCH  17  20
BRANCH  15  22
ATOM     22  O   UNL     1     -17.473  40.180  -2.517  1.00  0.00    -0.508 OA
ATOM     23  H   UNL     1     -17.353  40.873  -1.789  1.00  0.00     0.293 HD
ENDBRANCH  15  22
TORSDOF 3
ENDMDL
MODEL 4
REMARK VINA RESULT:    -6.079      4.997      7.022
REMARK INTER + INTRA:          -6.612
REMARK INTER:                  -6.612
REMARK INTRA:                   0.000
REMARK UNBOUND:                 0.000
REMARK SMILES Cc1cc(O)c2c(c1)C(=O)c1cc(O)cc(O)c1C2=O
REMARK SMILES IDX 1 1 2 2 8 3 7 4 6 5 4 6 3 7 19 8 20 9 18 10 11 11 9 12 10 13
REMARK SMILES IDX 12 14 13 15 15 16 16 17 5 18 17 20 14 22
REMARK H PARENT 5 19 17 21 14 23
REMARK Flexibility Score: inf
ROOT
ATOM      1  C   UNL     1      -9.865  40.241  -6.993  1.00  0.00     0.044 C 
ATOM      2  C   UNL     1     -11.096  40.264  -6.136  1.00  0.00    -0.047 A 
ATOM      3  C   UNL     1     -11.597  39.076  -5.593  1.00  0.00     0.016 A 
ATOM      4  C   UNL     1     -12.765  39.083  -4.811  1.00  0.00     0.038 A 
ATOM      5  C   UNL     1     -13.442  40.299  -4.569  1.00  0.00     0.076 A 
ATOM      6  C   UNL     1     -12.976  41.486  -5.192  1.00  0.00     0.127 A 
ATOM      7  C   UNL     1     -11.800  41.457  -5.948  1.00  0.00     0.050 A 
ATOM      8  C   UNL     1     -14.585  40.290  -3.620  1.00  0.00     0.201 C 
ATOM      9  O   UNL     1     -14.844  41.320  -2.942  1.00  0.00    -0.288 OA
ATOM     10  C   UNL     1     -15.297  39.019  -3.334  1.00  0.00     0.076 A 
ATOM     11  C   UNL     1     -14.618  37.803  -3.579  1.00  0.00     0.041 A 
ATOM     12  C   UNL     1     -13.294  37.819  -4.246  1.00  0.00     0.194 C 
ATOM     13  O   UNL     1     -12.629  36.751  -4.354  1.00  0.00    -0.289 OA
ATOM     14  C   UNL     1     -15.203  36.586  -3.195  1.00  0.00     0.059 A 
ATOM     15  C   UNL     1     -16.457  36.562  -2.585  1.00  0.00     0.120 A 
ATOM     16  C   UNL     1     -17.150  37.758  -2.377  1.00  0.00     0.093 A 
ATOM     17  C   UNL     1     -16.598  38.981  -2.769  1.00  0.00     0.131 A 
ENDROOT
BRANCH   6  18
ATOM     18  O   UNL     1     -13.665  42.698  -5.117  1.00  0.00    -0.507 OA
ATOM     19  H   UNL     1     -13.211  43.593  -4.993  1.00  0.00     0.293 HD
ENDBRANCH   6  18
BRANCH  17  20
ATOM     20  O   UNL     1     -17.388  40.123  -2.612  1.00  0.00    -0.507 OA
ATOM     21  H   UNL     1     -17.047  40.988  -2.214  1.00  0.00     0.293 HD
ENDBRANCH  17  20
BRANCH  15  22
ATOM     22  O   UNL     1     -17.012  35.343  -2.200  1.00  0.00    -0.508 OA
ATOM     23  H   UNL     1     -17.984  35.268  -1.924  1.00  0.00     0.293 HD
ENDBRANCH  15  22
TORSDOF 3
ENDMDL
MODEL 5
REMARK VINA RESULT:    -6.055      1.500      3.449
REMARK INTER + INTRA:          -6.586
REMARK INTER:                  -6.586
REMARK INTRA:                   0.000
REMARK UNBOUND:                 0.000
REMARK SMILES Cc1cc(O)c2c(c1)C(=O)c1cc(O)cc(O)c1C2=O
REMARK SMILES IDX 1 1 2 2 8 3 7 4 6 5 4 6 3 7 19 8 20 9 18 10 11 11 9 12 10 13
REMARK SMILES IDX 12 14 13 15 15 16 16 17 5 18 17 20 14 22
REMARK H PARENT 5 19 17 21 14 23
REMARK Flexibility Score: inf
ROOT
ATOM      1  C   UNL     1     -13.627  32.383   1.778  1.00  0.00     0.044 C 
ATOM      2  C   UNL     1     -14.019  33.433   0.781  1.00  0.00    -0.047 A 
ATOM      3  C   UNL     1     -14.727  34.567   1.194  1.00  0.00     0.016 A 
ATOM      4  C   UNL     1     -15.123  35.544   0.264  1.00  0.00     0.038 A 
ATOM      5  C   UNL     1     -14.804  35.381  -1.103  1.00  0.00     0.076 A 
ATOM      6  C   UNL     1     -14.162  34.190  -1.527  1.00  0.00     0.127 A 
ATOM      7  C   UNL     1     -13.760  33.243  -0.580  1.00  0.00     0.050 A 
ATOM      8  C   UNL     1     -15.108  36.500  -2.032  1.00  0.00     0.201 C 
ATOM      9  O   UNL     1     -14.389  36.681  -3.051  1.00  0.00    -0.288 OA
ATOM     10  C   UNL     1     -16.132  37.510  -1.662  1.00  0.00     0.076 A 
ATOM     11  C   UNL     1     -16.450  37.669  -0.294  1.00  0.00     0.041 A 
ATOM     12  C   UNL     1     -15.878  36.738   0.709  1.00  0.00     0.194 C 
ATOM     13  O   UNL     1     -16.057  36.950   1.941  1.00  0.00    -0.289 OA
ATOM     14  C   UNL     1     -17.309  38.704   0.109  1.00  0.00     0.059 A 
ATOM     15  C   UNL     1     -17.866  39.570  -0.831  1.00  0.00     0.120 A 
ATOM     16  C   UNL     1     -17.587  39.394  -2.188  1.00  0.00     0.093 A 
ATOM     17  C   UNL     1     -16.750  38.359  -2.617  1.00  0.00     0.131 A 
ENDROOT
BRANCH   6  18
ATOM     18  O   UNL     1     -13.938  33.891  -2.873  1.00  0.00    -0.507 OA
ATOM     19  H   UNL     1     -13.701  34.586  -3.568  1.00  0.00     0.293 HD
ENDBRANCH   6  18
BRANCH  17  20
ATOM     20  O   UNL     1     -16.592  38.187  -3.995  1.00  0.00    -0.507 OA
ATOM     21  H   UNL     1     -15.804  38.548  -4.515  1.00  0.00     0.293 HD
ENDBRANCH  17  20
BRANCH  15  22
ATOM     22  O   UNL     1     -18.706  40.599  -0.406  1.00  0.00    -0.508 OA
ATOM     23  H   UNL     1     -19.197  40.550   0.478  1.00  0.00     0.293 HD
ENDBRANCH  15  22
TORSDOF 3
ENDMDL
MODEL 6
REMARK VINA RESULT:    -6.041      1.575      3.642
REMARK INTER + INTRA:          -6.571
REMARK INTER:                  -6.571
REMARK INTRA:                   0.000
REMARK UNBOUND:                 0.000
REMARK SMILES Cc1cc(O)c2c(c1)C(=O)c1cc(O)cc(O)c1C2=O
REMARK SMILES IDX 1 1 2 2 8 3 7 4 6 5 4 6 3 7 19 8 20 9 18 10 11 11 9 12 10 13
REMARK SMILES IDX 12 14 13 15 15 16 16 17 5 18 17 20 14 22
REMARK H PARENT 5 19 17 21 14 23
REMARK Flexibility Score: inf
ROOT
ATOM      1  C   UNL     1     -12.627  32.753  -2.129  1.00  0.00     0.044 C 
ATOM      2  C   UNL     1     -13.289  34.099  -2.130  1.00  0.00    -0.047 A 
ATOM      3  C   UNL     1     -14.083  34.494  -1.048  1.00  0.00     0.016 A 
ATOM      4  C   UNL     1     -14.730  35.741  -1.051  1.00  0.00     0.038 A 
ATOM      5  C   UNL     1     -14.580  36.607  -2.157  1.00  0.00     0.076 A 
ATOM      6  C   UNL     1     -13.844  36.166  -3.286  1.00  0.00     0.127 A 
ATOM      7  C   UNL     1     -13.192  34.930  -3.251  1.00  0.00     0.050 A 
ATOM      8  C   UNL     1     -15.156  37.974  -2.062  1.00  0.00     0.201 C 
ATOM      9  O   UNL     1     -14.612  38.927  -2.681  1.00  0.00    -0.288 OA
ATOM     10  C   UNL     1     -16.249  38.249  -1.095  1.00  0.00     0.076 A 
ATOM     11  C   UNL     1     -16.398  37.379   0.009  1.00  0.00     0.041 A 
ATOM     12  C   UNL     1     -15.575  36.149   0.096  1.00  0.00     0.194 C 
ATOM     13  O   UNL     1     -15.613  35.436   1.137  1.00  0.00    -0.289 OA
ATOM     14  C   UNL     1     -17.329  37.681   1.017  1.00  0.00     0.059 A 
ATOM     15  C   UNL     1     -18.120  38.826   0.932  1.00  0.00     0.120 A 
ATOM     16  C   UNL     1     -18.005  39.668  -0.177  1.00  0.00     0.093 A 
ATOM     17  C   UNL     1     -17.101  39.379  -1.203  1.00  0.00     0.131 A 
ENDROOT
BRANCH   6  18
ATOM     18  O   UNL     1     -13.765  36.903  -4.470  1.00  0.00    -0.507 OA
ATOM     19  H   UNL     1     -13.381  37.837  -4.523  1.00  0.00     0.293 HD
ENDBRANCH   6  18
BRANCH  17  20
ATOM     20  O   UNL     1     -17.107  40.215  -2.323  1.00  0.00    -0.507 OA
ATOM     21  H   UNL     1     -17.052  39.877  -3.273  1.00  0.00     0.293 HD
ENDBRANCH  17  20
BRANCH  15  22
ATOM     22  O   UNL     1     -19.027  39.113   1.950  1.00  0.00    -0.508 OA
ATOM     23  H   UNL     1     -19.729  38.442   2.238  1.00  0.00     0.293 HD
ENDBRANCH  15  22
TORSDOF 3
ENDMDL
MODEL 7
REMARK VINA RESULT:    -5.948      3.498      7.539
REMARK INTER + INTRA:          -6.470
REMARK INTER:                  -6.470
REMARK INTRA:                   0.000
REMARK UNBOUND:                 0.000
REMARK SMILES Cc1cc(O)c2c(c1)C(=O)c1cc(O)cc(O)c1C2=O
REMARK SMILES IDX 1 1 2 2 8 3 7 4 6 5 4 6 3 7 19 8 20 9 18 10 11 11 9 12 10 13
REMARK SMILES IDX 12 14 13 15 15 16 16 17 5 18 17 20 14 22
REMARK H PARENT 5 19 17 21 14 23
REMARK Flexibility Score: inf
ROOT
ATOM      1  C   UNL     1     -18.079  39.218  -1.689  1.00  0.00     0.044 C 
ATOM      2  C   UNL     1     -16.766  38.875  -2.328  1.00  0.00    -0.047 A 
ATOM      3  C   UNL     1     -16.258  37.574  -2.237  1.00  0.00     0.016 A 
ATOM      4  C   UNL     1     -15.015  37.249  -2.809  1.00  0.00     0.038 A 
ATOM      5  C   UNL     1     -14.270  38.244  -3.481  1.00  0.00     0.076 A 
ATOM      6  C   UNL     1     -14.751  39.578  -3.495  1.00  0.00     0.127 A 
ATOM      7  C   UNL     1     -15.999  39.872  -2.938  1.00  0.00     0.050 A 
ATOM      8  C   UNL     1     -13.035  37.830  -4.198  1.00  0.00     0.201 C 
ATOM      9  O   UNL     1     -12.666  38.461  -5.224  1.00  0.00    -0.288 OA
ATOM     10  C   UNL     1     -12.348  36.570  -3.818  1.00  0.00     0.076 A 
ATOM     11  C   UNL     1     -13.096  35.578  -3.144  1.00  0.00     0.041 A 
ATOM     12  C   UNL     1     -14.481  35.871  -2.702  1.00  0.00     0.194 C 
ATOM     13  O   UNL     1     -15.195  34.952  -2.214  1.00  0.00    -0.289 OA
ATOM     14  C   UNL     1     -12.523  34.321  -2.890  1.00  0.00     0.059 A 
ATOM     15  C   UNL     1     -11.214  34.046  -3.285  1.00  0.00     0.120 A 
ATOM     16  C   UNL     1     -10.457  35.035  -3.916  1.00  0.00     0.093 A 
ATOM     17  C   UNL     1     -10.997  36.301  -4.162  1.00  0.00     0.131 A 
ENDROOT
BRANCH   6  18
ATOM     18  O   UNL     1     -14.010  40.641  -4.016  1.00  0.00    -0.507 OA
ATOM     19  H   UNL     1     -14.380  41.310  -4.677  1.00  0.00     0.293 HD
ENDBRANCH   6  18
BRANCH  17  20
ATOM     20  O   UNL     1     -10.151  37.267  -4.713  1.00  0.00    -0.507 OA
ATOM     21  H   UNL     1     -10.447  38.208  -4.932  1.00  0.00     0.293 HD
ENDBRANCH  17  20
BRANCH  15  22
ATOM     22  O   UNL     1     -10.671  32.787  -3.034  1.00  0.00    -0.508 OA
ATOM     23  H   UNL     1     -10.322  32.202  -3.784  1.00  0.00     0.293 HD
ENDBRANCH  15  22
TORSDOF 3
ENDMDL
MODEL 8
REMARK VINA RESULT:    -5.919      1.432      5.514
REMARK INTER + INTRA:          -6.438
REMARK INTER:                  -6.438
REMARK INTRA:                   0.000
REMARK UNBOUND:                 0.000
REMARK SMILES Cc1cc(O)c2c(c1)C(=O)c1cc(O)cc(O)c1C2=O
REMARK SMILES IDX 1 1 2 2 8 3 7 4 6 5 4 6 3 7 19 8 20 9 18 10 11 11 9 12 10 13
REMARK SMILES IDX 12 14 13 15 15 16 16 17 5 18 17 20 14 22
REMARK H PARENT 5 19 17 21 14 23
REMARK Flexibility Score: inf
ROOT
ATOM      1  C   UNL     1     -18.621  40.240  -1.379  1.00  0.00     0.044 C 
ATOM      2  C   UNL     1     -17.879  39.100  -0.745  1.00  0.00    -0.047 A 
ATOM      3  C   UNL     1     -16.975  38.344  -1.498  1.00  0.00     0.016 A 
ATOM      4  C   UNL     1     -16.295  37.257  -0.922  1.00  0.00     0.038 A 
ATOM      5  C   UNL     1     -16.526  36.923   0.432  1.00  0.00     0.076 A 
ATOM      6  C   UNL     1     -17.506  37.640   1.164  1.00  0.00     0.127 A 
ATOM      7  C   UNL     1     -18.153  38.730   0.575  1.00  0.00     0.050 A 
ATOM      8  C   UNL     1     -15.683  35.865   1.046  1.00  0.00     0.201 C 
ATOM      9  O   UNL     1     -15.422  35.909   2.278  1.00  0.00    -0.288 OA
ATOM     10  C   UNL     1     -14.998  34.871   0.181  1.00  0.00     0.076 A 
ATOM     11  C   UNL     1     -14.771  35.207  -1.173  1.00  0.00     0.041 A 
ATOM     12  C   UNL     1     -15.344  36.457  -1.729  1.00  0.00     0.194 C 
ATOM     13  O   UNL     1     -15.042  36.825  -2.898  1.00  0.00    -0.289 OA
ATOM     14  C   UNL     1     -14.008  34.355  -1.987  1.00  0.00     0.059 A 
ATOM     15  C   UNL     1     -13.483  33.168  -1.476  1.00  0.00     0.120 A 
ATOM     16  C   UNL     1     -13.737  32.811  -0.150  1.00  0.00     0.093 A 
ATOM     17  C   UNL     1     -14.511  33.632   0.675  1.00  0.00     0.131 A 
ENDROOT
BRANCH   6  18
ATOM     18  O   UNL     1     -17.891  37.283   2.459  1.00  0.00    -0.507 OA
ATOM     19  H   UNL     1     -17.241  36.988   3.174  1.00  0.00     0.293 HD
ENDBRANCH   6  18
BRANCH  17  20
ATOM     20  O   UNL     1     -14.800  33.166   1.960  1.00  0.00    -0.507 OA
ATOM     21  H   UNL     1     -14.138  33.184   2.724  1.00  0.00     0.293 HD
ENDBRANCH  17  20
BRANCH  15  22
ATOM     22  O   UNL     1     -12.717  32.344  -2.299  1.00  0.00    -0.508 OA
ATOM     23  H   UNL     1     -12.542  31.375  -2.063  1.00  0.00     0.293 HD
ENDBRANCH  15  22
TORSDOF 3
ENDMDL
MODEL 9
REMARK VINA RESULT:    -5.914      2.594      4.228
REMARK INTER + INTRA:          -6.432
REMARK INTER:                  -6.432
REMARK INTRA:                   0.000
REMARK UNBOUND:                 0.000
REMARK SMILES Cc1cc(O)c2c(c1)C(=O)c1cc(O)cc(O)c1C2=O
REMARK SMILES IDX 1 1 2 2 8 3 7 4 6 5 4 6 3 7 19 8 20 9 18 10 11 11 9 12 10 13
REMARK SMILES IDX 12 14 13 15 15 16 16 17 5 18 17 20 14 22
REMARK H PARENT 5 19 17 21 14 23
REMARK Flexibility Score: inf
ROOT
ATOM      1  C   UNL     1     -14.129  32.374   1.248  1.00  0.00     0.044 C 
ATOM      2  C   UNL     1     -14.529  33.686   0.640  1.00  0.00    -0.047 A 
ATOM      3  C   UNL     1     -14.137  34.005  -0.665  1.00  0.00     0.016 A 
ATOM      4  C   UNL     1     -14.482  35.242  -1.235  1.00  0.00     0.038 A 
ATOM      5  C   UNL     1     -15.233  36.176  -0.484  1.00  0.00     0.076 A 
ATOM      6  C   UNL     1     -15.553  35.880   0.865  1.00  0.00     0.127 A 
ATOM      7  C   UNL     1     -15.217  34.635   1.403  1.00  0.00     0.050 A 
ATOM      8  C   UNL     1     -15.705  37.408  -1.168  1.00  0.00     0.201 C 
ATOM      9  O   UNL     1     -16.778  37.956  -0.800  1.00  0.00    -0.288 OA
ATOM     10  C   UNL     1     -15.017  37.881  -2.396  1.00  0.00     0.076 A 
ATOM     11  C   UNL     1     -14.265  36.945  -3.143  1.00  0.00     0.041 A 
ATOM     12  C   UNL     1     -14.057  35.575  -2.614  1.00  0.00     0.194 C 
ATOM     13  O   UNL     1     -13.496  34.701  -3.331  1.00  0.00    -0.289 OA
ATOM     14  C   UNL     1     -13.714  37.318  -4.379  1.00  0.00     0.059 A 
ATOM     15  C   UNL     1     -13.889  38.611  -4.873  1.00  0.00     0.120 A 
ATOM     16  C   UNL     1     -14.597  39.551  -4.120  1.00  0.00     0.093 A 
ATOM     17  C   UNL     1     -15.138  39.211  -2.877  1.00  0.00     0.131 A 
ENDROOT
BRANCH   6  18
ATOM     18  O   UNL     1     -16.169  36.804   1.714  1.00  0.00    -0.507 OA
ATOM     19  H   UNL     1     -17.169  36.853   1.856  1.00  0.00     0.293 HD
ENDBRANCH   6  18
BRANCH  17  20
ATOM     20  O   UNL     1     -15.752  40.227  -2.142  1.00  0.00    -0.507 OA
ATOM     21  H   UNL     1     -15.703  41.206  -2.391  1.00  0.00     0.293 HD
ENDBRANCH  17  20
BRANCH  15  22
ATOM     22  O   UNL     1     -13.344  38.955  -6.109  1.00  0.00    -0.508 OA
ATOM     23  H   UNL     1     -12.722  38.329  -6.606  1.00  0.00     0.293 HD
ENDBRANCH  15  22
TORSDOF 3
ENDMDL
