MODEL 1
REMARK VINA RESULT:    -4.874      0.000      0.000
REMARK INTER + INTRA:          -5.357
REMARK INTER:                  -5.159
REMARK INTRA:                  -0.198
REMARK UNBOUND:                -0.198
REMARK SMILES CC1=CC[C@H](C(C)C)C=C1
REMARK SMILES IDX 1 1 2 2 3 3 4 4 5 5 9 6 10 7 6 8 7 9 8 10
REMARK H PARENT
REMARK Flexibility Score: inf
ROOT
ATOM      1  C   UNL     1     104.889 111.983 129.295  1.00  0.00     0.044 C 
ATOM      2  C   UNL     1     105.501 111.430 128.043  1.00  0.00    -0.055 C 
ATOM      3  C   UNL     1     104.953 111.692 126.848  1.00  0.00    -0.023 C 
ATOM      4  C   UNL     1     105.525 111.089 125.592  1.00  0.00     0.035 C 
ATOM      5  C   UNL     1     107.070 110.989 125.673  1.00  0.00     0.018 C 
ATOM      6  C   UNL     1     107.460 110.383 127.012  1.00  0.00    -0.023 C 
ATOM      7  C   UNL     1     106.754 110.647 128.116  1.00  0.00    -0.001 C 
ENDROOT
BRANCH   5   8
ATOM      8  C   UNL     1     107.694 110.193 124.483  1.00  0.00    -0.010 C 
ATOM      9  C   UNL     1     108.286 108.841 124.923  1.00  0.00     0.008 C 
ATOM     10  C   UNL     1     106.653 109.934 123.378  1.00  0.00     0.008 C 
ENDBRANCH   5   8
TORSDOF 1
ENDMDL
MODEL 2
REMARK VINA RESULT:    -4.856      6.225      6.661
REMARK INTER + INTRA:          -5.338
REMARK INTER:                  -5.143
REMARK INTRA:                  -0.195
REMARK UNBOUND:                -0.198
REMARK SMILES CC1=CC[C@H](C(C)C)C=C1
REMARK SMILES IDX 1 1 2 2 3 3 4 4 5 5 9 6 10 7 6 8 7 9 8 10
REMARK H PARENT
REMARK Flexibility Score: inf
ROOT
ATOM      1  C   UNL     1     112.038 107.647 129.379  1.00  0.00     0.044 C 
ATOM      2  C   UNL     1     111.475 107.021 128.138  1.00  0.00    -0.055 C 
ATOM      3  C   UNL     1     111.674 107.592 126.941  1.00  0.00    -0.023 C 
ATOM      4  C   UNL     1     111.059 107.004 125.698  1.00  0.00     0.035 C 
ATOM      5  C   UNL     1     111.033 105.455 125.765  1.00  0.00     0.018 C 
ATOM      6  C   UNL     1     110.488 105.025 127.118  1.00  0.00    -0.023 C 
ATOM      7  C   UNL     1     110.753 105.733 128.222  1.00  0.00    -0.001 C 
ENDROOT
BRANCH   5   8
ATOM      8  C   UNL     1     110.230 104.806 124.594  1.00  0.00    -0.010 C 
ATOM      9  C   UNL     1     108.812 104.377 125.017  1.00  0.00     0.008 C 
ATOM     10  C   UNL     1     110.112 105.769 123.397  1.00  0.00     0.008 C 
ENDBRANCH   5   8
TORSDOF 1
ENDMDL
MODEL 3
REMARK VINA RESULT:    -4.820      7.988      9.490
REMARK INTER + INTRA:          -5.299
REMARK INTER:                  -5.102
REMARK INTRA:                  -0.198
REMARK UNBOUND:                -0.198
REMARK SMILES CC1=CC[C@H](C(C)C)C=C1
REMARK SMILES IDX 1 1 2 2 3 3 4 4 5 5 9 6 10 7 6 8 7 9 8 10
REMARK H PARENT
REMARK Flexibility Score: inf
ROOT
ATOM      1  C   UNL     1     107.682 100.448 129.493  1.00  0.00     0.044 C 
ATOM      2  C   UNL     1     107.066 100.988 128.237  1.00  0.00    -0.055 C 
ATOM      3  C   UNL     1     107.603 100.704 127.042  1.00  0.00    -0.023 C 
ATOM      4  C   UNL     1     107.027 101.293 125.782  1.00  0.00     0.035 C 
ATOM      5  C   UNL     1     105.483 101.407 125.872  1.00  0.00     0.018 C 
ATOM      6  C   UNL     1     105.108 102.037 127.204  1.00  0.00    -0.023 C 
ATOM      7  C   UNL     1     105.821 101.783 128.308  1.00  0.00    -0.001 C 
ENDROOT
BRANCH   5   8
ATOM      8  C   UNL     1     104.858 102.191 124.675  1.00  0.00    -0.010 C 
ATOM      9  C   UNL     1     104.271 103.550 125.101  1.00  0.00     0.008 C 
ATOM     10  C   UNL     1     105.897 102.435 123.564  1.00  0.00     0.008 C 
ENDBRANCH   5   8
TORSDOF 1
ENDMDL
MODEL 4
REMARK VINA RESULT:    -4.799      6.311      6.732
REMARK INTER + INTRA:          -5.277
REMARK INTER:                  -5.082
REMARK INTRA:                  -0.195
REMARK UNBOUND:                -0.198
REMARK SMILES CC1=CC[C@H](C(C)C)C=C1
REMARK SMILES IDX 1 1 2 2 3 3 4 4 5 5 9 6 10 7 6 8 7 9 8 10
REMARK H PARENT
REMARK Flexibility Score: inf
ROOT
ATOM      1  C   UNL     1     100.387 104.854 129.263  1.00  0.00     0.044 C 
ATOM      2  C   UNL     1     100.960 105.485 128.029  1.00  0.00    -0.055 C 
ATOM      3  C   UNL     1     100.806 104.898 126.833  1.00  0.00    -0.023 C 
ATOM      4  C   UNL     1     101.431 105.494 125.599  1.00  0.00     0.035 C 
ATOM      5  C   UNL     1     101.407 107.043 125.652  1.00  0.00     0.018 C 
ATOM      6  C   UNL     1     101.908 107.502 127.013  1.00  0.00    -0.023 C 
ATOM      7  C   UNL     1     101.638 106.796 128.117  1.00  0.00    -0.001 C 
ENDROOT
BRANCH   5   8
ATOM      8  C   UNL     1     102.217 107.706 124.493  1.00  0.00    -0.010 C 
ATOM      9  C   UNL     1     103.621 108.159 124.937  1.00  0.00     0.008 C 
ATOM     10  C   UNL     1     102.368 106.747 123.298  1.00  0.00     0.008 C 
ENDBRANCH   5   8
TORSDOF 1
ENDMDL
MODEL 5
REMARK VINA RESULT:    -4.728      5.552      6.515
REMARK INTER + INTRA:          -5.202
REMARK INTER:                  -5.002
REMARK INTRA:                  -0.200
REMARK UNBOUND:                -0.198
REMARK SMILES CC1=CC[C@H](C(C)C)C=C1
REMARK SMILES IDX 1 1 2 2 3 3 4 4 5 5 9 6 10 7 6 8 7 9 8 10
REMARK H PARENT
REMARK Flexibility Score: inf
ROOT
ATOM      1  C   UNL     1     105.142 109.624 127.486  1.00  0.00     0.044 C 
ATOM      2  C   UNL     1     104.100 108.562 127.673  1.00  0.00    -0.055 C 
ATOM      3  C   UNL     1     103.652 108.261 128.901  1.00  0.00    -0.023 C 
ATOM      4  C   UNL     1     102.652 107.153 129.104  1.00  0.00     0.035 C 
ATOM      5  C   UNL     1     101.640 107.091 127.930  1.00  0.00     0.018 C 
ATOM      6  C   UNL     1     102.401 107.150 126.614  1.00  0.00    -0.023 C 
ATOM      7  C   UNL     1     103.511 107.888 126.496  1.00  0.00    -0.001 C 
ENDROOT
BRANCH   5   8
ATOM      8  C   UNL     1     100.707 105.841 127.993  1.00  0.00    -0.010 C 
ATOM      9  C   UNL     1     100.784 104.981 126.718  1.00  0.00     0.008 C 
ATOM     10  C   UNL     1     101.048 104.951 129.204  1.00  0.00     0.008 C 
ENDBRANCH   5   8
TORSDOF 1
ENDMDL
MODEL 6
REMARK VINA RESULT:    -4.726      6.374      7.368
REMARK INTER + INTRA:          -5.200
REMARK INTER:                  -5.002
REMARK INTRA:                  -0.199
REMARK UNBOUND:                -0.198
REMARK SMILES CC1=CC[C@H](C(C)C)C=C1
REMARK SMILES IDX 1 1 2 2 3 3 4 4 5 5 9 6 10 7 6 8 7 9 8 10
REMARK H PARENT
REMARK Flexibility Score: inf
ROOT
ATOM      1  C   UNL     1     107.395 102.905 128.003  1.00  0.00     0.044 C 
ATOM      2  C   UNL     1     108.444 103.977 128.043  1.00  0.00    -0.055 C 
ATOM      3  C   UNL     1     108.972 104.364 129.213  1.00  0.00    -0.023 C 
ATOM      4  C   UNL     1     109.980 105.482 129.267  1.00  0.00     0.035 C 
ATOM      5  C   UNL     1     110.910 105.459 128.026  1.00  0.00     0.018 C 
ATOM      6  C   UNL     1     110.062 105.307 126.773  1.00  0.00    -0.023 C 
ATOM      7  C   UNL     1     108.949 104.564 126.783  1.00  0.00    -0.001 C 
ENDROOT
BRANCH   5   8
ATOM      8  C   UNL     1     111.840 106.710 127.937  1.00  0.00    -0.010 C 
ATOM      9  C   UNL     1     111.578 107.553 126.675  1.00  0.00     0.008 C 
ATOM     10  C   UNL     1     111.677 107.616 129.172  1.00  0.00     0.008 C 
ENDBRANCH   5   8
TORSDOF 1
ENDMDL
MODEL 7
REMARK VINA RESULT:    -4.708      1.653      4.453
REMARK INTER + INTRA:          -5.181
REMARK INTER:                  -4.982
REMARK INTRA:                  -0.199
REMARK UNBOUND:                -0.198
REMARK SMILES CC1=CC[C@H](C(C)C)C=C1
REMARK SMILES IDX 1 1 2 2 3 3 4 4 5 5 9 6 10 7 6 8 7 9 8 10
REMARK H PARENT
REMARK Flexibility Score: inf
ROOT
ATOM      1  C   UNL     1     109.559 107.316 127.481  1.00  0.00     0.044 C 
ATOM      2  C   UNL     1     108.514 108.375 127.671  1.00  0.00    -0.055 C 
ATOM      3  C   UNL     1     108.233 108.838 128.897  1.00  0.00    -0.023 C 
ATOM      4  C   UNL     1     107.142 109.856 129.102  1.00  0.00     0.035 C 
ATOM      5  C   UNL     1     107.083 110.859 127.920  1.00  0.00     0.018 C 
ATOM      6  C   UNL     1     107.118 110.086 126.611  1.00  0.00    -0.023 C 
ATOM      7  C   UNL     1     107.838 108.965 126.495  1.00  0.00    -0.001 C 
ENDROOT
BRANCH   5   8
ATOM      8  C   UNL     1     105.847 111.811 127.988  1.00  0.00    -0.010 C 
ATOM      9  C   UNL     1     104.898 111.634 126.788  1.00  0.00     0.008 C 
ATOM     10  C   UNL     1     105.043 111.590 129.283  1.00  0.00     0.008 C 
ENDBRANCH   5   8
TORSDOF 1
ENDMDL
MODEL 8
REMARK VINA RESULT:    -4.680      5.795      6.407
REMARK INTER + INTRA:          -5.151
REMARK INTER:                  -4.952
REMARK INTRA:                  -0.199
REMARK UNBOUND:                -0.198
REMARK SMILES CC1=CC[C@H](C(C)C)C=C1
REMARK SMILES IDX 1 1 2 2 3 3 4 4 5 5 9 6 10 7 6 8 7 9 8 10
REMARK H PARENT
REMARK Flexibility Score: inf
ROOT
ATOM      1  C   UNL     1     104.845 109.589 128.411  1.00  0.00     0.044 C 
ATOM      2  C   UNL     1     103.889 108.461 128.158  1.00  0.00    -0.055 C 
ATOM      3  C   UNL     1     103.687 108.010 126.912  1.00  0.00    -0.023 C 
ATOM      4  C   UNL     1     102.684 106.920 126.643  1.00  0.00     0.035 C 
ATOM      5  C   UNL     1     102.656 105.887 127.799  1.00  0.00     0.018 C 
ATOM      6  C   UNL     1     102.586 106.627 129.126  1.00  0.00    -0.023 C 
ATOM      7  C   UNL     1     103.216 107.795 129.294  1.00  0.00    -0.001 C 
ENDROOT
BRANCH   5   8
ATOM      8  C   UNL     1     101.498 104.849 127.663  1.00  0.00    -0.010 C 
ATOM      9  C   UNL     1     100.515 104.901 128.848  1.00  0.00     0.008 C 
ATOM     10  C   UNL     1     100.704 105.066 126.361  1.00  0.00     0.008 C 
ENDBRANCH   5   8
TORSDOF 1
ENDMDL
MODEL 9
REMARK VINA RESULT:    -4.678      7.775      8.745
REMARK INTER + INTRA:          -5.149
REMARK INTER:                  -4.950
REMARK INTRA:                  -0.199
REMARK UNBOUND:                -0.198
REMARK SMILES CC1=CC[C@H](C(C)C)C=C1
REMARK SMILES IDX 1 1 2 2 3 3 4 4 5 5 9 6 10 7 6 8 7 9 8 10
REMARK H PARENT
REMARK Flexibility Score: inf
ROOT
ATOM      1  C   UNL     1     102.794 105.154 127.511  1.00  0.00     0.044 C 
ATOM      2  C   UNL     1     103.869 104.122 127.674  1.00  0.00    -0.055 C 
ATOM      3  C   UNL     1     104.185 103.660 128.893  1.00  0.00    -0.023 C 
ATOM      4  C   UNL     1     105.306 102.670 129.072  1.00  0.00     0.035 C 
ATOM      5  C   UNL     1     105.370 101.676 127.883  1.00  0.00     0.018 C 
ATOM      6  C   UNL     1     105.291 102.455 126.579  1.00  0.00    -0.023 C 
ATOM      7  C   UNL     1     104.540 103.558 126.483  1.00  0.00    -0.001 C 
ENDROOT
BRANCH   5   8
ATOM      8  C   UNL     1     106.631 100.757 127.923  1.00  0.00    -0.010 C 
ATOM      9  C   UNL     1     107.530 100.932 126.683  1.00  0.00     0.008 C 
ATOM     10  C   UNL     1     107.478 101.025 129.181  1.00  0.00     0.008 C 
ENDBRANCH   5   8
TORSDOF 1
ENDMDL
