MODEL 1
REMARK VINA RESULT:    -6.640      0.000      0.000
REMARK INTER + INTRA:          -6.640
REMARK INTER:                  -6.640
REMARK INTRA:                   0.000
REMARK UNBOUND:                 0.000
REMARK SMILES C=C1CCC[C@@]2(C)C=C3OC(=O)C(C)=C3C[C@H]12
REMARK SMILES IDX 14 1 13 2 15 3 16 4 17 5 2 6 1 7 3 8 4 9 5 10 6 11 8 12 9 13
REMARK SMILES IDX 10 14 11 15 12 16 7 17
REMARK H PARENT
REMARK Flexibility Score: inf
ROOT
ATOM      1  C   UNL     1       0.138 -37.815  39.579  1.00  0.00     0.053 C 
ATOM      2  C   UNL     1       0.230 -37.721  41.069  1.00  0.00     0.041 C 
ATOM      3  C   UNL     1       1.287 -37.330  41.774  1.00  0.00     0.005 C 
ATOM      4  C   UNL     1       2.660 -36.954  41.298  1.00  0.00     0.049 C 
ATOM      5  C   UNL     1       3.348 -36.096  42.396  1.00  0.00     0.029 C 
ATOM      6  C   UNL     1       4.790 -35.689  42.122  1.00  0.00    -0.073 C 
ATOM      7  C   UNL     1       5.465 -36.029  41.009  1.00  0.00     0.008 C 
ATOM      8  C   UNL     1       5.431 -34.783  43.150  1.00  0.00     0.031 C 
ATOM      9  C   UNL     1       5.276 -35.364  44.563  1.00  0.00     0.005 C 
ATOM     10  C   UNL     1       3.820 -35.763  44.874  1.00  0.00     0.012 C 
ATOM     11  C   UNL     1       3.229 -36.744  43.825  1.00  0.00    -0.004 C 
ATOM     12  C   UNL     1       1.763 -37.001  44.157  1.00  0.00     0.027 C 
ATOM     13  C   UNL     1       0.916 -37.320  43.180  1.00  0.00     0.131 C 
ATOM     14  O   UNL     1      -0.417 -37.675  43.327  1.00  0.00    -0.423 OA
ATOM     15  C   UNL     1      -0.857 -37.923  42.031  1.00  0.00     0.339 C 
ATOM     16  O   UNL     1      -2.035 -38.266  41.744  1.00  0.00    -0.246 OA
ATOM     17  C   UNL     1       3.965 -38.107  43.894  1.00  0.00     0.016 C 
ENDROOT
TORSDOF 0
ENDMDL
MODEL 2
REMARK VINA RESULT:    -6.444      2.717      5.756
REMARK INTER + INTRA:          -6.444
REMARK INTER:                  -6.444
REMARK INTRA:                   0.000
REMARK UNBOUND:                 0.000
REMARK SMILES C=C1CCC[C@@]2(C)C=C3OC(=O)C(C)=C3C[C@H]12
REMARK SMILES IDX 14 1 13 2 15 3 16 4 17 5 2 6 1 7 3 8 4 9 5 10 6 11 8 12 9 13
REMARK SMILES IDX 10 14 11 15 12 16 7 17
REMARK H PARENT
REMARK Flexibility Score: inf
ROOT
ATOM      1  C   UNL     1       4.806 -35.810  45.030  1.00  0.00     0.053 C 
ATOM      2  C   UNL     1       4.780 -35.731  43.536  1.00  0.00     0.041 C 
ATOM      3  C   UNL     1       3.830 -36.202  42.735  1.00  0.00     0.005 C 
ATOM      4  C   UNL     1       2.595 -36.983  43.082  1.00  0.00     0.049 C 
ATOM      5  C   UNL     1       1.578 -36.846  41.915  1.00  0.00     0.029 C 
ATOM      6  C   UNL     1       0.288 -37.644  42.055  1.00  0.00    -0.073 C 
ATOM      7  C   UNL     1       0.006 -38.433  43.109  1.00  0.00     0.008 C 
ATOM      8  C   UNL     1      -0.738 -37.445  40.962  1.00  0.00     0.031 C 
ATOM      9  C   UNL     1      -0.107 -37.645  39.577  1.00  0.00     0.005 C 
ATOM     10  C   UNL     1       1.188 -36.828  39.401  1.00  0.00     0.012 C 
ATOM     11  C   UNL     1       2.235 -37.118  40.512  1.00  0.00    -0.004 C 
ATOM     12  C   UNL     1       3.434 -36.196  40.315  1.00  0.00     0.027 C 
ATOM     13  C   UNL     1       4.171 -35.845  41.367  1.00  0.00     0.131 C 
ATOM     14  O   UNL     1       5.339 -35.098  41.344  1.00  0.00    -0.423 OA
ATOM     15  C   UNL     1       5.727 -35.015  42.677  1.00  0.00     0.339 C 
ATOM     16  O   UNL     1       6.752 -34.398  43.072  1.00  0.00    -0.246 OA
ATOM     17  C   UNL     1       2.747 -38.576  40.397  1.00  0.00     0.016 C 
ENDROOT
TORSDOF 0
ENDMDL
MODEL 3
REMARK VINA RESULT:    -6.345      4.113      6.913
REMARK INTER + INTRA:          -6.345
REMARK INTER:                  -6.345
REMARK INTRA:                   0.000
REMARK UNBOUND:                 0.000
REMARK SMILES C=C1CCC[C@@]2(C)C=C3OC(=O)C(C)=C3C[C@H]12
REMARK SMILES IDX 14 1 13 2 15 3 16 4 17 5 2 6 1 7 3 8 4 9 5 10 6 11 8 12 9 13
REMARK SMILES IDX 10 14 11 15 12 16 7 17
REMARK H PARENT
REMARK Flexibility Score: inf
ROOT
ATOM      1  C   UNL     1       9.573 -34.580  45.399  1.00  0.00     0.053 C 
ATOM      2  C   UNL     1       8.187 -34.023  45.329  1.00  0.00     0.041 C 
ATOM      3  C   UNL     1       7.083 -34.685  44.999  1.00  0.00     0.005 C 
ATOM      4  C   UNL     1       6.928 -36.109  44.549  1.00  0.00     0.049 C 
ATOM      5  C   UNL     1       5.456 -36.546  44.787  1.00  0.00     0.029 C 
ATOM      6  C   UNL     1       5.088 -37.946  44.310  1.00  0.00    -0.073 C 
ATOM      7  C   UNL     1       5.955 -38.786  43.714  1.00  0.00     0.008 C 
ATOM      8  C   UNL     1       3.680 -38.404  44.618  1.00  0.00     0.031 C 
ATOM      9  C   UNL     1       2.652 -37.367  44.144  1.00  0.00     0.005 C 
ATOM     10  C   UNL     1       2.988 -35.945  44.633  1.00  0.00     0.012 C 
ATOM     11  C   UNL     1       4.422 -35.497  44.235  1.00  0.00    -0.004 C 
ATOM     12  C   UNL     1       4.699 -34.127  44.845  1.00  0.00     0.027 C 
ATOM     13  C   UNL     1       5.953 -33.779  45.132  1.00  0.00     0.131 C 
ATOM     14  O   UNL     1       6.381 -32.544  45.597  1.00  0.00    -0.423 OA
ATOM     15  C   UNL     1       7.759 -32.678  45.728  1.00  0.00     0.339 C 
ATOM     16  O   UNL     1       8.517 -31.761  46.140  1.00  0.00    -0.246 OA
ATOM     17  C   UNL     1       4.528 -35.348  42.696  1.00  0.00     0.016 C 
ENDROOT
TORSDOF 0
ENDMDL
MODEL 4
REMARK VINA RESULT:    -6.095      1.823      2.436
REMARK INTER + INTRA:          -6.095
REMARK INTER:                  -6.095
REMARK INTRA:                   0.000
REMARK UNBOUND:                 0.000
REMARK SMILES C=C1CCC[C@@]2(C)C=C3OC(=O)C(C)=C3C[C@H]12
REMARK SMILES IDX 14 1 13 2 15 3 16 4 17 5 2 6 1 7 3 8 4 9 5 10 6 11 8 12 9 13
REMARK SMILES IDX 10 14 11 15 12 16 7 17
REMARK H PARENT
REMARK Flexibility Score: inf
ROOT
ATOM      1  C   UNL     1       2.830 -37.006  37.567  1.00  0.00     0.053 C 
ATOM      2  C   UNL     1       1.950 -37.327  38.732  1.00  0.00     0.041 C 
ATOM      3  C   UNL     1       2.255 -37.185  40.018  1.00  0.00     0.005 C 
ATOM      4  C   UNL     1       3.547 -36.748  40.645  1.00  0.00     0.049 C 
ATOM      5  C   UNL     1       3.255 -36.251  42.088  1.00  0.00     0.029 C 
ATOM      6  C   UNL     1       4.468 -35.841  42.913  1.00  0.00    -0.073 C 
ATOM      7  C   UNL     1       5.734 -35.891  42.460  1.00  0.00     0.008 C 
ATOM      8  C   UNL     1       4.178 -35.278  44.287  1.00  0.00     0.031 C 
ATOM      9  C   UNL     1       3.256 -36.216  45.079  1.00  0.00     0.005 C 
ATOM     10  C   UNL     1       2.008 -36.627  44.274  1.00  0.00     0.012 C 
ATOM     11  C   UNL     1       2.362 -37.260  42.900  1.00  0.00    -0.004 C 
ATOM     12  C   UNL     1       1.071 -37.539  42.137  1.00  0.00     0.027 C 
ATOM     13  C   UNL     1       1.086 -37.546  40.805  1.00  0.00     0.131 C 
ATOM     14  O   UNL     1       0.029 -37.874  39.969  1.00  0.00    -0.423 OA
ATOM     15  C   UNL     1       0.544 -37.741  38.685  1.00  0.00     0.339 C 
ATOM     16  O   UNL     1      -0.124 -37.945  37.636  1.00  0.00    -0.246 OA
ATOM     17  C   UNL     1       3.081 -38.617  43.106  1.00  0.00     0.016 C 
ENDROOT
TORSDOF 0
ENDMDL
MODEL 5
REMARK VINA RESULT:    -6.003      1.831      3.130
REMARK INTER + INTRA:          -6.003
REMARK INTER:                  -6.003
REMARK INTRA:                   0.000
REMARK UNBOUND:                 0.000
REMARK SMILES C=C1CCC[C@@]2(C)C=C3OC(=O)C(C)=C3C[C@H]12
REMARK SMILES IDX 14 1 13 2 15 3 16 4 17 5 2 6 1 7 3 8 4 9 5 10 6 11 8 12 9 13
REMARK SMILES IDX 10 14 11 15 12 16 7 17
REMARK H PARENT
REMARK Flexibility Score: inf
ROOT
ATOM      1  C   UNL     1      -0.840 -37.966  42.139  1.00  0.00     0.053 C 
ATOM      2  C   UNL     1       0.403 -37.779  41.328  1.00  0.00     0.041 C 
ATOM      3  C   UNL     1       1.640 -37.643  41.795  1.00  0.00     0.005 C 
ATOM      4  C   UNL     1       2.116 -37.568  43.216  1.00  0.00     0.049 C 
ATOM      5  C   UNL     1       3.627 -37.931  43.253  1.00  0.00     0.029 C 
ATOM      6  C   UNL     1       4.307 -37.827  44.612  1.00  0.00    -0.073 C 
ATOM      7  C   UNL     1       3.675 -37.449  45.739  1.00  0.00     0.008 C 
ATOM      8  C   UNL     1       5.755 -38.262  44.665  1.00  0.00     0.031 C 
ATOM      9  C   UNL     1       6.577 -37.558  43.576  1.00  0.00     0.005 C 
ATOM     10  C   UNL     1       5.922 -37.668  42.186  1.00  0.00     0.012 C 
ATOM     11  C   UNL     1       4.457 -37.149  42.170  1.00  0.00    -0.004 C 
ATOM     12  C   UNL     1       3.862 -37.390  40.787  1.00  0.00     0.027 C 
ATOM     13  C   UNL     1       2.546 -37.560  40.661  1.00  0.00     0.131 C 
ATOM     14  O   UNL     1       1.842 -37.693  39.473  1.00  0.00    -0.423 OA
ATOM     15  C   UNL     1       0.516 -37.833  39.867  1.00  0.00     0.339 C 
ATOM     16  O   UNL     1      -0.442 -37.990  39.064  1.00  0.00    -0.246 OA
ATOM     17  C   UNL     1       4.429 -35.620  42.426  1.00  0.00     0.016 C 
ENDROOT
TORSDOF 0
ENDMDL
MODEL 6
REMARK VINA RESULT:    -5.819      4.339      6.343
REMARK INTER + INTRA:          -5.819
REMARK INTER:                  -5.819
REMARK INTRA:                   0.000
REMARK UNBOUND:                 0.000
REMARK SMILES C=C1CCC[C@@]2(C)C=C3OC(=O)C(C)=C3C[C@H]12
REMARK SMILES IDX 14 1 13 2 15 3 16 4 17 5 2 6 1 7 3 8 4 9 5 10 6 11 8 12 9 13
REMARK SMILES IDX 10 14 11 15 12 16 7 17
REMARK H PARENT
REMARK Flexibility Score: inf
ROOT
ATOM      1  C   UNL     1       6.573 -37.895  44.136  1.00  0.00     0.053 C 
ATOM      2  C   UNL     1       6.068 -36.560  44.584  1.00  0.00     0.041 C 
ATOM      3  C   UNL     1       6.731 -35.408  44.541  1.00  0.00     0.005 C 
ATOM      4  C   UNL     1       8.145 -35.140  44.114  1.00  0.00     0.049 C 
ATOM      5  C   UNL     1       8.277 -33.635  43.751  1.00  0.00     0.029 C 
ATOM      6  C   UNL     1       9.673 -33.158  43.371  1.00  0.00    -0.073 C 
ATOM      7  C   UNL     1      10.755 -33.958  43.339  1.00  0.00     0.008 C 
ATOM      8  C   UNL     1       9.786 -31.714  42.935  1.00  0.00     0.031 C 
ATOM      9  C   UNL     1       9.140 -30.779  43.967  1.00  0.00     0.005 C 
ATOM     10  C   UNL     1       7.716 -31.227  44.351  1.00  0.00     0.012 C 
ATOM     11  C   UNL     1       7.664 -32.696  44.854  1.00  0.00    -0.004 C 
ATOM     12  C   UNL     1       6.211 -33.080  45.112  1.00  0.00     0.027 C 
ATOM     13  C   UNL     1       5.841 -34.355  45.005  1.00  0.00     0.131 C 
ATOM     14  O   UNL     1       4.590 -34.879  45.298  1.00  0.00    -0.423 OA
ATOM     15  C   UNL     1       4.712 -36.240  45.039  1.00  0.00     0.339 C 
ATOM     16  O   UNL     1       3.773 -37.067  45.178  1.00  0.00    -0.246 OA
ATOM     17  C   UNL     1       8.423 -32.828  46.199  1.00  0.00     0.016 C 
ENDROOT
TORSDOF 0
ENDMDL
MODEL 7
REMARK VINA RESULT:    -5.810      2.041      3.485
REMARK INTER + INTRA:          -5.810
REMARK INTER:                  -5.810
REMARK INTRA:                   0.000
REMARK UNBOUND:                 0.000
REMARK SMILES C=C1CCC[C@@]2(C)C=C3OC(=O)C(C)=C3C[C@H]12
REMARK SMILES IDX 14 1 13 2 15 3 16 4 17 5 2 6 1 7 3 8 4 9 5 10 6 11 8 12 9 13
REMARK SMILES IDX 10 14 11 15 12 16 7 17
REMARK H PARENT
REMARK Flexibility Score: inf
ROOT
ATOM      1  C   UNL     1       2.521 -36.755  41.259  1.00  0.00     0.053 C 
ATOM      2  C   UNL     1       2.937 -36.526  42.677  1.00  0.00     0.041 C 
ATOM      3  C   UNL     1       4.113 -36.064  43.092  1.00  0.00     0.005 C 
ATOM      4  C   UNL     1       5.336 -35.723  42.292  1.00  0.00     0.049 C 
ATOM      5  C   UNL     1       6.226 -34.765  43.131  1.00  0.00     0.029 C 
ATOM      6  C   UNL     1       7.560 -34.373  42.507  1.00  0.00    -0.073 C 
ATOM      7  C   UNL     1       7.982 -34.808  41.305  1.00  0.00     0.008 C 
ATOM      8  C   UNL     1       8.388 -33.374  43.284  1.00  0.00     0.031 C 
ATOM      9  C   UNL     1       8.565 -33.825  44.741  1.00  0.00     0.005 C 
ATOM     10  C   UNL     1       7.226 -34.204  45.402  1.00  0.00     0.012 C 
ATOM     11  C   UNL     1       6.444 -35.281  44.600  1.00  0.00    -0.004 C 
ATOM     12  C   UNL     1       5.096 -35.517  45.272  1.00  0.00     0.027 C 
ATOM     13  C   UNL     1       4.062 -35.930  44.539  1.00  0.00     0.131 C 
ATOM     14  O   UNL     1       2.805 -36.279  45.009  1.00  0.00    -0.423 OA
ATOM     15  C   UNL     1       2.096 -36.646  43.871  1.00  0.00     0.339 C 
ATOM     16  O   UNL     1       0.894 -37.023  43.885  1.00  0.00    -0.246 OA
ATOM     17  C   UNL     1       7.214 -36.627  44.621  1.00  0.00     0.016 C 
ENDROOT
TORSDOF 0
ENDMDL
MODEL 8
REMARK VINA RESULT:    -5.663      2.126      4.242
REMARK INTER + INTRA:          -5.663
REMARK INTER:                  -5.663
REMARK INTRA:                   0.000
REMARK UNBOUND:                 0.000
REMARK SMILES C=C1CCC[C@@]2(C)C=C3OC(=O)C(C)=C3C[C@H]12
REMARK SMILES IDX 14 1 13 2 15 3 16 4 17 5 2 6 1 7 3 8 4 9 5 10 6 11 8 12 9 13
REMARK SMILES IDX 10 14 11 15 12 16 7 17
REMARK H PARENT
REMARK Flexibility Score: inf
ROOT
ATOM      1  C   UNL     1       0.635 -37.764  43.501  1.00  0.00     0.053 C 
ATOM      2  C   UNL     1       0.327 -37.720  42.038  1.00  0.00     0.041 C 
ATOM      3  C   UNL     1       1.186 -37.472  41.055  1.00  0.00     0.005 C 
ATOM      4  C   UNL     1       2.640 -37.108  41.133  1.00  0.00     0.049 C 
ATOM      5  C   UNL     1       3.306 -37.429  39.766  1.00  0.00     0.029 C 
ATOM      6  C   UNL     1       4.774 -37.046  39.630  1.00  0.00    -0.073 C 
ATOM      7  C   UNL     1       5.490 -36.463  40.609  1.00  0.00     0.008 C 
ATOM      8  C   UNL     1       5.445 -37.435  38.331  1.00  0.00     0.031 C 
ATOM      9  C   UNL     1       4.628 -36.947  37.126  1.00  0.00     0.005 C 
ATOM     10  C   UNL     1       3.143 -37.343  37.228  1.00  0.00     0.012 C 
ATOM     11  C   UNL     1       2.483 -36.863  38.550  1.00  0.00    -0.004 C 
ATOM     12  C   UNL     1       1.051 -37.385  38.607  1.00  0.00     0.027 C 
ATOM     13  C   UNL     1       0.478 -37.600  39.791  1.00  0.00     0.131 C 
ATOM     14  O   UNL     1      -0.837 -37.979  40.014  1.00  0.00    -0.423 OA
ATOM     15  C   UNL     1      -0.947 -38.061  41.397  1.00  0.00     0.339 C 
ATOM     16  O   UNL     1      -2.003 -38.391  41.999  1.00  0.00    -0.246 OA
ATOM     17  C   UNL     1       2.413 -35.315  38.582  1.00  0.00     0.016 C 
ENDROOT
TORSDOF 0
ENDMDL
MODEL 9
REMARK VINA RESULT:    -5.505      3.788      6.737
REMARK INTER + INTRA:          -5.505
REMARK INTER:                  -5.505
REMARK INTRA:                   0.000
REMARK UNBOUND:                 0.000
REMARK SMILES C=C1CCC[C@@]2(C)C=C3OC(=O)C(C)=C3C[C@H]12
REMARK SMILES IDX 14 1 13 2 15 3 16 4 17 5 2 6 1 7 3 8 4 9 5 10 6 11 8 12 9 13
REMARK SMILES IDX 10 14 11 15 12 16 7 17
REMARK H PARENT
REMARK Flexibility Score: inf
ROOT
ATOM      1  C   UNL     1       7.727 -33.257  46.129  1.00  0.00     0.053 C 
ATOM      2  C   UNL     1       7.318 -33.404  44.698  1.00  0.00     0.041 C 
ATOM      3  C   UNL     1       6.389 -34.227  44.220  1.00  0.00     0.005 C 
ATOM      4  C   UNL     1       5.568 -35.255  44.943  1.00  0.00     0.049 C 
ATOM      5  C   UNL     1       4.306 -35.569  44.091  1.00  0.00     0.029 C 
ATOM      6  C   UNL     1       3.389 -36.659  44.631  1.00  0.00    -0.073 C 
ATOM      7  C   UNL     1       3.619 -37.334  45.773  1.00  0.00     0.008 C 
ATOM      8  C   UNL     1       2.119 -36.906  43.849  1.00  0.00     0.031 C 
ATOM      9  C   UNL     1       2.427 -37.124  42.361  1.00  0.00     0.005 C 
ATOM     10  C   UNL     1       3.335 -36.021  41.784  1.00  0.00     0.012 C 
ATOM     11  C   UNL     1       4.656 -35.851  42.584  1.00  0.00    -0.004 C 
ATOM     12  C   UNL     1       5.438 -34.678  42.005  1.00  0.00     0.027 C 
ATOM     13  C   UNL     1       6.267 -33.991  42.790  1.00  0.00     0.131 C 
ATOM     14  O   UNL     1       7.116 -32.967  42.399  1.00  0.00    -0.423 OA
ATOM     15  C   UNL     1       7.770 -32.590  43.566  1.00  0.00     0.339 C 
ATOM     16  O   UNL     1       8.627 -31.668  43.624  1.00  0.00    -0.246 OA
ATOM     17  C   UNL     1       5.538 -37.116  42.432  1.00  0.00     0.016 C 
ENDROOT
TORSDOF 0
ENDMDL
