MODEL 1
REMARK VINA RESULT:     1.814      0.000      0.000
REMARK INTER + INTRA:           2.365
REMARK INTER:                   2.450
REMARK INTRA:                  -0.085
REMARK UNBOUND:                -0.085
REMARK SMILES [NH3+]CCCC[C@H]([NH3+])C(=O)[O-]
REMARK SMILES IDX 4 1 3 2 2 3 1 4 5 8 6 9 7 10 8 14 9 15 10 16
REMARK H PARENT 1 5 1 6 1 7 7 11 7 12 7 13
REMARK Flexibility Score: inf
ROOT
ATOM      1  C   UNL     1      26.157  16.419  35.042  1.00  0.00     0.012 C 
ENDROOT
BRANCH   1   2
ATOM      2  C   UNL     1      25.132  16.162  36.156  1.00  0.00     0.061 C 
BRANCH   2   3
ATOM      3  C   UNL     1      25.436  16.959  37.434  1.00  0.00     0.258 C 
BRANCH   3   4
ATOM      4  N   UNL     1      26.291  16.214  38.361  1.00  0.00    -0.358 N 
ATOM      5  H   UNL     1      27.154  16.762  38.583  1.00  0.00     0.344 HD
ATOM      6  H   UNL     1      25.771  15.995  39.240  1.00  0.00     0.344 HD
ATOM      7  H   UNL     1      26.572  15.312  37.913  1.00  0.00     0.344 HD
ENDBRANCH   3   4
ENDBRANCH   2   3
ENDBRANCH   1   2
BRANCH   1   8
ATOM      8  C   UNL     1      25.730  15.736  33.733  1.00  0.00     0.072 C 
BRANCH   8   9
ATOM      9  C   UNL     1      26.928  15.458  32.800  1.00  0.00     0.227 C 
BRANCH   9  10
ATOM     10  N   UNL     1      26.960  16.433  31.702  1.00  0.00    -0.350 N 
ATOM     11  H   UNL     1      27.947  16.666  31.445  1.00  0.00     0.345 HD
ATOM     12  H   UNL     1      26.462  17.306  31.989  1.00  0.00     0.345 HD
ATOM     13  H   UNL     1      26.471  16.039  30.866  1.00  0.00     0.345 HD
ENDBRANCH   9  10
BRANCH   9  14
ATOM     14  C   UNL     1      26.867  14.059  32.242  1.00  0.00     0.099 C 
ATOM     15  O   UNL     1      26.137  13.191  32.791  1.00  0.00    -0.544 OA
ATOM     16  O   UNL     1      27.610  13.718  31.119  1.00  0.00    -0.544 OA
ENDBRANCH   9  14
ENDBRANCH   8   9
ENDBRANCH   1   8
TORSDOF 7
ENDMDL
MODEL 2
REMARK VINA RESULT:     2.867      1.809      1.966
REMARK INTER + INTRA:           3.788
REMARK INTER:                   3.739
REMARK INTRA:                   0.048
REMARK UNBOUND:                -0.085
REMARK SMILES [NH3+]CCCC[C@H]([NH3+])C(=O)[O-]
REMARK SMILES IDX 4 1 3 2 2 3 1 4 5 8 6 9 7 10 8 14 9 15 10 16
REMARK H PARENT 1 5 1 6 1 7 7 11 7 12 7 13
REMARK Flexibility Score: inf
ROOT
ATOM      1  C   UNL     1      25.743  16.044  34.952  1.00  0.00     0.012 C 
ENDROOT
BRANCH   1   2
ATOM      2  C   UNL     1      24.991  16.128  36.288  1.00  0.00     0.061 C 
BRANCH   2   3
ATOM      3  C   UNL     1      25.716  17.006  37.320  1.00  0.00     0.258 C 
BRANCH   3   4
ATOM      4  N   UNL     1      26.281  16.217  38.417  1.00  0.00    -0.358 N 
ATOM      5  H   UNL     1      26.331  16.790  39.291  1.00  0.00     0.344 HD
ATOM      6  H   UNL     1      25.706  15.361  38.584  1.00  0.00     0.344 HD
ATOM      7  H   UNL     1      27.248  15.917  38.156  1.00  0.00     0.344 HD
ENDBRANCH   3   4
ENDBRANCH   2   3
ENDBRANCH   1   2
BRANCH   1   8
ATOM      8  C   UNL     1      24.931  15.258  33.911  1.00  0.00     0.072 C 
BRANCH   8   9
ATOM      9  C   UNL     1      25.782  14.851  32.690  1.00  0.00     0.227 C 
BRANCH   9  10
ATOM     10  N   UNL     1      26.325  13.499  32.870  1.00  0.00    -0.350 N 
ATOM     11  H   UNL     1      27.227  13.531  33.399  1.00  0.00     0.345 HD
ATOM     12  H   UNL     1      26.487  13.054  31.938  1.00  0.00     0.345 HD
ATOM     13  H   UNL     1      25.640  12.910  33.397  1.00  0.00     0.345 HD
ENDBRANCH   9  10
BRANCH   9  14
ATOM     14  C   UNL     1      26.907  15.830  32.464  1.00  0.00     0.099 C 
ATOM     15  O   UNL     1      28.086  15.521  32.779  1.00  0.00    -0.544 OA
ATOM     16  O   UNL     1      26.652  17.075  31.902  1.00  0.00    -0.544 OA
ENDBRANCH   9  14
ENDBRANCH   8   9
ENDBRANCH   1   8
TORSDOF 7
ENDMDL
MODEL 3
REMARK VINA RESULT:     3.039      3.162      4.944
REMARK INTER + INTRA:           4.020
REMARK INTER:                   4.121
REMARK INTRA:                  -0.102
REMARK UNBOUND:                -0.085
REMARK SMILES [NH3+]CCCC[C@H]([NH3+])C(=O)[O-]
REMARK SMILES IDX 4 1 3 2 2 3 1 4 5 8 6 9 7 10 8 14 9 15 10 16
REMARK H PARENT 1 5 1 6 1 7 7 11 7 12 7 13
REMARK Flexibility Score: inf
ROOT
ATOM      1  C   UNL     1      26.960  17.550  32.119  1.00  0.00     0.012 C 
ENDROOT
BRANCH   1   2
ATOM      2  C   UNL     1      26.937  18.470  30.890  1.00  0.00     0.061 C 
BRANCH   2   3
ATOM      3  C   UNL     1      25.509  18.837  30.453  1.00  0.00     0.258 C 
BRANCH   3   4
ATOM      4  N   UNL     1      25.498  19.823  29.371  1.00  0.00    -0.358 N 
ATOM      5  H   UNL     1      24.855  19.517  28.605  1.00  0.00     0.344 HD
ATOM      6  H   UNL     1      25.203  20.758  29.733  1.00  0.00     0.344 HD
ATOM      7  H   UNL     1      26.465  19.912  28.983  1.00  0.00     0.344 HD
ENDBRANCH   3   4
ENDBRANCH   2   3
ENDBRANCH   1   2
BRANCH   1   8
ATOM      8  C   UNL     1      26.918  16.072  31.700  1.00  0.00     0.072 C 
BRANCH   8   9
ATOM      9  C   UNL     1      26.820  15.123  32.914  1.00  0.00     0.227 C 
BRANCH   9  10
ATOM     10  N   UNL     1      26.692  13.731  32.466  1.00  0.00    -0.350 N 
ATOM     11  H   UNL     1      27.212  13.581  31.571  1.00  0.00     0.345 HD
ATOM     12  H   UNL     1      25.683  13.495  32.322  1.00  0.00     0.345 HD
ATOM     13  H   UNL     1      27.074  13.087  33.196  1.00  0.00     0.345 HD
ENDBRANCH   9  10
BRANCH   9  14
ATOM     14  C   UNL     1      25.652  15.488  33.794  1.00  0.00     0.099 C 
ATOM     15  O   UNL     1      24.476  15.223  33.427  1.00  0.00    -0.544 OA
ATOM     16  O   UNL     1      25.862  16.115  35.017  1.00  0.00    -0.544 OA
ENDBRANCH   9  14
ENDBRANCH   8   9
ENDBRANCH   1   8
TORSDOF 7
ENDMDL
MODEL 4
REMARK VINA RESULT:     3.149      3.415      5.168
REMARK INTER + INTRA:           4.169
REMARK INTER:                   4.273
REMARK INTRA:                  -0.104
REMARK UNBOUND:                -0.085
REMARK SMILES [NH3+]CCCC[C@H]([NH3+])C(=O)[O-]
REMARK SMILES IDX 4 1 3 2 2 3 1 4 5 8 6 9 7 10 8 14 9 15 10 16
REMARK H PARENT 1 5 1 6 1 7 7 11 7 12 7 13
REMARK Flexibility Score: inf
ROOT
ATOM      1  C   UNL     1      26.789  18.266  30.865  1.00  0.00     0.012 C 
ENDROOT
BRANCH   1   2
ATOM      2  C   UNL     1      25.463  18.912  30.440  1.00  0.00     0.061 C 
BRANCH   2   3
ATOM      3  C   UNL     1      25.655  20.022  29.394  1.00  0.00     0.258 C 
BRANCH   3   4
ATOM      4  N   UNL     1      24.388  20.651  29.015  1.00  0.00    -0.358 N 
ATOM      5  H   UNL     1      24.558  21.601  28.612  1.00  0.00     0.344 HD
ATOM      6  H   UNL     1      23.878  20.055  28.325  1.00  0.00     0.344 HD
ATOM      7  H   UNL     1      23.790  20.750  29.868  1.00  0.00     0.344 HD
ENDBRANCH   3   4
ENDBRANCH   2   3
ENDBRANCH   1   2
BRANCH   1   8
ATOM      8  C   UNL     1      26.624  17.482  32.176  1.00  0.00     0.072 C 
BRANCH   8   9
ATOM      9  C   UNL     1      27.180  16.046  32.073  1.00  0.00     0.227 C 
BRANCH   9  10
ATOM     10  N   UNL     1      27.309  15.645  30.667  1.00  0.00    -0.350 N 
ATOM     11  H   UNL     1      28.311  15.471  30.423  1.00  0.00     0.345 HD
ATOM     12  H   UNL     1      26.929  16.397  30.047  1.00  0.00     0.345 HD
ATOM     13  H   UNL     1      26.758  14.773  30.495  1.00  0.00     0.345 HD
ENDBRANCH   9  10
BRANCH   9  14
ATOM     14  C   UNL     1      26.295  15.069  32.806  1.00  0.00     0.099 C 
ATOM     15  O   UNL     1      25.359  15.489  33.537  1.00  0.00    -0.544 OA
ATOM     16  O   UNL     1      26.501  13.701  32.675  1.00  0.00    -0.544 OA
ENDBRANCH   9  14
ENDBRANCH   8   9
ENDBRANCH   1   8
TORSDOF 7
ENDMDL
MODEL 5
REMARK VINA RESULT:     3.341      8.601      9.783
REMARK INTER + INTRA:           4.427
REMARK INTER:                   4.479
REMARK INTRA:                  -0.052
REMARK UNBOUND:                -0.085
REMARK SMILES [NH3+]CCCC[C@H]([NH3+])C(=O)[O-]
REMARK SMILES IDX 4 1 3 2 2 3 1 4 5 8 6 9 7 10 8 14 9 15 10 16
REMARK H PARENT 1 5 1 6 1 7 7 11 7 12 7 13
REMARK Flexibility Score: inf
ROOT
ATOM      1  C   UNL     1      27.405  22.487  28.009  1.00  0.00     0.012 C 
ENDROOT
BRANCH   1   2
ATOM      2  C   UNL     1      28.166  23.799  27.767  1.00  0.00     0.061 C 
BRANCH   2   3
ATOM      3  C   UNL     1      29.122  24.149  28.919  1.00  0.00     0.258 C 
BRANCH   3   4
ATOM      4  N   UNL     1      29.654  25.508  28.803  1.00  0.00    -0.358 N 
ATOM      5  H   UNL     1      30.568  25.501  28.295  1.00  0.00     0.344 HD
ATOM      6  H   UNL     1      28.972  26.124  28.305  1.00  0.00     0.344 HD
ATOM      7  H   UNL     1      29.805  25.896  29.762  1.00  0.00     0.344 HD
ENDBRANCH   3   4
ENDBRANCH   2   3
ENDBRANCH   1   2
BRANCH   1   8
ATOM      8  C   UNL     1      26.422  22.203  26.863  1.00  0.00     0.072 C 
BRANCH   8   9
ATOM      9  C   UNL     1      25.682  20.860  27.047  1.00  0.00     0.227 C 
BRANCH   9  10
ATOM     10  N   UNL     1      24.614  20.723  26.049  1.00  0.00    -0.350 N 
ATOM     11  H   UNL     1      24.988  20.310  25.163  1.00  0.00     0.345 HD
ATOM     12  H   UNL     1      24.197  21.659  25.844  1.00  0.00     0.345 HD
ATOM     13  H   UNL     1      23.858  20.104  26.423  1.00  0.00     0.345 HD
ENDBRANCH   9  10
BRANCH   9  14
ATOM     14  C   UNL     1      25.106  20.746  28.435  1.00  0.00     0.099 C 
ATOM     15  O   UNL     1      24.030  21.335  28.724  1.00  0.00    -0.544 OA
ATOM     16  O   UNL     1      25.751  19.986  29.404  1.00  0.00    -0.544 OA
ENDBRANCH   9  14
ENDBRANCH   8   9
ENDBRANCH   1   8
TORSDOF 7
ENDMDL
MODEL 6
REMARK VINA RESULT:     3.476      3.365      5.387
REMARK INTER + INTRA:           4.610
REMARK INTER:                   4.699
REMARK INTRA:                  -0.089
REMARK UNBOUND:                -0.085
REMARK SMILES [NH3+]CCCC[C@H]([NH3+])C(=O)[O-]
REMARK SMILES IDX 4 1 3 2 2 3 1 4 5 8 6 9 7 10 8 14 9 15 10 16
REMARK H PARENT 1 5 1 6 1 7 7 11 7 12 7 13
REMARK Flexibility Score: inf
ROOT
ATOM      1  C   UNL     1      25.389  15.394  33.716  1.00  0.00     0.012 C 
ENDROOT
BRANCH   1   2
ATOM      2  C   UNL     1      26.588  15.158  32.785  1.00  0.00     0.061 C 
BRANCH   2   3
ATOM      3  C   UNL     1      27.292  16.465  32.385  1.00  0.00     0.258 C 
BRANCH   3   4
ATOM      4  N   UNL     1      26.726  17.047  31.166  1.00  0.00    -0.358 N 
ATOM      5  H   UNL     1      25.728  17.318  31.319  1.00  0.00     0.344 HD
ATOM      6  H   UNL     1      27.281  17.880  30.869  1.00  0.00     0.344 HD
ATOM      7  H   UNL     1      26.768  16.336  30.400  1.00  0.00     0.344 HD
ENDBRANCH   3   4
ENDBRANCH   2   3
ENDBRANCH   1   2
BRANCH   1   8
ATOM      8  C   UNL     1      25.815  16.163  34.976  1.00  0.00     0.072 C 
BRANCH   8   9
ATOM      9  C   UNL     1      24.893  15.871  36.179  1.00  0.00     0.227 C 
BRANCH   9  10
ATOM     10  N   UNL     1      23.489  16.111  35.820  1.00  0.00    -0.350 N 
ATOM     11  H   UNL     1      23.402  16.969  35.227  1.00  0.00     0.345 HD
ATOM     12  H   UNL     1      22.916  16.230  36.686  1.00  0.00     0.345 HD
ATOM     13  H   UNL     1      23.114  15.290  35.292  1.00  0.00     0.345 HD
ENDBRANCH   9  10
BRANCH   9  14
ATOM     14  C   UNL     1      25.269  16.717  37.368  1.00  0.00     0.099 C 
ATOM     15  O   UNL     1      26.262  16.404  38.078  1.00  0.00    -0.544 OA
ATOM     16  O   UNL     1      24.530  17.850  37.687  1.00  0.00    -0.544 OA
ENDBRANCH   9  14
ENDBRANCH   8   9
ENDBRANCH   1   8
TORSDOF 7
ENDMDL
MODEL 7
REMARK VINA RESULT:     3.620      5.155      6.086
REMARK INTER + INTRA:           4.806
REMARK INTER:                   4.892
REMARK INTRA:                  -0.086
REMARK UNBOUND:                -0.085
REMARK SMILES [NH3+]CCCC[C@H]([NH3+])C(=O)[O-]
REMARK SMILES IDX 4 1 3 2 2 3 1 4 5 8 6 9 7 10 8 14 9 15 10 16
REMARK H PARENT 1 5 1 6 1 7 7 11 7 12 7 13
REMARK Flexibility Score: inf
ROOT
ATOM      1  C   UNL     1      26.583  18.267  31.518  1.00  0.00     0.012 C 
ENDROOT
BRANCH   1   2
ATOM      2  C   UNL     1      26.916  16.768  31.530  1.00  0.00     0.061 C 
BRANCH   2   3
ATOM      3  C   UNL     1      26.601  16.104  32.881  1.00  0.00     0.258 C 
BRANCH   3   4
ATOM      4  N   UNL     1      26.628  14.642  32.798  1.00  0.00    -0.358 N 
ATOM      5  H   UNL     1      25.679  14.248  32.990  1.00  0.00     0.344 HD
ATOM      6  H   UNL     1      26.958  14.337  31.854  1.00  0.00     0.344 HD
ATOM      7  H   UNL     1      27.296  14.274  33.513  1.00  0.00     0.344 HD
ENDBRANCH   3   4
ENDBRANCH   2   3
ENDBRANCH   1   2
BRANCH   1   8
ATOM      8  C   UNL     1      26.118  18.715  30.123  1.00  0.00     0.072 C 
BRANCH   8   9
ATOM      9  C   UNL     1      24.827  19.559  30.180  1.00  0.00     0.227 C 
BRANCH   9  10
ATOM     10  N   UNL     1      23.644  18.694  30.084  1.00  0.00    -0.350 N 
ATOM     11  H   UNL     1      22.767  19.262  30.121  1.00  0.00     0.345 HD
ATOM     12  H   UNL     1      23.643  18.005  30.870  1.00  0.00     0.345 HD
ATOM     13  H   UNL     1      23.668  18.160  29.185  1.00  0.00     0.345 HD
ENDBRANCH   9  10
BRANCH   9  14
ATOM     14  C   UNL     1      24.802  20.586  29.078  1.00  0.00     0.099 C 
ATOM     15  O   UNL     1      23.727  21.175  28.785  1.00  0.00    -0.544 OA
ATOM     16  O   UNL     1      25.963  20.896  28.380  1.00  0.00    -0.544 OA
ENDBRANCH   9  14
ENDBRANCH   8   9
ENDBRANCH   1   8
TORSDOF 7
ENDMDL
MODEL 8
REMARK VINA RESULT:     3.685      8.051      9.775
REMARK INTER + INTRA:           4.893
REMARK INTER:                   4.981
REMARK INTRA:                  -0.088
REMARK UNBOUND:                -0.085
REMARK SMILES [NH3+]CCCC[C@H]([NH3+])C(=O)[O-]
REMARK SMILES IDX 4 1 3 2 2 3 1 4 5 8 6 9 7 10 8 14 9 15 10 16
REMARK H PARENT 1 5 1 6 1 7 7 11 7 12 7 13
REMARK Flexibility Score: inf
ROOT
ATOM      1  C   UNL     1      25.937  20.561  27.204  1.00  0.00     0.012 C 
ENDROOT
BRANCH   1   2
ATOM      2  C   UNL     1      25.232  21.052  25.932  1.00  0.00     0.061 C 
BRANCH   2   3
ATOM      3  C   UNL     1      26.010  22.171  25.220  1.00  0.00     0.258 C 
BRANCH   3   4
ATOM      4  N   UNL     1      25.121  23.124  24.552  1.00  0.00    -0.358 N 
ATOM      5  H   UNL     1      25.494  24.097  24.642  1.00  0.00     0.344 HD
ATOM      6  H   UNL     1      25.011  22.875  23.543  1.00  0.00     0.344 HD
ATOM      7  H   UNL     1      24.178  23.083  25.003  1.00  0.00     0.344 HD
ENDBRANCH   3   4
ENDBRANCH   2   3
ENDBRANCH   1   2
BRANCH   1   8
ATOM      8  C   UNL     1      25.559  21.431  28.413  1.00  0.00     0.072 C 
BRANCH   8   9
ATOM      9  C   UNL     1      24.832  20.624  29.510  1.00  0.00     0.227 C 
BRANCH   9  10
ATOM     10  N   UNL     1      25.496  19.331  29.721  1.00  0.00    -0.350 N 
ATOM     11  H   UNL     1      25.566  19.114  30.742  1.00  0.00     0.345 HD
ATOM     12  H   UNL     1      26.456  19.354  29.307  1.00  0.00     0.345 HD
ATOM     13  H   UNL     1      24.955  18.573  29.246  1.00  0.00     0.345 HD
ENDBRANCH   9  10
BRANCH   9  14
ATOM     14  C   UNL     1      23.384  20.404  29.151  1.00  0.00     0.099 C 
ATOM     15  O   UNL     1      22.817  21.160  28.318  1.00  0.00    -0.544 OA
ATOM     16  O   UNL     1      22.667  19.364  29.731  1.00  0.00    -0.544 OA
ENDBRANCH   9  14
ENDBRANCH   8   9
ENDBRANCH   1   8
TORSDOF 7
ENDMDL
