MODEL 1
REMARK VINA RESULT:    -3.390      0.000      0.000
REMARK INTER + INTRA:          -3.911
REMARK INTER:                  -3.687
REMARK INTRA:                  -0.224
REMARK UNBOUND:                -0.224
REMARK SMILES O=C([O-])c1ccccc1O
REMARK SMILES IDX 4 1 9 2 5 3 8 4 6 5 7 6 2 7 1 8 3 9 10 10
REMARK H PARENT 10 11
REMARK Flexibility Score: inf
ROOT
ATOM      1  C   UNL     1      24.170   7.032  16.801  1.00  0.00     0.039 A 
ATOM      2  C   UNL     1      25.252   6.707  15.944  1.00  0.00     0.124 A 
ATOM      3  C   UNL     1      22.873   6.617  16.447  1.00  0.00     0.014 A 
ATOM      4  C   UNL     1      25.005   6.038  14.738  1.00  0.00     0.047 A 
ATOM      5  C   UNL     1      22.646   5.932  15.251  1.00  0.00     0.001 A 
ATOM      6  C   UNL     1      23.709   5.652  14.393  1.00  0.00     0.004 A 
ENDROOT
BRANCH   1   7
ATOM      7  C   UNL     1      24.347   7.826  18.037  1.00  0.00     0.075 C 
ATOM      8  O   UNL     1      23.380   8.476  18.515  1.00  0.00    -0.545 OA
ATOM      9  O   UNL     1      25.592   7.923  18.648  1.00  0.00    -0.545 OA
ENDBRANCH   1   7
BRANCH   2  10
ATOM     10  O   UNL     1      26.580   6.996  16.267  1.00  0.00    -0.507 OA
ATOM     11  H   UNL     1      26.879   7.277  17.191  1.00  0.00     0.293 HD
ENDBRANCH   2  10
TORSDOF 2
ENDMDL
MODEL 2
REMARK VINA RESULT:    -3.340     15.322     16.865
REMARK INTER + INTRA:          -3.857
REMARK INTER:                  -3.611
REMARK INTRA:                  -0.246
REMARK UNBOUND:                -0.224
REMARK SMILES O=C([O-])c1ccccc1O
REMARK SMILES IDX 4 1 9 2 5 3 8 4 6 5 7 6 2 7 1 8 3 9 10 10
REMARK H PARENT 10 11
REMARK Flexibility Score: inf
ROOT
ATOM      1  C   UNL     1      20.823  22.523  19.240  1.00  0.00     0.039 A 
ATOM      2  C   UNL     1      20.301  23.593  18.471  1.00  0.00     0.124 A 
ATOM      3  C   UNL     1      22.159  22.587  19.678  1.00  0.00     0.014 A 
ATOM      4  C   UNL     1      21.135  24.659  18.109  1.00  0.00     0.047 A 
ATOM      5  C   UNL     1      22.972  23.668  19.327  1.00  0.00     0.001 A 
ATOM      6  C   UNL     1      22.464  24.696  18.535  1.00  0.00     0.004 A 
ENDROOT
BRANCH   1   7
ATOM      7  C   UNL     1      20.027  21.319  19.569  1.00  0.00     0.075 C 
ATOM      8  O   UNL     1      20.574  20.185  19.586  1.00  0.00    -0.545 OA
ATOM      9  O   UNL     1      18.659  21.411  19.796  1.00  0.00    -0.545 OA
ENDBRANCH   1   7
BRANCH   2  10
ATOM     10  O   UNL     1      18.961  23.654  18.079  1.00  0.00    -0.507 OA
ATOM     11  H   UNL     1      18.212  23.928  18.699  1.00  0.00     0.293 HD
ENDBRANCH   2  10
TORSDOF 2
ENDMDL
MODEL 3
REMARK VINA RESULT:    -3.337     14.480     16.098
REMARK INTER + INTRA:          -3.854
REMARK INTER:                  -3.601
REMARK INTRA:                  -0.252
REMARK UNBOUND:                -0.224
REMARK SMILES O=C([O-])c1ccccc1O
REMARK SMILES IDX 4 1 9 2 5 3 8 4 6 5 7 6 2 7 1 8 3 9 10 10
REMARK H PARENT 10 11
REMARK Flexibility Score: inf
ROOT
ATOM      1  C   UNL     1      21.743  21.795  19.226  1.00  0.00     0.039 A 
ATOM      2  C   UNL     1      20.463  22.393  19.355  1.00  0.00     0.124 A 
ATOM      3  C   UNL     1      22.885  22.616  19.271  1.00  0.00     0.014 A 
ATOM      4  C   UNL     1      20.356  23.785  19.461  1.00  0.00     0.047 A 
ATOM      5  C   UNL     1      22.762  24.002  19.398  1.00  0.00     0.001 A 
ATOM      6  C   UNL     1      21.499  24.586  19.482  1.00  0.00     0.004 A 
ENDROOT
BRANCH   1   7
ATOM      7  C   UNL     1      21.922  20.342  19.008  1.00  0.00     0.075 C 
ATOM      8  O   UNL     1      22.660  19.930  18.074  1.00  0.00    -0.545 OA
ATOM      9  O   UNL     1      21.230  19.416  19.779  1.00  0.00    -0.545 OA
ENDBRANCH   1   7
BRANCH   2  10
ATOM     10  O   UNL     1      19.286  21.643  19.418  1.00  0.00    -0.507 OA
ATOM     11  H   UNL     1      18.536  21.838  20.067  1.00  0.00     0.293 HD
ENDBRANCH   2  10
TORSDOF 2
ENDMDL
MODEL 4
REMARK VINA RESULT:    -3.313      1.840      3.522
REMARK INTER + INTRA:          -3.827
REMARK INTER:                  -3.598
REMARK INTRA:                  -0.229
REMARK UNBOUND:                -0.224
REMARK SMILES O=C([O-])c1ccccc1O
REMARK SMILES IDX 4 1 9 2 5 3 8 4 6 5 7 6 2 7 1 8 3 9 10 10
REMARK H PARENT 10 11
REMARK Flexibility Score: inf
ROOT
ATOM      1  C   UNL     1      24.480   7.151  17.060  1.00  0.00     0.039 A 
ATOM      2  C   UNL     1      25.854   7.363  17.336  1.00  0.00     0.124 A 
ATOM      3  C   UNL     1      23.520   7.648  17.961  1.00  0.00     0.014 A 
ATOM      4  C   UNL     1      26.233   8.002  18.524  1.00  0.00     0.047 A 
ATOM      5  C   UNL     1      23.913   8.303  19.131  1.00  0.00     0.001 A 
ATOM      6  C   UNL     1      25.267   8.470  19.417  1.00  0.00     0.004 A 
ENDROOT
BRANCH   1   7
ATOM      7  C   UNL     1      24.015   6.393  15.877  1.00  0.00     0.075 C 
ATOM      8  O   UNL     1      22.914   5.782  15.911  1.00  0.00    -0.545 OA
ATOM      9  O   UNL     1      24.811   6.285  14.743  1.00  0.00    -0.545 OA
ENDBRANCH   1   7
BRANCH   2  10
ATOM     10  O   UNL     1      26.866   6.988  16.449  1.00  0.00    -0.507 OA
ATOM     11  H   UNL     1      27.314   6.082  16.467  1.00  0.00     0.293 HD
ENDBRANCH   2  10
TORSDOF 2
ENDMDL
MODEL 5
REMARK VINA RESULT:    -3.157     15.726     17.185
REMARK INTER + INTRA:          -3.659
REMARK INTER:                  -3.422
REMARK INTRA:                  -0.236
REMARK UNBOUND:                -0.224
REMARK SMILES O=C([O-])c1ccccc1O
REMARK SMILES IDX 4 1 9 2 5 3 8 4 6 5 7 6 2 7 1 8 3 9 10 10
REMARK H PARENT 10 11
REMARK Flexibility Score: inf
ROOT
ATOM      1  C   UNL     1      20.575  23.442  18.729  1.00  0.00     0.039 A 
ATOM      2  C   UNL     1      20.338  22.226  19.419  1.00  0.00     0.124 A 
ATOM      3  C   UNL     1      21.886  23.952  18.679  1.00  0.00     0.014 A 
ATOM      4  C   UNL     1      21.393  21.592  20.089  1.00  0.00     0.047 A 
ATOM      5  C   UNL     1      22.931  23.296  19.334  1.00  0.00     0.001 A 
ATOM      6  C   UNL     1      22.683  22.124  20.046  1.00  0.00     0.004 A 
ENDROOT
BRANCH   1   7
ATOM      7  C   UNL     1      19.488  24.216  18.089  1.00  0.00     0.075 C 
ATOM      8  O   UNL     1      19.759  25.080  17.213  1.00  0.00    -0.545 OA
ATOM      9  O   UNL     1      18.168  24.054  18.490  1.00  0.00    -0.545 OA
ENDBRANCH   1   7
BRANCH   2  10
ATOM     10  O   UNL     1      19.089  21.602  19.436  1.00  0.00    -0.507 OA
ATOM     11  H   UNL     1      18.958  20.615  19.264  1.00  0.00     0.293 HD
ENDBRANCH   2  10
TORSDOF 2
ENDMDL
MODEL 6
REMARK VINA RESULT:    -3.149      1.070      1.313
REMARK INTER + INTRA:          -3.649
REMARK INTER:                  -3.413
REMARK INTRA:                  -0.236
REMARK UNBOUND:                -0.224
REMARK SMILES O=C([O-])c1ccccc1O
REMARK SMILES IDX 4 1 9 2 5 3 8 4 6 5 7 6 2 7 1 8 3 9 10 10
REMARK H PARENT 10 11
REMARK Flexibility Score: inf
ROOT
ATOM      1  C   UNL     1      24.664   7.530  17.687  1.00  0.00     0.039 A 
ATOM      2  C   UNL     1      25.375   6.953  16.605  1.00  0.00     0.124 A 
ATOM      3  C   UNL     1      23.262   7.410  17.722  1.00  0.00     0.014 A 
ATOM      4  C   UNL     1      24.672   6.333  15.565  1.00  0.00     0.047 A 
ATOM      5  C   UNL     1      22.576   6.769  16.687  1.00  0.00     0.001 A 
ATOM      6  C   UNL     1      23.279   6.241  15.605  1.00  0.00     0.004 A 
ENDROOT
BRANCH   1   7
ATOM      7  C   UNL     1      25.337   8.289  18.765  1.00  0.00     0.075 C 
ATOM      8  O   UNL     1      24.750   8.482  19.863  1.00  0.00    -0.545 OA
ATOM      9  O   UNL     1      26.589   8.856  18.561  1.00  0.00    -0.545 OA
ENDBRANCH   1   7
BRANCH   2  10
ATOM     10  O   UNL     1      26.771   6.943  16.543  1.00  0.00    -0.507 OA
ATOM     11  H   UNL     1      27.330   6.123  16.734  1.00  0.00     0.293 HD
ENDBRANCH   2  10
TORSDOF 2
ENDMDL
MODEL 7
REMARK VINA RESULT:    -3.093      5.375      6.598
REMARK INTER + INTRA:          -3.588
REMARK INTER:                  -3.390
REMARK INTRA:                  -0.199
REMARK UNBOUND:                -0.224
REMARK SMILES O=C([O-])c1ccccc1O
REMARK SMILES IDX 4 1 9 2 5 3 8 4 6 5 7 6 2 7 1 8 3 9 10 10
REMARK H PARENT 10 11
REMARK Flexibility Score: inf
ROOT
ATOM      1  C   UNL     1      20.453  11.294  17.008  1.00  0.00     0.039 A 
ATOM      2  C   UNL     1      19.080  11.313  16.653  1.00  0.00     0.124 A 
ATOM      3  C   UNL     1      21.061  10.061  17.310  1.00  0.00     0.014 A 
ATOM      4  C   UNL     1      18.343  10.122  16.671  1.00  0.00     0.047 A 
ATOM      5  C   UNL     1      20.317   8.879  17.302  1.00  0.00     0.001 A 
ATOM      6  C   UNL     1      18.958   8.911  16.994  1.00  0.00     0.004 A 
ENDROOT
BRANCH   1   7
ATOM      7  C   UNL     1      21.264  12.528  17.109  1.00  0.00     0.075 C 
ATOM      8  O   UNL     1      21.692  12.912  18.230  1.00  0.00    -0.545 OA
ATOM      9  O   UNL     1      21.506  13.315  15.990  1.00  0.00    -0.545 OA
ENDBRANCH   1   7
BRANCH   2  10
ATOM     10  O   UNL     1      18.425  12.478  16.247  1.00  0.00    -0.507 OA
ATOM     11  H   UNL     1      18.658  13.397  16.594  1.00  0.00     0.293 HD
ENDBRANCH   2  10
TORSDOF 2
ENDMDL
MODEL 8
REMARK VINA RESULT:    -3.017     15.501     16.734
REMARK INTER + INTRA:          -3.506
REMARK INTER:                  -3.259
REMARK INTRA:                  -0.247
REMARK UNBOUND:                -0.224
REMARK SMILES O=C([O-])c1ccccc1O
REMARK SMILES IDX 4 1 9 2 5 3 8 4 6 5 7 6 2 7 1 8 3 9 10 10
REMARK H PARENT 10 11
REMARK Flexibility Score: inf
ROOT
ATOM      1  C   UNL     1      21.623  23.093  18.889  1.00  0.00     0.039 A 
ATOM      2  C   UNL     1      20.311  22.599  19.102  1.00  0.00     0.124 A 
ATOM      3  C   UNL     1      22.720  22.270  19.204  1.00  0.00     0.014 A 
ATOM      4  C   UNL     1      20.131  21.335  19.679  1.00  0.00     0.047 A 
ATOM      5  C   UNL     1      22.524  21.003  19.759  1.00  0.00     0.001 A 
ATOM      6  C   UNL     1      21.232  20.541  20.006  1.00  0.00     0.004 A 
ENDROOT
BRANCH   1   7
ATOM      7  C   UNL     1      21.885  24.458  18.380  1.00  0.00     0.075 C 
ATOM      8  O   UNL     1      22.854  25.125  18.829  1.00  0.00    -0.545 OA
ATOM      9  O   UNL     1      21.031  25.049  17.456  1.00  0.00    -0.545 OA
ENDBRANCH   1   7
BRANCH   2  10
ATOM     10  O   UNL     1      19.170  23.311  18.727  1.00  0.00    -0.507 OA
ATOM     11  H   UNL     1      18.505  22.976  18.044  1.00  0.00     0.293 HD
ENDBRANCH   2  10
TORSDOF 2
ENDMDL
MODEL 9
REMARK VINA RESULT:    -2.963     14.946     16.278
REMARK INTER + INTRA:          -3.447
REMARK INTER:                  -3.195
REMARK INTRA:                  -0.253
REMARK UNBOUND:                -0.224
REMARK SMILES O=C([O-])c1ccccc1O
REMARK SMILES IDX 4 1 9 2 5 3 8 4 6 5 7 6 2 7 1 8 3 9 10 10
REMARK H PARENT 10 11
REMARK Flexibility Score: inf
ROOT
ATOM      1  C   UNL     1      20.868  22.683  19.390  1.00  0.00     0.039 A 
ATOM      2  C   UNL     1      22.257  22.462  19.207  1.00  0.00     0.124 A 
ATOM      3  C   UNL     1      20.030  21.579  19.634  1.00  0.00     0.014 A 
ATOM      4  C   UNL     1      22.757  21.153  19.210  1.00  0.00     0.047 A 
ATOM      5  C   UNL     1      20.547  20.282  19.655  1.00  0.00     0.001 A 
ATOM      6  C   UNL     1      21.907  20.069  19.432  1.00  0.00     0.004 A 
ENDROOT
BRANCH   1   7
ATOM      7  C   UNL     1      20.259  24.028  19.296  1.00  0.00     0.075 C 
ATOM      8  O   UNL     1      19.244  24.213  18.574  1.00  0.00    -0.545 OA
ATOM      9  O   UNL     1      20.834  25.116  19.942  1.00  0.00    -0.545 OA
ENDBRANCH   1   7
BRANCH   2  10
ATOM     10  O   UNL     1      23.171  23.507  19.057  1.00  0.00    -0.507 OA
ATOM     11  H   UNL     1      23.943  23.667  19.690  1.00  0.00     0.293 HD
ENDBRANCH   2  10
TORSDOF 2
ENDMDL
