MODEL 1
REMARK VINA RESULT:    -5.385      0.000      0.000
REMARK INTER + INTRA:          -8.309
REMARK INTER:                  -7.274
REMARK INTRA:                  -1.035
REMARK UNBOUND:                -1.035
REMARK SMILES O=c1c(-c2ccc(O)cc2)coc2c([C@H]3O[C@H](CO)[C@H](O)[C@H](O)[C@@H]3O)c(O)ccc12
REMARK SMILES IDX 3 1 11 2 12 3 13 4 30 5 2 6 1 7 29 8 28 9 26 10 14 11 4 12
REMARK SMILES IDX 5 13 6 14 7 15 10 16 9 17 8 18 15 20 24 21 16 22 22 23 17 24
REMARK SMILES IDX 20 25 25 26 23 28 18 30 19 31 21 33 27 35
REMARK H PARENT 8 19 25 27 23 29 19 32 21 34 27 36
REMARK Flexibility Score: inf
ROOT
ATOM      1  C   UNL     1      22.825  30.161  21.475  1.00  0.00     0.065 A 
ATOM      2  C   UNL     1      22.524  29.060  22.288  1.00  0.00     0.208 A 
ATOM      3  O   UNL     1      22.705  29.114  23.602  1.00  0.00    -0.463 OA
ATOM      4  C   UNL     1      23.172  30.189  24.231  1.00  0.00     0.147 A 
ATOM      5  C   UNL     1      23.494  31.350  23.486  1.00  0.00     0.066 A 
ATOM      6  C   UNL     1      23.310  31.328  22.092  1.00  0.00     0.200 A 
ATOM      7  O   UNL     1      23.559  32.355  21.402  1.00  0.00    -0.288 OA
ATOM      8  C   UNL     1      23.971  32.489  24.151  1.00  0.00     0.020 A 
ATOM      9  C   UNL     1      24.124  32.482  25.536  1.00  0.00     0.047 A 
ATOM     10  C   UNL     1      23.809  31.341  26.283  1.00  0.00     0.125 A 
ATOM     11  C   UNL     1      23.343  30.173  25.636  1.00  0.00     0.069 A 
ENDROOT
BRANCH   1  12
ATOM     12  C   UNL     1      22.622  30.074  20.007  1.00  0.00    -0.011 A 
ATOM     13  C   UNL     1      23.668  29.661  19.161  1.00  0.00     0.013 A 
ATOM     14  C   UNL     1      23.467  29.572  17.781  1.00  0.00     0.047 A 
ATOM     15  C   UNL     1      22.219  29.890  17.228  1.00  0.00     0.115 A 
ATOM     16  C   UNL     1      21.370  30.384  19.444  1.00  0.00     0.013 A 
ATOM     17  C   UNL     1      21.174  30.295  18.063  1.00  0.00     0.047 A 
BRANCH  15  18
ATOM     18  O   UNL     1      22.009  29.806  15.853  1.00  0.00    -0.508 OA
ATOM     19  H   UNL     1      22.216  30.582  15.237  1.00  0.00     0.293 HD
ENDBRANCH  15  18
ENDBRANCH   1  12
BRANCH  11  20
ATOM     20  C   UNL     1      22.976  28.935  26.443  1.00  0.00     0.188 C 
ATOM     21  C   UNL     1      21.812  29.259  27.413  1.00  0.00     0.179 C 
ATOM     22  O   UNL     1      24.125  28.486  27.148  1.00  0.00    -0.362 OA
ATOM     23  C   UNL     1      21.449  28.025  28.252  1.00  0.00     0.177 C 
ATOM     24  C   UNL     1      23.890  27.301  27.900  1.00  0.00     0.176 C 
ATOM     25  C   UNL     1      22.723  27.466  28.913  1.00  0.00     0.177 C 
BRANCH  21  26
ATOM     26  O   UNL     1      20.683  29.749  26.729  1.00  0.00    -0.387 OA
ATOM     27  H   UNL     1      20.916  29.827  25.767  1.00  0.00     0.211 HD
ENDBRANCH  21  26
BRANCH  23  28
ATOM     28  O   UNL     1      20.832  27.051  27.447  1.00  0.00    -0.387 OA
ATOM     29  H   UNL     1      19.963  27.428  27.150  1.00  0.00     0.211 HD
ENDBRANCH  23  28
BRANCH  24  30
ATOM     30  C   UNL     1      23.798  26.046  27.007  1.00  0.00     0.191 C 
BRANCH  30  31
ATOM     31  O   UNL     1      24.124  24.910  27.759  1.00  0.00    -0.394 OA
ATOM     32  H   UNL     1      23.710  24.139  27.289  1.00  0.00     0.210 HD
ENDBRANCH  30  31
ENDBRANCH  24  30
BRANCH  25  33
ATOM     33  O   UNL     1      22.436  26.252  29.560  1.00  0.00    -0.388 OA
ATOM     34  H   UNL     1      23.201  26.062  30.165  1.00  0.00     0.211 HD
ENDBRANCH  25  33
ENDBRANCH  11  20
BRANCH  10  35
ATOM     35  O   UNL     1      23.955  31.369  27.670  1.00  0.00    -0.507 OA
ATOM     36  H   UNL     1      24.362  32.165  28.147  1.00  0.00     0.293 HD
ENDBRANCH  10  35
TORSDOF 9
ENDMDL
MODEL 2
REMARK VINA RESULT:    -5.341      2.356      4.195
REMARK INTER + INTRA:          -8.250
REMARK INTER:                  -7.890
REMARK INTRA:                  -0.360
REMARK UNBOUND:                -1.035
REMARK SMILES O=c1c(-c2ccc(O)cc2)coc2c([C@H]3O[C@H](CO)[C@H](O)[C@H](O)[C@@H]3O)c(O)ccc12
REMARK SMILES IDX 3 1 11 2 12 3 13 4 30 5 2 6 1 7 29 8 28 9 26 10 14 11 4 12
REMARK SMILES IDX 5 13 6 14 7 15 10 16 9 17 8 18 15 20 24 21 16 22 22 23 17 24
REMARK SMILES IDX 20 25 25 26 23 28 18 30 19 31 21 33 27 35
REMARK H PARENT 8 19 25 27 23 29 19 32 21 34 27 36
REMARK Flexibility Score: inf
ROOT
ATOM      1  C   UNL     1      23.272  28.109  19.793  1.00  0.00     0.065 A 
ATOM      2  C   UNL     1      22.869  28.950  20.838  1.00  0.00     0.208 A 
ATOM      3  O   UNL     1      22.880  28.528  22.097  1.00  0.00    -0.463 OA
ATOM      4  C   UNL     1      23.268  27.305  22.451  1.00  0.00     0.147 A 
ATOM      5  C   UNL     1      23.700  26.393  21.459  1.00  0.00     0.066 A 
ATOM      6  C   UNL     1      23.703  26.810  20.116  1.00  0.00     0.200 A 
ATOM      7  O   UNL     1      24.110  26.032  19.209  1.00  0.00    -0.288 OA
ATOM      8  C   UNL     1      24.124  25.110  21.835  1.00  0.00     0.020 A 
ATOM      9  C   UNL     1      24.125  24.736  23.177  1.00  0.00     0.047 A 
ATOM     10  C   UNL     1      23.701  25.629  24.167  1.00  0.00     0.125 A 
ATOM     11  C   UNL     1      23.252  26.923  23.814  1.00  0.00     0.069 A 
ENDROOT
BRANCH   1  12
ATOM     12  C   UNL     1      23.242  28.602  18.393  1.00  0.00    -0.011 A 
ATOM     13  C   UNL     1      22.320  28.079  17.468  1.00  0.00     0.013 A 
ATOM     14  C   UNL     1      22.290  28.554  16.153  1.00  0.00     0.047 A 
ATOM     15  C   UNL     1      23.177  29.560  15.747  1.00  0.00     0.115 A 
ATOM     16  C   UNL     1      24.124  29.617  17.978  1.00  0.00     0.013 A 
ATOM     17  C   UNL     1      24.092  30.088  16.663  1.00  0.00     0.047 A 
BRANCH  15  18
ATOM     18  O   UNL     1      23.156  30.040  14.440  1.00  0.00    -0.508 OA
ATOM     19  H   UNL     1      23.451  30.983  14.216  1.00  0.00     0.293 HD
ENDBRANCH  15  18
ENDBRANCH   1  12
BRANCH  11  20
ATOM     20  C   UNL     1      22.811  27.908  24.887  1.00  0.00     0.188 C 
ATOM     21  C   UNL     1      21.534  28.657  24.429  1.00  0.00     0.179 C 
ATOM     22  O   UNL     1      23.873  28.814  25.148  1.00  0.00    -0.362 OA
ATOM     23  C   UNL     1      21.092  29.673  25.493  1.00  0.00     0.177 C 
ATOM     24  C   UNL     1      23.568  29.750  26.176  1.00  0.00     0.176 C 
ATOM     25  C   UNL     1      22.286  30.571  25.866  1.00  0.00     0.177 C 
BRANCH  21  26
ATOM     26  O   UNL     1      20.487  27.766  24.123  1.00  0.00    -0.387 OA
ATOM     27  H   UNL     1      20.303  27.831  23.150  1.00  0.00     0.211 HD
ENDBRANCH  21  26
BRANCH  23  28
ATOM     28  O   UNL     1      20.591  29.008  26.625  1.00  0.00    -0.387 OA
ATOM     29  H   UNL     1      19.800  28.485  26.330  1.00  0.00     0.211 HD
ENDBRANCH  23  28
BRANCH  24  30
ATOM     30  C   UNL     1      23.604  29.114  27.581  1.00  0.00     0.191 C 
BRANCH  30  31
ATOM     31  O   UNL     1      23.699  30.121  28.550  1.00  0.00    -0.394 OA
ATOM     32  H   UNL     1      22.786  30.232  28.924  1.00  0.00     0.210 HD
ENDBRANCH  30  31
ENDBRANCH  24  30
BRANCH  25  33
ATOM     33  O   UNL     1      21.942  31.405  26.943  1.00  0.00    -0.388 OA
ATOM     34  H   UNL     1      22.357  31.010  27.755  1.00  0.00     0.211 HD
ENDBRANCH  25  33
ENDBRANCH  11  20
BRANCH  10  35
ATOM     35  O   UNL     1      23.729  25.233  25.505  1.00  0.00    -0.507 OA
ATOM     36  H   UNL     1      24.048  24.311  25.781  1.00  0.00     0.293 HD
ENDBRANCH  10  35
TORSDOF 9
ENDMDL
MODEL 3
REMARK VINA RESULT:    -5.263      2.280      4.512
REMARK INTER + INTRA:          -8.144
REMARK INTER:                  -7.155
REMARK INTRA:                  -0.988
REMARK UNBOUND:                -1.035
REMARK SMILES O=c1c(-c2ccc(O)cc2)coc2c([C@H]3O[C@H](CO)[C@H](O)[C@H](O)[C@@H]3O)c(O)ccc12
REMARK SMILES IDX 3 1 11 2 12 3 13 4 30 5 2 6 1 7 29 8 28 9 26 10 14 11 4 12
REMARK SMILES IDX 5 13 6 14 7 15 10 16 9 17 8 18 15 20 24 21 16 22 22 23 17 24
REMARK SMILES IDX 20 25 25 26 23 28 18 30 19 31 21 33 27 35
REMARK H PARENT 8 19 25 27 23 29 19 32 21 34 27 36
REMARK Flexibility Score: inf
ROOT
ATOM      1  C   UNL     1      22.506  29.259  22.980  1.00  0.00     0.065 A 
ATOM      2  C   UNL     1      22.262  30.386  23.776  1.00  0.00     0.208 A 
ATOM      3  O   UNL     1      22.074  30.268  25.085  1.00  0.00    -0.463 OA
ATOM      4  C   UNL     1      22.105  29.101  25.724  1.00  0.00     0.147 A 
ATOM      5  C   UNL     1      22.354  27.913  24.997  1.00  0.00     0.066 A 
ATOM      6  C   UNL     1      22.560  28.002  23.609  1.00  0.00     0.200 A 
ATOM      7  O   UNL     1      22.814  26.965  22.935  1.00  0.00    -0.288 OA
ATOM      8  C   UNL     1      22.402  26.684  25.673  1.00  0.00     0.020 A 
ATOM      9  C   UNL     1      22.211  26.635  27.053  1.00  0.00     0.047 A 
ATOM     10  C   UNL     1      21.964  27.803  27.782  1.00  0.00     0.125 A 
ATOM     11  C   UNL     1      21.893  29.052  27.122  1.00  0.00     0.069 A 
ENDROOT
BRANCH   1  12
ATOM     12  C   UNL     1      22.704  29.415  21.517  1.00  0.00    -0.011 A 
ATOM     13  C   UNL     1      21.686  29.952  20.708  1.00  0.00     0.013 A 
ATOM     14  C   UNL     1      21.882  30.106  19.333  1.00  0.00     0.047 A 
ATOM     15  C   UNL     1      23.098  29.729  18.748  1.00  0.00     0.115 A 
ATOM     16  C   UNL     1      23.925  29.047  20.922  1.00  0.00     0.013 A 
ATOM     17  C   UNL     1      24.117  29.200  19.546  1.00  0.00     0.047 A 
BRANCH  15  18
ATOM     18  O   UNL     1      23.304  29.877  17.378  1.00  0.00    -0.508 OA
ATOM     19  H   UNL     1      23.806  29.182  16.840  1.00  0.00     0.293 HD
ENDBRANCH  15  18
ENDBRANCH   1  12
BRANCH  11  20
ATOM     20  C   UNL     1      21.648  30.331  27.911  1.00  0.00     0.188 C 
ATOM     21  C   UNL     1      22.954  30.779  28.615  1.00  0.00     0.179 C 
ATOM     22  O   UNL     1      20.609  30.102  28.852  1.00  0.00    -0.362 OA
ATOM     23  C   UNL     1      22.714  32.055  29.435  1.00  0.00     0.177 C 
ATOM     24  C   UNL     1      20.277  31.260  29.609  1.00  0.00     0.176 C 
ATOM     25  C   UNL     1      21.504  31.844  30.363  1.00  0.00     0.177 C 
BRANCH  21  26
ATOM     26  O   UNL     1      24.005  30.965  27.696  1.00  0.00    -0.387 OA
ATOM     27  H   UNL     1      23.782  30.465  26.869  1.00  0.00     0.211 HD
ENDBRANCH  21  26
BRANCH  23  28
ATOM     28  O   UNL     1      22.508  33.153  28.582  1.00  0.00    -0.387 OA
ATOM     29  H   UNL     1      22.597  33.973  29.135  1.00  0.00     0.211 HD
ENDBRANCH  23  28
BRANCH  24  30
ATOM     30  C   UNL     1      19.472  32.290  28.789  1.00  0.00     0.191 C 
BRANCH  30  31
ATOM     31  O   UNL     1      18.585  32.972  29.632  1.00  0.00    -0.394 OA
ATOM     32  H   UNL     1      17.688  32.890  29.213  1.00  0.00     0.210 HD
ENDBRANCH  30  31
ENDBRANCH  24  30
BRANCH  25  33
ATOM     33  O   UNL     1      21.178  33.048  31.010  1.00  0.00    -0.388 OA
ATOM     34  H   UNL     1      20.520  32.823  31.720  1.00  0.00     0.211 HD
ENDBRANCH  25  33
ENDBRANCH  11  20
BRANCH  10  35
ATOM     35  O   UNL     1      21.794  27.724  29.165  1.00  0.00    -0.507 OA
ATOM     36  H   UNL     1      20.880  27.808  29.595  1.00  0.00     0.293 HD
ENDBRANCH  10  35
TORSDOF 9
ENDMDL
MODEL 4
REMARK VINA RESULT:    -4.941      1.795      3.825
REMARK INTER + INTRA:          -7.709
REMARK INTER:                  -6.889
REMARK INTRA:                  -0.820
REMARK UNBOUND:                -1.035
REMARK SMILES O=c1c(-c2ccc(O)cc2)coc2c([C@H]3O[C@H](CO)[C@H](O)[C@H](O)[C@@H]3O)c(O)ccc12
REMARK SMILES IDX 3 1 11 2 12 3 13 4 30 5 2 6 1 7 29 8 28 9 26 10 14 11 4 12
REMARK SMILES IDX 5 13 6 14 7 15 10 16 9 17 8 18 15 20 24 21 16 22 22 23 17 24
REMARK SMILES IDX 20 25 25 26 23 28 18 30 19 31 21 33 27 35
REMARK H PARENT 8 19 25 27 23 29 19 32 21 34 27 36
REMARK Flexibility Score: inf
ROOT
ATOM      1  C   UNL     1      22.763  29.059  21.354  1.00  0.00     0.065 A 
ATOM      2  C   UNL     1      22.376  30.013  22.305  1.00  0.00     0.208 A 
ATOM      3  O   UNL     1      22.356  29.716  23.598  1.00  0.00    -0.463 OA
ATOM      4  C   UNL     1      22.694  28.521  24.078  1.00  0.00     0.147 A 
ATOM      5  C   UNL     1      23.105  27.501  23.187  1.00  0.00     0.066 A 
ATOM      6  C   UNL     1      23.142  27.783  21.810  1.00  0.00     0.200 A 
ATOM      7  O   UNL     1      23.532  26.906  20.991  1.00  0.00    -0.288 OA
ATOM      8  C   UNL     1      23.477  26.247  23.694  1.00  0.00     0.020 A 
ATOM      9  C   UNL     1      23.446  26.008  25.066  1.00  0.00     0.047 A 
ATOM     10  C   UNL     1      23.041  27.008  25.957  1.00  0.00     0.125 A 
ATOM     11  C   UNL     1      22.644  28.276  25.471  1.00  0.00     0.069 A 
ENDROOT
BRANCH   1  12
ATOM     12  C   UNL     1      22.770  29.412  19.911  1.00  0.00    -0.011 A 
ATOM     13  C   UNL     1      21.594  29.850  19.275  1.00  0.00     0.013 A 
ATOM     14  C   UNL     1      21.609  30.190  17.919  1.00  0.00     0.047 A 
ATOM     15  C   UNL     1      22.798  30.102  17.183  1.00  0.00     0.115 A 
ATOM     16  C   UNL     1      23.961  29.334  19.167  1.00  0.00     0.013 A 
ATOM     17  C   UNL     1      23.972  29.674  17.811  1.00  0.00     0.047 A 
BRANCH  15  18
ATOM     18  O   UNL     1      22.824  30.438  15.832  1.00  0.00    -0.508 OA
ATOM     19  H   UNL     1      23.697  30.580  15.337  1.00  0.00     0.293 HD
ENDBRANCH  15  18
ENDBRANCH   1  12
BRANCH  11  20
ATOM     20  C   UNL     1      22.225  29.377  26.434  1.00  0.00     0.188 C 
ATOM     21  C   UNL     1      23.460  30.212  26.857  1.00  0.00     0.179 C 
ATOM     22  O   UNL     1      21.590  28.789  27.561  1.00  0.00    -0.362 OA
ATOM     23  C   UNL     1      23.054  31.311  27.850  1.00  0.00     0.177 C 
ATOM     24  C   UNL     1      21.120  29.749  28.500  1.00  0.00     0.176 C 
ATOM     25  C   UNL     1      22.254  30.684  29.006  1.00  0.00     0.177 C 
BRANCH  21  26
ATOM     26  O   UNL     1      24.125  30.762  25.745  1.00  0.00    -0.387 OA
ATOM     27  H   UNL     1      24.792  31.417  26.080  1.00  0.00     0.211 HD
ENDBRANCH  21  26
BRANCH  23  28
ATOM     28  O   UNL     1      22.302  32.304  27.199  1.00  0.00    -0.387 OA
ATOM     29  H   UNL     1      21.655  31.838  26.607  1.00  0.00     0.211 HD
ENDBRANCH  23  28
BRANCH  24  30
ATOM     30  C   UNL     1      19.851  30.478  28.013  1.00  0.00     0.191 C 
BRANCH  30  31
ATOM     31  O   UNL     1      19.008  30.732  29.103  1.00  0.00    -0.394 OA
ATOM     32  H   UNL     1      19.392  31.520  29.571  1.00  0.00     0.210 HD
ENDBRANCH  30  31
ENDBRANCH  24  30
BRANCH  25  33
ATOM     33  O   UNL     1      21.747  31.692  29.843  1.00  0.00    -0.388 OA
ATOM     34  H   UNL     1      22.477  32.355  29.968  1.00  0.00     0.211 HD
ENDBRANCH  25  33
ENDBRANCH  11  20
BRANCH  10  35
ATOM     35  O   UNL     1      23.037  26.745  27.327  1.00  0.00    -0.507 OA
ATOM     36  H   UNL     1      23.194  27.476  28.011  1.00  0.00     0.293 HD
ENDBRANCH  10  35
TORSDOF 9
ENDMDL
MODEL 5
REMARK VINA RESULT:    -4.780      2.228      4.189
REMARK INTER + INTRA:          -7.491
REMARK INTER:                  -7.104
REMARK INTRA:                  -0.387
REMARK UNBOUND:                -1.035
REMARK SMILES O=c1c(-c2ccc(O)cc2)coc2c([C@H]3O[C@H](CO)[C@H](O)[C@H](O)[C@@H]3O)c(O)ccc12
REMARK SMILES IDX 3 1 11 2 12 3 13 4 30 5 2 6 1 7 29 8 28 9 26 10 14 11 4 12
REMARK SMILES IDX 5 13 6 14 7 15 10 16 9 17 8 18 15 20 24 21 16 22 22 23 17 24
REMARK SMILES IDX 20 25 25 26 23 28 18 30 19 31 21 33 27 35
REMARK H PARENT 8 19 25 27 23 29 19 32 21 34 27 36
REMARK Flexibility Score: inf
ROOT
ATOM      1  C   UNL     1      22.962  28.792  19.453  1.00  0.00     0.065 A 
ATOM      2  C   UNL     1      22.416  29.517  20.520  1.00  0.00     0.208 A 
ATOM      3  O   UNL     1      22.419  29.024  21.752  1.00  0.00    -0.463 OA
ATOM      4  C   UNL     1      22.932  27.835  22.060  1.00  0.00     0.147 A 
ATOM      5  C   UNL     1      23.513  27.039  21.044  1.00  0.00     0.066 A 
ATOM      6  C   UNL     1      23.528  27.533  19.727  1.00  0.00     0.200 A 
ATOM      7  O   UNL     1      24.064  26.863  18.802  1.00  0.00    -0.288 OA
ATOM      8  C   UNL     1      24.067  25.793  21.371  1.00  0.00     0.020 A 
ATOM      9  C   UNL     1      24.050  25.342  22.689  1.00  0.00     0.047 A 
ATOM     10  C   UNL     1      23.480  26.119  23.703  1.00  0.00     0.125 A 
ATOM     11  C   UNL     1      22.898  27.372  23.397  1.00  0.00     0.069 A 
ENDROOT
BRANCH   1  12
ATOM     12  C   UNL     1      22.938  29.361  18.082  1.00  0.00    -0.011 A 
ATOM     13  C   UNL     1      21.751  29.894  17.547  1.00  0.00     0.013 A 
ATOM     14  C   UNL     1      21.737  30.437  16.259  1.00  0.00     0.047 A 
ATOM     15  C   UNL     1      22.909  30.459  15.491  1.00  0.00     0.115 A 
ATOM     16  C   UNL     1      24.111  29.394  17.306  1.00  0.00     0.013 A 
ATOM     17  C   UNL     1      24.093  29.937  16.018  1.00  0.00     0.047 A 
BRANCH  15  18
ATOM     18  O   UNL     1      22.905  30.998  14.206  1.00  0.00    -0.508 OA
ATOM     19  H   UNL     1      22.208  30.730  13.521  1.00  0.00     0.293 HD
ENDBRANCH  15  18
ENDBRANCH   1  12
BRANCH  11  20
ATOM     20  C   UNL     1      22.295  28.234  24.497  1.00  0.00     0.188 C 
ATOM     21  C   UNL     1      23.408  29.052  25.201  1.00  0.00     0.179 C 
ATOM     22  O   UNL     1      21.610  27.397  25.419  1.00  0.00    -0.362 OA
ATOM     23  C   UNL     1      22.816  29.908  26.331  1.00  0.00     0.177 C 
ATOM     24  C   UNL     1      20.973  28.122  26.464  1.00  0.00     0.176 C 
ATOM     25  C   UNL     1      21.968  29.015  27.255  1.00  0.00     0.177 C 
BRANCH  21  26
ATOM     26  O   UNL     1      24.124  29.852  24.290  1.00  0.00    -0.387 OA
ATOM     27  H   UNL     1      23.987  29.479  23.380  1.00  0.00     0.211 HD
ENDBRANCH  21  26
BRANCH  23  28
ATOM     28  O   UNL     1      22.045  30.955  25.798  1.00  0.00    -0.387 OA
ATOM     29  H   UNL     1      22.425  31.174  24.907  1.00  0.00     0.211 HD
ENDBRANCH  23  28
BRANCH  24  30
ATOM     30  C   UNL     1      19.696  28.845  25.985  1.00  0.00     0.191 C 
BRANCH  30  31
ATOM     31  O   UNL     1      19.261  28.280  24.779  1.00  0.00    -0.394 OA
ATOM     32  H   UNL     1      18.371  28.679  24.593  1.00  0.00     0.210 HD
ENDBRANCH  30  31
ENDBRANCH  24  30
BRANCH  25  33
ATOM     33  O   UNL     1      21.299  29.805  28.205  1.00  0.00    -0.388 OA
ATOM     34  H   UNL     1      21.439  30.753  27.939  1.00  0.00     0.211 HD
ENDBRANCH  25  33
ENDBRANCH  11  20
BRANCH  10  35
ATOM     35  O   UNL     1      23.493  25.649  25.017  1.00  0.00    -0.507 OA
ATOM     36  H   UNL     1      22.878  26.031  25.725  1.00  0.00     0.293 HD
ENDBRANCH  10  35
TORSDOF 9
ENDMDL
MODEL 6
REMARK VINA RESULT:    -4.368      2.060      4.203
REMARK INTER + INTRA:          -6.935
REMARK INTER:                  -6.542
REMARK INTRA:                  -0.393
REMARK UNBOUND:                -1.035
REMARK SMILES O=c1c(-c2ccc(O)cc2)coc2c([C@H]3O[C@H](CO)[C@H](O)[C@H](O)[C@@H]3O)c(O)ccc12
REMARK SMILES IDX 3 1 11 2 12 3 13 4 30 5 2 6 1 7 29 8 28 9 26 10 14 11 4 12
REMARK SMILES IDX 5 13 6 14 7 15 10 16 9 17 8 18 15 20 24 21 16 22 22 23 17 24
REMARK SMILES IDX 20 25 25 26 23 28 18 30 19 31 21 33 27 35
REMARK H PARENT 8 19 25 27 23 29 19 32 21 34 27 36
REMARK Flexibility Score: inf
ROOT
ATOM      1  C   UNL     1      22.689  28.996  23.124  1.00  0.00     0.065 A 
ATOM      2  C   UNL     1      22.608  30.112  23.966  1.00  0.00     0.208 A 
ATOM      3  O   UNL     1      22.484  29.967  25.280  1.00  0.00    -0.463 OA
ATOM      4  C   UNL     1      22.431  28.780  25.880  1.00  0.00     0.147 A 
ATOM      5  C   UNL     1      22.515  27.600  25.105  1.00  0.00     0.066 A 
ATOM      6  C   UNL     1      22.651  27.718  23.710  1.00  0.00     0.200 A 
ATOM      7  O   UNL     1      22.758  26.686  22.991  1.00  0.00    -0.288 OA
ATOM      8  C   UNL     1      22.475  26.349  25.739  1.00  0.00     0.020 A 
ATOM      9  C   UNL     1      22.358  26.269  27.125  1.00  0.00     0.047 A 
ATOM     10  C   UNL     1      22.274  27.429  27.903  1.00  0.00     0.125 A 
ATOM     11  C   UNL     1      22.294  28.702  27.287  1.00  0.00     0.069 A 
ENDROOT
BRANCH   1  12
ATOM     12  C   UNL     1      22.820  29.184  21.656  1.00  0.00    -0.011 A 
ATOM     13  C   UNL     1      23.944  28.693  20.967  1.00  0.00     0.013 A 
ATOM     14  C   UNL     1      24.056  28.865  19.585  1.00  0.00     0.047 A 
ATOM     15  C   UNL     1      23.047  29.526  18.872  1.00  0.00     0.115 A 
ATOM     16  C   UNL     1      21.808  29.840  20.932  1.00  0.00     0.013 A 
ATOM     17  C   UNL     1      21.925  30.012  19.550  1.00  0.00     0.047 A 
BRANCH  15  18
ATOM     18  O   UNL     1      23.150  29.704  17.494  1.00  0.00    -0.508 OA
ATOM     19  H   UNL     1      23.672  29.059  16.914  1.00  0.00     0.293 HD
ENDBRANCH  15  18
ENDBRANCH   1  12
BRANCH  11  20
ATOM     20  C   UNL     1      22.227  29.969  28.128  1.00  0.00     0.188 C 
ATOM     21  C   UNL     1      21.027  30.841  27.679  1.00  0.00     0.179 C 
ATOM     22  O   UNL     1      23.453  30.675  28.000  1.00  0.00    -0.362 OA
ATOM     23  C   UNL     1      20.963  32.136  28.503  1.00  0.00     0.177 C 
ATOM     24  C   UNL     1      23.501  31.857  28.791  1.00  0.00     0.176 C 
ATOM     25  C   UNL     1      22.336  32.832  28.466  1.00  0.00     0.177 C 
BRANCH  21  26
ATOM     26  O   UNL     1      19.810  30.137  27.758  1.00  0.00    -0.387 OA
ATOM     27  H   UNL     1      19.396  30.138  26.855  1.00  0.00     0.211 HD
ENDBRANCH  21  26
BRANCH  23  28
ATOM     28  O   UNL     1      20.577  31.855  29.826  1.00  0.00    -0.387 OA
ATOM     29  H   UNL     1      20.937  30.957  30.049  1.00  0.00     0.211 HD
ENDBRANCH  23  28
BRANCH  24  30
ATOM     30  C   UNL     1      23.691  31.554  30.292  1.00  0.00     0.191 C 
BRANCH  30  31
ATOM     31  O   UNL     1      24.121  32.712  30.953  1.00  0.00    -0.394 OA
ATOM     32  H   UNL     1      23.824  32.618  31.896  1.00  0.00     0.210 HD
ENDBRANCH  30  31
ENDBRANCH  24  30
BRANCH  25  33
ATOM     33  O   UNL     1      22.339  33.936  29.335  1.00  0.00    -0.388 OA
ATOM     34  H   UNL     1      23.277  34.061  29.636  1.00  0.00     0.211 HD
ENDBRANCH  25  33
ENDBRANCH  11  20
BRANCH  10  35
ATOM     35  O   UNL     1      22.175  27.318  29.291  1.00  0.00    -0.507 OA
ATOM     36  H   UNL     1      22.270  26.426  29.762  1.00  0.00     0.293 HD
ENDBRANCH  10  35
TORSDOF 9
ENDMDL
MODEL 7
REMARK VINA RESULT:    -3.847      3.661      8.249
REMARK INTER + INTRA:          -6.232
REMARK INTER:                  -6.581
REMARK INTRA:                   0.350
REMARK UNBOUND:                -1.035
REMARK SMILES O=c1c(-c2ccc(O)cc2)coc2c([C@H]3O[C@H](CO)[C@H](O)[C@H](O)[C@@H]3O)c(O)ccc12
REMARK SMILES IDX 3 1 11 2 12 3 13 4 30 5 2 6 1 7 29 8 28 9 26 10 14 11 4 12
REMARK SMILES IDX 5 13 6 14 7 15 10 16 9 17 8 18 15 20 24 21 16 22 22 23 17 24
REMARK SMILES IDX 20 25 25 26 23 28 18 30 19 31 21 33 27 35
REMARK H PARENT 8 19 25 27 23 29 19 32 21 34 27 36
REMARK Flexibility Score: inf
ROOT
ATOM      1  C   UNL     1      20.135  31.367  29.064  1.00  0.00     0.065 A 
ATOM      2  C   UNL     1      20.408  31.305  27.692  1.00  0.00     0.208 A 
ATOM      3  O   UNL     1      21.117  30.305  27.182  1.00  0.00    -0.463 OA
ATOM      4  C   UNL     1      21.608  29.310  27.917  1.00  0.00     0.147 A 
ATOM      5  C   UNL     1      21.371  29.289  29.313  1.00  0.00     0.066 A 
ATOM      6  C   UNL     1      20.621  30.332  29.885  1.00  0.00     0.200 A 
ATOM      7  O   UNL     1      20.366  30.329  31.121  1.00  0.00    -0.288 OA
ATOM      8  C   UNL     1      21.875  28.232  30.085  1.00  0.00     0.020 A 
ATOM      9  C   UNL     1      22.599  27.206  29.483  1.00  0.00     0.047 A 
ATOM     10  C   UNL     1      22.839  27.215  28.105  1.00  0.00     0.125 A 
ATOM     11  C   UNL     1      22.358  28.278  27.305  1.00  0.00     0.069 A 
ENDROOT
BRANCH   1  12
ATOM     12  C   UNL     1      19.347  32.500  29.612  1.00  0.00    -0.011 A 
ATOM     13  C   UNL     1      19.897  33.350  30.589  1.00  0.00     0.013 A 
ATOM     14  C   UNL     1      19.153  34.421  31.094  1.00  0.00     0.047 A 
ATOM     15  C   UNL     1      17.854  34.659  30.626  1.00  0.00     0.115 A 
ATOM     16  C   UNL     1      18.045  32.751  29.143  1.00  0.00     0.013 A 
ATOM     17  C   UNL     1      17.304  33.822  29.651  1.00  0.00     0.047 A 
BRANCH  15  18
ATOM     18  O   UNL     1      17.104  35.723  31.123  1.00  0.00    -0.508 OA
ATOM     19  H   UNL     1      17.295  36.127  32.032  1.00  0.00     0.293 HD
ENDBRANCH  15  18
ENDBRANCH   1  12
BRANCH  11  20
ATOM     20  C   UNL     1      22.595  28.284  25.801  1.00  0.00     0.188 C 
ATOM     21  C   UNL     1      22.589  29.739  25.268  1.00  0.00     0.179 C 
ATOM     22  O   UNL     1      21.592  27.500  25.172  1.00  0.00    -0.362 OA
ATOM     23  C   UNL     1      22.802  29.757  23.747  1.00  0.00     0.177 C 
ATOM     24  C   UNL     1      21.758  27.409  23.762  1.00  0.00     0.176 C 
ATOM     25  C   UNL     1      21.793  28.805  23.080  1.00  0.00     0.177 C 
BRANCH  21  26
ATOM     26  O   UNL     1      23.550  30.538  25.917  1.00  0.00    -0.387 OA
ATOM     27  H   UNL     1      23.585  31.414  25.452  1.00  0.00     0.211 HD
ENDBRANCH  21  26
BRANCH  23  28
ATOM     28  O   UNL     1      24.123  29.389  23.434  1.00  0.00    -0.387 OA
ATOM     29  H   UNL     1      24.080  28.506  22.982  1.00  0.00     0.211 HD
ENDBRANCH  23  28
BRANCH  24  30
ATOM     30  C   UNL     1      22.913  26.467  23.365  1.00  0.00     0.191 C 
BRANCH  30  31
ATOM     31  O   UNL     1      22.399  25.206  23.034  1.00  0.00    -0.394 OA
ATOM     32  H   UNL     1      22.922  24.547  23.561  1.00  0.00     0.210 HD
ENDBRANCH  30  31
ENDBRANCH  24  30
BRANCH  25  33
ATOM     33  O   UNL     1      22.071  28.694  21.707  1.00  0.00    -0.388 OA
ATOM     34  H   UNL     1      22.896  29.222  21.538  1.00  0.00     0.211 HD
ENDBRANCH  25  33
ENDBRANCH  11  20
BRANCH  10  35
ATOM     35  O   UNL     1      23.553  26.164  27.526  1.00  0.00    -0.507 OA
ATOM     36  H   UNL     1      23.813  26.173  26.547  1.00  0.00     0.293 HD
ENDBRANCH  10  35
TORSDOF 9
ENDMDL
MODEL 8
REMARK VINA RESULT:    -3.690      2.916      5.034
REMARK INTER + INTRA:          -6.018
REMARK INTER:                  -5.851
REMARK INTRA:                  -0.167
REMARK UNBOUND:                -1.035
REMARK SMILES O=c1c(-c2ccc(O)cc2)coc2c([C@H]3O[C@H](CO)[C@H](O)[C@H](O)[C@@H]3O)c(O)ccc12
REMARK SMILES IDX 3 1 11 2 12 3 13 4 30 5 2 6 1 7 29 8 28 9 26 10 14 11 4 12
REMARK SMILES IDX 5 13 6 14 7 15 10 16 9 17 8 18 15 20 24 21 16 22 22 23 17 24
REMARK SMILES IDX 20 25 25 26 23 28 18 30 19 31 21 33 27 35
REMARK H PARENT 8 19 25 27 23 29 19 32 21 34 27 36
REMARK Flexibility Score: inf
ROOT
ATOM      1  C   UNL     1      22.207  29.545  23.761  1.00  0.00     0.065 A 
ATOM      2  C   UNL     1      22.993  30.363  24.583  1.00  0.00     0.208 A 
ATOM      3  O   UNL     1      22.564  30.737  25.782  1.00  0.00    -0.463 OA
ATOM      4  C   UNL     1      21.386  30.371  26.282  1.00  0.00     0.147 A 
ATOM      5  C   UNL     1      20.533  29.536  25.522  1.00  0.00     0.066 A 
ATOM      6  C   UNL     1      20.958  29.119  24.248  1.00  0.00     0.200 A 
ATOM      7  O   UNL     1      20.235  28.351  23.555  1.00  0.00    -0.288 OA
ATOM      8  C   UNL     1      19.298  29.136  26.056  1.00  0.00     0.020 A 
ATOM      9  C   UNL     1      18.916  29.554  27.329  1.00  0.00     0.047 A 
ATOM     10  C   UNL     1      19.751  30.379  28.091  1.00  0.00     0.125 A 
ATOM     11  C   UNL     1      20.994  30.811  27.569  1.00  0.00     0.069 A 
ENDROOT
BRANCH   1  12
ATOM     12  C   UNL     1      22.706  29.147  22.420  1.00  0.00    -0.011 A 
ATOM     13  C   UNL     1      23.447  27.963  22.253  1.00  0.00     0.013 A 
ATOM     14  C   UNL     1      23.906  27.588  20.986  1.00  0.00     0.047 A 
ATOM     15  C   UNL     1      23.626  28.389  19.871  1.00  0.00     0.115 A 
ATOM     16  C   UNL     1      22.423  29.940  21.293  1.00  0.00     0.013 A 
ATOM     17  C   UNL     1      22.884  29.563  20.029  1.00  0.00     0.047 A 
BRANCH  15  18
ATOM     18  O   UNL     1      24.079  28.025  18.605  1.00  0.00    -0.508 OA
ATOM     19  H   UNL     1      24.686  27.227  18.468  1.00  0.00     0.293 HD
ENDBRANCH  15  18
ENDBRANCH   1  12
BRANCH  11  20
ATOM     20  C   UNL     1      21.918  31.689  28.400  1.00  0.00     0.188 C 
ATOM     21  C   UNL     1      21.863  31.260  29.888  1.00  0.00     0.179 C 
ATOM     22  O   UNL     1      21.533  33.047  28.241  1.00  0.00    -0.362 OA
ATOM     23  C   UNL     1      22.773  32.155  30.742  1.00  0.00     0.177 C 
ATOM     24  C   UNL     1      22.373  33.952  28.949  1.00  0.00     0.176 C 
ATOM     25  C   UNL     1      22.437  33.632  30.468  1.00  0.00     0.177 C 
BRANCH  21  26
ATOM     26  O   UNL     1      22.199  29.902  30.053  1.00  0.00    -0.387 OA
ATOM     27  H   UNL     1      22.476  29.545  29.169  1.00  0.00     0.211 HD
ENDBRANCH  21  26
BRANCH  23  28
ATOM     28  O   UNL     1      24.125  31.887  30.461  1.00  0.00    -0.387 OA
ATOM     29  H   UNL     1      24.586  32.763  30.386  1.00  0.00     0.211 HD
ENDBRANCH  23  28
BRANCH  24  30
ATOM     30  C   UNL     1      23.746  34.135  28.269  1.00  0.00     0.191 C 
BRANCH  30  31
ATOM     31  O   UNL     1      23.723  35.285  27.469  1.00  0.00    -0.394 OA
ATOM     32  H   UNL     1      22.934  35.811  27.763  1.00  0.00     0.210 HD
ENDBRANCH  30  31
ENDBRANCH  24  30
BRANCH  25  33
ATOM     33  O   UNL     1      23.358  34.465  31.125  1.00  0.00    -0.388 OA
ATOM     34  H   UNL     1      23.833  33.899  31.790  1.00  0.00     0.211 HD
ENDBRANCH  25  33
ENDBRANCH  11  20
BRANCH  10  35
ATOM     35  O   UNL     1      19.350  30.767  29.369  1.00  0.00    -0.507 OA
ATOM     36  H   UNL     1      20.020  31.041  30.078  1.00  0.00     0.293 HD
ENDBRANCH  10  35
TORSDOF 9
ENDMDL
