MODEL 1
REMARK VINA RESULT:    -5.426      0.000      0.000
REMARK INTER + INTRA:          -9.861
REMARK INTER:                  -9.232
REMARK INTRA:                  -0.630
REMARK UNBOUND:                -0.630
REMARK SMILES CCCCCCCCCCCCCC(=O)[O-]
REMARK SMILES IDX 8 1 9 2 10 3 11 4 12 5 13 6 14 7 15 8 16 9 7 10 6 11 5 12
REMARK SMILES IDX 4 13 3 14 2 15 1 16
REMARK H PARENT
REMARK Flexibility Score: inf
ROOT
ATOM      1  C   UNL     1      56.788 143.646 -29.869  1.00  0.00     0.000 C 
ENDROOT
BRANCH   1   2
ATOM      2  C   UNL     1      56.403 144.180 -28.484  1.00  0.00     0.000 C 
BRANCH   2   3
ATOM      3  C   UNL     1      55.220 143.396 -27.900  1.00  0.00     0.000 C 
BRANCH   3   4
ATOM      4  C   UNL     1      55.513 142.818 -26.505  1.00  0.00     0.000 C 
BRANCH   4   5
ATOM      5  C   UNL     1      56.280 143.790 -25.583  1.00  0.00     0.006 C 
BRANCH   5   6
ATOM      6  C   UNL     1      55.755 143.755 -24.141  1.00  0.00     0.053 C 
BRANCH   6   7
ATOM      7  C   UNL     1      54.381 144.343 -24.070  1.00  0.00     0.041 C 
ATOM      8  O   UNL     1      53.461 143.732 -23.465  1.00  0.00    -0.550 OA
ATOM      9  O   UNL     1      54.103 145.542 -24.714  1.00  0.00    -0.550 OA
ENDBRANCH   6   7
ENDBRANCH   5   6
ENDBRANCH   4   5
ENDBRANCH   3   4
ENDBRANCH   2   3
ENDBRANCH   1   2
BRANCH   1  10
ATOM     10  C   UNL     1      58.245 143.997 -30.207  1.00  0.00     0.000 C 
BRANCH  10  11
ATOM     11  C   UNL     1      58.456 144.280 -31.703  1.00  0.00    -0.000 C 
BRANCH  11  12
ATOM     12  C   UNL     1      59.638 143.491 -32.292  1.00  0.00    -0.000 C 
BRANCH  12  13
ATOM     13  C   UNL     1      60.236 144.155 -33.547  1.00  0.00    -0.000 C 
BRANCH  13  14
ATOM     14  C   UNL     1      59.664 145.543 -33.887  1.00  0.00    -0.000 C 
BRANCH  14  15
ATOM     15  C   UNL     1      60.661 146.682 -33.631  1.00  0.00    -0.003 C 
ATOM     16  C   UNL     1      59.984 147.859 -32.934  1.00  0.00     0.004 C 
ENDBRANCH  14  15
ENDBRANCH  13  14
ENDBRANCH  12  13
ENDBRANCH  11  12
ENDBRANCH  10  11
ENDBRANCH   1  10
TORSDOF 12
ENDMDL
MODEL 2
REMARK VINA RESULT:    -5.034      1.063      2.362
REMARK INTER + INTRA:          -9.195
REMARK INTER:                  -8.424
REMARK INTRA:                  -0.772
REMARK UNBOUND:                -0.630
REMARK SMILES CCCCCCCCCCCCCC(=O)[O-]
REMARK SMILES IDX 8 1 9 2 10 3 11 4 12 5 13 6 14 7 15 8 16 9 7 10 6 11 5 12
REMARK SMILES IDX 4 13 3 14 2 15 1 16
REMARK H PARENT
REMARK Flexibility Score: inf
ROOT
ATOM      1  C   UNL     1      58.491 144.225 -31.774  1.00  0.00     0.000 C 
ENDROOT
BRANCH   1   2
ATOM      2  C   UNL     1      58.448 144.106 -30.246  1.00  0.00     0.000 C 
BRANCH   2   3
ATOM      3  C   UNL     1      57.036 143.755 -29.759  1.00  0.00     0.000 C 
BRANCH   3   4
ATOM      4  C   UNL     1      56.645 144.497 -28.469  1.00  0.00     0.000 C 
BRANCH   4   5
ATOM      5  C   UNL     1      55.874 143.620 -27.461  1.00  0.00     0.006 C 
BRANCH   5   6
ATOM      6  C   UNL     1      56.434 143.744 -26.038  1.00  0.00     0.053 C 
BRANCH   6   7
ATOM      7  C   UNL     1      55.322 143.907 -25.050  1.00  0.00     0.041 C 
ATOM      8  O   UNL     1      54.552 144.901 -25.121  1.00  0.00    -0.550 OA
ATOM      9  O   UNL     1      55.166 142.988 -24.020  1.00  0.00    -0.550 OA
ENDBRANCH   6   7
ENDBRANCH   5   6
ENDBRANCH   4   5
ENDBRANCH   3   4
ENDBRANCH   2   3
ENDBRANCH   1   2
BRANCH   1  10
ATOM     10  C   UNL     1      59.933 144.116 -32.293  1.00  0.00     0.000 C 
BRANCH  10  11
ATOM     11  C   UNL     1      60.005 143.643 -33.754  1.00  0.00    -0.000 C 
BRANCH  11  12
ATOM     12  C   UNL     1      61.219 144.219 -34.502  1.00  0.00    -0.000 C 
BRANCH  12  13
ATOM     13  C   UNL     1      60.939 145.599 -35.125  1.00  0.00    -0.000 C 
BRANCH  13  14
ATOM     14  C   UNL     1      61.370 146.803 -34.268  1.00  0.00    -0.000 C 
BRANCH  14  15
ATOM     15  C   UNL     1      60.207 147.750 -33.936  1.00  0.00    -0.003 C 
ATOM     16  C   UNL     1      58.869 147.142 -34.346  1.00  0.00     0.004 C 
ENDBRANCH  14  15
ENDBRANCH  13  14
ENDBRANCH  12  13
ENDBRANCH  11  12
ENDBRANCH  10  11
ENDBRANCH   1  10
TORSDOF 12
ENDMDL
MODEL 3
REMARK VINA RESULT:    -4.532      4.322      9.086
REMARK INTER + INTRA:          -8.340
REMARK INTER:                  -7.933
REMARK INTRA:                  -0.407
REMARK UNBOUND:                -0.630
REMARK SMILES CCCCCCCCCCCCCC(=O)[O-]
REMARK SMILES IDX 8 1 9 2 10 3 11 4 12 5 13 6 14 7 15 8 16 9 7 10 6 11 5 12
REMARK SMILES IDX 4 13 3 14 2 15 1 16
REMARK H PARENT
REMARK Flexibility Score: inf
ROOT
ATOM      1  C   UNL     1      57.125 143.745 -30.280  1.00  0.00     0.000 C 
ENDROOT
BRANCH   1   2
ATOM      2  C   UNL     1      58.597 143.847 -30.699  1.00  0.00     0.000 C 
BRANCH   2   3
ATOM      3  C   UNL     1      58.730 144.460 -32.099  1.00  0.00     0.000 C 
BRANCH   3   4
ATOM      4  C   UNL     1      60.036 144.059 -32.807  1.00  0.00     0.000 C 
BRANCH   4   5
ATOM      5  C   UNL     1      60.204 144.697 -34.202  1.00  0.00     0.006 C 
BRANCH   5   6
ATOM      6  C   UNL     1      60.996 146.010 -34.146  1.00  0.00     0.053 C 
BRANCH   6   7
ATOM      7  C   UNL     1      60.075 147.183 -34.270  1.00  0.00     0.041 C 
ATOM      8  O   UNL     1      60.475 148.337 -33.964  1.00  0.00    -0.550 OA
ATOM      9  O   UNL     1      58.760 146.995 -34.675  1.00  0.00    -0.550 OA
ENDBRANCH   6   7
ENDBRANCH   5   6
ENDBRANCH   4   5
ENDBRANCH   3   4
ENDBRANCH   2   3
ENDBRANCH   1   2
BRANCH   1  10
ATOM     10  C   UNL     1      56.952 144.094 -28.793  1.00  0.00     0.000 C 
BRANCH  10  11
ATOM     11  C   UNL     1      55.630 143.569 -28.210  1.00  0.00    -0.000 C 
BRANCH  11  12
ATOM     12  C   UNL     1      55.256 144.257 -26.885  1.00  0.00    -0.000 C 
BRANCH  12  13
ATOM     13  C   UNL     1      56.245 143.943 -25.748  1.00  0.00    -0.000 C 
BRANCH  13  14
ATOM     14  C   UNL     1      55.608 143.755 -24.359  1.00  0.00    -0.000 C 
BRANCH  14  15
ATOM     15  C   UNL     1      56.350 142.729 -23.492  1.00  0.00    -0.003 C 
ATOM     16  C   UNL     1      55.666 141.366 -23.545  1.00  0.00     0.004 C 
ENDBRANCH  14  15
ENDBRANCH  13  14
ENDBRANCH  12  13
ENDBRANCH  11  12
ENDBRANCH  10  11
ENDBRANCH   1  10
TORSDOF 12
ENDMDL
MODEL 4
REMARK VINA RESULT:    -4.424      1.849      2.150
REMARK INTER + INTRA:          -8.157
REMARK INTER:                  -7.729
REMARK INTRA:                  -0.428
REMARK UNBOUND:                -0.630
REMARK SMILES CCCCCCCCCCCCCC(=O)[O-]
REMARK SMILES IDX 8 1 9 2 10 3 11 4 12 5 13 6 14 7 15 8 16 9 7 10 6 11 5 12
REMARK SMILES IDX 4 13 3 14 2 15 1 16
REMARK H PARENT
REMARK Flexibility Score: inf
ROOT
ATOM      1  C   UNL     1      57.007 144.427 -28.486  1.00  0.00     0.000 C 
ENDROOT
BRANCH   1   2
ATOM      2  C   UNL     1      55.587 144.287 -27.924  1.00  0.00     0.000 C 
BRANCH   2   3
ATOM      3  C   UNL     1      55.198 142.810 -27.769  1.00  0.00     0.000 C 
BRANCH   3   4
ATOM      4  C   UNL     1      55.190 142.344 -26.303  1.00  0.00     0.000 C 
BRANCH   4   5
ATOM      5  C   UNL     1      55.797 143.370 -25.324  1.00  0.00     0.006 C 
BRANCH   5   6
ATOM      6  C   UNL     1      55.606 142.956 -23.858  1.00  0.00     0.053 C 
BRANCH   6   7
ATOM      7  C   UNL     1      56.927 142.654 -23.224  1.00  0.00     0.041 C 
ATOM      8  O   UNL     1      57.416 141.496 -23.300  1.00  0.00    -0.550 OA
ATOM      9  O   UNL     1      57.595 143.637 -22.505  1.00  0.00    -0.550 OA
ENDBRANCH   6   7
ENDBRANCH   5   6
ENDBRANCH   4   5
ENDBRANCH   3   4
ENDBRANCH   2   3
ENDBRANCH   1   2
BRANCH   1  10
ATOM     10  C   UNL     1      57.108 143.796 -29.884  1.00  0.00     0.000 C 
BRANCH  10  11
ATOM     11  C   UNL     1      58.546 143.788 -30.429  1.00  0.00    -0.000 C 
BRANCH  11  12
ATOM     12  C   UNL     1      58.643 144.381 -31.846  1.00  0.00    -0.000 C 
BRANCH  12  13
ATOM     13  C   UNL     1      59.779 143.759 -32.679  1.00  0.00    -0.000 C 
BRANCH  13  14
ATOM     14  C   UNL     1      60.681 144.769 -33.411  1.00  0.00    -0.000 C 
BRANCH  14  15
ATOM     15  C   UNL     1      60.102 145.224 -34.758  1.00  0.00    -0.003 C 
ATOM     16  C   UNL     1      59.307 146.517 -34.607  1.00  0.00     0.004 C 
ENDBRANCH  14  15
ENDBRANCH  13  14
ENDBRANCH  12  13
ENDBRANCH  11  12
ENDBRANCH  10  11
ENDBRANCH   1  10
TORSDOF 12
ENDMDL
MODEL 5
REMARK VINA RESULT:    -4.260     10.962     12.538
REMARK INTER + INTRA:          -7.878
REMARK INTER:                  -6.636
REMARK INTRA:                  -1.241
REMARK UNBOUND:                -0.630
REMARK SMILES CCCCCCCCCCCCCC(=O)[O-]
REMARK SMILES IDX 8 1 9 2 10 3 11 4 12 5 13 6 14 7 15 8 16 9 7 10 6 11 5 12
REMARK SMILES IDX 4 13 3 14 2 15 1 16
REMARK H PARENT
REMARK Flexibility Score: inf
ROOT
ATOM      1  C   UNL     1      58.470 156.035 -26.656  1.00  0.00     0.000 C 
ENDROOT
BRANCH   1   2
ATOM      2  C   UNL     1      57.481 156.449 -25.559  1.00  0.00     0.000 C 
BRANCH   2   3
ATOM      3  C   UNL     1      58.181 157.269 -24.467  1.00  0.00     0.000 C 
BRANCH   3   4
ATOM      4  C   UNL     1      58.385 156.480 -23.162  1.00  0.00     0.000 C 
BRANCH   4   5
ATOM      5  C   UNL     1      59.846 156.471 -22.667  1.00  0.00     0.006 C 
BRANCH   5   6
ATOM      6  C   UNL     1      60.599 155.208 -23.107  1.00  0.00     0.053 C 
BRANCH   6   7
ATOM      7  C   UNL     1      60.537 154.163 -22.039  1.00  0.00     0.041 C 
ATOM      8  O   UNL     1      59.558 153.374 -21.981  1.00  0.00    -0.550 OA
ATOM      9  O   UNL     1      61.536 154.092 -21.076  1.00  0.00    -0.550 OA
ENDBRANCH   6   7
ENDBRANCH   5   6
ENDBRANCH   4   5
ENDBRANCH   3   4
ENDBRANCH   2   3
ENDBRANCH   1   2
BRANCH   1  10
ATOM     10  C   UNL     1      58.849 157.236 -27.536  1.00  0.00     0.000 C 
BRANCH  10  11
ATOM     11  C   UNL     1      60.368 157.458 -27.616  1.00  0.00    -0.000 C 
BRANCH  11  12
ATOM     12  C   UNL     1      61.132 156.716 -26.506  1.00  0.00    -0.000 C 
BRANCH  12  13
ATOM     13  C   UNL     1      62.177 155.728 -27.056  1.00  0.00    -0.000 C 
BRANCH  13  14
ATOM     14  C   UNL     1      61.734 154.254 -27.077  1.00  0.00    -0.000 C 
BRANCH  14  15
ATOM     15  C   UNL     1      62.736 153.337 -27.795  1.00  0.00    -0.003 C 
ATOM     16  C   UNL     1      62.025 152.165 -28.465  1.00  0.00     0.004 C 
ENDBRANCH  14  15
ENDBRANCH  13  14
ENDBRANCH  12  13
ENDBRANCH  11  12
ENDBRANCH  10  11
ENDBRANCH   1  10
TORSDOF 12
ENDMDL
MODEL 6
REMARK VINA RESULT:    -4.256      4.225      8.910
REMARK INTER + INTRA:          -7.872
REMARK INTER:                  -7.322
REMARK INTRA:                  -0.549
REMARK UNBOUND:                -0.630
REMARK SMILES CCCCCCCCCCCCCC(=O)[O-]
REMARK SMILES IDX 8 1 9 2 10 3 11 4 12 5 13 6 14 7 15 8 16 9 7 10 6 11 5 12
REMARK SMILES IDX 4 13 3 14 2 15 1 16
REMARK H PARENT
REMARK Flexibility Score: inf
ROOT
ATOM      1  C   UNL     1      55.558 144.372 -27.842  1.00  0.00     0.000 C 
ENDROOT
BRANCH   1   2
ATOM      2  C   UNL     1      56.975 144.451 -28.424  1.00  0.00     0.000 C 
BRANCH   2   3
ATOM      3  C   UNL     1      57.048 143.762 -29.793  1.00  0.00     0.000 C 
BRANCH   3   4
ATOM      4  C   UNL     1      58.458 143.797 -30.407  1.00  0.00     0.000 C 
BRANCH   4   5
ATOM      5  C   UNL     1      58.485 144.302 -31.865  1.00  0.00     0.006 C 
BRANCH   5   6
ATOM      6  C   UNL     1      59.744 143.844 -32.614  1.00  0.00     0.053 C 
BRANCH   6   7
ATOM      7  C   UNL     1      60.177 144.887 -33.595  1.00  0.00     0.041 C 
ATOM      8  O   UNL     1      60.846 144.562 -34.611  1.00  0.00    -0.550 OA
ATOM      9  O   UNL     1      59.887 146.225 -33.362  1.00  0.00    -0.550 OA
ENDBRANCH   6   7
ENDBRANCH   5   6
ENDBRANCH   4   5
ENDBRANCH   3   4
ENDBRANCH   2   3
ENDBRANCH   1   2
BRANCH   1  10
ATOM     10  C   UNL     1      55.198 142.926 -27.469  1.00  0.00     0.000 C 
BRANCH  10  11
ATOM     11  C   UNL     1      55.844 142.474 -26.149  1.00  0.00    -0.000 C 
BRANCH  11  12
ATOM     12  C   UNL     1      55.128 143.049 -24.915  1.00  0.00    -0.000 C 
BRANCH  12  13
ATOM     13  C   UNL     1      56.036 143.116 -23.673  1.00  0.00    -0.000 C 
BRANCH  13  14
ATOM     14  C   UNL     1      56.440 141.753 -23.084  1.00  0.00    -0.000 C 
BRANCH  14  15
ATOM     15  C   UNL     1      57.768 141.802 -22.314  1.00  0.00    -0.003 C 
ATOM     16  C   UNL     1      58.413 143.181 -22.418  1.00  0.00     0.004 C 
ENDBRANCH  14  15
ENDBRANCH  13  14
ENDBRANCH  12  13
ENDBRANCH  11  12
ENDBRANCH  10  11
ENDBRANCH   1  10
TORSDOF 12
ENDMDL
MODEL 7
REMARK VINA RESULT:    -4.210     11.450     12.499
REMARK INTER + INTRA:          -7.793
REMARK INTER:                  -7.012
REMARK INTRA:                  -0.781
REMARK UNBOUND:                -0.630
REMARK SMILES CCCCCCCCCCCCCC(=O)[O-]
REMARK SMILES IDX 8 1 9 2 10 3 11 4 12 5 13 6 14 7 15 8 16 9 7 10 6 11 5 12
REMARK SMILES IDX 4 13 3 14 2 15 1 16
REMARK H PARENT
REMARK Flexibility Score: inf
ROOT
ATOM      1  C   UNL     1      49.325 155.185 -27.424  1.00  0.00     0.000 C 
ENDROOT
BRANCH   1   2
ATOM      2  C   UNL     1      50.182 156.444 -27.241  1.00  0.00     0.000 C 
BRANCH   2   3
ATOM      3  C   UNL     1      51.070 156.329 -25.995  1.00  0.00     0.000 C 
BRANCH   3   4
ATOM      4  C   UNL     1      51.992 155.099 -26.027  1.00  0.00     0.000 C 
BRANCH   4   5
ATOM      5  C   UNL     1      52.172 154.425 -24.650  1.00  0.00     0.006 C 
BRANCH   5   6
ATOM      6  C   UNL     1      51.614 152.995 -24.628  1.00  0.00     0.053 C 
BRANCH   6   7
ATOM      7  C   UNL     1      50.489 152.886 -23.648  1.00  0.00     0.041 C 
ATOM      8  O   UNL     1      50.671 152.327 -22.535  1.00  0.00    -0.550 OA
ATOM      9  O   UNL     1      49.227 153.359 -23.982  1.00  0.00    -0.550 OA
ENDBRANCH   6   7
ENDBRANCH   5   6
ENDBRANCH   4   5
ENDBRANCH   3   4
ENDBRANCH   2   3
ENDBRANCH   1   2
BRANCH   1  10
ATOM     10  C   UNL     1      49.126 154.869 -28.915  1.00  0.00     0.000 C 
BRANCH  10  11
ATOM     11  C   UNL     1      49.819 153.566 -29.343  1.00  0.00    -0.000 C 
BRANCH  11  12
ATOM     12  C   UNL     1      49.031 152.806 -30.424  1.00  0.00    -0.000 C 
BRANCH  12  13
ATOM     13  C   UNL     1      48.869 153.613 -31.725  1.00  0.00    -0.000 C 
BRANCH  13  14
ATOM     14  C   UNL     1      50.186 154.056 -32.388  1.00  0.00    -0.000 C 
BRANCH  14  15
ATOM     15  C   UNL     1      50.197 153.835 -33.908  1.00  0.00    -0.003 C 
ATOM     16  C   UNL     1      48.898 153.187 -34.378  1.00  0.00     0.004 C 
ENDBRANCH  14  15
ENDBRANCH  13  14
ENDBRANCH  12  13
ENDBRANCH  11  12
ENDBRANCH  10  11
ENDBRANCH   1  10
TORSDOF 12
ENDMDL
MODEL 8
REMARK VINA RESULT:    -4.112     11.902     13.957
REMARK INTER + INTRA:          -7.627
REMARK INTER:                  -5.689
REMARK INTRA:                  -1.938
REMARK UNBOUND:                -0.630
REMARK SMILES CCCCCCCCCCCCCC(=O)[O-]
REMARK SMILES IDX 8 1 9 2 10 3 11 4 12 5 13 6 14 7 15 8 16 9 7 10 6 11 5 12
REMARK SMILES IDX 4 13 3 14 2 15 1 16
REMARK H PARENT
REMARK Flexibility Score: inf
ROOT
ATOM      1  C   UNL     1      52.931 156.772 -26.200  1.00  0.00     0.000 C 
ENDROOT
BRANCH   1   2
ATOM      2  C   UNL     1      52.449 155.738 -25.176  1.00  0.00     0.000 C 
BRANCH   2   3
ATOM      3  C   UNL     1      52.685 154.309 -25.682  1.00  0.00     0.000 C 
BRANCH   3   4
ATOM      4  C   UNL     1      51.841 153.261 -24.936  1.00  0.00     0.000 C 
BRANCH   4   5
ATOM      5  C   UNL     1      50.917 153.866 -23.858  1.00  0.00     0.006 C 
BRANCH   5   6
ATOM      6  C   UNL     1      50.387 152.803 -22.886  1.00  0.00     0.053 C 
BRANCH   6   7
ATOM      7  C   UNL     1      50.644 153.213 -21.470  1.00  0.00     0.041 C 
ATOM      8  O   UNL     1      51.821 153.429 -21.077  1.00  0.00    -0.550 OA
ATOM      9  O   UNL     1      49.590 153.308 -20.571  1.00  0.00    -0.550 OA
ENDBRANCH   6   7
ENDBRANCH   5   6
ENDBRANCH   4   5
ENDBRANCH   3   4
ENDBRANCH   2   3
ENDBRANCH   1   2
BRANCH   1  10
ATOM     10  C   UNL     1      51.865 157.855 -26.430  1.00  0.00     0.000 C 
BRANCH  10  11
ATOM     11  C   UNL     1      50.873 157.969 -25.261  1.00  0.00    -0.000 C 
BRANCH  11  12
ATOM     12  C   UNL     1      49.413 157.775 -25.706  1.00  0.00    -0.000 C 
BRANCH  12  13
ATOM     13  C   UNL     1      48.770 156.507 -25.115  1.00  0.00    -0.000 C 
BRANCH  13  14
ATOM     14  C   UNL     1      48.397 155.423 -26.143  1.00  0.00    -0.000 C 
BRANCH  14  15
ATOM     15  C   UNL     1      48.883 155.749 -27.562  1.00  0.00    -0.003 C 
ATOM     16  C   UNL     1      49.935 154.745 -28.026  1.00  0.00     0.004 C 
ENDBRANCH  14  15
ENDBRANCH  13  14
ENDBRANCH  12  13
ENDBRANCH  11  12
ENDBRANCH  10  11
ENDBRANCH   1  10
TORSDOF 12
ENDMDL
MODEL 9
REMARK VINA RESULT:    -4.055     11.458     13.410
REMARK INTER + INTRA:          -7.530
REMARK INTER:                  -5.858
REMARK INTRA:                  -1.672
REMARK UNBOUND:                -0.630
REMARK SMILES CCCCCCCCCCCCCC(=O)[O-]
REMARK SMILES IDX 8 1 9 2 10 3 11 4 12 5 13 6 14 7 15 8 16 9 7 10 6 11 5 12
REMARK SMILES IDX 4 13 3 14 2 15 1 16
REMARK H PARENT
REMARK Flexibility Score: inf
ROOT
ATOM      1  C   UNL     1      51.256 156.602 -26.322  1.00  0.00     0.000 C 
ENDROOT
BRANCH   1   2
ATOM      2  C   UNL     1      52.686 156.714 -25.779  1.00  0.00     0.000 C 
BRANCH   2   3
ATOM      3  C   UNL     1      53.195 155.354 -25.283  1.00  0.00     0.000 C 
BRANCH   3   4
ATOM      4  C   UNL     1      52.538 154.167 -26.008  1.00  0.00     0.000 C 
BRANCH   4   5
ATOM      5  C   UNL     1      51.922 153.123 -25.052  1.00  0.00     0.006 C 
BRANCH   5   6
ATOM      6  C   UNL     1      51.602 153.718 -23.674  1.00  0.00     0.053 C 
BRANCH   6   7
ATOM      7  C   UNL     1      50.595 152.872 -22.961  1.00  0.00     0.041 C 
ATOM      8  O   UNL     1      49.770 152.182 -23.616  1.00  0.00    -0.550 OA
ATOM      9  O   UNL     1      50.534 152.884 -21.573  1.00  0.00    -0.550 OA
ENDBRANCH   6   7
ENDBRANCH   5   6
ENDBRANCH   4   5
ENDBRANCH   3   4
ENDBRANCH   2   3
ENDBRANCH   1   2
BRANCH   1  10
ATOM     10  C   UNL     1      50.246 157.213 -25.338  1.00  0.00     0.000 C 
BRANCH  10  11
ATOM     11  C   UNL     1      48.918 156.439 -25.293  1.00  0.00    -0.000 C 
BRANCH  11  12
ATOM     12  C   UNL     1      48.939 155.181 -26.178  1.00  0.00    -0.000 C 
BRANCH  12  13
ATOM     13  C   UNL     1      47.853 155.199 -27.269  1.00  0.00    -0.000 C 
BRANCH  13  14
ATOM     14  C   UNL     1      48.292 154.648 -28.638  1.00  0.00    -0.000 C 
BRANCH  14  15
ATOM     15  C   UNL     1      49.778 154.267 -28.683  1.00  0.00    -0.003 C 
ATOM     16  C   UNL     1      50.046 153.224 -29.764  1.00  0.00     0.004 C 
ENDBRANCH  14  15
ENDBRANCH  13  14
ENDBRANCH  12  13
ENDBRANCH  11  12
ENDBRANCH  10  11
ENDBRANCH   1  10
TORSDOF 12
ENDMDL
