MODEL 1
REMARK VINA RESULT:    -3.374      0.000      0.000
REMARK INTER + INTRA:          -6.491
REMARK INTER:                  -5.150
REMARK INTRA:                  -1.341
REMARK UNBOUND:                -1.341
REMARK SMILES CCCCCCCCCCC(=O)[O-]
REMARK SMILES IDX 7 1 8 2 9 3 10 4 11 5 12 6 13 7 6 8 5 9 4 10 3 11 2 12 1 13
REMARK H PARENT
REMARK Flexibility Score: inf
ROOT
ATOM      1  C   UNL     1       5.369  -2.947  -8.509  1.00  0.00     0.000 C 
ENDROOT
BRANCH   1   2
ATOM      2  C   UNL     1       4.551  -3.263  -7.242  1.00  0.00     0.000 C 
BRANCH   2   3
ATOM      3  C   UNL     1       3.795  -4.604  -7.275  1.00  0.00     0.006 C 
BRANCH   3   4
ATOM      4  C   UNL     1       4.309  -5.551  -8.367  1.00  0.00     0.053 C 
BRANCH   4   5
ATOM      5  C   UNL     1       4.163  -6.976  -7.933  1.00  0.00     0.041 C 
ATOM      6  O   UNL     1       5.088  -7.802  -8.154  1.00  0.00    -0.550 OA
ATOM      7  O   UNL     1       3.028  -7.379  -7.242  1.00  0.00    -0.550 OA
ENDBRANCH   4   5
ENDBRANCH   3   4
ENDBRANCH   2   3
ENDBRANCH   1   2
BRANCH   1   8
ATOM      8  C   UNL     1       6.887  -2.801  -8.288  1.00  0.00     0.000 C 
BRANCH   8   9
ATOM      9  C   UNL     1       7.348  -2.918  -6.821  1.00  0.00    -0.000 C 
BRANCH   9  10
ATOM     10  C   UNL     1       8.303  -4.089  -6.530  1.00  0.00    -0.000 C 
BRANCH  10  11
ATOM     11  C   UNL     1       7.843  -5.407  -7.171  1.00  0.00    -0.000 C 
BRANCH  11  12
ATOM     12  C   UNL     1       7.589  -6.475  -6.101  1.00  0.00    -0.003 C 
ATOM     13  C   UNL     1       6.469  -6.051  -5.154  1.00  0.00     0.004 C 
ENDBRANCH  11  12
ENDBRANCH  10  11
ENDBRANCH   9  10
ENDBRANCH   8   9
ENDBRANCH   1   8
TORSDOF 9
ENDMDL
MODEL 2
REMARK VINA RESULT:    -3.371      3.310      4.650
REMARK INTER + INTRA:          -6.487
REMARK INTER:                  -5.203
REMARK INTRA:                  -1.284
REMARK UNBOUND:                -1.341
REMARK SMILES CCCCCCCCCCC(=O)[O-]
REMARK SMILES IDX 7 1 8 2 9 3 10 4 11 5 12 6 13 7 6 8 5 9 4 10 3 11 2 12 1 13
REMARK H PARENT
REMARK Flexibility Score: inf
ROOT
ATOM      1  C   UNL     1       4.402  -3.538  -6.940  1.00  0.00     0.000 C 
ENDROOT
BRANCH   1   2
ATOM      2  C   UNL     1       5.450  -2.919  -7.884  1.00  0.00     0.000 C 
BRANCH   2   3
ATOM      3  C   UNL     1       6.899  -2.963  -7.364  1.00  0.00     0.006 C 
BRANCH   3   4
ATOM      4  C   UNL     1       7.929  -3.142  -8.486  1.00  0.00     0.053 C 
BRANCH   4   5
ATOM      5  C   UNL     1       8.785  -1.920  -8.608  1.00  0.00     0.041 C 
ATOM      6  O   UNL     1       8.285  -0.834  -9.005  1.00  0.00    -0.550 OA
ATOM      7  O   UNL     1      10.122  -1.968  -8.236  1.00  0.00    -0.550 OA
ENDBRANCH   4   5
ENDBRANCH   3   4
ENDBRANCH   2   3
ENDBRANCH   1   2
BRANCH   1   8
ATOM      8  C   UNL     1       3.494  -4.606  -7.581  1.00  0.00     0.000 C 
BRANCH   8   9
ATOM      9  C   UNL     1       4.236  -5.718  -8.349  1.00  0.00    -0.000 C 
BRANCH   9  10
ATOM     10  C   UNL     1       5.025  -6.703  -7.468  1.00  0.00    -0.000 C 
BRANCH  10  11
ATOM     11  C   UNL     1       6.539  -6.649  -7.720  1.00  0.00    -0.000 C 
BRANCH  11  12
ATOM     12  C   UNL     1       7.310  -6.534  -6.401  1.00  0.00    -0.003 C 
ATOM     13  C   UNL     1       6.398  -6.068  -5.268  1.00  0.00     0.004 C 
ENDBRANCH  11  12
ENDBRANCH  10  11
ENDBRANCH   9  10
ENDBRANCH   8   9
ENDBRANCH   1   8
TORSDOF 9
ENDMDL
MODEL 3
REMARK VINA RESULT:    -3.284      1.300      3.299
REMARK INTER + INTRA:          -6.354
REMARK INTER:                  -5.107
REMARK INTRA:                  -1.247
REMARK UNBOUND:                -1.341
REMARK SMILES CCCCCCCCCCC(=O)[O-]
REMARK SMILES IDX 7 1 8 2 9 3 10 4 11 5 12 6 13 7 6 8 5 9 4 10 3 11 2 12 1 13
REMARK H PARENT
REMARK Flexibility Score: inf
ROOT
ATOM      1  C   UNL     1       7.479  -2.999  -6.749  1.00  0.00     0.000 C 
ENDROOT
BRANCH   1   2
ATOM      2  C   UNL     1       8.290  -4.267  -6.418  1.00  0.00     0.000 C 
BRANCH   2   3
ATOM      3  C   UNL     1       7.444  -5.502  -6.059  1.00  0.00     0.006 C 
BRANCH   3   4
ATOM      4  C   UNL     1       6.725  -6.105  -7.273  1.00  0.00     0.053 C 
BRANCH   4   5
ATOM      5  C   UNL     1       5.915  -7.294  -6.862  1.00  0.00     0.041 C 
ATOM      6  O   UNL     1       5.553  -7.430  -5.663  1.00  0.00    -0.550 OA
ATOM      7  O   UNL     1       5.516  -8.225  -7.812  1.00  0.00    -0.550 OA
ENDBRANCH   4   5
ENDBRANCH   3   4
ENDBRANCH   2   3
ENDBRANCH   1   2
BRANCH   1   8
ATOM      8  C   UNL     1       7.629  -2.486  -8.195  1.00  0.00     0.000 C 
BRANCH   8   9
ATOM      9  C   UNL     1       6.370  -2.631  -9.073  1.00  0.00    -0.000 C 
BRANCH   9  10
ATOM     10  C   UNL     1       5.036  -2.622  -8.304  1.00  0.00    -0.000 C 
BRANCH  10  11
ATOM     11  C   UNL     1       4.111  -3.782  -8.701  1.00  0.00    -0.000 C 
BRANCH  11  12
ATOM     12  C   UNL     1       3.512  -4.453  -7.461  1.00  0.00    -0.003 C 
ATOM     13  C   UNL     1       3.922  -3.721  -6.185  1.00  0.00     0.004 C 
ENDBRANCH  11  12
ENDBRANCH  10  11
ENDBRANCH   9  10
ENDBRANCH   8   9
ENDBRANCH   1   8
TORSDOF 9
ENDMDL
MODEL 4
REMARK VINA RESULT:    -3.266      1.381      3.620
REMARK INTER + INTRA:          -6.326
REMARK INTER:                  -5.179
REMARK INTRA:                  -1.148
REMARK UNBOUND:                -1.341
REMARK SMILES CCCCCCCCCCC(=O)[O-]
REMARK SMILES IDX 7 1 8 2 9 3 10 4 11 5 12 6 13 7 6 8 5 9 4 10 3 11 2 12 1 13
REMARK H PARENT
REMARK Flexibility Score: inf
ROOT
ATOM      1  C   UNL     1       7.524  -2.584  -7.358  1.00  0.00     0.000 C 
ENDROOT
BRANCH   1   2
ATOM      2  C   UNL     1       8.099  -3.823  -6.645  1.00  0.00     0.000 C 
BRANCH   2   3
ATOM      3  C   UNL     1       7.579  -5.174  -7.172  1.00  0.00     0.006 C 
BRANCH   3   4
ATOM      4  C   UNL     1       7.644  -6.288  -6.120  1.00  0.00     0.053 C 
BRANCH   4   5
ATOM      5  C   UNL     1       6.284  -6.551  -5.553  1.00  0.00     0.041 C 
ATOM      6  O   UNL     1       5.746  -5.710  -4.786  1.00  0.00    -0.550 OA
ATOM      7  O   UNL     1       5.592  -7.699  -5.912  1.00  0.00    -0.550 OA
ENDBRANCH   4   5
ENDBRANCH   3   4
ENDBRANCH   2   3
ENDBRANCH   1   2
BRANCH   1   8
ATOM      8  C   UNL     1       6.777  -2.874  -8.675  1.00  0.00     0.000 C 
BRANCH   8   9
ATOM      9  C   UNL     1       5.249  -2.674  -8.616  1.00  0.00    -0.000 C 
BRANCH   9  10
ATOM     10  C   UNL     1       4.600  -3.013  -7.262  1.00  0.00    -0.000 C 
BRANCH  10  11
ATOM     11  C   UNL     1       3.750  -4.291  -7.312  1.00  0.00    -0.000 C 
BRANCH  11  12
ATOM     12  C   UNL     1       3.663  -4.835  -8.742  1.00  0.00    -0.003 C 
ATOM     13  C   UNL     1       4.312  -6.213  -8.847  1.00  0.00     0.004 C 
ENDBRANCH  11  12
ENDBRANCH  10  11
ENDBRANCH   9  10
ENDBRANCH   8   9
ENDBRANCH   1   8
TORSDOF 9
ENDMDL
MODEL 5
REMARK VINA RESULT:    -3.264      3.497      5.123
REMARK INTER + INTRA:          -6.322
REMARK INTER:                  -5.094
REMARK INTRA:                  -1.228
REMARK UNBOUND:                -1.341
REMARK SMILES CCCCCCCCCCC(=O)[O-]
REMARK SMILES IDX 7 1 8 2 9 3 10 4 11 5 12 6 13 7 6 8 5 9 4 10 3 11 2 12 1 13
REMARK H PARENT
REMARK Flexibility Score: inf
ROOT
ATOM      1  C   UNL     1       5.490  -4.475  -6.010  1.00  0.00     0.000 C 
ENDROOT
BRANCH   1   2
ATOM      2  C   UNL     1       6.809  -3.827  -6.473  1.00  0.00     0.000 C 
BRANCH   2   3
ATOM      3  C   UNL     1       6.701  -2.979  -7.754  1.00  0.00     0.006 C 
BRANCH   3   4
ATOM      4  C   UNL     1       7.903  -3.156  -8.689  1.00  0.00     0.053 C 
BRANCH   4   5
ATOM      5  C   UNL     1       8.822  -1.979  -8.586  1.00  0.00     0.041 C 
ATOM      6  O   UNL     1      10.013  -2.137  -8.207  1.00  0.00    -0.550 OA
ATOM      7  O   UNL     1       8.379  -0.716  -8.957  1.00  0.00    -0.550 OA
ENDBRANCH   4   5
ENDBRANCH   3   4
ENDBRANCH   2   3
ENDBRANCH   1   2
BRANCH   1   8
ATOM      8  C   UNL     1       4.209  -3.807  -6.547  1.00  0.00     0.000 C 
BRANCH   8   9
ATOM      9  C   UNL     1       3.369  -4.679  -7.501  1.00  0.00    -0.000 C 
BRANCH   9  10
ATOM     10  C   UNL     1       3.382  -4.229  -8.974  1.00  0.00    -0.000 C 
BRANCH  10  11
ATOM     11  C   UNL     1       4.058  -5.249  -9.902  1.00  0.00    -0.000 C 
BRANCH  11  12
ATOM     12  C   UNL     1       4.627  -6.425  -9.101  1.00  0.00    -0.003 C 
ATOM     13  C   UNL     1       6.149  -6.480  -9.209  1.00  0.00     0.004 C 
ENDBRANCH  11  12
ENDBRANCH  10  11
ENDBRANCH   9  10
ENDBRANCH   8   9
ENDBRANCH   1   8
TORSDOF 9
ENDMDL
MODEL 6
REMARK VINA RESULT:    -3.236      1.691      2.687
REMARK INTER + INTRA:          -6.280
REMARK INTER:                  -5.130
REMARK INTRA:                  -1.150
REMARK UNBOUND:                -1.341
REMARK SMILES CCCCCCCCCCC(=O)[O-]
REMARK SMILES IDX 7 1 8 2 9 3 10 4 11 5 12 6 13 7 6 8 5 9 4 10 3 11 2 12 1 13
REMARK H PARENT
REMARK Flexibility Score: inf
ROOT
ATOM      1  C   UNL     1       7.890  -2.682  -7.243  1.00  0.00     0.000 C 
ENDROOT
BRANCH   1   2
ATOM      2  C   UNL     1       6.957  -2.756  -8.467  1.00  0.00     0.000 C 
BRANCH   2   3
ATOM      3  C   UNL     1       5.712  -3.644  -8.281  1.00  0.00     0.006 C 
BRANCH   3   4
ATOM      4  C   UNL     1       4.618  -2.968  -7.445  1.00  0.00     0.053 C 
BRANCH   4   5
ATOM      5  C   UNL     1       3.849  -3.989  -6.668  1.00  0.00     0.041 C 
ATOM      6  O   UNL     1       3.347  -3.689  -5.552  1.00  0.00    -0.550 OA
ATOM      7  O   UNL     1       3.645  -5.257  -7.197  1.00  0.00    -0.550 OA
ENDBRANCH   4   5
ENDBRANCH   3   4
ENDBRANCH   2   3
ENDBRANCH   1   2
BRANCH   1   8
ATOM      8  C   UNL     1       9.373  -2.991  -7.532  1.00  0.00     0.000 C 
BRANCH   8   9
ATOM      9  C   UNL     1       9.863  -4.365  -7.032  1.00  0.00    -0.000 C 
BRANCH   9  10
ATOM     10  C   UNL     1       9.527  -5.550  -7.955  1.00  0.00    -0.000 C 
BRANCH  10  11
ATOM     11  C   UNL     1       8.328  -6.372  -7.458  1.00  0.00    -0.000 C 
BRANCH  11  12
ATOM     12  C   UNL     1       8.173  -6.249  -5.938  1.00  0.00    -0.003 C 
ATOM     13  C   UNL     1       6.719  -5.993  -5.551  1.00  0.00     0.004 C 
ENDBRANCH  11  12
ENDBRANCH  10  11
ENDBRANCH   9  10
ENDBRANCH   8   9
ENDBRANCH   1   8
TORSDOF 9
ENDMDL
MODEL 7
REMARK VINA RESULT:    -3.177      3.364      5.060
REMARK INTER + INTRA:          -6.189
REMARK INTER:                  -5.050
REMARK INTRA:                  -1.140
REMARK UNBOUND:                -1.341
REMARK SMILES CCCCCCCCCCC(=O)[O-]
REMARK SMILES IDX 7 1 8 2 9 3 10 4 11 5 12 6 13 7 6 8 5 9 4 10 3 11 2 12 1 13
REMARK H PARENT
REMARK Flexibility Score: inf
ROOT
ATOM      1  C   UNL     1       7.435  -4.390  -6.318  1.00  0.00     0.000 C 
ENDROOT
BRANCH   1   2
ATOM      2  C   UNL     1       6.898  -3.080  -6.929  1.00  0.00     0.000 C 
BRANCH   2   3
ATOM      3  C   UNL     1       6.723  -3.102  -8.459  1.00  0.00     0.006 C 
BRANCH   3   4
ATOM      4  C   UNL     1       8.059  -3.068  -9.211  1.00  0.00     0.053 C 
BRANCH   4   5
ATOM      5  C   UNL     1       8.871  -1.888  -8.780  1.00  0.00     0.041 C 
ATOM      6  O   UNL     1      10.007  -2.056  -8.263  1.00  0.00    -0.550 OA
ATOM      7  O   UNL     1       8.395  -0.601  -8.994  1.00  0.00    -0.550 OA
ENDBRANCH   4   5
ENDBRANCH   3   4
ENDBRANCH   2   3
ENDBRANCH   1   2
BRANCH   1   8
ATOM      8  C   UNL     1       6.379  -5.262  -5.611  1.00  0.00     0.000 C 
BRANCH   8   9
ATOM      9  C   UNL     1       6.138  -6.643  -6.253  1.00  0.00    -0.000 C 
BRANCH   9  10
ATOM     10  C   UNL     1       5.830  -6.615  -7.761  1.00  0.00    -0.000 C 
BRANCH  10  11
ATOM     11  C   UNL     1       4.338  -6.810  -8.069  1.00  0.00    -0.000 C 
BRANCH  11  12
ATOM     12  C   UNL     1       3.747  -5.558  -8.727  1.00  0.00    -0.003 C 
ATOM     13  C   UNL     1       3.375  -4.509  -7.681  1.00  0.00     0.004 C 
ENDBRANCH  11  12
ENDBRANCH  10  11
ENDBRANCH   9  10
ENDBRANCH   8   9
ENDBRANCH   1   8
TORSDOF 9
ENDMDL
MODEL 8
REMARK VINA RESULT:    -3.168      1.026      2.818
REMARK INTER + INTRA:          -6.176
REMARK INTER:                  -5.153
REMARK INTRA:                  -1.022
REMARK UNBOUND:                -1.341
REMARK SMILES CCCCCCCCCCC(=O)[O-]
REMARK SMILES IDX 7 1 8 2 9 3 10 4 11 5 12 6 13 7 6 8 5 9 4 10 3 11 2 12 1 13
REMARK H PARENT
REMARK Flexibility Score: inf
ROOT
ATOM      1  C   UNL     1       4.671  -4.080  -6.148  1.00  0.00     0.000 C 
ENDROOT
BRANCH   1   2
ATOM      2  C   UNL     1       4.463  -3.867  -7.660  1.00  0.00     0.000 C 
BRANCH   2   3
ATOM      3  C   UNL     1       3.323  -4.697  -8.281  1.00  0.00     0.006 C 
BRANCH   3   4
ATOM      4  C   UNL     1       3.826  -5.956  -8.998  1.00  0.00     0.053 C 
BRANCH   4   5
ATOM      5  C   UNL     1       4.009  -7.075  -8.021  1.00  0.00     0.041 C 
ATOM      6  O   UNL     1       3.086  -7.369  -7.216  1.00  0.00    -0.550 OA
ATOM      7  O   UNL     1       5.178  -7.824  -8.033  1.00  0.00    -0.550 OA
ENDBRANCH   4   5
ENDBRANCH   3   4
ENDBRANCH   2   3
ENDBRANCH   1   2
BRANCH   1   8
ATOM      8  C   UNL     1       5.959  -4.834  -5.765  1.00  0.00     0.000 C 
BRANCH   8   9
ATOM      9  C   UNL     1       6.992  -4.980  -6.901  1.00  0.00    -0.000 C 
BRANCH   9  10
ATOM     10  C   UNL     1       8.221  -4.060  -6.786  1.00  0.00    -0.000 C 
BRANCH  10  11
ATOM     11  C   UNL     1       7.889  -2.586  -7.063  1.00  0.00    -0.000 C 
BRANCH  11  12
ATOM     12  C   UNL     1       8.367  -2.171  -8.460  1.00  0.00    -0.003 C 
ATOM     13  C   UNL     1       7.210  -2.154  -9.455  1.00  0.00     0.004 C 
ENDBRANCH  11  12
ENDBRANCH  10  11
ENDBRANCH   9  10
ENDBRANCH   8   9
ENDBRANCH   1   8
TORSDOF 9
ENDMDL
MODEL 9
REMARK VINA RESULT:    -3.105      1.736      2.880
REMARK INTER + INTRA:          -6.080
REMARK INTER:                  -4.822
REMARK INTRA:                  -1.258
REMARK UNBOUND:                -1.341
REMARK SMILES CCCCCCCCCCC(=O)[O-]
REMARK SMILES IDX 7 1 8 2 9 3 10 4 11 5 12 6 13 7 6 8 5 9 4 10 3 11 2 12 1 13
REMARK H PARENT
REMARK Flexibility Score: inf
ROOT
ATOM      1  C   UNL     1       4.815  -2.488  -8.834  1.00  0.00     0.000 C 
ENDROOT
BRANCH   1   2
ATOM      2  C   UNL     1       4.739  -3.094  -7.419  1.00  0.00     0.000 C 
BRANCH   2   3
ATOM      3  C   UNL     1       5.268  -4.535  -7.301  1.00  0.00     0.006 C 
BRANCH   3   4
ATOM      4  C   UNL     1       5.817  -4.856  -5.905  1.00  0.00     0.053 C 
BRANCH   4   5
ATOM      5  C   UNL     1       6.197  -6.300  -5.813  1.00  0.00     0.041 C 
ATOM      6  O   UNL     1       5.441  -7.186  -6.292  1.00  0.00    -0.550 OA
ATOM      7  O   UNL     1       7.410  -6.665  -5.242  1.00  0.00    -0.550 OA
ENDBRANCH   4   5
ENDBRANCH   3   4
ENDBRANCH   2   3
ENDBRANCH   1   2
BRANCH   1   8
ATOM      8  C   UNL     1       6.011  -2.961  -9.685  1.00  0.00     0.000 C 
BRANCH   8   9
ATOM      9  C   UNL     1       7.191  -1.972  -9.760  1.00  0.00    -0.000 C 
BRANCH   9  10
ATOM     10  C   UNL     1       8.502  -2.474  -9.129  1.00  0.00    -0.000 C 
BRANCH  10  11
ATOM     11  C   UNL     1       8.494  -2.393  -7.595  1.00  0.00    -0.000 C 
BRANCH  11  12
ATOM     12  C   UNL     1       9.056  -3.678  -6.977  1.00  0.00    -0.003 C 
ATOM     13  C   UNL     1       9.185  -4.782  -8.023  1.00  0.00     0.004 C 
ENDBRANCH  11  12
ENDBRANCH  10  11
ENDBRANCH   9  10
ENDBRANCH   8   9
ENDBRANCH   1   8
TORSDOF 9
ENDMDL
