MODEL 1
REMARK VINA RESULT:    -7.857      0.000      0.000
REMARK INTER + INTRA:          -9.433
REMARK INTER:                  -9.464
REMARK INTRA:                   0.031
REMARK UNBOUND:                 0.031
REMARK SMILES O=c1c(O)c(-c2ccc(O)c(O)c2)oc2cc(O)cc(O)c12
REMARK SMILES IDX 5 1 3 2 2 3 1 4 22 5 20 6 19 7 17 8 16 9 15 10 14 11 6 12
REMARK SMILES IDX 7 13 8 14 9 15 13 16 11 17 10 18 12 20 4 22 21 24 18 26
REMARK H PARENT 10 19 12 21 4 23 21 25 18 27
REMARK Flexibility Score: inf
ROOT
ATOM      1  C   UNL     1      44.610  45.452  44.658  1.00  0.00     0.180 A 
ATOM      2  C   UNL     1      44.058  46.308  45.628  1.00  0.00     0.208 A 
ATOM      3  C   UNL     1      44.574  46.279  46.933  1.00  0.00     0.238 A 
ATOM      4  O   UNL     1      44.040  47.009  47.809  1.00  0.00    -0.285 OA
ATOM      5  C   UNL     1      45.643  45.408  47.249  1.00  0.00     0.111 A 
ATOM      6  C   UNL     1      46.271  45.325  48.528  1.00  0.00     0.134 A 
ATOM      7  C   UNL     1      47.233  44.335  48.763  1.00  0.00     0.093 A 
ATOM      8  C   UNL     1      47.637  43.468  47.746  1.00  0.00     0.123 A 
ATOM      9  C   UNL     1      47.074  43.580  46.477  1.00  0.00     0.094 A 
ATOM     10  C   UNL     1      46.086  44.534  46.222  1.00  0.00     0.146 A 
ATOM     11  O   UNL     1      45.568  44.600  45.001  1.00  0.00    -0.452 OA
ENDROOT
BRANCH   1  12
ATOM     12  C   UNL     1      44.136  45.442  43.255  1.00  0.00     0.025 A 
ATOM     13  C   UNL     1      45.037  45.515  42.177  1.00  0.00     0.016 A 
ATOM     14  C   UNL     1      44.569  45.480  40.861  1.00  0.00     0.051 A 
ATOM     15  C   UNL     1      43.198  45.358  40.602  1.00  0.00     0.157 A 
ATOM     16  C   UNL     1      42.764  45.299  42.989  1.00  0.00     0.062 A 
ATOM     17  C   UNL     1      42.294  45.264  41.668  1.00  0.00     0.158 A 
BRANCH  15  18
ATOM     18  O   UNL     1      42.727  45.323  39.291  1.00  0.00    -0.504 OA
ATOM     19  H   UNL     1      43.360  45.243  38.503  1.00  0.00     0.293 HD
ENDBRANCH  15  18
BRANCH  17  20
ATOM     20  O   UNL     1      40.930  45.136  41.408  1.00  0.00    -0.504 OA
ATOM     21  H   UNL     1      40.568  45.145  40.462  1.00  0.00     0.293 HD
ENDBRANCH  17  20
ENDBRANCH   1  12
BRANCH   2  22
ATOM     22  O   UNL     1      42.987  47.144  45.299  1.00  0.00    -0.502 OA
ATOM     23  H   UNL     1      42.071  47.044  45.719  1.00  0.00     0.293 HD
ENDBRANCH   2  22
BRANCH   6  24
ATOM     24  O   UNL     1      46.006  46.201  49.585  1.00  0.00    -0.507 OA
ATOM     25  H   UNL     1      46.238  46.023  50.551  1.00  0.00     0.293 HD
ENDBRANCH   6  24
BRANCH   8  26
ATOM     26  O   UNL     1      48.607  42.496  47.984  1.00  0.00    -0.508 OA
ATOM     27  H   UNL     1      48.809  41.772  47.304  1.00  0.00     0.293 HD
ENDBRANCH   8  26
TORSDOF 6
ENDMDL
MODEL 2
REMARK VINA RESULT:    -7.615      4.004      6.545
REMARK INTER + INTRA:          -9.141
REMARK INTER:                  -8.820
REMARK INTRA:                  -0.322
REMARK UNBOUND:                 0.031
REMARK SMILES O=c1c(O)c(-c2ccc(O)c(O)c2)oc2cc(O)cc(O)c12
REMARK SMILES IDX 5 1 3 2 2 3 1 4 22 5 20 6 19 7 17 8 16 9 15 10 14 11 6 12
REMARK SMILES IDX 7 13 8 14 9 15 13 16 11 17 10 18 12 20 4 22 21 24 18 26
REMARK H PARENT 10 19 12 21 4 23 21 25 18 27
REMARK Flexibility Score: inf
ROOT
ATOM      1  C   UNL     1      47.766  43.162  47.285  1.00  0.00     0.180 A 
ATOM      2  C   UNL     1      47.346  41.926  46.763  1.00  0.00     0.208 A 
ATOM      3  C   UNL     1      48.286  40.894  46.616  1.00  0.00     0.238 A 
ATOM      4  O   UNL     1      47.916  39.808  46.098  1.00  0.00    -0.285 OA
ATOM      5  C   UNL     1      49.630  41.105  47.006  1.00  0.00     0.111 A 
ATOM      6  C   UNL     1      50.658  40.117  46.940  1.00  0.00     0.134 A 
ATOM      7  C   UNL     1      51.981  40.476  47.231  1.00  0.00     0.093 A 
ATOM      8  C   UNL     1      52.301  41.770  47.649  1.00  0.00     0.123 A 
ATOM      9  C   UNL     1      51.296  42.725  47.774  1.00  0.00     0.094 A 
ATOM     10  C   UNL     1      49.972  42.407  47.457  1.00  0.00     0.146 A 
ATOM     11  O   UNL     1      49.046  43.351  47.581  1.00  0.00    -0.452 OA
ENDROOT
BRANCH   1  12
ATOM     12  C   UNL     1      46.828  44.289  47.492  1.00  0.00     0.025 A 
ATOM     13  C   UNL     1      46.613  45.256  46.494  1.00  0.00     0.016 A 
ATOM     14  C   UNL     1      45.705  46.297  46.702  1.00  0.00     0.051 A 
ATOM     15  C   UNL     1      44.990  46.381  47.904  1.00  0.00     0.157 A 
ATOM     16  C   UNL     1      46.093  44.366  48.686  1.00  0.00     0.062 A 
ATOM     17  C   UNL     1      45.182  45.412  48.896  1.00  0.00     0.158 A 
BRANCH  15  18
ATOM     18  O   UNL     1      44.084  47.418  48.116  1.00  0.00    -0.504 OA
ATOM     19  H   UNL     1      43.495  47.768  47.369  1.00  0.00     0.293 HD
ENDBRANCH  15  18
BRANCH  17  20
ATOM     20  O   UNL     1      44.464  45.493  50.089  1.00  0.00    -0.504 OA
ATOM     21  H   UNL     1      44.644  44.862  50.860  1.00  0.00     0.293 HD
ENDBRANCH  17  20
ENDBRANCH   1  12
BRANCH   2  22
ATOM     22  O   UNL     1      46.018  41.746  46.362  1.00  0.00    -0.502 OA
ATOM     23  H   UNL     1      45.734  40.996  45.745  1.00  0.00     0.293 HD
ENDBRANCH   2  22
BRANCH   6  24
ATOM     24  O   UNL     1      50.431  38.775  46.623  1.00  0.00    -0.507 OA
ATOM     25  H   UNL     1      51.111  38.037  46.727  1.00  0.00     0.293 HD
ENDBRANCH   6  24
BRANCH   8  26
ATOM     26  O   UNL     1      53.617  42.114  47.951  1.00  0.00    -0.508 OA
ATOM     27  H   UNL     1      54.388  41.834  47.356  1.00  0.00     0.293 HD
ENDBRANCH   8  26
TORSDOF 6
ENDMDL
MODEL 3
REMARK VINA RESULT:    -7.612      2.367      6.846
REMARK INTER + INTRA:          -9.138
REMARK INTER:                  -9.022
REMARK INTRA:                  -0.116
REMARK UNBOUND:                 0.031
REMARK SMILES O=c1c(O)c(-c2ccc(O)c(O)c2)oc2cc(O)cc(O)c12
REMARK SMILES IDX 5 1 3 2 2 3 1 4 22 5 20 6 19 7 17 8 16 9 15 10 14 11 6 12
REMARK SMILES IDX 7 13 8 14 9 15 13 16 11 17 10 18 12 20 4 22 21 24 18 26
REMARK H PARENT 10 19 12 21 4 23 21 25 18 27
REMARK Flexibility Score: inf
ROOT
ATOM      1  C   UNL     1      47.173  43.104  46.709  1.00  0.00     0.180 A 
ATOM      2  C   UNL     1      47.053  43.920  47.848  1.00  0.00     0.208 A 
ATOM      3  C   UNL     1      46.194  45.030  47.803  1.00  0.00     0.238 A 
ATOM      4  O   UNL     1      46.132  45.787  48.807  1.00  0.00    -0.285 OA
ATOM      5  C   UNL     1      45.456  45.302  46.626  1.00  0.00     0.111 A 
ATOM      6  C   UNL     1      44.527  46.375  46.483  1.00  0.00     0.134 A 
ATOM      7  C   UNL     1      43.950  46.627  45.231  1.00  0.00     0.093 A 
ATOM      8  C   UNL     1      44.219  45.804  44.135  1.00  0.00     0.123 A 
ATOM      9  C   UNL     1      45.078  44.718  44.281  1.00  0.00     0.094 A 
ATOM     10  C   UNL     1      45.697  44.462  45.507  1.00  0.00     0.146 A 
ATOM     11  O   UNL     1      46.517  43.422  45.599  1.00  0.00    -0.452 OA
ENDROOT
BRANCH   1  12
ATOM     12  C   UNL     1      48.038  41.903  46.688  1.00  0.00     0.025 A 
ATOM     13  C   UNL     1      47.509  40.623  46.444  1.00  0.00     0.016 A 
ATOM     14  C   UNL     1      48.348  39.506  46.406  1.00  0.00     0.051 A 
ATOM     15  C   UNL     1      49.728  39.653  46.596  1.00  0.00     0.157 A 
ATOM     16  C   UNL     1      49.425  42.046  46.858  1.00  0.00     0.062 A 
ATOM     17  C   UNL     1      50.268  40.926  46.820  1.00  0.00     0.158 A 
BRANCH  15  18
ATOM     18  O   UNL     1      50.568  38.542  46.559  1.00  0.00    -0.504 OA
ATOM     19  H   UNL     1      51.165  38.303  47.343  1.00  0.00     0.293 HD
ENDBRANCH  15  18
BRANCH  17  20
ATOM     20  O   UNL     1      51.643  41.071  47.003  1.00  0.00    -0.504 OA
ATOM     21  H   UNL     1      52.222  40.296  47.301  1.00  0.00     0.293 HD
ENDBRANCH  17  20
ENDBRANCH   1  12
BRANCH   2  22
ATOM     22  O   UNL     1      47.809  43.646  48.992  1.00  0.00    -0.502 OA
ATOM     23  H   UNL     1      47.680  44.149  49.861  1.00  0.00     0.293 HD
ENDBRANCH   2  22
BRANCH   6  24
ATOM     24  O   UNL     1      44.119  47.200  47.535  1.00  0.00    -0.507 OA
ATOM     25  H   UNL     1      43.401  47.907  47.466  1.00  0.00     0.293 HD
ENDBRANCH   6  24
BRANCH   8  26
ATOM     26  O   UNL     1      43.628  46.052  42.898  1.00  0.00    -0.508 OA
ATOM     27  H   UNL     1      43.939  46.814  42.306  1.00  0.00     0.293 HD
ENDBRANCH   8  26
TORSDOF 6
ENDMDL
MODEL 4
REMARK VINA RESULT:    -7.610     11.064     11.597
REMARK INTER + INTRA:          -9.136
REMARK INTER:                  -8.808
REMARK INTRA:                  -0.328
REMARK UNBOUND:                 0.031
REMARK SMILES O=c1c(O)c(-c2ccc(O)c(O)c2)oc2cc(O)cc(O)c12
REMARK SMILES IDX 5 1 3 2 2 3 1 4 22 5 20 6 19 7 17 8 16 9 15 10 14 11 6 12
REMARK SMILES IDX 7 13 8 14 9 15 13 16 11 17 10 18 12 20 4 22 21 24 18 26
REMARK H PARENT 10 19 12 21 4 23 21 25 18 27
REMARK Flexibility Score: inf
ROOT
ATOM      1  C   UNL     1      49.860  45.760  34.916  1.00  0.00     0.180 A 
ATOM      2  C   UNL     1      49.409  47.090  34.987  1.00  0.00     0.208 A 
ATOM      3  C   UNL     1      50.239  48.059  35.573  1.00  0.00     0.238 A 
ATOM      4  O   UNL     1      49.807  49.237  35.682  1.00  0.00    -0.285 OA
ATOM      5  C   UNL     1      51.513  47.691  36.067  1.00  0.00     0.111 A 
ATOM      6  C   UNL     1      52.452  48.598  36.644  1.00  0.00     0.134 A 
ATOM      7  C   UNL     1      53.629  48.102  37.218  1.00  0.00     0.093 A 
ATOM      8  C   UNL     1      53.931  46.739  37.177  1.00  0.00     0.123 A 
ATOM      9  C   UNL     1      53.049  45.853  36.563  1.00  0.00     0.094 A 
ATOM     10  C   UNL     1      51.850  46.313  36.014  1.00  0.00     0.146 A 
ATOM     11  O   UNL     1      51.033  45.433  35.447  1.00  0.00    -0.452 OA
ENDROOT
BRANCH   1  12
ATOM     12  C   UNL     1      49.054  44.687  34.291  1.00  0.00     0.025 A 
ATOM     13  C   UNL     1      49.201  44.358  32.932  1.00  0.00     0.016 A 
ATOM     14  C   UNL     1      48.447  43.325  32.368  1.00  0.00     0.051 A 
ATOM     15  C   UNL     1      47.545  42.599  33.156  1.00  0.00     0.157 A 
ATOM     16  C   UNL     1      48.163  43.941  35.081  1.00  0.00     0.062 A 
ATOM     17  C   UNL     1      47.406  42.905  34.516  1.00  0.00     0.158 A 
BRANCH  15  18
ATOM     18  O   UNL     1      46.790  41.569  32.598  1.00  0.00    -0.504 OA
ATOM     19  H   UNL     1      45.781  41.629  32.530  1.00  0.00     0.293 HD
ENDBRANCH  15  18
BRANCH  17  20
ATOM     20  O   UNL     1      46.513  42.176  35.300  1.00  0.00    -0.504 OA
ATOM     21  H   UNL     1      46.227  41.238  35.045  1.00  0.00     0.293 HD
ENDBRANCH  17  20
ENDBRANCH   1  12
BRANCH   2  22
ATOM     22  O   UNL     1      48.138  47.428  34.513  1.00  0.00    -0.502 OA
ATOM     23  H   UNL     1      47.761  47.049  33.654  1.00  0.00     0.293 HD
ENDBRANCH   2  22
BRANCH   6  24
ATOM     24  O   UNL     1      52.290  49.987  36.655  1.00  0.00    -0.507 OA
ATOM     25  H   UNL     1      53.001  50.651  36.387  1.00  0.00     0.293 HD
ENDBRANCH   6  24
BRANCH   8  26
ATOM     26  O   UNL     1      55.112  46.255  37.736  1.00  0.00    -0.508 OA
ATOM     27  H   UNL     1      55.953  46.143  37.182  1.00  0.00     0.293 HD
ENDBRANCH   8  26
TORSDOF 6
ENDMDL
MODEL 5
REMARK VINA RESULT:    -7.426      3.865      6.782
REMARK INTER + INTRA:          -8.915
REMARK INTER:                  -8.590
REMARK INTRA:                  -0.325
REMARK UNBOUND:                 0.031
REMARK SMILES O=c1c(O)c(-c2ccc(O)c(O)c2)oc2cc(O)cc(O)c12
REMARK SMILES IDX 5 1 3 2 2 3 1 4 22 5 20 6 19 7 17 8 16 9 15 10 14 11 6 12
REMARK SMILES IDX 7 13 8 14 9 15 13 16 11 17 10 18 12 20 4 22 21 24 18 26
REMARK H PARENT 10 19 12 21 4 23 21 25 18 27
REMARK Flexibility Score: inf
ROOT
ATOM      1  C   UNL     1      47.975  43.204  46.876  1.00  0.00     0.180 A 
ATOM      2  C   UNL     1      47.962  41.855  46.481  1.00  0.00     0.208 A 
ATOM      3  C   UNL     1      49.098  41.318  45.856  1.00  0.00     0.238 A 
ATOM      4  O   UNL     1      49.060  40.124  45.456  1.00  0.00    -0.285 OA
ATOM      5  C   UNL     1      50.238  42.131  45.646  1.00  0.00     0.111 A 
ATOM      6  C   UNL     1      51.458  41.680  45.059  1.00  0.00     0.134 A 
ATOM      7  C   UNL     1      52.474  42.604  44.782  1.00  0.00     0.093 A 
ATOM      8  C   UNL     1      52.339  43.949  45.132  1.00  0.00     0.123 A 
ATOM      9  C   UNL     1      51.176  44.388  45.759  1.00  0.00     0.094 A 
ATOM     10  C   UNL     1      50.130  43.497  46.016  1.00  0.00     0.146 A 
ATOM     11  O   UNL     1      49.034  43.958  46.607  1.00  0.00    -0.452 OA
ENDROOT
BRANCH   1  12
ATOM     12  C   UNL     1      46.825  43.835  47.563  1.00  0.00     0.025 A 
ATOM     13  C   UNL     1      46.645  43.713  48.952  1.00  0.00     0.016 A 
ATOM     14  C   UNL     1      45.566  44.337  49.583  1.00  0.00     0.051 A 
ATOM     15  C   UNL     1      44.659  45.102  48.839  1.00  0.00     0.157 A 
ATOM     16  C   UNL     1      45.925  44.621  46.826  1.00  0.00     0.062 A 
ATOM     17  C   UNL     1      44.841  45.248  47.458  1.00  0.00     0.158 A 
BRANCH  15  18
ATOM     18  O   UNL     1      43.581  45.726  49.464  1.00  0.00    -0.504 OA
ATOM     19  H   UNL     1      43.409  46.719  49.357  1.00  0.00     0.293 HD
ENDBRANCH  15  18
BRANCH  17  20
ATOM     20  O   UNL     1      43.942  46.016  46.720  1.00  0.00    -0.504 OA
ATOM     21  H   UNL     1      43.095  45.617  46.334  1.00  0.00     0.293 HD
ENDBRANCH  17  20
ENDBRANCH   1  12
BRANCH   2  22
ATOM     22  O   UNL     1      46.818  41.076  46.677  1.00  0.00    -0.502 OA
ATOM     23  H   UNL     1      45.960  41.457  47.057  1.00  0.00     0.293 HD
ENDBRANCH   2  22
BRANCH   6  24
ATOM     24  O   UNL     1      51.731  40.343  44.756  1.00  0.00    -0.507 OA
ATOM     25  H   UNL     1      51.632  39.930  43.840  1.00  0.00     0.293 HD
ENDBRANCH   6  24
BRANCH   8  26
ATOM     26  O   UNL     1      53.361  44.859  44.867  1.00  0.00    -0.508 OA
ATOM     27  H   UNL     1      54.227  44.850  45.393  1.00  0.00     0.293 HD
ENDBRANCH   8  26
TORSDOF 6
ENDMDL
MODEL 6
REMARK VINA RESULT:    -7.326      9.709     10.330
REMARK INTER + INTRA:          -8.794
REMARK INTER:                  -8.475
REMARK INTRA:                  -0.319
REMARK UNBOUND:                 0.031
REMARK SMILES O=c1c(O)c(-c2ccc(O)c(O)c2)oc2cc(O)cc(O)c12
REMARK SMILES IDX 5 1 3 2 2 3 1 4 22 5 20 6 19 7 17 8 16 9 15 10 14 11 6 12
REMARK SMILES IDX 7 13 8 14 9 15 13 16 11 17 10 18 12 20 4 22 21 24 18 26
REMARK H PARENT 10 19 12 21 4 23 21 25 18 27
REMARK Flexibility Score: inf
ROOT
ATOM      1  C   UNL     1      49.543  45.128  35.890  1.00  0.00     0.180 A 
ATOM      2  C   UNL     1      49.108  46.377  36.369  1.00  0.00     0.208 A 
ATOM      3  C   UNL     1      49.897  47.057  37.310  1.00  0.00     0.238 A 
ATOM      4  O   UNL     1      49.475  48.148  37.776  1.00  0.00    -0.285 OA
ATOM      5  C   UNL     1      51.117  46.489  37.749  1.00  0.00     0.111 A 
ATOM      6  C   UNL     1      52.015  47.109  38.669  1.00  0.00     0.134 A 
ATOM      7  C   UNL     1      53.129  46.398  39.132  1.00  0.00     0.093 A 
ATOM      8  C   UNL     1      53.413  45.116  38.658  1.00  0.00     0.123 A 
ATOM      9  C   UNL     1      52.576  44.526  37.715  1.00  0.00     0.094 A 
ATOM     10  C   UNL     1      51.436  45.195  37.261  1.00  0.00     0.146 A 
ATOM     11  O   UNL     1      50.659  44.592  36.369  1.00  0.00    -0.452 OA
ENDROOT
BRANCH   1  12
ATOM     12  C   UNL     1      48.779  44.363  34.879  1.00  0.00     0.025 A 
ATOM     13  C   UNL     1      49.088  44.447  33.509  1.00  0.00     0.016 A 
ATOM     14  C   UNL     1      48.369  43.697  32.575  1.00  0.00     0.051 A 
ATOM     15  C   UNL     1      47.342  42.843  32.995  1.00  0.00     0.157 A 
ATOM     16  C   UNL     1      47.762  43.489  35.296  1.00  0.00     0.062 A 
ATOM     17  C   UNL     1      47.040  42.736  34.358  1.00  0.00     0.158 A 
BRANCH  15  18
ATOM     18  O   UNL     1      46.622  42.094  32.067  1.00  0.00    -0.504 OA
ATOM     19  H   UNL     1      45.651  42.300  31.858  1.00  0.00     0.293 HD
ENDBRANCH  15  18
BRANCH  17  20
ATOM     20  O   UNL     1      46.022  41.879  34.776  1.00  0.00    -0.504 OA
ATOM     21  H   UNL     1      45.900  41.636  35.751  1.00  0.00     0.293 HD
ENDBRANCH  17  20
ENDBRANCH   1  12
BRANCH   2  22
ATOM     22  O   UNL     1      47.889  46.909  35.939  1.00  0.00    -0.502 OA
ATOM     23  H   UNL     1      47.000  46.606  36.318  1.00  0.00     0.293 HD
ENDBRANCH   2  22
BRANCH   6  24
ATOM     24  O   UNL     1      51.873  48.420  39.134  1.00  0.00    -0.507 OA
ATOM     25  H   UNL     1      51.113  49.037  38.892  1.00  0.00     0.293 HD
ENDBRANCH   6  24
BRANCH   8  26
ATOM     26  O   UNL     1      54.533  44.422  39.112  1.00  0.00    -0.508 OA
ATOM     27  H   UNL     1      55.353  44.907  39.456  1.00  0.00     0.293 HD
ENDBRANCH   8  26
TORSDOF 6
ENDMDL
MODEL 7
REMARK VINA RESULT:    -7.266      1.328      2.798
REMARK INTER + INTRA:          -8.721
REMARK INTER:                  -8.451
REMARK INTRA:                  -0.271
REMARK UNBOUND:                 0.031
REMARK SMILES O=c1c(O)c(-c2ccc(O)c(O)c2)oc2cc(O)cc(O)c12
REMARK SMILES IDX 5 1 3 2 2 3 1 4 22 5 20 6 19 7 17 8 16 9 15 10 14 11 6 12
REMARK SMILES IDX 7 13 8 14 9 15 13 16 11 17 10 18 12 20 4 22 21 24 18 26
REMARK H PARENT 10 19 12 21 4 23 21 25 18 27
REMARK Flexibility Score: inf
ROOT
ATOM      1  C   UNL     1      45.036  45.133  44.665  1.00  0.00     0.180 A 
ATOM      2  C   UNL     1      45.616  43.936  45.124  1.00  0.00     0.208 A 
ATOM      3  C   UNL     1      46.138  43.889  46.426  1.00  0.00     0.238 A 
ATOM      4  O   UNL     1      46.705  42.832  46.812  1.00  0.00    -0.285 OA
ATOM      5  C   UNL     1      46.062  45.032  47.258  1.00  0.00     0.111 A 
ATOM      6  C   UNL     1      46.522  45.083  48.608  1.00  0.00     0.134 A 
ATOM      7  C   UNL     1      46.514  46.304  49.294  1.00  0.00     0.093 A 
ATOM      8  C   UNL     1      46.001  47.460  48.701  1.00  0.00     0.123 A 
ATOM      9  C   UNL     1      45.494  47.406  47.406  1.00  0.00     0.094 A 
ATOM     10  C   UNL     1      45.522  46.211  46.682  1.00  0.00     0.146 A 
ATOM     11  O   UNL     1      45.038  46.206  45.446  1.00  0.00    -0.452 OA
ENDROOT
BRANCH   1  12
ATOM     12  C   UNL     1      44.442  45.253  43.314  1.00  0.00     0.025 A 
ATOM     13  C   UNL     1      45.247  45.375  42.168  1.00  0.00     0.016 A 
ATOM     14  C   UNL     1      44.665  45.462  40.901  1.00  0.00     0.051 A 
ATOM     15  C   UNL     1      43.273  45.416  40.759  1.00  0.00     0.157 A 
ATOM     16  C   UNL     1      43.047  45.185  43.164  1.00  0.00     0.062 A 
ATOM     17  C   UNL     1      42.462  45.274  41.892  1.00  0.00     0.158 A 
BRANCH  15  18
ATOM     18  O   UNL     1      42.688  45.504  39.497  1.00  0.00    -0.504 OA
ATOM     19  H   UNL     1      43.200  45.257  38.658  1.00  0.00     0.293 HD
ENDBRANCH  15  18
BRANCH  17  20
ATOM     20  O   UNL     1      41.076  45.220  41.748  1.00  0.00    -0.504 OA
ATOM     21  H   UNL     1      40.455  45.386  42.530  1.00  0.00     0.293 HD
ENDBRANCH  17  20
ENDBRANCH   1  12
BRANCH   2  22
ATOM     22  O   UNL     1      45.702  42.827  44.278  1.00  0.00    -0.502 OA
ATOM     23  H   UNL     1      44.976  42.122  44.231  1.00  0.00     0.293 HD
ENDBRANCH   2  22
BRANCH   6  24
ATOM     24  O   UNL     1      46.969  43.968  49.323  1.00  0.00    -0.507 OA
ATOM     25  H   UNL     1      46.950  43.019  48.980  1.00  0.00     0.293 HD
ENDBRANCH   6  24
BRANCH   8  26
ATOM     26  O   UNL     1      45.982  48.668  49.397  1.00  0.00    -0.508 OA
ATOM     27  H   UNL     1      46.839  49.143  49.655  1.00  0.00     0.293 HD
ENDBRANCH   8  26
TORSDOF 6
ENDMDL
MODEL 8
REMARK VINA RESULT:    -7.256     11.021     12.196
REMARK INTER + INTRA:          -8.709
REMARK INTER:                  -8.497
REMARK INTRA:                  -0.213
REMARK UNBOUND:                 0.031
REMARK SMILES O=c1c(O)c(-c2ccc(O)c(O)c2)oc2cc(O)cc(O)c12
REMARK SMILES IDX 5 1 3 2 2 3 1 4 22 5 20 6 19 7 17 8 16 9 15 10 14 11 6 12
REMARK SMILES IDX 7 13 8 14 9 15 13 16 11 17 10 18 12 20 4 22 21 24 18 26
REMARK H PARENT 10 19 12 21 4 23 21 25 18 27
REMARK Flexibility Score: inf
ROOT
ATOM      1  C   UNL     1      50.032  45.797  35.151  1.00  0.00     0.180 A 
ATOM      2  C   UNL     1      51.184  45.540  35.915  1.00  0.00     0.208 A 
ATOM      3  C   UNL     1      51.954  46.621  36.370  1.00  0.00     0.238 A 
ATOM      4  O   UNL     1      53.014  46.383  37.008  1.00  0.00    -0.285 OA
ATOM      5  C   UNL     1      51.557  47.946  36.068  1.00  0.00     0.111 A 
ATOM      6  C   UNL     1      52.240  49.118  36.512  1.00  0.00     0.134 A 
ATOM      7  C   UNL     1      51.832  50.374  36.045  1.00  0.00     0.093 A 
ATOM      8  C   UNL     1      50.725  50.504  35.204  1.00  0.00     0.123 A 
ATOM      9  C   UNL     1      50.015  49.372  34.813  1.00  0.00     0.094 A 
ATOM     10  C   UNL     1      50.420  48.102  35.233  1.00  0.00     0.146 A 
ATOM     11  O   UNL     1      49.721  47.047  34.830  1.00  0.00    -0.452 OA
ENDROOT
BRANCH   1  12
ATOM     12  C   UNL     1      49.155  44.711  34.657  1.00  0.00     0.025 A 
ATOM     13  C   UNL     1      48.407  43.915  35.542  1.00  0.00     0.016 A 
ATOM     14  C   UNL     1      47.567  42.911  35.052  1.00  0.00     0.051 A 
ATOM     15  C   UNL     1      47.453  42.697  33.673  1.00  0.00     0.157 A 
ATOM     16  C   UNL     1      49.020  44.505  33.274  1.00  0.00     0.062 A 
ATOM     17  C   UNL     1      48.178  43.498  32.782  1.00  0.00     0.158 A 
BRANCH  15  18
ATOM     18  O   UNL     1      46.617  41.696  33.180  1.00  0.00    -0.504 OA
ATOM     19  H   UNL     1      46.643  40.754  33.552  1.00  0.00     0.293 HD
ENDBRANCH  15  18
BRANCH  17  20
ATOM     20  O   UNL     1      48.057  43.288  31.409  1.00  0.00    -0.504 OA
ATOM     21  H   UNL     1      48.868  43.133  30.823  1.00  0.00     0.293 HD
ENDBRANCH  17  20
ENDBRANCH   1  12
BRANCH   2  22
ATOM     22  O   UNL     1      51.571  44.223  36.182  1.00  0.00    -0.502 OA
ATOM     23  H   UNL     1      51.320  43.747  37.040  1.00  0.00     0.293 HD
ENDBRANCH   2  22
BRANCH   6  24
ATOM     24  O   UNL     1      53.300  49.106  37.424  1.00  0.00    -0.507 OA
ATOM     25  H   UNL     1      53.548  48.319  38.006  1.00  0.00     0.293 HD
ENDBRANCH   6  24
BRANCH   8  26
ATOM     26  O   UNL     1      50.315  51.759  34.757  1.00  0.00    -0.508 OA
ATOM     27  H   UNL     1      49.374  51.919  34.416  1.00  0.00     0.293 HD
ENDBRANCH   8  26
TORSDOF 6
ENDMDL
MODEL 9
REMARK VINA RESULT:    -6.739      2.937      6.389
REMARK INTER + INTRA:          -8.087
REMARK INTER:                  -7.788
REMARK INTRA:                  -0.299
REMARK UNBOUND:                 0.031
REMARK SMILES O=c1c(O)c(-c2ccc(O)c(O)c2)oc2cc(O)cc(O)c12
REMARK SMILES IDX 5 1 3 2 2 3 1 4 22 5 20 6 19 7 17 8 16 9 15 10 14 11 6 12
REMARK SMILES IDX 7 13 8 14 9 15 13 16 11 17 10 18 12 20 4 22 21 24 18 26
REMARK H PARENT 10 19 12 21 4 23 21 25 18 27
REMARK Flexibility Score: inf
ROOT
ATOM      1  C   UNL     1      47.948  43.663  46.771  1.00  0.00     0.180 A 
ATOM      2  C   UNL     1      47.922  43.781  48.172  1.00  0.00     0.208 A 
ATOM      3  C   UNL     1      46.853  44.460  48.777  1.00  0.00     0.238 A 
ATOM      4  O   UNL     1      46.862  44.609  50.028  1.00  0.00    -0.285 OA
ATOM      5  C   UNL     1      45.818  45.000  47.977  1.00  0.00     0.111 A 
ATOM      6  C   UNL     1      44.666  45.672  48.487  1.00  0.00     0.134 A 
ATOM      7  C   UNL     1      43.771  46.280  47.597  1.00  0.00     0.093 A 
ATOM      8  C   UNL     1      43.950  46.182  46.216  1.00  0.00     0.123 A 
ATOM      9  C   UNL     1      45.038  45.477  45.708  1.00  0.00     0.094 A 
ATOM     10  C   UNL     1      45.969  44.891  46.570  1.00  0.00     0.146 A 
ATOM     11  O   UNL     1      46.997  44.236  46.044  1.00  0.00    -0.452 OA
ENDROOT
BRANCH   1  12
ATOM     12  C   UNL     1      49.029  42.940  46.062  1.00  0.00     0.025 A 
ATOM     13  C   UNL     1      50.270  43.547  45.804  1.00  0.00     0.016 A 
ATOM     14  C   UNL     1      51.284  42.838  45.155  1.00  0.00     0.051 A 
ATOM     15  C   UNL     1      51.077  41.508  44.766  1.00  0.00     0.157 A 
ATOM     16  C   UNL     1      48.834  41.600  45.688  1.00  0.00     0.062 A 
ATOM     17  C   UNL     1      49.851  40.887  45.036  1.00  0.00     0.158 A 
BRANCH  15  18
ATOM     18  O   UNL     1      52.084  40.797  44.117  1.00  0.00    -0.504 OA
ATOM     19  H   UNL     1      52.101  40.702  43.108  1.00  0.00     0.293 HD
ENDBRANCH  15  18
BRANCH  17  20
ATOM     20  O   UNL     1      49.650  39.561  44.654  1.00  0.00    -0.504 OA
ATOM     21  H   UNL     1      50.426  38.928  44.506  1.00  0.00     0.293 HD
ENDBRANCH  17  20
ENDBRANCH   1  12
BRANCH   2  22
ATOM     22  O   UNL     1      48.966  43.260  48.942  1.00  0.00    -0.502 OA
ATOM     23  H   UNL     1      48.845  42.462  49.553  1.00  0.00     0.293 HD
ENDBRANCH   2  22
BRANCH   6  24
ATOM     24  O   UNL     1      44.345  45.749  49.845  1.00  0.00    -0.507 OA
ATOM     25  H   UNL     1      44.971  45.507  50.599  1.00  0.00     0.293 HD
ENDBRANCH   6  24
BRANCH   8  26
ATOM     26  O   UNL     1      43.046  46.776  45.337  1.00  0.00    -0.508 OA
ATOM     27  H   UNL     1      42.181  47.188  45.667  1.00  0.00     0.293 HD
ENDBRANCH   8  26
TORSDOF 6
ENDMDL
