MODEL 1
REMARK VINA RESULT:    -3.137      0.000      0.000
REMARK INTER + INTRA:          -7.444
REMARK INTER:                  -5.338
REMARK INTRA:                  -2.106
REMARK UNBOUND:                -2.106
REMARK SMILES CCCCCCCCCCCCCC(=O)[O-]
REMARK SMILES IDX 8 1 9 2 10 3 11 4 12 5 13 6 14 7 15 8 16 9 7 10 6 11 5 12
REMARK SMILES IDX 4 13 3 14 2 15 1 16
REMARK H PARENT
REMARK Flexibility Score: inf
ROOT
ATOM      1  C   UNL     1      85.642  30.515  26.440  1.00  0.00     0.000 C 
ENDROOT
BRANCH   1   2
ATOM      2  C   UNL     1      86.270  29.547  25.426  1.00  0.00     0.000 C 
BRANCH   2   3
ATOM      3  C   UNL     1      85.665  28.142  25.563  1.00  0.00     0.000 C 
BRANCH   3   4
ATOM      4  C   UNL     1      86.394  27.281  26.608  1.00  0.00     0.000 C 
BRANCH   4   5
ATOM      5  C   UNL     1      85.521  26.973  27.836  1.00  0.00     0.006 C 
BRANCH   5   6
ATOM      6  C   UNL     1      86.168  25.933  28.761  1.00  0.00     0.053 C 
BRANCH   6   7
ATOM      7  C   UNL     1      85.489  24.602  28.660  1.00  0.00     0.041 C 
ATOM      8  O   UNL     1      84.363  24.422  29.194  1.00  0.00    -0.550 OA
ATOM      9  O   UNL     1      86.088  23.566  27.953  1.00  0.00    -0.550 OA
ENDBRANCH   6   7
ENDBRANCH   5   6
ENDBRANCH   4   5
ENDBRANCH   3   4
ENDBRANCH   2   3
ENDBRANCH   1   2
BRANCH   1  10
ATOM     10  C   UNL     1      86.664  31.073  27.443  1.00  0.00     0.000 C 
BRANCH  10  11
ATOM     11  C   UNL     1      86.489  30.491  28.854  1.00  0.00    -0.000 C 
BRANCH  11  12
ATOM     12  C   UNL     1      87.705  29.643  29.252  1.00  0.00    -0.000 C 
BRANCH  12  13
ATOM     13  C   UNL     1      88.955  29.971  28.419  1.00  0.00    -0.000 C 
BRANCH  13  14
ATOM     14  C   UNL     1      89.689  28.713  27.929  1.00  0.00    -0.000 C 
BRANCH  14  15
ATOM     15  C   UNL     1      89.744  28.672  26.398  1.00  0.00    -0.003 C 
ATOM     16  C   UNL     1      90.072  30.048  25.821  1.00  0.00     0.004 C 
ENDBRANCH  14  15
ENDBRANCH  13  14
ENDBRANCH  12  13
ENDBRANCH  11  12
ENDBRANCH  10  11
ENDBRANCH   1  10
TORSDOF 12
ENDMDL
MODEL 2
REMARK VINA RESULT:    -2.996      1.764      2.606
REMARK INTER + INTRA:          -7.205
REMARK INTER:                  -6.075
REMARK INTRA:                  -1.130
REMARK UNBOUND:                -2.106
REMARK SMILES CCCCCCCCCCCCCC(=O)[O-]
REMARK SMILES IDX 8 1 9 2 10 3 11 4 12 5 13 6 14 7 15 8 16 9 7 10 6 11 5 12
REMARK SMILES IDX 4 13 3 14 2 15 1 16
REMARK H PARENT
REMARK Flexibility Score: inf
ROOT
ATOM      1  C   UNL     1      85.642  27.783  28.710  1.00  0.00     0.000 C 
ENDROOT
BRANCH   1   2
ATOM      2  C   UNL     1      86.415  26.501  28.364  1.00  0.00     0.000 C 
BRANCH   2   3
ATOM      3  C   UNL     1      86.040  25.997  26.962  1.00  0.00     0.000 C 
BRANCH   3   4
ATOM      4  C   UNL     1      85.625  24.516  26.956  1.00  0.00     0.000 C 
BRANCH   4   5
ATOM      5  C   UNL     1      85.678  23.880  28.355  1.00  0.00     0.006 C 
BRANCH   5   6
ATOM      6  C   UNL     1      84.335  23.258  28.759  1.00  0.00     0.053 C 
BRANCH   6   7
ATOM      7  C   UNL     1      83.628  24.084  29.789  1.00  0.00     0.041 C 
ATOM      8  O   UNL     1      83.307  25.276  29.537  1.00  0.00    -0.550 OA
ATOM      9  O   UNL     1      83.297  23.529  31.019  1.00  0.00    -0.550 OA
ENDBRANCH   6   7
ENDBRANCH   5   6
ENDBRANCH   4   5
ENDBRANCH   3   4
ENDBRANCH   2   3
ENDBRANCH   1   2
BRANCH   1  10
ATOM     10  C   UNL     1      86.441  29.060  28.406  1.00  0.00     0.000 C 
BRANCH  10  11
ATOM     11  C   UNL     1      87.662  29.228  29.323  1.00  0.00    -0.000 C 
BRANCH  11  12
ATOM     12  C   UNL     1      88.878  29.728  28.531  1.00  0.00    -0.000 C 
BRANCH  12  13
ATOM     13  C   UNL     1      89.745  28.580  27.988  1.00  0.00    -0.000 C 
BRANCH  13  14
ATOM     14  C   UNL     1      89.894  28.621  26.460  1.00  0.00    -0.000 C 
BRANCH  14  15
ATOM     15  C   UNL     1      89.646  30.034  25.923  1.00  0.00    -0.003 C 
ATOM     16  C   UNL     1      90.740  30.453  24.944  1.00  0.00     0.004 C 
ENDBRANCH  14  15
ENDBRANCH  13  14
ENDBRANCH  12  13
ENDBRANCH  11  12
ENDBRANCH  10  11
ENDBRANCH   1  10
TORSDOF 12
ENDMDL
MODEL 3
REMARK VINA RESULT:    -2.971      3.199      4.655
REMARK INTER + INTRA:          -7.161
REMARK INTER:                  -5.059
REMARK INTRA:                  -2.102
REMARK UNBOUND:                -2.106
REMARK SMILES CCCCCCCCCCCCCC(=O)[O-]
REMARK SMILES IDX 8 1 9 2 10 3 11 4 12 5 13 6 14 7 15 8 16 9 7 10 6 11 5 12
REMARK SMILES IDX 4 13 3 14 2 15 1 16
REMARK H PARENT
REMARK Flexibility Score: inf
ROOT
ATOM      1  C   UNL     1      85.349  27.922  26.258  1.00  0.00     0.000 C 
ENDROOT
BRANCH   1   2
ATOM      2  C   UNL     1      84.915  29.164  27.051  1.00  0.00     0.000 C 
BRANCH   2   3
ATOM      3  C   UNL     1      85.619  30.424  26.523  1.00  0.00     0.000 C 
BRANCH   3   4
ATOM      4  C   UNL     1      85.878  31.465  27.625  1.00  0.00     0.000 C 
BRANCH   4   5
ATOM      5  C   UNL     1      85.155  31.128  28.939  1.00  0.00     0.006 C 
BRANCH   5   6
ATOM      6  C   UNL     1      85.902  31.668  30.166  1.00  0.00     0.053 C 
BRANCH   6   7
ATOM      7  C   UNL     1      84.981  31.879  31.329  1.00  0.00     0.041 C 
ATOM      8  O   UNL     1      83.735  31.776  31.179  1.00  0.00    -0.550 OA
ATOM      9  O   UNL     1      85.501  32.162  32.586  1.00  0.00    -0.550 OA
ENDBRANCH   6   7
ENDBRANCH   5   6
ENDBRANCH   4   5
ENDBRANCH   3   4
ENDBRANCH   2   3
ENDBRANCH   1   2
BRANCH   1  10
ATOM     10  C   UNL     1      86.113  26.904  27.118  1.00  0.00     0.000 C 
BRANCH  10  11
ATOM     11  C   UNL     1      86.010  27.202  28.622  1.00  0.00    -0.000 C 
BRANCH  11  12
ATOM     12  C   UNL     1      87.405  27.327  29.253  1.00  0.00    -0.000 C 
BRANCH  12  13
ATOM     13  C   UNL     1      87.960  28.759  29.186  1.00  0.00    -0.000 C 
BRANCH  13  14
ATOM     14  C   UNL     1      89.317  28.837  28.470  1.00  0.00    -0.000 C 
BRANCH  14  15
ATOM     15  C   UNL     1      89.193  29.598  27.145  1.00  0.00    -0.003 C 
ATOM     16  C   UNL     1      89.212  28.641  25.956  1.00  0.00     0.004 C 
ENDBRANCH  14  15
ENDBRANCH  13  14
ENDBRANCH  12  13
ENDBRANCH  11  12
ENDBRANCH  10  11
ENDBRANCH   1  10
TORSDOF 12
ENDMDL
MODEL 4
REMARK VINA RESULT:    -2.942      1.197      3.344
REMARK INTER + INTRA:          -7.113
REMARK INTER:                  -5.202
REMARK INTRA:                  -1.910
REMARK UNBOUND:                -2.106
REMARK SMILES CCCCCCCCCCCCCC(=O)[O-]
REMARK SMILES IDX 8 1 9 2 10 3 11 4 12 5 13 6 14 7 15 8 16 9 7 10 6 11 5 12
REMARK SMILES IDX 4 13 3 14 2 15 1 16
REMARK H PARENT
REMARK Flexibility Score: inf
ROOT
ATOM      1  C   UNL     1      89.002  29.813  28.810  1.00  0.00     0.000 C 
ENDROOT
BRANCH   1   2
ATOM      2  C   UNL     1      87.687  29.270  29.388  1.00  0.00     0.000 C 
BRANCH   2   3
ATOM      3  C   UNL     1      87.474  27.804  28.979  1.00  0.00     0.000 C 
BRANCH   3   4
ATOM      4  C   UNL     1      86.159  27.587  28.211  1.00  0.00     0.000 C 
BRANCH   4   5
ATOM      5  C   UNL     1      86.160  26.286  27.391  1.00  0.00     0.006 C 
BRANCH   5   6
ATOM      6  C   UNL     1      86.066  25.040  28.282  1.00  0.00     0.053 C 
BRANCH   6   7
ATOM      7  C   UNL     1      84.643  24.635  28.522  1.00  0.00     0.041 C 
ATOM      8  O   UNL     1      84.025  25.057  29.534  1.00  0.00    -0.550 OA
ATOM      9  O   UNL     1      83.990  23.814  27.610  1.00  0.00    -0.550 OA
ENDBRANCH   6   7
ENDBRANCH   5   6
ENDBRANCH   4   5
ENDBRANCH   3   4
ENDBRANCH   2   3
ENDBRANCH   1   2
BRANCH   1  10
ATOM     10  C   UNL     1      89.693  28.817  27.866  1.00  0.00     0.000 C 
BRANCH  10  11
ATOM     11  C   UNL     1      89.699  29.292  26.405  1.00  0.00    -0.000 C 
BRANCH  11  12
ATOM     12  C   UNL     1      88.698  28.488  25.562  1.00  0.00    -0.000 C 
BRANCH  12  13
ATOM     13  C   UNL     1      87.853  29.378  24.636  1.00  0.00    -0.000 C 
BRANCH  13  14
ATOM     14  C   UNL     1      87.412  30.686  25.311  1.00  0.00    -0.000 C 
BRANCH  14  15
ATOM     15  C   UNL     1      86.082  30.500  26.049  1.00  0.00    -0.003 C 
ATOM     16  C   UNL     1      85.939  31.504  27.191  1.00  0.00     0.004 C 
ENDBRANCH  14  15
ENDBRANCH  13  14
ENDBRANCH  12  13
ENDBRANCH  11  12
ENDBRANCH  10  11
ENDBRANCH   1  10
TORSDOF 12
ENDMDL
MODEL 5
REMARK VINA RESULT:    -2.932      1.046      2.714
REMARK INTER + INTRA:          -7.095
REMARK INTER:                  -5.261
REMARK INTRA:                  -1.833
REMARK UNBOUND:                -2.106
REMARK SMILES CCCCCCCCCCCCCC(=O)[O-]
REMARK SMILES IDX 8 1 9 2 10 3 11 4 12 5 13 6 14 7 15 8 16 9 7 10 6 11 5 12
REMARK SMILES IDX 4 13 3 14 2 15 1 16
REMARK H PARENT
REMARK Flexibility Score: inf
ROOT
ATOM      1  C   UNL     1      87.939  28.411  25.202  1.00  0.00     0.000 C 
ENDROOT
BRANCH   1   2
ATOM      2  C   UNL     1      86.510  28.232  25.738  1.00  0.00     0.000 C 
BRANCH   2   3
ATOM      3  C   UNL     1      86.314  26.820  26.312  1.00  0.00     0.000 C 
BRANCH   3   4
ATOM      4  C   UNL     1      85.558  26.824  27.650  1.00  0.00     0.000 C 
BRANCH   4   5
ATOM      5  C   UNL     1      86.179  25.871  28.685  1.00  0.00     0.006 C 
BRANCH   5   6
ATOM      6  C   UNL     1      85.879  24.399  28.370  1.00  0.00     0.053 C 
BRANCH   6   7
ATOM      7  C   UNL     1      84.441  24.060  28.619  1.00  0.00     0.041 C 
ATOM      8  O   UNL     1      83.991  24.026  29.794  1.00  0.00    -0.550 OA
ATOM      9  O   UNL     1      83.590  23.809  27.549  1.00  0.00    -0.550 OA
ENDBRANCH   6   7
ENDBRANCH   5   6
ENDBRANCH   4   5
ENDBRANCH   3   4
ENDBRANCH   2   3
ENDBRANCH   1   2
BRANCH   1  10
ATOM     10  C   UNL     1      88.767  29.401  26.035  1.00  0.00     0.000 C 
BRANCH  10  11
ATOM     11  C   UNL     1      89.461  28.734  27.232  1.00  0.00    -0.000 C 
BRANCH  11  12
ATOM     12  C   UNL     1      89.220  29.533  28.521  1.00  0.00    -0.000 C 
BRANCH  12  13
ATOM     13  C   UNL     1      87.838  29.262  29.137  1.00  0.00    -0.000 C 
BRANCH  13  14
ATOM     14  C   UNL     1      87.005  30.541  29.312  1.00  0.00    -0.000 C 
BRANCH  14  15
ATOM     15  C   UNL     1      85.767  30.515  28.409  1.00  0.00    -0.003 C 
ATOM     16  C   UNL     1      85.883  31.542  27.285  1.00  0.00     0.004 C 
ENDBRANCH  14  15
ENDBRANCH  13  14
ENDBRANCH  12  13
ENDBRANCH  11  12
ENDBRANCH  10  11
ENDBRANCH   1  10
TORSDOF 12
ENDMDL
MODEL 6
REMARK VINA RESULT:    -2.931      3.154      5.517
REMARK INTER + INTRA:          -7.093
REMARK INTER:                  -5.138
REMARK INTRA:                  -1.955
REMARK UNBOUND:                -2.106
REMARK SMILES CCCCCCCCCCCCCC(=O)[O-]
REMARK SMILES IDX 8 1 9 2 10 3 11 4 12 5 13 6 14 7 15 8 16 9 7 10 6 11 5 12
REMARK SMILES IDX 4 13 3 14 2 15 1 16
REMARK H PARENT
REMARK Flexibility Score: inf
ROOT
ATOM      1  C   UNL     1      87.324  30.398  28.928  1.00  0.00     0.000 C 
ENDROOT
BRANCH   1   2
ATOM      2  C   UNL     1      88.834  30.366  28.647  1.00  0.00     0.000 C 
BRANCH   2   3
ATOM      3  C   UNL     1      89.318  28.926  28.421  1.00  0.00     0.000 C 
BRANCH   3   4
ATOM      4  C   UNL     1      89.770  28.672  26.973  1.00  0.00     0.000 C 
BRANCH   4   5
ATOM      5  C   UNL     1      89.908  29.970  26.160  1.00  0.00     0.006 C 
BRANCH   5   6
ATOM      6  C   UNL     1      89.139  29.906  24.833  1.00  0.00     0.053 C 
BRANCH   6   7
ATOM      7  C   UNL     1      89.998  29.397  23.717  1.00  0.00     0.041 C 
ATOM      8  O   UNL     1      90.584  30.203  22.947  1.00  0.00    -0.550 OA
ATOM      9  O   UNL     1      90.175  28.029  23.543  1.00  0.00    -0.550 OA
ENDBRANCH   6   7
ENDBRANCH   5   6
ENDBRANCH   4   5
ENDBRANCH   3   4
ENDBRANCH   2   3
ENDBRANCH   1   2
BRANCH   1  10
ATOM     10  C   UNL     1      86.491  30.695  27.671  1.00  0.00     0.000 C 
BRANCH  10  11
ATOM     11  C   UNL     1      85.518  29.559  27.321  1.00  0.00    -0.000 C 
BRANCH  11  12
ATOM     12  C   UNL     1      85.923  28.874  26.007  1.00  0.00    -0.000 C 
BRANCH  12  13
ATOM     13  C   UNL     1      86.424  27.436  26.219  1.00  0.00    -0.000 C 
BRANCH  13  14
ATOM     14  C   UNL     1      85.428  26.569  27.003  1.00  0.00    -0.000 C 
BRANCH  14  15
ATOM     15  C   UNL     1      86.145  25.753  28.084  1.00  0.00    -0.003 C 
ATOM     16  C   UNL     1      86.671  26.655  29.198  1.00  0.00     0.004 C 
ENDBRANCH  14  15
ENDBRANCH  13  14
ENDBRANCH  12  13
ENDBRANCH  11  12
ENDBRANCH  10  11
ENDBRANCH   1  10
TORSDOF 12
ENDMDL
MODEL 7
REMARK VINA RESULT:    -2.925      2.629      4.525
REMARK INTER + INTRA:          -7.083
REMARK INTER:                  -5.035
REMARK INTRA:                  -2.049
REMARK UNBOUND:                -2.106
REMARK SMILES CCCCCCCCCCCCCC(=O)[O-]
REMARK SMILES IDX 8 1 9 2 10 3 11 4 12 5 13 6 14 7 15 8 16 9 7 10 6 11 5 12
REMARK SMILES IDX 4 13 3 14 2 15 1 16
REMARK H PARENT
REMARK Flexibility Score: inf
ROOT
ATOM      1  C   UNL     1      88.688  29.338  25.322  1.00  0.00     0.000 C 
ENDROOT
BRANCH   1   2
ATOM      2  C   UNL     1      87.790  30.516  24.917  1.00  0.00     0.000 C 
BRANCH   2   3
ATOM      3  C   UNL     1      86.444  30.458  25.657  1.00  0.00     0.000 C 
BRANCH   3   4
ATOM      4  C   UNL     1      86.366  31.456  26.824  1.00  0.00     0.000 C 
BRANCH   4   5
ATOM      5  C   UNL     1      85.098  31.275  27.675  1.00  0.00     0.006 C 
BRANCH   5   6
ATOM      6  C   UNL     1      85.277  31.808  29.103  1.00  0.00     0.053 C 
BRANCH   6   7
ATOM      7  C   UNL     1      84.505  30.997  30.099  1.00  0.00     0.041 C 
ATOM      8  O   UNL     1      84.013  29.886  29.768  1.00  0.00    -0.550 OA
ATOM      9  O   UNL     1      84.352  31.457  31.401  1.00  0.00    -0.550 OA
ENDBRANCH   6   7
ENDBRANCH   5   6
ENDBRANCH   4   5
ENDBRANCH   3   4
ENDBRANCH   2   3
ENDBRANCH   1   2
BRANCH   1  10
ATOM     10  C   UNL     1      89.752  29.731  26.359  1.00  0.00     0.000 C 
BRANCH  10  11
ATOM     11  C   UNL     1      89.650  28.910  27.654  1.00  0.00    -0.000 C 
BRANCH  11  12
ATOM     12  C   UNL     1      89.075  29.758  28.797  1.00  0.00    -0.000 C 
BRANCH  12  13
ATOM     13  C   UNL     1      87.761  29.187  29.355  1.00  0.00    -0.000 C 
BRANCH  13  14
ATOM     14  C   UNL     1      87.492  27.749  28.888  1.00  0.00    -0.000 C 
BRANCH  14  15
ATOM     15  C   UNL     1      86.242  27.685  28.004  1.00  0.00    -0.003 C 
ATOM     16  C   UNL     1      86.254  26.440  27.120  1.00  0.00     0.004 C 
ENDBRANCH  14  15
ENDBRANCH  13  14
ENDBRANCH  12  13
ENDBRANCH  11  12
ENDBRANCH  10  11
ENDBRANCH   1  10
TORSDOF 12
ENDMDL
MODEL 8
REMARK VINA RESULT:    -2.915      2.652      5.401
REMARK INTER + INTRA:          -7.066
REMARK INTER:                  -5.399
REMARK INTRA:                  -1.668
REMARK UNBOUND:                -2.106
REMARK SMILES CCCCCCCCCCCCCC(=O)[O-]
REMARK SMILES IDX 8 1 9 2 10 3 11 4 12 5 13 6 14 7 15 8 16 9 7 10 6 11 5 12
REMARK SMILES IDX 4 13 3 14 2 15 1 16
REMARK H PARENT
REMARK Flexibility Score: inf
ROOT
ATOM      1  C   UNL     1      87.493  28.707  25.602  1.00  0.00     0.000 C 
ENDROOT
BRANCH   1   2
ATOM      2  C   UNL     1      89.008  28.511  25.759  1.00  0.00     0.000 C 
BRANCH   2   3
ATOM      3  C   UNL     1      89.555  29.369  26.911  1.00  0.00     0.000 C 
BRANCH   3   4
ATOM      4  C   UNL     1      89.443  28.670  28.276  1.00  0.00     0.000 C 
BRANCH   4   5
ATOM      5  C   UNL     1      88.306  29.239  29.141  1.00  0.00     0.006 C 
BRANCH   5   6
ATOM      6  C   UNL     1      88.011  30.709  28.816  1.00  0.00     0.053 C 
BRANCH   6   7
ATOM      7  C   UNL     1      86.552  30.941  28.569  1.00  0.00     0.041 C 
ATOM      8  O   UNL     1      85.704  30.649  29.453  1.00  0.00    -0.550 OA
ATOM      9  O   UNL     1      86.130  31.507  27.372  1.00  0.00    -0.550 OA
ENDBRANCH   6   7
ENDBRANCH   5   6
ENDBRANCH   4   5
ENDBRANCH   3   4
ENDBRANCH   2   3
ENDBRANCH   1   2
BRANCH   1  10
ATOM     10  C   UNL     1      86.679  27.531  26.165  1.00  0.00     0.000 C 
BRANCH  10  11
ATOM     11  C   UNL     1      85.466  27.990  26.989  1.00  0.00    -0.000 C 
BRANCH  11  12
ATOM     12  C   UNL     1      85.274  27.100  28.225  1.00  0.00    -0.000 C 
BRANCH  12  13
ATOM     13  C   UNL     1      86.372  26.032  28.364  1.00  0.00    -0.000 C 
BRANCH  13  14
ATOM     14  C   UNL     1      85.816  24.601  28.336  1.00  0.00    -0.000 C 
BRANCH  14  15
ATOM     15  C   UNL     1      84.475  24.520  29.073  1.00  0.00    -0.003 C 
ATOM     16  C   UNL     1      83.378  23.973  28.163  1.00  0.00     0.004 C 
ENDBRANCH  14  15
ENDBRANCH  13  14
ENDBRANCH  12  13
ENDBRANCH  11  12
ENDBRANCH  10  11
ENDBRANCH   1  10
TORSDOF 12
ENDMDL
MODEL 9
REMARK VINA RESULT:    -2.872      1.516      3.236
REMARK INTER + INTRA:          -6.993
REMARK INTER:                  -4.893
REMARK INTRA:                  -2.100
REMARK UNBOUND:                -2.106
REMARK SMILES CCCCCCCCCCCCCC(=O)[O-]
REMARK SMILES IDX 8 1 9 2 10 3 11 4 12 5 13 6 14 7 15 8 16 9 7 10 6 11 5 12
REMARK SMILES IDX 4 13 3 14 2 15 1 16
REMARK H PARENT
REMARK Flexibility Score: inf
ROOT
ATOM      1  C   UNL     1      88.865  28.611  25.081  1.00  0.00     0.000 C 
ENDROOT
BRANCH   1   2
ATOM      2  C   UNL     1      87.706  29.593  25.309  1.00  0.00     0.000 C 
BRANCH   2   3
ATOM      3  C   UNL     1      86.380  28.841  25.498  1.00  0.00     0.000 C 
BRANCH   3   4
ATOM      4  C   UNL     1      86.556  27.313  25.473  1.00  0.00     0.000 C 
BRANCH   4   5
ATOM      5  C   UNL     1      85.726  26.604  26.556  1.00  0.00     0.006 C 
BRANCH   5   6
ATOM      6  C   UNL     1      84.926  27.593  27.414  1.00  0.00     0.053 C 
BRANCH   6   7
ATOM      7  C   UNL     1      84.748  27.095  28.816  1.00  0.00     0.041 C 
ATOM      8  O   UNL     1      85.400  26.097  29.223  1.00  0.00    -0.550 OA
ATOM      9  O   UNL     1      83.883  27.751  29.683  1.00  0.00    -0.550 OA
ENDBRANCH   6   7
ENDBRANCH   5   6
ENDBRANCH   4   5
ENDBRANCH   3   4
ENDBRANCH   2   3
ENDBRANCH   1   2
BRANCH   1  10
ATOM     10  C   UNL     1      89.972  28.742  26.138  1.00  0.00     0.000 C 
BRANCH  10  11
ATOM     11  C   UNL     1      89.566  29.643  27.315  1.00  0.00    -0.000 C 
BRANCH  11  12
ATOM     12  C   UNL     1      89.255  28.807  28.564  1.00  0.00    -0.000 C 
BRANCH  12  13
ATOM     13  C   UNL     1      87.859  29.098  29.140  1.00  0.00    -0.000 C 
BRANCH  13  14
ATOM     14  C   UNL     1      87.415  30.551  28.914  1.00  0.00    -0.000 C 
BRANCH  14  15
ATOM     15  C   UNL     1      85.919  30.717  29.202  1.00  0.00    -0.003 C 
ATOM     16  C   UNL     1      85.204  31.392  28.033  1.00  0.00     0.004 C 
ENDBRANCH  14  15
ENDBRANCH  13  14
ENDBRANCH  12  13
ENDBRANCH  11  12
ENDBRANCH  10  11
ENDBRANCH   1  10
TORSDOF 12
ENDMDL
