MODEL 1
REMARK VINA RESULT:    -1.511      0.000      0.000
REMARK INTER + INTRA:          -2.007
REMARK INTER:                  -1.864
REMARK INTRA:                  -0.143
REMARK UNBOUND:                -0.143
REMARK SMILES CCCCCC(=O)[O-]
REMARK SMILES IDX 4 1 5 2 6 3 7 4 8 5 3 6 2 7 1 8
REMARK H PARENT
REMARK Flexibility Score: inf
ROOT
ATOM      1  C   UNL     1      14.291 -34.761  -0.263  1.00  0.00     0.006 C 
ENDROOT
BRANCH   1   2
ATOM      2  C   UNL     1      13.926 -33.848  -1.445  1.00  0.00     0.053 C 
BRANCH   2   3
ATOM      3  C   UNL     1      12.679 -33.060  -1.182  1.00  0.00     0.041 C 
ATOM      4  O   UNL     1      12.299 -32.183  -2.001  1.00  0.00    -0.550 OA
ATOM      5  O   UNL     1      11.955 -33.272  -0.016  1.00  0.00    -0.550 OA
ENDBRANCH   2   3
ENDBRANCH   1   2
BRANCH   1   6
ATOM      6  C   UNL     1      15.539 -34.315   0.519  1.00  0.00     0.000 C 
BRANCH   6   7
ATOM      7  C   UNL     1      15.198 -33.440   1.734  1.00  0.00    -0.003 C 
ATOM      8  C   UNL     1      16.462 -32.877   2.378  1.00  0.00     0.004 C 
ENDBRANCH   6   7
ENDBRANCH   1   6
TORSDOF 4
ENDMDL
MODEL 2
REMARK VINA RESULT:    -1.474      1.572      2.406
REMARK INTER + INTRA:          -1.962
REMARK INTER:                  -1.869
REMARK INTRA:                  -0.092
REMARK UNBOUND:                -0.143
REMARK SMILES CCCCCC(=O)[O-]
REMARK SMILES IDX 4 1 5 2 6 3 7 4 8 5 3 6 2 7 1 8
REMARK H PARENT
REMARK Flexibility Score: inf
ROOT
ATOM      1  C   UNL     1      14.532 -34.347  -0.025  1.00  0.00     0.006 C 
ENDROOT
BRANCH   1   2
ATOM      2  C   UNL     1      13.865 -33.913  -1.340  1.00  0.00     0.053 C 
BRANCH   2   3
ATOM      3  C   UNL     1      12.711 -32.987  -1.106  1.00  0.00     0.041 C 
ATOM      4  O   UNL     1      12.319 -32.218  -2.024  1.00  0.00    -0.550 OA
ATOM      5  O   UNL     1      12.090 -32.949   0.135  1.00  0.00    -0.550 OA
ENDBRANCH   2   3
ENDBRANCH   1   2
BRANCH   1   6
ATOM      6  C   UNL     1      15.929 -34.970  -0.200  1.00  0.00     0.000 C 
BRANCH   6   7
ATOM      7  C   UNL     1      16.137 -35.581  -1.594  1.00  0.00    -0.003 C 
ATOM      8  C   UNL     1      17.612 -35.876  -1.850  1.00  0.00     0.004 C 
ENDBRANCH   6   7
ENDBRANCH   1   6
TORSDOF 4
ENDMDL
MODEL 3
REMARK VINA RESULT:    -1.432      2.121      3.807
REMARK INTER + INTRA:          -1.910
REMARK INTER:                  -1.732
REMARK INTRA:                  -0.178
REMARK UNBOUND:                -0.143
REMARK SMILES CCCCCC(=O)[O-]
REMARK SMILES IDX 4 1 5 2 6 3 7 4 8 5 3 6 2 7 1 8
REMARK H PARENT
REMARK Flexibility Score: inf
ROOT
ATOM      1  C   UNL     1      14.964 -34.345  -0.163  1.00  0.00     0.006 C 
ENDROOT
BRANCH   1   2
ATOM      2  C   UNL     1      14.176 -34.105   1.136  1.00  0.00     0.053 C 
BRANCH   2   3
ATOM      3  C   UNL     1      14.650 -32.883   1.862  1.00  0.00     0.041 C 
ATOM      4  O   UNL     1      13.850 -31.943   2.108  1.00  0.00    -0.550 OA
ATOM      5  O   UNL     1      15.981 -32.770   2.239  1.00  0.00    -0.550 OA
ENDBRANCH   2   3
ENDBRANCH   1   2
BRANCH   1   6
ATOM      6  C   UNL     1      14.163 -34.069  -1.448  1.00  0.00     0.000 C 
BRANCH   6   7
ATOM      7  C   UNL     1      12.689 -33.737  -1.170  1.00  0.00    -0.003 C 
ATOM      8  C   UNL     1      12.334 -32.343  -1.678  1.00  0.00     0.004 C 
ENDBRANCH   6   7
ENDBRANCH   1   6
TORSDOF 4
ENDMDL
MODEL 4
REMARK VINA RESULT:    -1.430      8.054      9.009
REMARK INTER + INTRA:          -1.908
REMARK INTER:                  -1.746
REMARK INTRA:                  -0.162
REMARK UNBOUND:                -0.143
REMARK SMILES CCCCCC(=O)[O-]
REMARK SMILES IDX 4 1 5 2 6 3 7 4 8 5 3 6 2 7 1 8
REMARK H PARENT
REMARK Flexibility Score: inf
ROOT
ATOM      1  C   UNL     1      20.523 -29.044  -1.640  1.00  0.00     0.006 C 
ENDROOT
BRANCH   1   2
ATOM      2  C   UNL     1      19.864 -29.032  -0.251  1.00  0.00     0.053 C 
BRANCH   2   3
ATOM      3  C   UNL     1      20.554 -29.954   0.707  1.00  0.00     0.041 C 
ATOM      4  O   UNL     1      21.676 -29.644   1.188  1.00  0.00    -0.550 OA
ATOM      5  O   UNL     1      19.974 -31.170   1.042  1.00  0.00    -0.550 OA
ENDBRANCH   2   3
ENDBRANCH   1   2
BRANCH   1   6
ATOM      6  C   UNL     1      21.061 -27.676  -2.097  1.00  0.00     0.000 C 
BRANCH   6   7
ATOM      7  C   UNL     1      21.061 -26.632  -0.971  1.00  0.00    -0.003 C 
ATOM      8  C   UNL     1      21.279 -25.226  -1.525  1.00  0.00     0.004 C 
ENDBRANCH   6   7
ENDBRANCH   1   6
TORSDOF 4
ENDMDL
MODEL 5
REMARK VINA RESULT:    -1.429      1.521      1.944
REMARK INTER + INTRA:          -1.906
REMARK INTER:                  -1.788
REMARK INTRA:                  -0.117
REMARK UNBOUND:                -0.143
REMARK SMILES CCCCCC(=O)[O-]
REMARK SMILES IDX 4 1 5 2 6 3 7 4 8 5 3 6 2 7 1 8
REMARK H PARENT
REMARK Flexibility Score: inf
ROOT
ATOM      1  C   UNL     1      15.646 -34.369   0.682  1.00  0.00     0.006 C 
ENDROOT
BRANCH   1   2
ATOM      2  C   UNL     1      14.208 -33.924   0.372  1.00  0.00     0.053 C 
BRANCH   2   3
ATOM      3  C   UNL     1      13.948 -33.849  -1.101  1.00  0.00     0.041 C 
ATOM      4  O   UNL     1      14.618 -34.555  -1.900  1.00  0.00    -0.550 OA
ATOM      5  O   UNL     1      12.987 -32.977  -1.595  1.00  0.00    -0.550 OA
ENDBRANCH   2   3
ENDBRANCH   1   2
BRANCH   1   6
ATOM      6  C   UNL     1      16.314 -33.595   1.833  1.00  0.00     0.000 C 
BRANCH   6   7
ATOM      7  C   UNL     1      15.391 -32.534   2.449  1.00  0.00    -0.003 C 
ATOM      8  C   UNL     1      16.166 -31.268   2.801  1.00  0.00     0.004 C 
ENDBRANCH   6   7
ENDBRANCH   1   6
TORSDOF 4
ENDMDL
MODEL 6
REMARK VINA RESULT:    -1.402      2.968      4.424
REMARK INTER + INTRA:          -1.873
REMARK INTER:                  -1.765
REMARK INTRA:                  -0.108
REMARK UNBOUND:                -0.143
REMARK SMILES CCCCCC(=O)[O-]
REMARK SMILES IDX 4 1 5 2 6 3 7 4 8 5 3 6 2 7 1 8
REMARK H PARENT
REMARK Flexibility Score: inf
ROOT
ATOM      1  C   UNL     1      14.761 -34.695  -0.193  1.00  0.00     0.006 C 
ENDROOT
BRANCH   1   2
ATOM      2  C   UNL     1      14.934 -33.829   1.066  1.00  0.00     0.053 C 
BRANCH   2   3
ATOM      3  C   UNL     1      16.359 -33.784   1.525  1.00  0.00     0.041 C 
ATOM      4  O   UNL     1      16.658 -33.217   2.609  1.00  0.00    -0.550 OA
ATOM      5  O   UNL     1      17.361 -34.340   0.741  1.00  0.00    -0.550 OA
ENDBRANCH   2   3
ENDBRANCH   1   2
BRANCH   1   6
ATOM      6  C   UNL     1      14.099 -33.966  -1.376  1.00  0.00     0.000 C 
BRANCH   6   7
ATOM      7  C   UNL     1      12.642 -33.573  -1.092  1.00  0.00    -0.003 C 
ATOM      8  C   UNL     1      12.286 -32.253  -1.769  1.00  0.00     0.004 C 
ENDBRANCH   6   7
ENDBRANCH   1   6
TORSDOF 4
ENDMDL
MODEL 7
REMARK VINA RESULT:    -1.397      1.664      2.229
REMARK INTER + INTRA:          -1.867
REMARK INTER:                  -1.690
REMARK INTRA:                  -0.177
REMARK UNBOUND:                -0.143
REMARK SMILES CCCCCC(=O)[O-]
REMARK SMILES IDX 4 1 5 2 6 3 7 4 8 5 3 6 2 7 1 8
REMARK H PARENT
REMARK Flexibility Score: inf
ROOT
ATOM      1  C   UNL     1      14.861 -34.608   0.855  1.00  0.00     0.006 C 
ENDROOT
BRANCH   1   2
ATOM      2  C   UNL     1      13.687 -33.742   0.370  1.00  0.00     0.053 C 
BRANCH   2   3
ATOM      3  C   UNL     1      13.660 -33.615  -1.122  1.00  0.00     0.041 C 
ATOM      4  O   UNL     1      14.466 -34.276  -1.828  1.00  0.00    -0.550 OA
ATOM      5  O   UNL     1      12.767 -32.744  -1.731  1.00  0.00    -0.550 OA
ENDBRANCH   2   3
ENDBRANCH   1   2
BRANCH   1   6
ATOM      6  C   UNL     1      16.051 -33.807   1.413  1.00  0.00     0.000 C 
BRANCH   6   7
ATOM      7  C   UNL     1      17.398 -34.510   1.190  1.00  0.00    -0.003 C 
ATOM      8  C   UNL     1      17.404 -35.278  -0.129  1.00  0.00     0.004 C 
ENDBRANCH   6   7
ENDBRANCH   1   6
TORSDOF 4
ENDMDL
MODEL 8
REMARK VINA RESULT:    -1.390      7.498      8.569
REMARK INTER + INTRA:          -1.858
REMARK INTER:                  -1.786
REMARK INTRA:                  -0.072
REMARK UNBOUND:                -0.143
REMARK SMILES CCCCCC(=O)[O-]
REMARK SMILES IDX 4 1 5 2 6 3 7 4 8 5 3 6 2 7 1 8
REMARK H PARENT
REMARK Flexibility Score: inf
ROOT
ATOM      1  C   UNL     1      19.821 -28.998  -0.349  1.00  0.00     0.006 C 
ENDROOT
BRANCH   1   2
ATOM      2  C   UNL     1      20.531 -28.615  -1.658  1.00  0.00     0.053 C 
BRANCH   2   3
ATOM      3  C   UNL     1      21.367 -27.382  -1.503  1.00  0.00     0.041 C 
ATOM      4  O   UNL     1      20.834 -26.294  -1.159  1.00  0.00    -0.550 OA
ATOM      5  O   UNL     1      22.729 -27.426  -1.770  1.00  0.00    -0.550 OA
ENDBRANCH   2   3
ENDBRANCH   1   2
BRANCH   1   6
ATOM      6  C   UNL     1      20.572 -30.043   0.496  1.00  0.00     0.000 C 
BRANCH   6   7
ATOM      7  C   UNL     1      19.703 -30.640   1.612  1.00  0.00    -0.003 C 
ATOM      8  C   UNL     1      19.650 -32.162   1.511  1.00  0.00     0.004 C 
ENDBRANCH   6   7
ENDBRANCH   1   6
TORSDOF 4
ENDMDL
MODEL 9
REMARK VINA RESULT:    -1.368      8.812      9.966
REMARK INTER + INTRA:          -1.831
REMARK INTER:                  -1.619
REMARK INTRA:                  -0.212
REMARK UNBOUND:                -0.143
REMARK SMILES CCCCCC(=O)[O-]
REMARK SMILES IDX 4 1 5 2 6 3 7 4 8 5 3 6 2 7 1 8
REMARK H PARENT
REMARK Flexibility Score: inf
ROOT
ATOM      1  C   UNL     1      21.716 -26.703  -0.868  1.00  0.00     0.006 C 
ENDROOT
BRANCH   1   2
ATOM      2  C   UNL     1      20.946 -25.501  -0.298  1.00  0.00     0.053 C 
BRANCH   2   3
ATOM      3  C   UNL     1      20.627 -25.676   1.155  1.00  0.00     0.041 C 
ATOM      4  O   UNL     1      21.207 -26.568   1.828  1.00  0.00    -0.550 OA
ATOM      5  O   UNL     1      19.666 -24.875   1.758  1.00  0.00    -0.550 OA
ENDBRANCH   2   3
ENDBRANCH   1   2
BRANCH   1   6
ATOM      6  C   UNL     1      20.904 -27.565  -1.853  1.00  0.00     0.000 C 
BRANCH   6   7
ATOM      7  C   UNL     1      20.756 -29.020  -1.385  1.00  0.00    -0.003 C 
ATOM      8  C   UNL     1      19.819 -29.119  -0.185  1.00  0.00     0.004 C 
ENDBRANCH   6   7
ENDBRANCH   1   6
TORSDOF 4
ENDMDL
