MODEL 1
REMARK VINA RESULT:    -3.118      0.000      0.000
REMARK INTER + INTRA:          -7.415
REMARK INTER:                  -6.035
REMARK INTRA:                  -1.381
REMARK UNBOUND:                -1.381
REMARK SMILES CCCCCCCCCCCCCCCCCC(=O)[O-]
REMARK SMILES IDX 10 1 11 2 12 3 13 4 14 5 15 6 16 7 17 8 18 9 19 10 20 11
REMARK SMILES IDX 9 12 8 13 7 14 6 15 5 16 4 17 3 18 2 19 1 20
REMARK H PARENT
REMARK Flexibility Score: inf
ROOT
ATOM      1  C   UNL     1      15.681  15.989   7.198  1.00  0.00     0.000 C 
ENDROOT
BRANCH   1   2
ATOM      2  C   UNL     1      16.802  14.961   7.427  1.00  0.00     0.000 C 
BRANCH   2   3
ATOM      3  C   UNL     1      16.294  13.509   7.550  1.00  0.00     0.000 C 
BRANCH   3   4
ATOM      4  C   UNL     1      15.944  13.137   9.002  1.00  0.00     0.000 C 
BRANCH   4   5
ATOM      5  C   UNL     1      14.429  13.114   9.259  1.00  0.00     0.000 C 
BRANCH   5   6
ATOM      6  C   UNL     1      14.023  12.050  10.294  1.00  0.00     0.000 C 
BRANCH   6   7
ATOM      7  C   UNL     1      13.620  12.664  11.643  1.00  0.00     0.006 C 
BRANCH   7   8
ATOM      8  C   UNL     1      14.330  11.998  12.829  1.00  0.00     0.053 C 
BRANCH   8   9
ATOM      9  C   UNL     1      15.791  11.846  12.545  1.00  0.00     0.041 C 
ATOM     10  O   UNL     1      16.292  10.698  12.405  1.00  0.00    -0.550 OA
ATOM     11  O   UNL     1      16.609  12.966  12.490  1.00  0.00    -0.550 OA
ENDBRANCH   8   9
ENDBRANCH   7   8
ENDBRANCH   6   7
ENDBRANCH   5   6
ENDBRANCH   4   5
ENDBRANCH   3   4
ENDBRANCH   2   3
ENDBRANCH   1   2
BRANCH   1  12
ATOM     12  C   UNL     1      15.592  17.034   8.321  1.00  0.00     0.000 C 
BRANCH  12  13
ATOM     13  C   UNL     1      16.558  16.740   9.478  1.00  0.00    -0.000 C 
BRANCH  13  14
ATOM     14  C   UNL     1      16.151  17.452  10.780  1.00  0.00    -0.000 C 
BRANCH  14  15
ATOM     15  C   UNL     1      15.495  18.819  10.525  1.00  0.00    -0.000 C 
BRANCH  15  16
ATOM     16  C   UNL     1      16.523  19.954  10.409  1.00  0.00    -0.000 C 
BRANCH  16  17
ATOM     17  C   UNL     1      16.357  20.964  11.555  1.00  0.00    -0.000 C 
BRANCH  17  18
ATOM     18  C   UNL     1      15.075  20.736  12.376  1.00  0.00    -0.000 C 
BRANCH  18  19
ATOM     19  C   UNL     1      14.213  21.993  12.590  1.00  0.00    -0.003 C 
ATOM     20  C   UNL     1      12.985  22.038  11.679  1.00  0.00     0.004 C 
ENDBRANCH  18  19
ENDBRANCH  17  18
ENDBRANCH  16  17
ENDBRANCH  15  16
ENDBRANCH  14  15
ENDBRANCH  13  14
ENDBRANCH  12  13
ENDBRANCH   1  12
TORSDOF 16
ENDMDL
MODEL 2
REMARK VINA RESULT:    -2.769      1.476      2.037
REMARK INTER + INTRA:          -6.740
REMARK INTER:                  -5.998
REMARK INTRA:                  -0.742
REMARK UNBOUND:                -1.381
REMARK SMILES CCCCCCCCCCCCCCCCCC(=O)[O-]
REMARK SMILES IDX 10 1 11 2 12 3 13 4 14 5 15 6 16 7 17 8 18 9 19 10 20 11
REMARK SMILES IDX 9 12 8 13 7 14 6 15 5 16 4 17 3 18 2 19 1 20
REMARK H PARENT
REMARK Flexibility Score: inf
ROOT
ATOM      1  C   UNL     1      16.061  16.105   9.170  1.00  0.00     0.000 C 
ENDROOT
BRANCH   1   2
ATOM      2  C   UNL     1      15.995  15.875   7.651  1.00  0.00     0.000 C 
BRANCH   2   3
ATOM      3  C   UNL     1      15.467  14.480   7.259  1.00  0.00     0.000 C 
BRANCH   3   4
ATOM      4  C   UNL     1      16.188  13.352   8.017  1.00  0.00     0.000 C 
BRANCH   4   5
ATOM      5  C   UNL     1      15.764  13.264   9.492  1.00  0.00     0.000 C 
BRANCH   5   6
ATOM      6  C   UNL     1      14.284  12.873   9.658  1.00  0.00     0.000 C 
BRANCH   6   7
ATOM      7  C   UNL     1      14.101  11.611  10.515  1.00  0.00     0.006 C 
BRANCH   7   8
ATOM      8  C   UNL     1      14.619  11.792  11.948  1.00  0.00     0.053 C 
BRANCH   8   9
ATOM      9  C   UNL     1      13.816  12.829  12.667  1.00  0.00     0.041 C 
ATOM     10  O   UNL     1      14.369  13.884  13.081  1.00  0.00    -0.550 OA
ATOM     11  O   UNL     1      12.470  12.609  12.929  1.00  0.00    -0.550 OA
ENDBRANCH   8   9
ENDBRANCH   7   8
ENDBRANCH   6   7
ENDBRANCH   5   6
ENDBRANCH   4   5
ENDBRANCH   3   4
ENDBRANCH   2   3
ENDBRANCH   1   2
BRANCH   1  12
ATOM     12  C   UNL     1      17.025  17.236   9.561  1.00  0.00     0.000 C 
BRANCH  12  13
ATOM     13  C   UNL     1      16.647  18.581   8.921  1.00  0.00    -0.000 C 
BRANCH  13  14
ATOM     14  C   UNL     1      16.663  19.739   9.934  1.00  0.00    -0.000 C 
BRANCH  14  15
ATOM     15  C   UNL     1      17.084  19.286  11.342  1.00  0.00    -0.000 C 
BRANCH  15  16
ATOM     16  C   UNL     1      16.954  20.405  12.386  1.00  0.00    -0.000 C 
BRANCH  16  17
ATOM     17  C   UNL     1      16.194  21.609  11.809  1.00  0.00    -0.000 C 
BRANCH  17  18
ATOM     18  C   UNL     1      14.775  21.755  12.386  1.00  0.00    -0.000 C 
BRANCH  18  19
ATOM     19  C   UNL     1      13.688  20.962  11.639  1.00  0.00    -0.003 C 
ATOM     20  C   UNL     1      13.348  19.632  12.313  1.00  0.00     0.004 C 
ENDBRANCH  18  19
ENDBRANCH  17  18
ENDBRANCH  16  17
ENDBRANCH  15  16
ENDBRANCH  14  15
ENDBRANCH  13  14
ENDBRANCH  12  13
ENDBRANCH   1  12
TORSDOF 16
ENDMDL
MODEL 3
REMARK VINA RESULT:    -2.493      1.404      1.853
REMARK INTER + INTRA:          -6.206
REMARK INTER:                  -4.885
REMARK INTRA:                  -1.321
REMARK UNBOUND:                -1.381
REMARK SMILES CCCCCCCCCCCCCCCCCC(=O)[O-]
REMARK SMILES IDX 10 1 11 2 12 3 13 4 14 5 15 6 16 7 17 8 18 9 19 10 20 11
REMARK SMILES IDX 9 12 8 13 7 14 6 15 5 16 4 17 3 18 2 19 1 20
REMARK H PARENT
REMARK Flexibility Score: inf
ROOT
ATOM      1  C   UNL     1      15.700  15.737   6.984  1.00  0.00     0.000 C 
ENDROOT
BRANCH   1   2
ATOM      2  C   UNL     1      15.356  14.245   7.132  1.00  0.00     0.000 C 
BRANCH   2   3
ATOM      3  C   UNL     1      16.199  13.520   8.202  1.00  0.00     0.000 C 
BRANCH   3   4
ATOM      4  C   UNL     1      15.678  13.781   9.626  1.00  0.00     0.000 C 
BRANCH   4   5
ATOM      5  C   UNL     1      16.812  13.997  10.641  1.00  0.00     0.000 C 
BRANCH   5   6
ATOM      6  C   UNL     1      16.346  14.764  11.892  1.00  0.00     0.000 C 
BRANCH   6   7
ATOM      7  C   UNL     1      16.131  13.841  13.102  1.00  0.00     0.006 C 
BRANCH   7   8
ATOM      8  C   UNL     1      16.896  12.517  12.977  1.00  0.00     0.053 C 
BRANCH   8   9
ATOM      9  C   UNL     1      15.941  11.371  12.865  1.00  0.00     0.041 C 
ATOM     10  O   UNL     1      16.326  10.199  13.125  1.00  0.00    -0.550 OA
ATOM     11  O   UNL     1      14.643  11.587  12.423  1.00  0.00    -0.550 OA
ENDBRANCH   8   9
ENDBRANCH   7   8
ENDBRANCH   6   7
ENDBRANCH   5   6
ENDBRANCH   4   5
ENDBRANCH   3   4
ENDBRANCH   2   3
ENDBRANCH   1   2
BRANCH   1  12
ATOM     12  C   UNL     1      16.997  16.124   7.711  1.00  0.00     0.000 C 
BRANCH  12  13
ATOM     13  C   UNL     1      16.962  17.561   8.253  1.00  0.00    -0.000 C 
BRANCH  13  14
ATOM     14  C   UNL     1      17.017  17.613   9.790  1.00  0.00    -0.000 C 
BRANCH  14  15
ATOM     15  C   UNL     1      15.718  18.158  10.408  1.00  0.00    -0.000 C 
BRANCH  15  16
ATOM     16  C   UNL     1      15.677  19.692  10.437  1.00  0.00    -0.000 C 
BRANCH  16  17
ATOM     17  C   UNL     1      15.312  20.206  11.838  1.00  0.00    -0.000 C 
BRANCH  17  18
ATOM     18  C   UNL     1      14.683  21.611  11.818  1.00  0.00    -0.000 C 
BRANCH  18  19
ATOM     19  C   UNL     1      13.239  21.681  12.346  1.00  0.00    -0.003 C 
ATOM     20  C   UNL     1      12.826  20.431  13.125  1.00  0.00     0.004 C 
ENDBRANCH  18  19
ENDBRANCH  17  18
ENDBRANCH  16  17
ENDBRANCH  15  16
ENDBRANCH  14  15
ENDBRANCH  13  14
ENDBRANCH  12  13
ENDBRANCH   1  12
TORSDOF 16
ENDMDL
MODEL 4
REMARK VINA RESULT:    -2.430      1.255      3.217
REMARK INTER + INTRA:          -6.083
REMARK INTER:                  -5.501
REMARK INTRA:                  -0.583
REMARK UNBOUND:                -1.381
REMARK SMILES CCCCCCCCCCCCCCCCCC(=O)[O-]
REMARK SMILES IDX 10 1 11 2 12 3 13 4 14 5 15 6 16 7 17 8 18 9 19 10 20 11
REMARK SMILES IDX 9 12 8 13 7 14 6 15 5 16 4 17 3 18 2 19 1 20
REMARK H PARENT
REMARK Flexibility Score: inf
ROOT
ATOM      1  C   UNL     1      14.072  13.156   7.798  1.00  0.00     0.000 C 
ENDROOT
BRANCH   1   2
ATOM      2  C   UNL     1      14.137  13.482   9.300  1.00  0.00     0.000 C 
BRANCH   2   3
ATOM      3  C   UNL     1      14.293  12.236  10.197  1.00  0.00     0.000 C 
BRANCH   3   4
ATOM      4  C   UNL     1      13.478  12.351  11.497  1.00  0.00     0.000 C 
BRANCH   4   5
ATOM      5  C   UNL     1      14.364  12.364  12.752  1.00  0.00     0.000 C 
BRANCH   5   6
ATOM      6  C   UNL     1      15.706  13.081  12.520  1.00  0.00     0.000 C 
BRANCH   6   7
ATOM      7  C   UNL     1      16.895  12.317  13.125  1.00  0.00     0.006 C 
BRANCH   7   8
ATOM      8  C   UNL     1      16.756  10.797  12.974  1.00  0.00     0.053 C 
BRANCH   8   9
ATOM      9  C   UNL     1      17.018  10.385  11.561  1.00  0.00     0.041 C 
ATOM     10  O   UNL     1      17.097  11.255  10.652  1.00  0.00    -0.550 OA
ATOM     11  O   UNL     1      17.120   9.039  11.236  1.00  0.00    -0.550 OA
ENDBRANCH   8   9
ENDBRANCH   7   8
ENDBRANCH   6   7
ENDBRANCH   5   6
ENDBRANCH   4   5
ENDBRANCH   3   4
ENDBRANCH   2   3
ENDBRANCH   1   2
BRANCH   1  12
ATOM     12  C   UNL     1      15.415  13.373   7.083  1.00  0.00     0.000 C 
BRANCH  12  13
ATOM     13  C   UNL     1      16.544  13.753   8.052  1.00  0.00    -0.000 C 
BRANCH  13  14
ATOM     14  C   UNL     1      17.059  15.185   7.824  1.00  0.00    -0.000 C 
BRANCH  14  15
ATOM     15  C   UNL     1      17.120  16.004   9.125  1.00  0.00    -0.000 C 
BRANCH  15  16
ATOM     16  C   UNL     1      15.840  16.816   9.371  1.00  0.00    -0.000 C 
BRANCH  16  17
ATOM     17  C   UNL     1      16.165  18.174  10.012  1.00  0.00    -0.000 C 
BRANCH  17  18
ATOM     18  C   UNL     1      14.912  18.929  10.488  1.00  0.00    -0.000 C 
BRANCH  18  19
ATOM     19  C   UNL     1      15.195  20.223  11.272  1.00  0.00    -0.003 C 
ATOM     20  C   UNL     1      13.934  20.846  11.873  1.00  0.00     0.004 C 
ENDBRANCH  18  19
ENDBRANCH  17  18
ENDBRANCH  16  17
ENDBRANCH  15  16
ENDBRANCH  14  15
ENDBRANCH  13  14
ENDBRANCH  12  13
ENDBRANCH   1  12
TORSDOF 16
ENDMDL
MODEL 5
REMARK VINA RESULT:    -2.397      1.521      2.693
REMARK INTER + INTRA:          -6.021
REMARK INTER:                  -5.533
REMARK INTRA:                  -0.488
REMARK UNBOUND:                -1.381
REMARK SMILES CCCCCCCCCCCCCCCCCC(=O)[O-]
REMARK SMILES IDX 10 1 11 2 12 3 13 4 14 5 15 6 16 7 17 8 18 9 19 10 20 11
REMARK SMILES IDX 9 12 8 13 7 14 6 15 5 16 4 17 3 18 2 19 1 20
REMARK H PARENT
REMARK Flexibility Score: inf
ROOT
ATOM      1  C   UNL     1      15.547  17.382   9.517  1.00  0.00     0.000 C 
ENDROOT
BRANCH   1   2
ATOM      2  C   UNL     1      15.279  16.280   8.479  1.00  0.00     0.000 C 
BRANCH   2   3
ATOM      3  C   UNL     1      16.476  16.004   7.546  1.00  0.00     0.000 C 
BRANCH   3   4
ATOM      4  C   UNL     1      17.072  14.602   7.764  1.00  0.00     0.000 C 
BRANCH   4   5
ATOM      5  C   UNL     1      16.193  13.487   7.177  1.00  0.00     0.000 C 
BRANCH   5   6
ATOM      6  C   UNL     1      14.693  13.721   7.436  1.00  0.00     0.000 C 
BRANCH   6   7
ATOM      7  C   UNL     1      14.131  12.791   8.522  1.00  0.00     0.006 C 
BRANCH   7   8
ATOM      8  C   UNL     1      14.749  13.055   9.901  1.00  0.00     0.053 C 
BRANCH   8   9
ATOM      9  C   UNL     1      14.128  12.167  10.932  1.00  0.00     0.041 C 
ATOM     10  O   UNL     1      14.375  10.931  10.935  1.00  0.00    -0.550 OA
ATOM     11  O   UNL     1      13.235  12.693  11.856  1.00  0.00    -0.550 OA
ENDBRANCH   8   9
ENDBRANCH   7   8
ENDBRANCH   6   7
ENDBRANCH   5   6
ENDBRANCH   4   5
ENDBRANCH   3   4
ENDBRANCH   2   3
ENDBRANCH   1   2
BRANCH   1  12
ATOM     12  C   UNL     1      16.927  17.251  10.182  1.00  0.00     0.000 C 
BRANCH  12  13
ATOM     13  C   UNL     1      16.922  17.716  11.646  1.00  0.00    -0.000 C 
BRANCH  13  14
ATOM     14  C   UNL     1      15.584  17.430  12.350  1.00  0.00    -0.000 C 
BRANCH  14  15
ATOM     15  C   UNL     1      14.930  18.702  12.915  1.00  0.00    -0.000 C 
BRANCH  15  16
ATOM     16  C   UNL     1      14.140  19.481  11.853  1.00  0.00    -0.000 C 
BRANCH  16  17
ATOM     17  C   UNL     1      13.763  20.879  12.365  1.00  0.00    -0.000 C 
BRANCH  17  18
ATOM     18  C   UNL     1      14.785  21.959  11.970  1.00  0.00    -0.000 C 
BRANCH  18  19
ATOM     19  C   UNL     1      16.243  21.638  12.346  1.00  0.00    -0.003 C 
ATOM     20  C   UNL     1      17.124  21.347  11.130  1.00  0.00     0.004 C 
ENDBRANCH  18  19
ENDBRANCH  17  18
ENDBRANCH  16  17
ENDBRANCH  15  16
ENDBRANCH  14  15
ENDBRANCH  13  14
ENDBRANCH  12  13
ENDBRANCH   1  12
TORSDOF 16
ENDMDL
MODEL 6
REMARK VINA RESULT:    -2.317      1.538      2.452
REMARK INTER + INTRA:          -5.866
REMARK INTER:                  -5.150
REMARK INTRA:                  -0.716
REMARK UNBOUND:                -1.381
REMARK SMILES CCCCCCCCCCCCCCCCCC(=O)[O-]
REMARK SMILES IDX 10 1 11 2 12 3 13 4 14 5 15 6 16 7 17 8 18 9 19 10 20 11
REMARK SMILES IDX 9 12 8 13 7 14 6 15 5 16 4 17 3 18 2 19 1 20
REMARK H PARENT
REMARK Flexibility Score: inf
ROOT
ATOM      1  C   UNL     1      15.604  13.063   6.564  1.00  0.00     0.000 C 
ENDROOT
BRANCH   1   2
ATOM      2  C   UNL     1      14.203  13.397   7.103  1.00  0.00     0.000 C 
BRANCH   2   3
ATOM      3  C   UNL     1      13.741  12.465   8.242  1.00  0.00     0.000 C 
BRANCH   3   4
ATOM      4  C   UNL     1      14.223  12.950   9.621  1.00  0.00     0.000 C 
BRANCH   4   5
ATOM      5  C   UNL     1      15.479  12.208  10.103  1.00  0.00     0.000 C 
BRANCH   5   6
ATOM      6  C   UNL     1      16.498  13.148  10.772  1.00  0.00     0.000 C 
BRANCH   6   7
ATOM      7  C   UNL     1      15.828  14.200  11.670  1.00  0.00     0.006 C 
BRANCH   7   8
ATOM      8  C   UNL     1      15.616  13.702  13.104  1.00  0.00     0.053 C 
BRANCH   8   9
ATOM      9  C   UNL     1      15.119  12.292  13.100  1.00  0.00     0.041 C 
ATOM     10  O   UNL     1      13.881  12.056  13.124  1.00  0.00    -0.550 OA
ATOM     11  O   UNL     1      16.021  11.236  13.125  1.00  0.00    -0.550 OA
ENDBRANCH   8   9
ENDBRANCH   7   8
ENDBRANCH   6   7
ENDBRANCH   5   6
ENDBRANCH   4   5
ENDBRANCH   3   4
ENDBRANCH   2   3
ENDBRANCH   1   2
BRANCH   1  12
ATOM     12  C   UNL     1      16.653  14.125   6.931  1.00  0.00     0.000 C 
BRANCH  12  13
ATOM     13  C   UNL     1      16.096  15.201   7.877  1.00  0.00    -0.000 C 
BRANCH  13  14
ATOM     14  C   UNL     1      16.996  16.447   7.946  1.00  0.00    -0.000 C 
BRANCH  14  15
ATOM     15  C   UNL     1      16.322  17.621   8.675  1.00  0.00    -0.000 C 
BRANCH  15  16
ATOM     16  C   UNL     1      17.089  18.053   9.934  1.00  0.00    -0.000 C 
BRANCH  16  17
ATOM     17  C   UNL     1      16.120  18.436  11.063  1.00  0.00    -0.000 C 
BRANCH  17  18
ATOM     18  C   UNL     1      15.373  19.754  10.792  1.00  0.00    -0.000 C 
BRANCH  18  19
ATOM     19  C   UNL     1      14.672  20.364  12.019  1.00  0.00    -0.003 C 
ATOM     20  C   UNL     1      13.330  19.701  12.333  1.00  0.00     0.004 C 
ENDBRANCH  18  19
ENDBRANCH  17  18
ENDBRANCH  16  17
ENDBRANCH  15  16
ENDBRANCH  14  15
ENDBRANCH  13  14
ENDBRANCH  12  13
ENDBRANCH   1  12
TORSDOF 16
ENDMDL
MODEL 7
REMARK VINA RESULT:    -2.196      3.013      6.743
REMARK INTER + INTRA:          -5.631
REMARK INTER:                  -4.467
REMARK INTRA:                  -1.165
REMARK UNBOUND:                -1.381
REMARK SMILES CCCCCCCCCCCCCCCCCC(=O)[O-]
REMARK SMILES IDX 10 1 11 2 12 3 13 4 14 5 15 6 16 7 17 8 18 9 19 10 20 11
REMARK SMILES IDX 9 12 8 13 7 14 6 15 5 16 4 17 3 18 2 19 1 20
REMARK H PARENT
REMARK Flexibility Score: inf
ROOT
ATOM      1  C   UNL     1      15.266  15.164   7.980  1.00  0.00     0.000 C 
ENDROOT
BRANCH   1   2
ATOM      2  C   UNL     1      15.732  16.532   7.455  1.00  0.00     0.000 C 
BRANCH   2   3
ATOM      3  C   UNL     1      17.125  16.950   7.971  1.00  0.00     0.000 C 
BRANCH   3   4
ATOM      4  C   UNL     1      17.077  18.258   8.779  1.00  0.00     0.000 C 
BRANCH   4   5
ATOM      5  C   UNL     1      16.007  18.234   9.882  1.00  0.00     0.000 C 
BRANCH   5   6
ATOM      6  C   UNL     1      16.613  18.098  11.290  1.00  0.00     0.000 C 
BRANCH   6   7
ATOM      7  C   UNL     1      15.587  18.370  12.401  1.00  0.00     0.006 C 
BRANCH   7   8
ATOM      8  C   UNL     1      15.481  19.859  12.754  1.00  0.00     0.053 C 
BRANCH   8   9
ATOM      9  C   UNL     1      14.245  20.451  12.157  1.00  0.00     0.041 C 
ATOM     10  O   UNL     1      14.286  21.586  11.609  1.00  0.00    -0.550 OA
ATOM     11  O   UNL     1      13.034  19.777  12.252  1.00  0.00    -0.550 OA
ENDBRANCH   8   9
ENDBRANCH   7   8
ENDBRANCH   6   7
ENDBRANCH   5   6
ENDBRANCH   4   5
ENDBRANCH   3   4
ENDBRANCH   2   3
ENDBRANCH   1   2
BRANCH   1  12
ATOM     12  C   UNL     1      16.039  13.992   7.355  1.00  0.00     0.000 C 
BRANCH  12  13
ATOM     13  C   UNL     1      17.115  13.427   8.295  1.00  0.00    -0.000 C 
BRANCH  13  14
ATOM     14  C   UNL     1      16.670  13.430   9.768  1.00  0.00    -0.000 C 
BRANCH  14  15
ATOM     15  C   UNL     1      15.695  12.286  10.092  1.00  0.00    -0.000 C 
BRANCH  15  16
ATOM     16  C   UNL     1      14.253  12.776  10.286  1.00  0.00    -0.000 C 
BRANCH  16  17
ATOM     17  C   UNL     1      13.588  12.068  11.477  1.00  0.00    -0.000 C 
BRANCH  17  18
ATOM     18  C   UNL     1      13.780  12.820  12.806  1.00  0.00    -0.000 C 
BRANCH  18  19
ATOM     19  C   UNL     1      15.233  13.215  13.122  1.00  0.00    -0.003 C 
ATOM     20  C   UNL     1      15.455  14.728  13.123  1.00  0.00     0.004 C 
ENDBRANCH  18  19
ENDBRANCH  17  18
ENDBRANCH  16  17
ENDBRANCH  15  16
ENDBRANCH  14  15
ENDBRANCH  13  14
ENDBRANCH  12  13
ENDBRANCH   1  12
TORSDOF 16
ENDMDL
