MODEL 1
REMARK VINA RESULT:    -4.602      0.000      0.000
REMARK INTER + INTRA:         -10.467
REMARK INTER:                  -8.906
REMARK INTRA:                  -1.561
REMARK UNBOUND:                -1.561
REMARK SMILES CCCCCCCCCCCCCCCCCC(=O)[O-]
REMARK SMILES IDX 10 1 11 2 12 3 13 4 14 5 15 6 16 7 17 8 18 9 19 10 20 11
REMARK SMILES IDX 9 12 8 13 7 14 6 15 5 16 4 17 3 18 2 19 1 20
REMARK H PARENT
REMARK Flexibility Score: inf
ROOT
ATOM      1  C   UNL     1      23.832  25.928  21.822  1.00  0.00     0.000 C 
ENDROOT
BRANCH   1   2
ATOM      2  C   UNL     1      24.194  24.523  21.307  1.00  0.00     0.000 C 
BRANCH   2   3
ATOM      3  C   UNL     1      23.648  23.399  22.199  1.00  0.00     0.000 C 
BRANCH   3   4
ATOM      4  C   UNL     1      24.664  22.255  22.324  1.00  0.00     0.000 C 
BRANCH   4   5
ATOM      5  C   UNL     1      25.934  22.672  23.084  1.00  0.00     0.000 C 
BRANCH   5   6
ATOM      6  C   UNL     1      27.212  22.083  22.469  1.00  0.00     0.000 C 
BRANCH   6   7
ATOM      7  C   UNL     1      27.950  23.130  21.625  1.00  0.00     0.006 C 
BRANCH   7   8
ATOM      8  C   UNL     1      27.670  22.930  20.133  1.00  0.00     0.053 C 
BRANCH   8   9
ATOM      9  C   UNL     1      27.322  24.233  19.485  1.00  0.00     0.041 C 
ATOM     10  O   UNL     1      26.279  24.334  18.787  1.00  0.00    -0.550 OA
ATOM     11  O   UNL     1      28.124  25.348  19.693  1.00  0.00    -0.550 OA
ENDBRANCH   8   9
ENDBRANCH   7   8
ENDBRANCH   6   7
ENDBRANCH   5   6
ENDBRANCH   4   5
ENDBRANCH   3   4
ENDBRANCH   2   3
ENDBRANCH   1   2
BRANCH   1  12
ATOM     12  C   UNL     1      25.034  26.816  22.208  1.00  0.00     0.000 C 
BRANCH  12  13
ATOM     13  C   UNL     1      26.210  26.073  22.868  1.00  0.00    -0.000 C 
BRANCH  13  14
ATOM     14  C   UNL     1      27.564  26.803  22.781  1.00  0.00    -0.000 C 
BRANCH  14  15
ATOM     15  C   UNL     1      27.977  27.510  24.093  1.00  0.00    -0.000 C 
BRANCH  15  16
ATOM     16  C   UNL     1      28.059  29.045  23.994  1.00  0.00    -0.000 C 
BRANCH  16  17
ATOM     17  C   UNL     1      27.491  29.814  25.204  1.00  0.00    -0.000 C 
BRANCH  17  18
ATOM     18  C   UNL     1      26.218  30.626  24.890  1.00  0.00    -0.000 C 
BRANCH  18  19
ATOM     19  C   UNL     1      26.171  31.953  25.663  1.00  0.00    -0.003 C 
ATOM     20  C   UNL     1      27.576  32.493  25.916  1.00  0.00     0.004 C 
ENDBRANCH  18  19
ENDBRANCH  17  18
ENDBRANCH  16  17
ENDBRANCH  15  16
ENDBRANCH  14  15
ENDBRANCH  13  14
ENDBRANCH  12  13
ENDBRANCH   1  12
TORSDOF 16
ENDMDL
MODEL 2
REMARK VINA RESULT:    -4.419      3.367      7.371
REMARK INTER + INTRA:         -10.113
REMARK INTER:                  -8.809
REMARK INTRA:                  -1.304
REMARK UNBOUND:                -1.561
REMARK SMILES CCCCCCCCCCCCCCCCCC(=O)[O-]
REMARK SMILES IDX 10 1 11 2 12 3 13 4 14 5 15 6 16 7 17 8 18 9 19 10 20 11
REMARK SMILES IDX 9 12 8 13 7 14 6 15 5 16 4 17 3 18 2 19 1 20
REMARK H PARENT
REMARK Flexibility Score: inf
ROOT
ATOM      1  C   UNL     1      27.069  24.343  23.505  1.00  0.00     0.000 C 
ENDROOT
BRANCH   1   2
ATOM      2  C   UNL     1      28.119  24.688  24.576  1.00  0.00     0.000 C 
BRANCH   2   3
ATOM      3  C   UNL     1      28.025  26.142  25.061  1.00  0.00     0.000 C 
BRANCH   3   4
ATOM      4  C   UNL     1      27.887  27.109  23.876  1.00  0.00     0.000 C 
BRANCH   4   5
ATOM      5  C   UNL     1      27.694  28.567  24.322  1.00  0.00     0.000 C 
BRANCH   5   6
ATOM      6  C   UNL     1      26.252  29.058  24.135  1.00  0.00     0.000 C 
BRANCH   6   7
ATOM      7  C   UNL     1      26.051  30.435  24.780  1.00  0.00     0.006 C 
BRANCH   7   8
ATOM      8  C   UNL     1      27.256  30.817  25.645  1.00  0.00     0.053 C 
BRANCH   8   9
ATOM      9  C   UNL     1      27.300  32.297  25.858  1.00  0.00     0.041 C 
ATOM     10  O   UNL     1      26.904  32.792  26.946  1.00  0.00    -0.550 OA
ATOM     11  O   UNL     1      27.824  33.125  24.874  1.00  0.00    -0.550 OA
ENDBRANCH   8   9
ENDBRANCH   7   8
ENDBRANCH   6   7
ENDBRANCH   5   6
ENDBRANCH   4   5
ENDBRANCH   3   4
ENDBRANCH   2   3
ENDBRANCH   1   2
BRANCH   1  12
ATOM     12  C   UNL     1      26.926  22.840  23.187  1.00  0.00     0.000 C 
BRANCH  12  13
ATOM     13  C   UNL     1      27.855  22.316  22.076  1.00  0.00    -0.000 C 
BRANCH  13  14
ATOM     14  C   UNL     1      27.230  22.296  20.668  1.00  0.00    -0.000 C 
BRANCH  14  15
ATOM     15  C   UNL     1      27.103  23.694  20.023  1.00  0.00    -0.000 C 
BRANCH  15  16
ATOM     16  C   UNL     1      25.671  24.077  19.603  1.00  0.00    -0.000 C 
BRANCH  16  17
ATOM     17  C   UNL     1      24.602  23.942  20.707  1.00  0.00    -0.000 C 
BRANCH  17  18
ATOM     18  C   UNL     1      23.364  24.835  20.493  1.00  0.00    -0.000 C 
BRANCH  18  19
ATOM     19  C   UNL     1      23.304  25.993  21.502  1.00  0.00    -0.003 C 
ATOM     20  C   UNL     1      24.696  26.345  22.019  1.00  0.00     0.004 C 
ENDBRANCH  18  19
ENDBRANCH  17  18
ENDBRANCH  16  17
ENDBRANCH  15  16
ENDBRANCH  14  15
ENDBRANCH  13  14
ENDBRANCH  12  13
ENDBRANCH   1  12
TORSDOF 16
ENDMDL
MODEL 3
REMARK VINA RESULT:    -4.383      3.242      7.481
REMARK INTER + INTRA:         -10.043
REMARK INTER:                  -8.047
REMARK INTRA:                  -1.996
REMARK UNBOUND:                -1.561
REMARK SMILES CCCCCCCCCCCCCCCCCC(=O)[O-]
REMARK SMILES IDX 10 1 11 2 12 3 13 4 14 5 15 6 16 7 17 8 18 9 19 10 20 11
REMARK SMILES IDX 9 12 8 13 7 14 6 15 5 16 4 17 3 18 2 19 1 20
REMARK H PARENT
REMARK Flexibility Score: inf
ROOT
ATOM      1  C   UNL     1      24.977  27.012  22.372  1.00  0.00     0.000 C 
ENDROOT
BRANCH   1   2
ATOM      2  C   UNL     1      26.128  26.270  23.074  1.00  0.00     0.000 C 
BRANCH   2   3
ATOM      3  C   UNL     1      27.512  26.680  22.552  1.00  0.00     0.000 C 
BRANCH   3   4
ATOM      4  C   UNL     1      27.918  28.059  23.093  1.00  0.00     0.000 C 
BRANCH   4   5
ATOM      5  C   UNL     1      27.891  28.122  24.628  1.00  0.00     0.000 C 
BRANCH   5   6
ATOM      6  C   UNL     1      27.733  29.554  25.159  1.00  0.00     0.000 C 
BRANCH   6   7
ATOM      7  C   UNL     1      26.420  30.179  24.672  1.00  0.00     0.006 C 
BRANCH   7   8
ATOM      8  C   UNL     1      26.067  31.425  25.491  1.00  0.00     0.053 C 
BRANCH   8   9
ATOM      9  C   UNL     1      27.294  32.233  25.769  1.00  0.00     0.041 C 
ATOM     10  O   UNL     1      27.893  32.819  24.830  1.00  0.00    -0.550 OA
ATOM     11  O   UNL     1      27.749  32.380  27.073  1.00  0.00    -0.550 OA
ENDBRANCH   8   9
ENDBRANCH   7   8
ENDBRANCH   6   7
ENDBRANCH   5   6
ENDBRANCH   4   5
ENDBRANCH   3   4
ENDBRANCH   2   3
ENDBRANCH   1   2
BRANCH   1  12
ATOM     12  C   UNL     1      23.953  26.107  21.655  1.00  0.00     0.000 C 
BRANCH  12  13
ATOM     13  C   UNL     1      24.209  24.595  21.791  1.00  0.00    -0.000 C 
BRANCH  13  14
ATOM     14  C   UNL     1      24.440  23.857  20.458  1.00  0.00    -0.000 C 
BRANCH  14  15
ATOM     15  C   UNL     1      25.792  24.190  19.787  1.00  0.00    -0.000 C 
BRANCH  15  16
ATOM     16  C   UNL     1      27.028  23.674  20.548  1.00  0.00    -0.000 C 
BRANCH  16  17
ATOM     17  C   UNL     1      26.991  22.179  20.928  1.00  0.00    -0.000 C 
BRANCH  17  18
ATOM     18  C   UNL     1      27.533  21.877  22.339  1.00  0.00    -0.000 C 
BRANCH  18  19
ATOM     19  C   UNL     1      26.740  22.610  23.433  1.00  0.00    -0.003 C 
ATOM     20  C   UNL     1      27.666  23.127  24.531  1.00  0.00     0.004 C 
ENDBRANCH  18  19
ENDBRANCH  17  18
ENDBRANCH  16  17
ENDBRANCH  15  16
ENDBRANCH  14  15
ENDBRANCH  13  14
ENDBRANCH  12  13
ENDBRANCH   1  12
TORSDOF 16
ENDMDL
MODEL 4
REMARK VINA RESULT:    -4.243      3.145      7.120
REMARK INTER + INTRA:          -9.773
REMARK INTER:                  -8.018
REMARK INTRA:                  -1.755
REMARK UNBOUND:                -1.561
REMARK SMILES CCCCCCCCCCCCCCCCCC(=O)[O-]
REMARK SMILES IDX 10 1 11 2 12 3 13 4 14 5 15 6 16 7 17 8 18 9 19 10 20 11
REMARK SMILES IDX 9 12 8 13 7 14 6 15 5 16 4 17 3 18 2 19 1 20
REMARK H PARENT
REMARK Flexibility Score: inf
ROOT
ATOM      1  C   UNL     1      23.245  26.254  21.490  1.00  0.00     0.000 C 
ENDROOT
BRANCH   1   2
ATOM      2  C   UNL     1      24.076  27.301  22.252  1.00  0.00     0.000 C 
BRANCH   2   3
ATOM      3  C   UNL     1      25.491  26.811  22.591  1.00  0.00     0.000 C 
BRANCH   3   4
ATOM      4  C   UNL     1      26.270  27.880  23.372  1.00  0.00     0.000 C 
BRANCH   4   5
ATOM      5  C   UNL     1      27.388  27.281  24.240  1.00  0.00     0.000 C 
BRANCH   5   6
ATOM      6  C   UNL     1      28.125  28.340  25.072  1.00  0.00     0.000 C 
BRANCH   6   7
ATOM      7  C   UNL     1      27.618  29.750  24.740  1.00  0.00     0.006 C 
BRANCH   7   8
ATOM      8  C   UNL     1      27.853  30.707  25.912  1.00  0.00     0.053 C 
BRANCH   8   9
ATOM      9  C   UNL     1      26.779  31.748  25.962  1.00  0.00     0.041 C 
ATOM     10  O   UNL     1      26.934  32.784  26.659  1.00  0.00    -0.550 OA
ATOM     11  O   UNL     1      25.628  31.595  25.200  1.00  0.00    -0.550 OA
ENDBRANCH   8   9
ENDBRANCH   7   8
ENDBRANCH   6   7
ENDBRANCH   5   6
ENDBRANCH   4   5
ENDBRANCH   3   4
ENDBRANCH   2   3
ENDBRANCH   1   2
BRANCH   1  12
ATOM     12  C   UNL     1      24.063  25.145  20.795  1.00  0.00     0.000 C 
BRANCH  12  13
ATOM     13  C   UNL     1      23.623  23.706  21.122  1.00  0.00    -0.000 C 
BRANCH  13  14
ATOM     14  C   UNL     1      23.833  23.285  22.589  1.00  0.00    -0.000 C 
BRANCH  14  15
ATOM     15  C   UNL     1      25.059  22.367  22.805  1.00  0.00    -0.000 C 
BRANCH  15  16
ATOM     16  C   UNL     1      26.251  23.047  23.505  1.00  0.00    -0.000 C 
BRANCH  16  17
ATOM     17  C   UNL     1      27.613  22.873  22.802  1.00  0.00    -0.000 C 
BRANCH  17  18
ATOM     18  C   UNL     1      28.125  24.148  22.104  1.00  0.00    -0.000 C 
BRANCH  18  19
ATOM     19  C   UNL     1      27.366  24.439  20.799  1.00  0.00    -0.003 C 
ATOM     20  C   UNL     1      28.104  23.864  19.594  1.00  0.00     0.004 C 
ENDBRANCH  18  19
ENDBRANCH  17  18
ENDBRANCH  16  17
ENDBRANCH  15  16
ENDBRANCH  14  15
ENDBRANCH  13  14
ENDBRANCH  12  13
ENDBRANCH   1  12
TORSDOF 16
ENDMDL
MODEL 5
REMARK VINA RESULT:    -4.116      2.674      3.178
REMARK INTER + INTRA:          -9.527
REMARK INTER:                  -8.553
REMARK INTRA:                  -0.973
REMARK UNBOUND:                -1.561
REMARK SMILES CCCCCCCCCCCCCCCCCC(=O)[O-]
REMARK SMILES IDX 10 1 11 2 12 3 13 4 14 5 15 6 16 7 17 8 18 9 19 10 20 11
REMARK SMILES IDX 9 12 8 13 7 14 6 15 5 16 4 17 3 18 2 19 1 20
REMARK H PARENT
REMARK Flexibility Score: inf
ROOT
ATOM      1  C   UNL     1      24.302  26.696  21.910  1.00  0.00     0.000 C 
ENDROOT
BRANCH   1   2
ATOM      2  C   UNL     1      23.295  25.648  21.403  1.00  0.00     0.000 C 
BRANCH   2   3
ATOM      3  C   UNL     1      23.652  24.218  21.832  1.00  0.00     0.000 C 
BRANCH   3   4
ATOM      4  C   UNL     1      24.675  23.595  20.872  1.00  0.00     0.000 C 
BRANCH   4   5
ATOM      5  C   UNL     1      25.522  22.500  21.539  1.00  0.00     0.000 C 
BRANCH   5   6
ATOM      6  C   UNL     1      25.475  22.566  23.072  1.00  0.00     0.000 C 
BRANCH   6   7
ATOM      7  C   UNL     1      26.815  22.136  23.683  1.00  0.00     0.006 C 
BRANCH   7   8
ATOM      8  C   UNL     1      27.573  23.341  24.250  1.00  0.00     0.053 C 
BRANCH   8   9
ATOM      9  C   UNL     1      27.735  23.208  25.731  1.00  0.00     0.041 C 
ATOM     10  O   UNL     1      27.646  22.078  26.279  1.00  0.00    -0.550 OA
ATOM     11  O   UNL     1      28.032  24.325  26.500  1.00  0.00    -0.550 OA
ENDBRANCH   8   9
ENDBRANCH   7   8
ENDBRANCH   6   7
ENDBRANCH   5   6
ENDBRANCH   4   5
ENDBRANCH   3   4
ENDBRANCH   2   3
ENDBRANCH   1   2
BRANCH   1  12
ATOM     12  C   UNL     1      25.710  26.152  22.230  1.00  0.00     0.000 C 
BRANCH  12  13
ATOM     13  C   UNL     1      26.419  26.830  23.417  1.00  0.00    -0.000 C 
BRANCH  13  14
ATOM     14  C   UNL     1      26.873  28.278  23.155  1.00  0.00    -0.000 C 
BRANCH  14  15
ATOM     15  C   UNL     1      28.125  28.695  23.961  1.00  0.00    -0.000 C 
BRANCH  15  16
ATOM     16  C   UNL     1      27.862  29.753  25.050  1.00  0.00    -0.000 C 
BRANCH  16  17
ATOM     17  C   UNL     1      26.385  30.158  25.232  1.00  0.00    -0.000 C 
BRANCH  17  18
ATOM     18  C   UNL     1      26.147  31.681  25.214  1.00  0.00    -0.000 C 
BRANCH  18  19
ATOM     19  C   UNL     1      27.306  32.456  25.861  1.00  0.00    -0.003 C 
ATOM     20  C   UNL     1      28.077  33.263  24.820  1.00  0.00     0.004 C 
ENDBRANCH  18  19
ENDBRANCH  17  18
ENDBRANCH  16  17
ENDBRANCH  15  16
ENDBRANCH  14  15
ENDBRANCH  13  14
ENDBRANCH  12  13
ENDBRANCH   1  12
TORSDOF 16
ENDMDL
MODEL 6
REMARK VINA RESULT:    -3.921      1.765      3.229
REMARK INTER + INTRA:          -9.150
REMARK INTER:                  -7.817
REMARK INTRA:                  -1.333
REMARK UNBOUND:                -1.561
REMARK SMILES CCCCCCCCCCCCCCCCCC(=O)[O-]
REMARK SMILES IDX 10 1 11 2 12 3 13 4 14 5 15 6 16 7 17 8 18 9 19 10 20 11
REMARK SMILES IDX 9 12 8 13 7 14 6 15 5 16 4 17 3 18 2 19 1 20
REMARK H PARENT
REMARK Flexibility Score: inf
ROOT
ATOM      1  C   UNL     1      26.713  23.082  23.861  1.00  0.00     0.000 C 
ENDROOT
BRANCH   1   2
ATOM      2  C   UNL     1      27.158  21.875  23.017  1.00  0.00     0.000 C 
BRANCH   2   3
ATOM      3  C   UNL     1      28.103  22.262  21.870  1.00  0.00     0.000 C 
BRANCH   3   4
ATOM      4  C   UNL     1      27.344  22.352  20.539  1.00  0.00     0.000 C 
BRANCH   4   5
ATOM      5  C   UNL     1      27.153  23.801  20.063  1.00  0.00     0.000 C 
BRANCH   5   6
ATOM      6  C   UNL     1      25.674  24.193  19.938  1.00  0.00     0.000 C 
BRANCH   6   7
ATOM      7  C   UNL     1      24.802  23.363  20.889  1.00  0.00     0.006 C 
BRANCH   7   8
ATOM      8  C   UNL     1      24.061  24.264  21.882  1.00  0.00     0.053 C 
BRANCH   8   9
ATOM      9  C   UNL     1      23.372  25.380  21.164  1.00  0.00     0.041 C 
ATOM     10  O   UNL     1      22.841  25.177  20.040  1.00  0.00    -0.550 OA
ATOM     11  O   UNL     1      23.273  26.632  21.756  1.00  0.00    -0.550 OA
ENDBRANCH   8   9
ENDBRANCH   7   8
ENDBRANCH   6   7
ENDBRANCH   5   6
ENDBRANCH   4   5
ENDBRANCH   3   4
ENDBRANCH   2   3
ENDBRANCH   1   2
BRANCH   1  12
ATOM     12  C   UNL     1      27.532  24.372  23.646  1.00  0.00     0.000 C 
BRANCH  12  13
ATOM     13  C   UNL     1      26.703  25.624  23.306  1.00  0.00    -0.000 C 
BRANCH  13  14
ATOM     14  C   UNL     1      27.420  26.647  22.404  1.00  0.00    -0.000 C 
BRANCH  14  15
ATOM     15  C   UNL     1      28.082  27.808  23.181  1.00  0.00    -0.000 C 
BRANCH  15  16
ATOM     16  C   UNL     1      27.101  28.678  23.990  1.00  0.00    -0.000 C 
BRANCH  16  17
ATOM     17  C   UNL     1      27.729  29.902  24.688  1.00  0.00    -0.000 C 
BRANCH  17  18
ATOM     18  C   UNL     1      26.700  30.941  25.175  1.00  0.00    -0.000 C 
BRANCH  18  19
ATOM     19  C   UNL     1      27.353  32.292  25.508  1.00  0.00    -0.003 C 
ATOM     20  C   UNL     1      26.769  32.886  26.786  1.00  0.00     0.004 C 
ENDBRANCH  18  19
ENDBRANCH  17  18
ENDBRANCH  16  17
ENDBRANCH  15  16
ENDBRANCH  14  15
ENDBRANCH  13  14
ENDBRANCH  12  13
ENDBRANCH   1  12
TORSDOF 16
ENDMDL
MODEL 7
REMARK VINA RESULT:    -3.711     17.393     20.243
REMARK INTER + INTRA:          -8.742
REMARK INTER:                  -7.651
REMARK INTRA:                  -1.091
REMARK UNBOUND:                -1.561
REMARK SMILES CCCCCCCCCCCCCCCCCC(=O)[O-]
REMARK SMILES IDX 10 1 11 2 12 3 13 4 14 5 15 6 16 7 17 8 18 9 19 10 20 11
REMARK SMILES IDX 9 12 8 13 7 14 6 15 5 16 4 17 3 18 2 19 1 20
REMARK H PARENT
REMARK Flexibility Score: inf
ROOT
ATOM      1  C   UNL     1      12.954  37.179  21.337  1.00  0.00     0.000 C 
ENDROOT
BRANCH   1   2
ATOM      2  C   UNL     1      13.508  38.161  22.384  1.00  0.00     0.000 C 
BRANCH   2   3
ATOM      3  C   UNL     1      12.597  38.306  23.611  1.00  0.00     0.000 C 
BRANCH   3   4
ATOM      4  C   UNL     1      11.210  37.705  23.339  1.00  0.00     0.000 C 
BRANCH   4   5
ATOM      5  C   UNL     1      10.202  38.016  24.457  1.00  0.00     0.000 C 
BRANCH   5   6
ATOM      6  C   UNL     1       8.746  37.961  23.974  1.00  0.00     0.000 C 
BRANCH   6   7
ATOM      7  C   UNL     1       7.875  38.968  24.736  1.00  0.00     0.006 C 
BRANCH   7   8
ATOM      8  C   UNL     1       8.204  38.958  26.232  1.00  0.00     0.053 C 
BRANCH   8   9
ATOM      9  C   UNL     1       8.529  40.339  26.706  1.00  0.00     0.041 C 
ATOM     10  O   UNL     1       8.060  40.762  27.795  1.00  0.00    -0.550 OA
ATOM     11  O   UNL     1       9.391  41.142  25.970  1.00  0.00    -0.550 OA
ENDBRANCH   8   9
ENDBRANCH   7   8
ENDBRANCH   6   7
ENDBRANCH   5   6
ENDBRANCH   4   5
ENDBRANCH   3   4
ENDBRANCH   2   3
ENDBRANCH   1   2
BRANCH   1  12
ATOM     12  C   UNL     1      13.384  35.709  21.524  1.00  0.00     0.000 C 
BRANCH  12  13
ATOM     13  C   UNL     1      12.231  34.713  21.750  1.00  0.00    -0.000 C 
BRANCH  13  14
ATOM     14  C   UNL     1      10.873  35.363  22.077  1.00  0.00    -0.000 C 
BRANCH  14  15
ATOM     15  C   UNL     1       9.972  34.500  22.989  1.00  0.00    -0.000 C 
BRANCH  15  16
ATOM     16  C   UNL     1      10.580  33.143  23.390  1.00  0.00    -0.000 C 
BRANCH  16  17
ATOM     17  C   UNL     1      11.223  33.097  24.791  1.00  0.00    -0.000 C 
BRANCH  17  18
ATOM     18  C   UNL     1      12.602  33.782  24.870  1.00  0.00    -0.000 C 
BRANCH  18  19
ATOM     19  C   UNL     1      12.547  35.106  25.648  1.00  0.00    -0.003 C 
ATOM     20  C   UNL     1      11.230  35.245  26.407  1.00  0.00     0.004 C 
ENDBRANCH  18  19
ENDBRANCH  17  18
ENDBRANCH  16  17
ENDBRANCH  15  16
ENDBRANCH  14  15
ENDBRANCH  13  14
ENDBRANCH  12  13
ENDBRANCH   1  12
TORSDOF 16
ENDMDL
MODEL 8
REMARK VINA RESULT:    -3.618      2.259      3.539
REMARK INTER + INTRA:          -8.562
REMARK INTER:                  -8.176
REMARK INTRA:                  -0.386
REMARK UNBOUND:                -1.561
REMARK SMILES CCCCCCCCCCCCCCCCCC(=O)[O-]
REMARK SMILES IDX 10 1 11 2 12 3 13 4 14 5 15 6 16 7 17 8 18 9 19 10 20 11
REMARK SMILES IDX 9 12 8 13 7 14 6 15 5 16 4 17 3 18 2 19 1 20
REMARK H PARENT
REMARK Flexibility Score: inf
ROOT
ATOM      1  C   UNL     1      26.953  23.968  26.927  1.00  0.00     0.000 C 
ENDROOT
BRANCH   1   2
ATOM      2  C   UNL     1      26.886  22.442  26.737  1.00  0.00     0.000 C 
BRANCH   2   3
ATOM      3  C   UNL     1      27.252  21.999  25.313  1.00  0.00     0.000 C 
BRANCH   3   4
ATOM      4  C   UNL     1      26.003  21.924  24.423  1.00  0.00     0.000 C 
BRANCH   4   5
ATOM      5  C   UNL     1      26.341  21.981  22.925  1.00  0.00     0.000 C 
BRANCH   5   6
ATOM      6  C   UNL     1      25.719  23.196  22.223  1.00  0.00     0.000 C 
BRANCH   6   7
ATOM      7  C   UNL     1      24.196  23.217  22.406  1.00  0.00     0.006 C 
BRANCH   7   8
ATOM      8  C   UNL     1      23.527  24.098  21.346  1.00  0.00     0.053 C 
BRANCH   8   9
ATOM      9  C   UNL     1      24.107  25.477  21.370  1.00  0.00     0.041 C 
ATOM     10  O   UNL     1      25.304  25.666  21.028  1.00  0.00    -0.550 OA
ATOM     11  O   UNL     1      23.312  26.559  21.722  1.00  0.00    -0.550 OA
ENDBRANCH   8   9
ENDBRANCH   7   8
ENDBRANCH   6   7
ENDBRANCH   5   6
ENDBRANCH   4   5
ENDBRANCH   3   4
ENDBRANCH   2   3
ENDBRANCH   1   2
BRANCH   1  12
ATOM     12  C   UNL     1      28.051  24.683  26.111  1.00  0.00     0.000 C 
BRANCH  12  13
ATOM     13  C   UNL     1      27.631  25.128  24.698  1.00  0.00    -0.000 C 
BRANCH  13  14
ATOM     14  C   UNL     1      27.727  26.644  24.443  1.00  0.00    -0.000 C 
BRANCH  14  15
ATOM     15  C   UNL     1      26.434  27.263  23.866  1.00  0.00    -0.000 C 
BRANCH  15  16
ATOM     16  C   UNL     1      26.474  28.795  23.707  1.00  0.00    -0.000 C 
BRANCH  16  17
ATOM     17  C   UNL     1      27.380  29.538  24.710  1.00  0.00    -0.000 C 
BRANCH  17  18
ATOM     18  C   UNL     1      26.954  30.995  24.980  1.00  0.00    -0.000 C 
BRANCH  18  19
ATOM     19  C   UNL     1      27.642  31.579  26.224  1.00  0.00    -0.003 C 
ATOM     20  C   UNL     1      26.917  32.827  26.719  1.00  0.00     0.004 C 
ENDBRANCH  18  19
ENDBRANCH  17  18
ENDBRANCH  16  17
ENDBRANCH  15  16
ENDBRANCH  14  15
ENDBRANCH  13  14
ENDBRANCH  12  13
ENDBRANCH   1  12
TORSDOF 16
ENDMDL
MODEL 9
REMARK VINA RESULT:    -3.490      3.315      7.785
REMARK INTER + INTRA:          -8.316
REMARK INTER:                  -7.581
REMARK INTRA:                  -0.735
REMARK UNBOUND:                -1.561
REMARK SMILES CCCCCCCCCCCCCCCCCC(=O)[O-]
REMARK SMILES IDX 10 1 11 2 12 3 13 4 14 5 15 6 16 7 17 8 18 9 19 10 20 11
REMARK SMILES IDX 9 12 8 13 7 14 6 15 5 16 4 17 3 18 2 19 1 20
REMARK H PARENT
REMARK Flexibility Score: inf
ROOT
ATOM      1  C   UNL     1      25.602  26.257  22.409  1.00  0.00     0.000 C 
ENDROOT
BRANCH   1   2
ATOM      2  C   UNL     1      27.060  26.459  22.860  1.00  0.00     0.000 C 
BRANCH   2   3
ATOM      3  C   UNL     1      27.305  26.024  24.311  1.00  0.00     0.000 C 
BRANCH   3   4
ATOM      4  C   UNL     1      28.125  27.077  25.070  1.00  0.00     0.000 C 
BRANCH   4   5
ATOM      5  C   UNL     1      28.102  28.452  24.382  1.00  0.00     0.000 C 
BRANCH   5   6
ATOM      6  C   UNL     1      27.477  29.544  25.261  1.00  0.00     0.000 C 
BRANCH   6   7
ATOM      7  C   UNL     1      26.283  30.201  24.556  1.00  0.00     0.006 C 
BRANCH   7   8
ATOM      8  C   UNL     1      25.870  31.494  25.266  1.00  0.00     0.053 C 
BRANCH   8   9
ATOM      9  C   UNL     1      27.077  32.246  25.729  1.00  0.00     0.041 C 
ATOM     10  O   UNL     1      27.274  32.431  26.959  1.00  0.00    -0.550 OA
ATOM     11  O   UNL     1      28.009  32.701  24.806  1.00  0.00    -0.550 OA
ENDBRANCH   8   9
ENDBRANCH   7   8
ENDBRANCH   6   7
ENDBRANCH   5   6
ENDBRANCH   4   5
ENDBRANCH   3   4
ENDBRANCH   2   3
ENDBRANCH   1   2
BRANCH   1  12
ATOM     12  C   UNL     1      25.407  25.259  21.249  1.00  0.00     0.000 C 
BRANCH  12  13
ATOM     13  C   UNL     1      26.703  24.649  20.685  1.00  0.00    -0.000 C 
BRANCH  13  14
ATOM     14  C   UNL     1      26.614  23.151  20.338  1.00  0.00    -0.000 C 
BRANCH  14  15
ATOM     15  C   UNL     1      25.529  22.390  21.134  1.00  0.00    -0.000 C 
BRANCH  15  16
ATOM     16  C   UNL     1      25.542  22.660  22.651  1.00  0.00    -0.000 C 
BRANCH  16  17
ATOM     17  C   UNL     1      24.250  22.271  23.400  1.00  0.00    -0.000 C 
BRANCH  17  18
ATOM     18  C   UNL     1      22.955  22.667  22.662  1.00  0.00    -0.000 C 
BRANCH  18  19
ATOM     19  C   UNL     1      21.738  21.875  23.164  1.00  0.00    -0.003 C 
ATOM     20  C   UNL     1      21.352  22.296  24.579  1.00  0.00     0.004 C 
ENDBRANCH  18  19
ENDBRANCH  17  18
ENDBRANCH  16  17
ENDBRANCH  15  16
ENDBRANCH  14  15
ENDBRANCH  13  14
ENDBRANCH  12  13
ENDBRANCH   1  12
TORSDOF 16
ENDMDL
