MODEL 1
REMARK VINA RESULT:    -4.354      0.000      0.000
REMARK INTER + INTRA:          -5.733
REMARK INTER:                  -6.645
REMARK INTRA:                   0.912
REMARK UNBOUND:                 0.912
REMARK SMILES CC1=CCC[C@H](C)C(=O)C[C@H](C(C)C)C(=O)C1
REMARK SMILES IDX 8 1 9 2 6 3 7 4 5 5 4 6 3 7 2 8 1 9 10 11 11 12 15 13 16 14
REMARK SMILES IDX 17 15 12 17 13 18 14 19
REMARK H PARENT
REMARK Flexibility Score: 70.00
ROOT
ATOM      1  C   UNL     1      -9.621  74.998  30.868  1.00  0.00     0.136 C 
ATOM      2  O   UNL     1      -8.408  74.992  31.028  1.00  0.00    -0.299 OA
ENDROOT
BRANCH   1   3
ATOM      3  C   UNL     1     -10.546  74.862  32.084  1.00  0.00     0.053 C 
ATOM      4  C   UNL     1     -11.240  76.201  32.396  1.00  0.00     0.016 C 
BRANCH   3   5
ATOM      5  C   UNL     1     -11.628  73.753  31.921  1.00  0.00     0.015 C 
BRANCH   5   6
ATOM      6  C   UNL     1     -11.237  72.333  32.391  1.00  0.00     0.028 C 
BRANCH   6   7
ATOM      7  C   UNL     1      -9.931  71.860  31.798  1.00  0.00    -0.028 C 
ATOM      8  C   UNL     1      -9.733  71.564  30.490  1.00  0.00    -0.070 CG0
ATOM      9  C   UNL     1      -8.343  71.178  30.055  1.00  0.00     0.039 C 
ATOM     10  G   UNL     1     -10.849  71.586  29.458  1.00  0.00     0.000 G0
ENDBRANCH   6   7
ENDBRANCH   5   6
ENDBRANCH   3   5
ENDBRANCH   1   3
BRANCH   1  11
ATOM     11  C   UNL     1     -10.137  75.135  29.452  1.00  0.00     0.087 C 
BRANCH  11  12
ATOM     12  C   UNL     1      -9.822  73.906  28.548  1.00  0.00     0.066 C 
BRANCH  12  13
ATOM     13  C   UNL     1     -10.941  72.875  28.651  1.00  0.00     0.140 C 
ATOM     14  O   UNL     1     -12.002  73.098  28.088  1.00  0.00    -0.299 OA
BRANCH  13  15
ATOM     15  C   UNL     1     -10.840  71.599  29.466  1.00  0.00     0.106 CG0
ATOM     16  G   UNL     1      -9.718  71.559  30.492  1.00  0.00     0.000 G0
ENDBRANCH  13  15
ENDBRANCH  12  13
BRANCH  12  17
ATOM     17  C   UNL     1      -9.485  74.304  27.077  1.00  0.00    -0.006 C 
ATOM     18  C   UNL     1      -9.213  73.057  26.221  1.00  0.00     0.008 C 
ATOM     19  C   UNL     1     -10.547  75.182  26.390  1.00  0.00     0.008 C 
ENDBRANCH  12  17
ENDBRANCH  11  12
ENDBRANCH   1  11
TORSDOF 1
ENDMDL
MODEL 2
REMARK VINA RESULT:    -4.154      6.557      9.051
REMARK INTER + INTRA:          -5.428
REMARK INTER:                  -5.496
REMARK INTRA:                   0.068
REMARK UNBOUND:                 0.912
REMARK SMILES CC1=CCC[C@H](C)C(=O)C[C@H](C(C)C)C(=O)C1
REMARK SMILES IDX 8 1 9 2 6 3 7 4 5 5 4 6 3 7 2 8 1 9 10 11 11 12 15 13 16 14
REMARK SMILES IDX 17 15 12 17 13 18 14 19
REMARK H PARENT
REMARK Flexibility Score: 70.00
ROOT
ATOM      1  C   UNL     1      -6.287  73.128  20.843  1.00  0.00     0.136 C 
ATOM      2  O   UNL     1      -7.205  73.191  20.037  1.00  0.00    -0.299 OA
ENDROOT
BRANCH   1   3
ATOM      3  C   UNL     1      -4.875  72.779  20.356  1.00  0.00     0.053 C 
ATOM      4  C   UNL     1      -3.986  74.036  20.310  1.00  0.00     0.016 C 
BRANCH   3   5
ATOM      5  C   UNL     1      -4.171  71.689  21.220  1.00  0.00     0.015 C 
BRANCH   5   6
ATOM      6  C   UNL     1      -4.969  70.389  21.475  1.00  0.00     0.028 C 
BRANCH   6   7
ATOM      7  C   UNL     1      -4.727  69.816  22.852  1.00  0.00    -0.028 C 
ATOM      8  C   UNL     1      -5.680  69.643  23.800  1.00  0.00    -0.070 CG0
ATOM      9  C   UNL     1      -5.278  68.985  25.095  1.00  0.00     0.039 C 
ATOM     10  G   UNL     1      -7.119  70.098  23.620  1.00  0.00     0.000 G0
ENDBRANCH   6   7
ENDBRANCH   5   6
ENDBRANCH   3   5
ENDBRANCH   1   3
BRANCH   1  11
ATOM     11  C   UNL     1      -6.615  73.396  22.296  1.00  0.00     0.087 C 
BRANCH  11  12
ATOM     12  C   UNL     1      -7.829  72.576  22.827  1.00  0.00     0.066 C 
BRANCH  12  13
ATOM     13  C   UNL     1      -7.373  71.593  23.898  1.00  0.00     0.140 C 
ATOM     14  O   UNL     1      -7.139  72.011  25.022  1.00  0.00    -0.299 OA
BRANCH  13  15
ATOM     15  C   UNL     1      -7.133  70.116  23.641  1.00  0.00     0.106 CG0
ATOM     16  G   UNL     1      -5.696  69.645  23.794  1.00  0.00     0.000 G0
ENDBRANCH  13  15
ENDBRANCH  12  13
BRANCH  12  17
ATOM     17  C   UNL     1      -9.018  73.479  23.284  1.00  0.00    -0.006 C 
ATOM     18  C   UNL     1      -9.591  74.272  22.099  1.00  0.00     0.008 C 
ATOM     19  C   UNL     1     -10.154  72.727  24.002  1.00  0.00     0.008 C 
ENDBRANCH  12  17
ENDBRANCH  11  12
ENDBRANCH   1  11
TORSDOF 1
ENDMDL
MODEL 3
REMARK VINA RESULT:    -4.069      4.893      8.125
REMARK INTER + INTRA:          -5.298
REMARK INTER:                  -5.540
REMARK INTRA:                   0.243
REMARK UNBOUND:                 0.912
REMARK SMILES CC1=CCC[C@H](C)C(=O)C[C@H](C(C)C)C(=O)C1
REMARK SMILES IDX 8 1 9 2 6 3 7 4 5 5 4 6 3 7 2 8 1 9 10 11 11 12 15 13 16 14
REMARK SMILES IDX 17 15 12 17 13 18 14 19
REMARK H PARENT
REMARK Flexibility Score: 70.00
ROOT
ATOM      1  C   UNL     1      -6.761  71.608  24.524  1.00  0.00     0.136 C 
ATOM      2  O   UNL     1      -6.269  71.080  25.513  1.00  0.00    -0.299 OA
ENDROOT
BRANCH   1   3
ATOM      3  C   UNL     1      -5.847  72.278  23.491  1.00  0.00     0.053 C 
ATOM      4  C   UNL     1      -4.634  71.384  23.170  1.00  0.00     0.016 C 
BRANCH   3   5
ATOM      5  C   UNL     1      -6.575  72.644  22.162  1.00  0.00     0.015 C 
BRANCH   5   6
ATOM      6  C   UNL     1      -7.109  74.091  22.043  1.00  0.00     0.028 C 
BRANCH   6   7
ATOM      7  C   UNL     1      -8.245  74.215  21.056  1.00  0.00    -0.028 C 
ATOM      8  C   UNL     1      -9.538  74.452  21.386  1.00  0.00    -0.070 CG0
ATOM      9  C   UNL     1     -10.534  74.621  20.267  1.00  0.00     0.039 C 
ATOM     10  G   UNL     1     -10.025  74.533  22.824  1.00  0.00     0.000 G0
ENDBRANCH   6   7
ENDBRANCH   5   6
ENDBRANCH   3   5
ENDBRANCH   1   3
BRANCH   1  11
ATOM     11  C   UNL     1      -8.268  71.569  24.390  1.00  0.00     0.087 C 
BRANCH  11  12
ATOM     12  C   UNL     1      -8.959  72.932  24.689  1.00  0.00     0.066 C 
BRANCH  12  13
ATOM     13  C   UNL     1     -10.004  73.239  23.623  1.00  0.00     0.140 C 
ATOM     14  O   UNL     1     -10.837  72.388  23.350  1.00  0.00    -0.299 OA
BRANCH  13  15
ATOM     15  C   UNL     1     -10.042  74.531  22.826  1.00  0.00     0.106 CG0
ATOM     16  G   UNL     1      -9.520  74.442  21.401  1.00  0.00     0.000 G0
ENDBRANCH  13  15
ENDBRANCH  12  13
BRANCH  12  17
ATOM     17  C   UNL     1      -9.519  73.023  26.144  1.00  0.00    -0.006 C 
ATOM     18  C   UNL     1      -8.464  73.601  27.101  1.00  0.00     0.008 C 
ATOM     19  C   UNL     1     -10.831  73.817  26.279  1.00  0.00     0.008 C 
ENDBRANCH  12  17
ENDBRANCH  11  12
ENDBRANCH   1  11
TORSDOF 1
ENDMDL
MODEL 4
REMARK VINA RESULT:    -3.988      6.402      8.707
REMARK INTER + INTRA:          -5.174
REMARK INTER:                  -5.253
REMARK INTRA:                   0.080
REMARK UNBOUND:                 0.912
REMARK SMILES CC1=CCC[C@H](C)C(=O)C[C@H](C(C)C)C(=O)C1
REMARK SMILES IDX 8 1 9 2 6 3 7 4 5 5 4 6 3 7 2 8 1 9 10 11 11 12 15 13 16 14
REMARK SMILES IDX 17 15 12 17 13 18 14 19
REMARK H PARENT
REMARK Flexibility Score: 70.00
ROOT
ATOM      1  C   UNL     1      -8.412  72.414  24.855  1.00  0.00     0.136 C 
ATOM      2  O   UNL     1      -8.945  72.881  25.853  1.00  0.00    -0.299 OA
ENDROOT
BRANCH   1   3
ATOM      3  C   UNL     1      -9.042  72.657  23.477  1.00  0.00     0.053 C 
ATOM      4  C   UNL     1     -10.541  72.305  23.490  1.00  0.00     0.016 C 
BRANCH   3   5
ATOM      5  C   UNL     1      -8.866  74.118  22.963  1.00  0.00     0.015 C 
BRANCH   5   6
ATOM      6  C   UNL     1      -7.473  74.491  22.405  1.00  0.00     0.028 C 
BRANCH   6   7
ATOM      7  C   UNL     1      -7.061  73.629  21.235  1.00  0.00    -0.028 C 
ATOM      8  C   UNL     1      -5.925  72.893  21.174  1.00  0.00    -0.070 CG0
ATOM      9  C   UNL     1      -5.706  72.029  19.959  1.00  0.00     0.039 C 
ATOM     10  G   UNL     1      -4.862  72.919  22.261  1.00  0.00     0.000 G0
ENDBRANCH   6   7
ENDBRANCH   5   6
ENDBRANCH   3   5
ENDBRANCH   1   3
BRANCH   1  11
ATOM     11  C   UNL     1      -7.148  71.606  25.052  1.00  0.00     0.087 C 
BRANCH  11  12
ATOM     12  C   UNL     1      -6.405  71.272  23.724  1.00  0.00     0.066 C 
BRANCH  12  13
ATOM     13  C   UNL     1      -5.190  72.177  23.557  1.00  0.00     0.140 C 
ATOM     14  O   UNL     1      -4.464  72.374  24.520  1.00  0.00    -0.299 OA
BRANCH  13  15
ATOM     15  C   UNL     1      -4.852  72.905  22.269  1.00  0.00     0.106 CG0
ATOM     16  G   UNL     1      -5.929  72.883  21.196  1.00  0.00     0.000 G0
ENDBRANCH  13  15
ENDBRANCH  12  13
BRANCH  12  17
ATOM     17  C   UNL     1      -6.066  69.754  23.584  1.00  0.00    -0.006 C 
ATOM     18  C   UNL     1      -7.326  68.940  23.251  1.00  0.00     0.008 C 
ATOM     19  C   UNL     1      -4.959  69.435  22.562  1.00  0.00     0.008 C 
ENDBRANCH  12  17
ENDBRANCH  11  12
ENDBRANCH   1  11
TORSDOF 1
ENDMDL
MODEL 5
REMARK VINA RESULT:    -3.926      6.732      8.901
REMARK INTER + INTRA:          -5.080
REMARK INTER:                  -4.821
REMARK INTRA:                  -0.259
REMARK UNBOUND:                 0.912
REMARK SMILES CC1=CCC[C@H](C)C(=O)C[C@H](C(C)C)C(=O)C1
REMARK SMILES IDX 8 1 9 2 6 3 7 4 5 5 4 6 3 7 2 8 1 9 10 11 11 12 15 13 16 14
REMARK SMILES IDX 17 15 12 17 13 18 14 19
REMARK H PARENT
REMARK Flexibility Score: 70.00
ROOT
ATOM      1  C   UNL     1      -6.589  68.281  23.675  1.00  0.00     0.136 C 
ATOM      2  O   UNL     1      -7.489  68.747  22.989  1.00  0.00    -0.299 OA
ENDROOT
BRANCH   1   3
ATOM      3  C   UNL     1      -6.705  66.845  24.201  1.00  0.00     0.053 C 
ATOM      4  C   UNL     1      -7.037  65.868  23.056  1.00  0.00     0.016 C 
BRANCH   3   5
ATOM      5  C   UNL     1      -5.426  66.348  24.939  1.00  0.00     0.015 C 
BRANCH   5   6
ATOM      6  C   UNL     1      -5.422  66.482  26.480  1.00  0.00     0.028 C 
BRANCH   6   7
ATOM      7  C   UNL     1      -4.047  66.765  27.038  1.00  0.00    -0.028 C 
ATOM      8  C   UNL     1      -3.632  67.965  27.511  1.00  0.00    -0.070 CG0
ATOM      9  C   UNL     1      -2.249  68.053  28.102  1.00  0.00     0.039 C 
ATOM     10  G   UNL     1      -4.490  69.220  27.452  1.00  0.00     0.000 G0
ENDBRANCH   6   7
ENDBRANCH   5   6
ENDBRANCH   3   5
ENDBRANCH   1   3
BRANCH   1  11
ATOM     11  C   UNL     1      -5.404  69.174  23.972  1.00  0.00     0.087 C 
BRANCH  11  12
ATOM     12  C   UNL     1      -5.621  70.119  25.192  1.00  0.00     0.066 C 
BRANCH  12  13
ATOM     13  C   UNL     1      -4.440  70.024  26.150  1.00  0.00     0.140 C 
ATOM     14  O   UNL     1      -3.385  70.558  25.841  1.00  0.00    -0.299 OA
BRANCH  13  15
ATOM     15  C   UNL     1      -4.473  69.250  27.455  1.00  0.00     0.106 CG0
ATOM     16  G   UNL     1      -3.640  67.978  27.489  1.00  0.00     0.000 G0
ENDBRANCH  13  15
ENDBRANCH  12  13
BRANCH  12  17
ATOM     17  C   UNL     1      -5.957  71.585  24.771  1.00  0.00    -0.006 C 
ATOM     18  C   UNL     1      -5.443  71.879  23.353  1.00  0.00     0.008 C 
ATOM     19  C   UNL     1      -7.448  71.955  24.868  1.00  0.00     0.008 C 
ENDBRANCH  12  17
ENDBRANCH  11  12
ENDBRANCH   1  11
TORSDOF 1
ENDMDL
MODEL 6
REMARK VINA RESULT:    -3.873      5.824      9.066
REMARK INTER + INTRA:          -4.999
REMARK INTER:                  -5.080
REMARK INTRA:                   0.081
REMARK UNBOUND:                 0.912
REMARK SMILES CC1=CCC[C@H](C)C(=O)C[C@H](C(C)C)C(=O)C1
REMARK SMILES IDX 8 1 9 2 6 3 7 4 5 5 4 6 3 7 2 8 1 9 10 11 11 12 15 13 16 14
REMARK SMILES IDX 17 15 12 17 13 18 14 19
REMARK H PARENT
REMARK Flexibility Score: 70.00
ROOT
ATOM      1  C   UNL     1      -8.871  74.201  21.295  1.00  0.00     0.136 C 
ATOM      2  O   UNL     1     -10.086  74.310  21.207  1.00  0.00    -0.299 OA
ENDROOT
BRANCH   1   3
ATOM      3  C   UNL     1      -8.013  74.247  20.024  1.00  0.00     0.053 C 
ATOM      4  C   UNL     1      -7.233  75.573  19.937  1.00  0.00     0.016 C 
BRANCH   3   5
ATOM      5  C   UNL     1      -7.011  73.059  19.907  1.00  0.00     0.015 C 
BRANCH   5   6
ATOM      6  C   UNL     1      -5.558  73.334  20.360  1.00  0.00     0.028 C 
BRANCH   6   7
ATOM      7  C   UNL     1      -4.893  72.118  20.962  1.00  0.00    -0.028 C 
ATOM      8  C   UNL     1      -5.074  71.683  22.232  1.00  0.00    -0.070 CG0
ATOM      9  C   UNL     1      -4.390  70.406  22.647  1.00  0.00     0.039 C 
ATOM     10  G   UNL     1      -5.914  72.434  23.254  1.00  0.00     0.000 G0
ENDBRANCH   6   7
ENDBRANCH   5   6
ENDBRANCH   3   5
ENDBRANCH   1   3
BRANCH   1  11
ATOM     11  C   UNL     1      -8.285  74.016  22.678  1.00  0.00     0.087 C 
BRANCH  11  12
ATOM     12  C   UNL     1      -8.597  72.627  23.311  1.00  0.00     0.066 C 
BRANCH  12  13
ATOM     13  C   UNL     1      -7.309  71.842  23.523  1.00  0.00     0.140 C 
ATOM     14  O   UNL     1      -7.377  70.703  23.961  1.00  0.00    -0.299 OA
BRANCH  13  15
ATOM     15  C   UNL     1      -5.924  72.411  23.274  1.00  0.00     0.106 CG0
ATOM     16  G   UNL     1      -5.088  71.679  22.236  1.00  0.00     0.000 G0
ENDBRANCH  13  15
ENDBRANCH  12  13
BRANCH  12  17
ATOM     17  C   UNL     1      -9.475  72.731  24.598  1.00  0.00    -0.006 C 
ATOM     18  C   UNL     1      -8.617  73.107  25.817  1.00  0.00     0.008 C 
ATOM     19  C   UNL     1     -10.668  73.699  24.486  1.00  0.00     0.008 C 
ENDBRANCH  12  17
ENDBRANCH  11  12
ENDBRANCH   1  11
TORSDOF 1
ENDMDL
MODEL 7
REMARK VINA RESULT:    -3.746      7.640      9.724
REMARK INTER + INTRA:          -4.805
REMARK INTER:                  -4.583
REMARK INTRA:                  -0.222
REMARK UNBOUND:                 0.912
REMARK SMILES CC1=CCC[C@H](C)C(=O)C[C@H](C(C)C)C(=O)C1
REMARK SMILES IDX 8 1 9 2 6 3 7 4 5 5 4 6 3 7 2 8 1 9 10 11 11 12 15 13 16 14
REMARK SMILES IDX 17 15 12 17 13 18 14 19
REMARK H PARENT
REMARK Flexibility Score: 70.00
ROOT
ATOM      1  C   UNL     1      -5.240  68.566  37.895  1.00  0.00     0.136 C 
ATOM      2  O   UNL     1      -4.753  67.477  38.167  1.00  0.00    -0.299 OA
ENDROOT
BRANCH   1   3
ATOM      3  C   UNL     1      -4.327  69.791  37.760  1.00  0.00     0.053 C 
ATOM      4  C   UNL     1      -3.611  70.089  39.090  1.00  0.00     0.016 C 
BRANCH   3   5
ATOM      5  C   UNL     1      -3.263  69.652  36.629  1.00  0.00     0.015 C 
BRANCH   5   6
ATOM      6  C   UNL     1      -3.802  69.461  35.193  1.00  0.00     0.028 C 
BRANCH   6   7
ATOM      7  C   UNL     1      -3.602  68.056  34.675  1.00  0.00    -0.028 C 
ATOM      8  C   UNL     1      -4.577  67.277  34.146  1.00  0.00    -0.070 CG0
ATOM      9  C   UNL     1      -4.187  65.924  33.608  1.00  0.00     0.039 C 
ATOM     10  G   UNL     1      -6.037  67.698  34.094  1.00  0.00     0.000 G0
ENDBRANCH   6   7
ENDBRANCH   5   6
ENDBRANCH   3   5
ENDBRANCH   1   3
BRANCH   1  11
ATOM     11  C   UNL     1      -6.741  68.633  37.712  1.00  0.00     0.087 C 
BRANCH  11  12
ATOM     12  C   UNL     1      -7.184  68.831  36.232  1.00  0.00     0.066 C 
BRANCH  12  13
ATOM     13  C   UNL     1      -6.809  67.609  35.401  1.00  0.00     0.140 C 
ATOM     14  O   UNL     1      -7.087  66.498  35.827  1.00  0.00    -0.299 OA
BRANCH  13  15
ATOM     15  C   UNL     1      -6.052  67.682  34.088  1.00  0.00     0.106 CG0
ATOM     16  G   UNL     1      -4.583  67.296  34.151  1.00  0.00     0.000 G0
ENDBRANCH  13  15
ENDBRANCH  12  13
BRANCH  12  17
ATOM     17  C   UNL     1      -8.687  69.230  36.096  1.00  0.00    -0.006 C 
ATOM     18  C   UNL     1      -9.479  68.813  37.346  1.00  0.00     0.008 C 
ATOM     19  C   UNL     1      -8.931  70.722  35.803  1.00  0.00     0.008 C 
ENDBRANCH  12  17
ENDBRANCH  11  12
ENDBRANCH   1  11
TORSDOF 1
ENDMDL
MODEL 8
REMARK VINA RESULT:    -3.737      8.697     10.310
REMARK INTER + INTRA:          -4.791
REMARK INTER:                  -4.284
REMARK INTRA:                  -0.506
REMARK UNBOUND:                 0.912
REMARK SMILES CC1=CCC[C@H](C)C(=O)C[C@H](C(C)C)C(=O)C1
REMARK SMILES IDX 8 1 9 2 6 3 7 4 5 5 4 6 3 7 2 8 1 9 10 11 11 12 15 13 16 14
REMARK SMILES IDX 17 15 12 17 13 18 14 19
REMARK H PARENT
REMARK Flexibility Score: 70.00
ROOT
ATOM      1  C   UNL     1      -6.238  69.551  36.860  1.00  0.00     0.136 C 
ATOM      2  O   UNL     1      -7.139  70.379  36.836  1.00  0.00    -0.299 OA
ENDROOT
BRANCH   1   3
ATOM      3  C   UNL     1      -6.571  68.076  37.118  1.00  0.00     0.053 C 
ATOM      4  C   UNL     1      -7.152  67.885  38.532  1.00  0.00     0.016 C 
BRANCH   3   5
ATOM      5  C   UNL     1      -7.559  67.471  36.076  1.00  0.00     0.015 C 
BRANCH   5   6
ATOM      6  C   UNL     1      -7.070  67.419  34.610  1.00  0.00     0.028 C 
BRANCH   6   7
ATOM      7  C   UNL     1      -5.953  66.424  34.401  1.00  0.00    -0.028 C 
ATOM      8  C   UNL     1      -4.654  66.747  34.191  1.00  0.00    -0.070 CG0
ATOM      9  C   UNL     1      -3.655  65.625  34.076  1.00  0.00     0.039 C 
ATOM     10  G   UNL     1      -4.170  68.182  34.047  1.00  0.00     0.000 G0
ENDBRANCH   6   7
ENDBRANCH   5   6
ENDBRANCH   3   5
ENDBRANCH   1   3
BRANCH   1  11
ATOM     11  C   UNL     1      -4.827  70.050  36.637  1.00  0.00     0.087 C 
BRANCH  11  12
ATOM     12  C   UNL     1      -3.761  68.915  36.592  1.00  0.00     0.066 C 
BRANCH  12  13
ATOM     13  C   UNL     1      -3.273  68.706  35.163  1.00  0.00     0.140 C 
ATOM     14  O   UNL     1      -2.126  69.018  34.880  1.00  0.00    -0.299 OA
BRANCH  13  15
ATOM     15  C   UNL     1      -4.149  68.181  34.041  1.00  0.00     0.106 CG0
ATOM     16  G   UNL     1      -4.654  66.757  34.210  1.00  0.00     0.000 G0
ENDBRANCH  13  15
ENDBRANCH  12  13
BRANCH  12  17
ATOM     17  C   UNL     1      -2.600  69.130  37.614  1.00  0.00    -0.006 C 
ATOM     18  C   UNL     1      -2.592  70.576  38.136  1.00  0.00     0.008 C 
ATOM     19  C   UNL     1      -2.602  68.151  38.802  1.00  0.00     0.008 C 
ENDBRANCH  12  17
ENDBRANCH  11  12
ENDBRANCH   1  11
TORSDOF 1
ENDMDL
MODEL 9
REMARK VINA RESULT:    -3.695      6.606      9.077
REMARK INTER + INTRA:          -4.726
REMARK INTER:                  -4.397
REMARK INTRA:                  -0.329
REMARK UNBOUND:                 0.912
REMARK SMILES CC1=CCC[C@H](C)C(=O)C[C@H](C(C)C)C(=O)C1
REMARK SMILES IDX 8 1 9 2 6 3 7 4 5 5 4 6 3 7 2 8 1 9 10 11 11 12 15 13 16 14
REMARK SMILES IDX 17 15 12 17 13 18 14 19
REMARK H PARENT
REMARK Flexibility Score: 70.00
ROOT
ATOM      1  C   UNL     1      -5.925  69.787  24.200  1.00  0.00     0.136 C 
ATOM      2  O   UNL     1      -5.614  68.650  23.870  1.00  0.00    -0.299 OA
ENDROOT
BRANCH   1   3
ATOM      3  C   UNL     1      -5.167  70.479  25.340  1.00  0.00     0.053 C 
ATOM      4  C   UNL     1      -5.292  69.676  26.648  1.00  0.00     0.016 C 
BRANCH   3   5
ATOM      5  C   UNL     1      -3.658  70.716  25.030  1.00  0.00     0.015 C 
BRANCH   5   6
ATOM      6  C   UNL     1      -3.316  71.951  24.164  1.00  0.00     0.028 C 
BRANCH   6   7
ATOM      7  C   UNL     1      -3.173  71.615  22.698  1.00  0.00    -0.028 C 
ATOM      8  C   UNL     1      -3.912  72.159  21.701  1.00  0.00    -0.070 CG0
ATOM      9  C   UNL     1      -3.586  71.765  20.283  1.00  0.00     0.039 C 
ATOM     10  G   UNL     1      -5.060  73.124  21.952  1.00  0.00     0.000 G0
ENDBRANCH   6   7
ENDBRANCH   5   6
ENDBRANCH   3   5
ENDBRANCH   1   3
BRANCH   1  11
ATOM     11  C   UNL     1      -7.064  70.443  23.450  1.00  0.00     0.087 C 
BRANCH  11  12
ATOM     12  C   UNL     1      -6.996  72.000  23.443  1.00  0.00     0.066 C 
BRANCH  12  13
ATOM     13  C   UNL     1      -6.437  72.497  22.116  1.00  0.00     0.140 C 
ATOM     14  O   UNL     1      -7.101  72.344  21.101  1.00  0.00    -0.299 OA
BRANCH  13  15
ATOM     15  C   UNL     1      -5.067  73.130  21.962  1.00  0.00     0.106 CG0
ATOM     16  G   UNL     1      -3.918  72.163  21.717  1.00  0.00     0.000 G0
ENDBRANCH  13  15
ENDBRANCH  12  13
BRANCH  12  17
ATOM     17  C   UNL     1      -8.353  72.668  23.830  1.00  0.00    -0.006 C 
ATOM     18  C   UNL     1      -8.605  72.561  25.343  1.00  0.00     0.008 C 
ATOM     19  C   UNL     1      -8.496  74.135  23.385  1.00  0.00     0.008 C 
ENDBRANCH  12  17
ENDBRANCH  11  12
ENDBRANCH   1  11
TORSDOF 1
ENDMDL
