MODEL 1
REMARK VINA RESULT:    -4.168      0.000      0.000
REMARK INTER + INTRA:          -5.807
REMARK INTER:                  -5.387
REMARK INTRA:                  -0.421
REMARK UNBOUND:                -0.421
REMARK SMILES CCO[C@H]1O[C@@H](CO)[C@@H](O)[C@H](O)[C@H]1O
REMARK SMILES IDX 4 1 13 2 11 3 9 4 6 5 5 6 3 7 2 8 1 9 14 10 12 12 7 14 8 15
REMARK SMILES IDX 10 17
REMARK H PARENT 14 11 12 13 8 16 10 18
REMARK Flexibility Score: inf
ROOT
ATOM      1  C   UNL     1      12.963  42.357  59.832  1.00  0.00     0.281 C 
ATOM      2  C   UNL     1      14.414  42.653  60.261  1.00  0.00     0.202 C 
ATOM      3  C   UNL     1      15.056  43.673  59.320  1.00  0.00     0.179 C 
ATOM      4  C   UNL     1      14.934  43.167  57.877  1.00  0.00     0.177 C 
ATOM      5  C   UNL     1      13.466  42.806  57.534  1.00  0.00     0.178 C 
ATOM      6  O   UNL     1      12.878  41.919  58.481  1.00  0.00    -0.341 OA
ENDROOT
BRANCH   1   7
ATOM      7  O   UNL     1      12.143  43.500  60.041  1.00  0.00    -0.350 OA
BRANCH   7   8
ATOM      8  C   UNL     1      10.915  43.174  60.665  1.00  0.00     0.160 C 
ATOM      9  C   UNL     1       9.894  44.296  60.496  1.00  0.00     0.035 C 
ENDBRANCH   7   8
ENDBRANCH   1   7
BRANCH   2  10
ATOM     10  O   UNL     1      14.440  43.151  61.574  1.00  0.00    -0.385 OA
ATOM     11  H   UNL     1      14.774  42.416  62.152  1.00  0.00     0.211 HD
ENDBRANCH   2  10
BRANCH   3  12
ATOM     12  O   UNL     1      16.410  43.824  59.661  1.00  0.00    -0.387 OA
ATOM     13  H   UNL     1      16.486  43.635  60.633  1.00  0.00     0.211 HD
ENDBRANCH   3  12
BRANCH   5  14
ATOM     14  C   UNL     1      12.574  44.030  57.224  1.00  0.00     0.191 C 
BRANCH  14  15
ATOM     15  O   UNL     1      12.657  44.374  55.868  1.00  0.00    -0.394 OA
ATOM     16  H   UNL     1      11.736  44.599  55.575  1.00  0.00     0.210 HD
ENDBRANCH  14  15
ENDBRANCH   5  14
BRANCH   4  17
ATOM     17  O   UNL     1      15.431  44.139  56.992  1.00  0.00    -0.387 OA
ATOM     18  H   UNL     1      16.154  43.705  56.469  1.00  0.00     0.211 HD
ENDBRANCH   4  17
TORSDOF 7
ENDMDL
MODEL 2
REMARK VINA RESULT:    -4.053      1.533      4.733
REMARK INTER + INTRA:          -5.658
REMARK INTER:                  -5.172
REMARK INTRA:                  -0.486
REMARK UNBOUND:                -0.421
REMARK SMILES CCO[C@H]1O[C@@H](CO)[C@@H](O)[C@H](O)[C@H]1O
REMARK SMILES IDX 4 1 13 2 11 3 9 4 6 5 5 6 3 7 2 8 1 9 14 10 12 12 7 14 8 15
REMARK SMILES IDX 10 17
REMARK H PARENT 14 11 12 13 8 16 10 18
REMARK Flexibility Score: inf
ROOT
ATOM      1  C   UNL     1      12.978  42.752  57.629  1.00  0.00     0.281 C 
ATOM      2  C   UNL     1      11.960  43.583  56.821  1.00  0.00     0.202 C 
ATOM      3  C   UNL     1      11.140  44.479  57.750  1.00  0.00     0.179 C 
ATOM      4  C   UNL     1      10.498  43.613  58.840  1.00  0.00     0.177 C 
ATOM      5  C   UNL     1      11.558  42.740  59.558  1.00  0.00     0.178 C 
ATOM      6  O   UNL     1      12.357  41.984  58.652  1.00  0.00    -0.341 OA
ENDROOT
BRANCH   1   7
ATOM      7  O   UNL     1      13.982  43.598  58.176  1.00  0.00    -0.350 OA
BRANCH   7   8
ATOM      8  C   UNL     1      15.275  43.029  58.079  1.00  0.00     0.160 C 
ATOM      9  C   UNL     1      16.235  43.669  59.079  1.00  0.00     0.035 C 
ENDBRANCH   7   8
ENDBRANCH   1   7
BRANCH   2  10
ATOM     10  O   UNL     1      12.626  44.379  55.874  1.00  0.00    -0.385 OA
ATOM     11  H   UNL     1      12.846  45.235  56.325  1.00  0.00     0.211 HD
ENDBRANCH   2  10
BRANCH   3  12
ATOM     12  O   UNL     1      10.142  45.125  57.001  1.00  0.00    -0.387 OA
ATOM     13  H   UNL     1       9.288  44.656  57.193  1.00  0.00     0.211 HD
ENDBRANCH   3  12
BRANCH   5  14
ATOM     14  C   UNL     1      12.401  43.506  60.603  1.00  0.00     0.191 C 
BRANCH  14  15
ATOM     15  O   UNL     1      13.403  42.680  61.133  1.00  0.00    -0.394 OA
ATOM     16  H   UNL     1      13.162  42.516  62.082  1.00  0.00     0.210 HD
ENDBRANCH  14  15
ENDBRANCH   5  14
BRANCH   4  17
ATOM     17  O   UNL     1       9.821  44.435  59.758  1.00  0.00    -0.387 OA
ATOM     18  H   UNL     1       9.958  44.033  60.656  1.00  0.00     0.211 HD
ENDBRANCH   4  17
TORSDOF 7
ENDMDL
MODEL 3
REMARK VINA RESULT:    -4.040      1.479      2.204
REMARK INTER + INTRA:          -5.641
REMARK INTER:                  -5.179
REMARK INTRA:                  -0.462
REMARK UNBOUND:                -0.421
REMARK SMILES CCO[C@H]1O[C@@H](CO)[C@@H](O)[C@H](O)[C@H]1O
REMARK SMILES IDX 4 1 13 2 11 3 9 4 6 5 5 6 3 7 2 8 1 9 14 10 12 12 7 14 8 15
REMARK SMILES IDX 10 17
REMARK H PARENT 14 11 12 13 8 16 10 18
REMARK Flexibility Score: inf
ROOT
ATOM      1  C   UNL     1      12.098  42.387  59.140  1.00  0.00     0.281 C 
ATOM      2  C   UNL     1      13.523  42.576  58.583  1.00  0.00     0.202 C 
ATOM      3  C   UNL     1      13.543  43.672  57.517  1.00  0.00     0.179 C 
ATOM      4  C   UNL     1      12.501  43.342  56.441  1.00  0.00     0.177 C 
ATOM      5  C   UNL     1      11.110  43.080  57.072  1.00  0.00     0.178 C 
ATOM      6  O   UNL     1      11.149  42.113  58.118  1.00  0.00    -0.341 OA
ENDROOT
BRANCH   1   7
ATOM      7  O   UNL     1      11.708  43.530  59.894  1.00  0.00    -0.350 OA
BRANCH   7   8
ATOM      8  C   UNL     1      10.906  43.190  61.009  1.00  0.00     0.160 C 
ATOM      9  C   UNL     1       9.715  44.136  61.141  1.00  0.00     0.035 C 
ENDBRANCH   7   8
ENDBRANCH   1   7
BRANCH   2  10
ATOM     10  O   UNL     1      14.409  42.916  59.618  1.00  0.00    -0.385 OA
ATOM     11  H   UNL     1      15.136  43.452  59.207  1.00  0.00     0.211 HD
ENDBRANCH   2  10
BRANCH   3  12
ATOM     12  O   UNL     1      14.823  43.730  56.942  1.00  0.00    -0.387 OA
ATOM     13  H   UNL     1      15.274  44.529  57.320  1.00  0.00     0.211 HD
ENDBRANCH   3  12
BRANCH   5  14
ATOM     14  C   UNL     1      10.350  44.366  57.473  1.00  0.00     0.191 C 
BRANCH  14  15
ATOM     15  O   UNL     1       9.640  44.883  56.380  1.00  0.00    -0.394 OA
ATOM     16  H   UNL     1       9.834  45.855  56.350  1.00  0.00     0.210 HD
ENDBRANCH  14  15
ENDBRANCH   5  14
BRANCH   4  17
ATOM     17  O   UNL     1      12.439  44.390  55.507  1.00  0.00    -0.387 OA
ATOM     18  H   UNL     1      11.477  44.539  55.309  1.00  0.00     0.211 HD
ENDBRANCH   4  17
TORSDOF 7
ENDMDL
MODEL 4
REMARK VINA RESULT:    -3.999      2.611      4.925
REMARK INTER + INTRA:          -5.589
REMARK INTER:                  -5.160
REMARK INTRA:                  -0.429
REMARK UNBOUND:                -0.421
REMARK SMILES CCO[C@H]1O[C@@H](CO)[C@@H](O)[C@H](O)[C@H]1O
REMARK SMILES IDX 4 1 13 2 11 3 9 4 6 5 5 6 3 7 2 8 1 9 14 10 12 12 7 14 8 15
REMARK SMILES IDX 10 17
REMARK H PARENT 14 11 12 13 8 16 10 18
REMARK Flexibility Score: inf
ROOT
ATOM      1  C   UNL     1      10.946  43.978  59.394  1.00  0.00     0.281 C 
ATOM      2  C   UNL     1      12.125  43.244  60.063  1.00  0.00     0.202 C 
ATOM      3  C   UNL     1      11.627  42.032  60.850  1.00  0.00     0.179 C 
ATOM      4  C   UNL     1      10.547  42.487  61.839  1.00  0.00     0.177 C 
ATOM      5  C   UNL     1       9.433  43.290  61.119  1.00  0.00     0.178 C 
ATOM      6  O   UNL     1       9.945  44.360  60.329  1.00  0.00    -0.341 OA
ENDROOT
BRANCH   1   7
ATOM      7  O   UNL     1      10.386  43.173  58.362  1.00  0.00    -0.350 OA
BRANCH   7   8
ATOM      8  C   UNL     1      10.161  43.906  57.172  1.00  0.00     0.160 C 
ATOM      9  C   UNL     1       8.924  43.397  56.436  1.00  0.00     0.035 C 
ENDBRANCH   7   8
ENDBRANCH   1   7
BRANCH   2  10
ATOM     10  O   UNL     1      13.049  42.823  59.092  1.00  0.00    -0.385 OA
ATOM     11  H   UNL     1      12.885  41.855  58.943  1.00  0.00     0.211 HD
ENDBRANCH   2  10
BRANCH   3  12
ATOM     12  O   UNL     1      12.706  41.463  61.548  1.00  0.00    -0.387 OA
ATOM     13  H   UNL     1      13.248  40.963  60.884  1.00  0.00     0.211 HD
ENDBRANCH   3  12
BRANCH   5  14
ATOM     14  C   UNL     1       8.420  42.411  60.351  1.00  0.00     0.191 C 
BRANCH  14  15
ATOM     15  O   UNL     1       7.348  42.052  61.180  1.00  0.00    -0.394 OA
ATOM     16  H   UNL     1       7.744  41.698  62.019  1.00  0.00     0.210 HD
ENDBRANCH  14  15
ENDBRANCH   5  14
BRANCH   4  17
ATOM     17  O   UNL     1      10.010  41.368  62.499  1.00  0.00    -0.387 OA
ATOM     18  H   UNL     1      10.734  40.999  63.070  1.00  0.00     0.211 HD
ENDBRANCH   4  17
TORSDOF 7
ENDMDL
MODEL 5
REMARK VINA RESULT:    -3.940      9.947     11.749
REMARK INTER + INTRA:          -5.512
REMARK INTER:                  -5.048
REMARK INTRA:                  -0.465
REMARK UNBOUND:                -0.421
REMARK SMILES CCO[C@H]1O[C@@H](CO)[C@@H](O)[C@H](O)[C@H]1O
REMARK SMILES IDX 4 1 13 2 11 3 9 4 6 5 5 6 3 7 2 8 1 9 14 10 12 12 7 14 8 15
REMARK SMILES IDX 10 17
REMARK H PARENT 14 11 12 13 8 16 10 18
REMARK Flexibility Score: inf
ROOT
ATOM      1  C   UNL     1      12.400  34.420  63.110  1.00  0.00     0.281 C 
ATOM      2  C   UNL     1      10.932  34.858  63.289  1.00  0.00     0.202 C 
ATOM      3  C   UNL     1      10.254  34.033  64.383  1.00  0.00     0.179 C 
ATOM      4  C   UNL     1      10.414  32.543  64.057  1.00  0.00     0.177 C 
ATOM      5  C   UNL     1      11.901  32.183  63.805  1.00  0.00     0.178 C 
ATOM      6  O   UNL     1      12.520  33.029  62.840  1.00  0.00    -0.341 OA
ENDROOT
BRANCH   1   7
ATOM      7  O   UNL     1      13.164  34.776  64.257  1.00  0.00    -0.350 OA
BRANCH   7   8
ATOM      8  C   UNL     1      14.493  35.134  63.926  1.00  0.00     0.160 C 
ATOM      9  C   UNL     1      14.565  35.763  62.537  1.00  0.00     0.035 C 
ENDBRANCH   7   8
ENDBRANCH   1   7
BRANCH   2  10
ATOM     10  O   UNL     1      10.870  36.220  63.626  1.00  0.00    -0.385 OA
ATOM     11  H   UNL     1      10.797  36.723  62.773  1.00  0.00     0.211 HD
ENDBRANCH   2  10
BRANCH   3  12
ATOM     12  O   UNL     1       8.890  34.368  64.432  1.00  0.00    -0.387 OA
ATOM     13  H   UNL     1       8.833  35.356  64.355  1.00  0.00     0.211 HD
ENDBRANCH   3  12
BRANCH   5  14
ATOM     14  C   UNL     1      12.739  32.034  65.096  1.00  0.00     0.191 C 
BRANCH  14  15
ATOM     15  O   UNL     1      14.087  31.805  64.787  1.00  0.00    -0.394 OA
ATOM     16  H   UNL     1      14.583  31.829  65.647  1.00  0.00     0.210 HD
ENDBRANCH  14  15
ENDBRANCH   5  14
BRANCH   4  17
ATOM     17  O   UNL     1       9.882  31.770  65.104  1.00  0.00    -0.387 OA
ATOM     18  H   UNL     1       9.309  32.376  65.642  1.00  0.00     0.211 HD
ENDBRANCH   4  17
TORSDOF 7
ENDMDL
MODEL 6
REMARK VINA RESULT:    -3.930      1.559      3.922
REMARK INTER + INTRA:          -5.499
REMARK INTER:                  -5.021
REMARK INTRA:                  -0.479
REMARK UNBOUND:                -0.421
REMARK SMILES CCO[C@H]1O[C@@H](CO)[C@@H](O)[C@H](O)[C@H]1O
REMARK SMILES IDX 4 1 13 2 11 3 9 4 6 5 5 6 3 7 2 8 1 9 14 10 12 12 7 14 8 15
REMARK SMILES IDX 10 17
REMARK H PARENT 14 11 12 13 8 16 10 18
REMARK Flexibility Score: inf
ROOT
ATOM      1  C   UNL     1      12.961  42.098  58.704  1.00  0.00     0.281 C 
ATOM      2  C   UNL     1      13.236  42.659  57.294  1.00  0.00     0.202 C 
ATOM      3  C   UNL     1      12.551  44.014  57.112  1.00  0.00     0.179 C 
ATOM      4  C   UNL     1      11.059  43.867  57.433  1.00  0.00     0.177 C 
ATOM      5  C   UNL     1      10.848  43.220  58.826  1.00  0.00     0.178 C 
ATOM      6  O   UNL     1      11.570  42.002  58.985  1.00  0.00    -0.341 OA
ENDROOT
BRANCH   1   7
ATOM      7  O   UNL     1      13.618  42.890  59.687  1.00  0.00    -0.350 OA
BRANCH   7   8
ATOM      8  C   UNL     1      14.147  42.107  60.741  1.00  0.00     0.160 C 
ATOM      9  C   UNL     1      15.529  41.565  60.386  1.00  0.00     0.035 C 
ENDBRANCH   7   8
ENDBRANCH   1   7
BRANCH   2  10
ATOM     10  O   UNL     1      14.618  42.805  57.091  1.00  0.00    -0.385 OA
ATOM     11  H   UNL     1      14.993  41.889  57.010  1.00  0.00     0.211 HD
ENDBRANCH   2  10
BRANCH   3  12
ATOM     12  O   UNL     1      12.715  44.436  55.781  1.00  0.00    -0.387 OA
ATOM     13  H   UNL     1      12.210  45.285  55.683  1.00  0.00     0.211 HD
ENDBRANCH   3  12
BRANCH   5  14
ATOM     14  C   UNL     1      11.050  44.195  60.009  1.00  0.00     0.191 C 
BRANCH  14  15
ATOM     15  O   UNL     1       9.881  44.930  60.250  1.00  0.00    -0.394 OA
ATOM     16  H   UNL     1      10.155  45.745  60.744  1.00  0.00     0.210 HD
ENDBRANCH  14  15
ENDBRANCH   5  14
BRANCH   4  17
ATOM     17  O   UNL     1      10.435  45.124  57.365  1.00  0.00    -0.387 OA
ATOM     18  H   UNL     1       9.777  45.157  58.107  1.00  0.00     0.211 HD
ENDBRANCH   4  17
TORSDOF 7
ENDMDL
MODEL 7
REMARK VINA RESULT:    -3.902     10.493     12.061
REMARK INTER + INTRA:          -5.463
REMARK INTER:                  -4.964
REMARK INTRA:                  -0.499
REMARK UNBOUND:                -0.421
REMARK SMILES CCO[C@H]1O[C@@H](CO)[C@@H](O)[C@H](O)[C@H]1O
REMARK SMILES IDX 4 1 13 2 11 3 9 4 6 5 5 6 3 7 2 8 1 9 14 10 12 12 7 14 8 15
REMARK SMILES IDX 10 17
REMARK H PARENT 14 11 12 13 8 16 10 18
REMARK Flexibility Score: inf
ROOT
ATOM      1  C   UNL     1      12.026  34.283  63.670  1.00  0.00     0.281 C 
ATOM      2  C   UNL     1      12.694  33.454  64.785  1.00  0.00     0.202 C 
ATOM      3  C   UNL     1      11.923  32.156  65.025  1.00  0.00     0.179 C 
ATOM      4  C   UNL     1      10.454  32.492  65.308  1.00  0.00     0.177 C 
ATOM      5  C   UNL     1       9.864  33.396  64.196  1.00  0.00     0.178 C 
ATOM      6  O   UNL     1      10.657  34.553  63.944  1.00  0.00    -0.341 OA
ENDROOT
BRANCH   1   7
ATOM      7  O   UNL     1      12.166  33.627  62.415  1.00  0.00    -0.350 OA
BRANCH   7   8
ATOM      8  C   UNL     1      12.387  34.537  61.354  1.00  0.00     0.160 C 
ATOM      9  C   UNL     1      13.193  35.746  61.824  1.00  0.00     0.035 C 
ENDBRANCH   7   8
ENDBRANCH   1   7
BRANCH   2  10
ATOM     10  O   UNL     1      14.021  33.151  64.436  1.00  0.00    -0.385 OA
ATOM     11  H   UNL     1      14.600  33.566  65.127  1.00  0.00     0.211 HD
ENDBRANCH   2  10
BRANCH   3  12
ATOM     12  O   UNL     1      12.482  31.488  66.128  1.00  0.00    -0.387 OA
ATOM     13  H   UNL     1      11.819  31.544  66.866  1.00  0.00     0.211 HD
ENDBRANCH   3  12
BRANCH   5  14
ATOM     14  C   UNL     1       9.486  32.637  62.903  1.00  0.00     0.191 C 
BRANCH  14  15
ATOM     15  O   UNL     1       8.253  31.987  63.053  1.00  0.00    -0.394 OA
ATOM     16  H   UNL     1       8.446  31.014  63.078  1.00  0.00     0.210 HD
ENDBRANCH  14  15
ENDBRANCH   5  14
BRANCH   4  17
ATOM     17  O   UNL     1       9.713  31.304  65.433  1.00  0.00    -0.387 OA
ATOM     18  H   UNL     1      10.354  30.555  65.319  1.00  0.00     0.211 HD
ENDBRANCH   4  17
TORSDOF 7
ENDMDL
MODEL 8
REMARK VINA RESULT:    -3.850      1.758      4.771
REMARK INTER + INTRA:          -5.396
REMARK INTER:                  -4.962
REMARK INTRA:                  -0.434
REMARK UNBOUND:                -0.421
REMARK SMILES CCO[C@H]1O[C@@H](CO)[C@@H](O)[C@H](O)[C@H]1O
REMARK SMILES IDX 4 1 13 2 11 3 9 4 6 5 5 6 3 7 2 8 1 9 14 10 12 12 7 14 8 15
REMARK SMILES IDX 10 17
REMARK H PARENT 14 11 12 13 8 16 10 18
REMARK Flexibility Score: inf
ROOT
ATOM      1  C   UNL     1      12.169  42.939  57.804  1.00  0.00     0.281 C 
ATOM      2  C   UNL     1      11.009  43.828  58.296  1.00  0.00     0.202 C 
ATOM      3  C   UNL     1      11.085  44.020  59.811  1.00  0.00     0.179 C 
ATOM      4  C   UNL     1      11.135  42.645  60.488  1.00  0.00     0.177 C 
ATOM      5  C   UNL     1      12.267  41.770  59.892  1.00  0.00     0.178 C 
ATOM      6  O   UNL     1      12.210  41.684  58.470  1.00  0.00    -0.341 OA
ENDROOT
BRANCH   1   7
ATOM      7  O   UNL     1      13.410  43.623  57.947  1.00  0.00    -0.350 OA
BRANCH   7   8
ATOM      8  C   UNL     1      14.344  43.254  56.950  1.00  0.00     0.160 C 
ATOM      9  C   UNL     1      15.771  43.581  57.384  1.00  0.00     0.035 C 
ENDBRANCH   7   8
ENDBRANCH   1   7
BRANCH   2  10
ATOM     10  O   UNL     1      11.055  45.081  57.663  1.00  0.00    -0.385 OA
ATOM     11  H   UNL     1      10.124  45.425  57.642  1.00  0.00     0.211 HD
ENDBRANCH   2  10
BRANCH   3  12
ATOM     12  O   UNL     1       9.948  44.725  60.241  1.00  0.00    -0.387 OA
ATOM     13  H   UNL     1       9.333  44.060  60.648  1.00  0.00     0.211 HD
ENDBRANCH   3  12
BRANCH   5  14
ATOM     14  C   UNL     1      13.678  42.125  60.414  1.00  0.00     0.191 C 
BRANCH  14  15
ATOM     15  O   UNL     1      13.947  41.449  61.612  1.00  0.00    -0.394 OA
ATOM     16  H   UNL     1      14.689  41.938  62.054  1.00  0.00     0.210 HD
ENDBRANCH  14  15
ENDBRANCH   5  14
BRANCH   4  17
ATOM     17  O   UNL     1      11.304  42.807  61.874  1.00  0.00    -0.387 OA
ATOM     18  H   UNL     1      10.396  42.800  62.275  1.00  0.00     0.211 HD
ENDBRANCH   4  17
TORSDOF 7
ENDMDL
MODEL 9
REMARK VINA RESULT:    -3.809      2.452      4.796
REMARK INTER + INTRA:          -5.343
REMARK INTER:                  -4.817
REMARK INTRA:                  -0.525
REMARK UNBOUND:                -0.421
REMARK SMILES CCO[C@H]1O[C@@H](CO)[C@@H](O)[C@H](O)[C@H]1O
REMARK SMILES IDX 4 1 13 2 11 3 9 4 6 5 5 6 3 7 2 8 1 9 14 10 12 12 7 14 8 15
REMARK SMILES IDX 10 17
REMARK H PARENT 14 11 12 13 8 16 10 18
REMARK Flexibility Score: inf
ROOT
ATOM      1  C   UNL     1      11.716  43.191  59.701  1.00  0.00     0.281 C 
ATOM      2  C   UNL     1      11.663  42.809  61.194  1.00  0.00     0.202 C 
ATOM      3  C   UNL     1      10.346  42.105  61.522  1.00  0.00     0.179 C 
ATOM      4  C   UNL     1       9.179  42.994  61.074  1.00  0.00     0.177 C 
ATOM      5  C   UNL     1       9.334  43.413  59.590  1.00  0.00     0.178 C 
ATOM      6  O   UNL     1      10.607  43.988  59.307  1.00  0.00    -0.341 OA
ENDROOT
BRANCH   1   7
ATOM      7  O   UNL     1      11.805  42.022  58.895  1.00  0.00    -0.350 OA
BRANCH   7   8
ATOM      8  C   UNL     1      12.716  42.176  57.823  1.00  0.00     0.160 C 
ATOM      9  C   UNL     1      13.885  43.074  58.218  1.00  0.00     0.035 C 
ENDBRANCH   7   8
ENDBRANCH   1   7
BRANCH   2  10
ATOM     10  O   UNL     1      12.737  41.964  61.517  1.00  0.00    -0.385 OA
ATOM     11  H   UNL     1      13.560  42.404  61.178  1.00  0.00     0.211 HD
ENDBRANCH   2  10
BRANCH   3  12
ATOM     12  O   UNL     1      10.276  41.886  62.908  1.00  0.00    -0.387 OA
ATOM     13  H   UNL     1      11.187  42.041  63.271  1.00  0.00     0.211 HD
ENDBRANCH   3  12
BRANCH   5  14
ATOM     14  C   UNL     1       8.938  42.311  58.580  1.00  0.00     0.191 C 
BRANCH  14  15
ATOM     15  O   UNL     1       9.245  42.705  57.270  1.00  0.00    -0.394 OA
ATOM     16  H   UNL     1      10.195  42.461  57.116  1.00  0.00     0.210 HD
ENDBRANCH  14  15
ENDBRANCH   5  14
BRANCH   4  17
ATOM     17  O   UNL     1       7.964  42.317  61.279  1.00  0.00    -0.387 OA
ATOM     18  H   UNL     1       7.264  43.013  61.381  1.00  0.00     0.211 HD
ENDBRANCH   4  17
TORSDOF 7
ENDMDL
