MODEL 1
REMARK VINA RESULT:    -4.446      0.000      0.000
REMARK INTER + INTRA:          -4.576
REMARK INTER:                  -4.576
REMARK INTRA:                   0.000
REMARK UNBOUND:                 0.000
REMARK SMILES Nc1ncnc2nc[nH]c12
REMARK SMILES IDX 8 1 7 2 6 3 5 4 4 5 3 6 2 7 10 8 9 9 1 11
REMARK H PARENT 9 10 1 12 1 13
REMARK Flexibility Score: inf
ROOT
ATOM      1  C   UNL     1      -6.430  -8.682   8.098  1.00  0.00     0.199 A 
ATOM      2  N   UNL     1      -6.953  -9.200   9.243  1.00  0.00    -0.217 NA
ATOM      3  C   UNL     1      -6.402  -8.420  10.187  1.00  0.00     0.182 A 
ATOM      4  N   UNL     1      -6.595  -8.511  11.525  1.00  0.00    -0.215 NA
ATOM      5  C   UNL     1      -5.944  -7.621  12.333  1.00  0.00     0.226 A 
ATOM      6  N   UNL     1      -5.119  -6.665  11.794  1.00  0.00    -0.217 NA
ATOM      7  C   UNL     1      -4.923  -6.572  10.445  1.00  0.00     0.152 A 
ATOM      8  C   UNL     1      -5.593  -7.485   9.636  1.00  0.00     0.127 A 
ATOM      9  N   UNL     1      -5.595  -7.632   8.305  1.00  0.00    -0.340 N 
ATOM     10  H   UNL     1      -5.080  -7.078   7.587  1.00  0.00     0.168 HD
ENDROOT
BRANCH   7  11
ATOM     11  N   UNL     1      -4.060  -5.570   9.907  1.00  0.00    -0.382 N 
ATOM     12  H   UNL     1      -4.378  -4.582   9.793  1.00  0.00     0.158 HD
ATOM     13  H   UNL     1      -3.088  -5.817   9.619  1.00  0.00     0.158 HD
ENDBRANCH   7  11
TORSDOF 1
ENDMDL
MODEL 2
REMARK VINA RESULT:    -4.179      1.034      3.113
REMARK INTER + INTRA:          -4.301
REMARK INTER:                  -4.301
REMARK INTRA:                   0.000
REMARK UNBOUND:                 0.000
REMARK SMILES Nc1ncnc2nc[nH]c12
REMARK SMILES IDX 8 1 7 2 6 3 5 4 4 5 3 6 2 7 10 8 9 9 1 11
REMARK H PARENT 9 10 1 12 1 13
REMARK Flexibility Score: inf
ROOT
ATOM      1  C   UNL     1      -5.237  -7.495  13.733  1.00  0.00     0.199 A 
ATOM      2  N   UNL     1      -6.040  -8.471  13.227  1.00  0.00    -0.217 NA
ATOM      3  C   UNL     1      -5.984  -8.230  11.907  1.00  0.00     0.182 A 
ATOM      4  N   UNL     1      -6.616  -8.925  10.931  1.00  0.00    -0.215 NA
ATOM      5  C   UNL     1      -6.434  -8.528   9.634  1.00  0.00     0.226 A 
ATOM      6  N   UNL     1      -5.633  -7.453   9.341  1.00  0.00    -0.217 NA
ATOM      7  C   UNL     1      -4.995  -6.751  10.324  1.00  0.00     0.152 A 
ATOM      8  C   UNL     1      -5.189  -7.168  11.638  1.00  0.00     0.127 A 
ATOM      9  N   UNL     1      -4.701  -6.683  12.787  1.00  0.00    -0.340 N 
ATOM     10  H   UNL     1      -4.062  -5.872  12.933  1.00  0.00     0.168 HD
ENDROOT
BRANCH   7  11
ATOM     11  N   UNL     1      -4.166  -5.636   9.995  1.00  0.00    -0.382 N 
ATOM     12  H   UNL     1      -3.159  -5.760   9.748  1.00  0.00     0.158 HD
ATOM     13  H   UNL     1      -4.563  -4.671   9.998  1.00  0.00     0.158 HD
ENDBRANCH   7  11
TORSDOF 1
ENDMDL
MODEL 3
REMARK VINA RESULT:    -4.088      1.529      3.287
REMARK INTER + INTRA:          -4.207
REMARK INTER:                  -4.207
REMARK INTRA:                   0.000
REMARK UNBOUND:                 0.000
REMARK SMILES Nc1ncnc2nc[nH]c12
REMARK SMILES IDX 8 1 7 2 6 3 5 4 4 5 3 6 2 7 10 8 9 9 1 11
REMARK H PARENT 9 10 1 12 1 13
REMARK Flexibility Score: inf
ROOT
ATOM      1  C   UNL     1      -7.505  -8.800  13.614  1.00  0.00     0.199 A 
ATOM      2  N   UNL     1      -7.506  -9.198  12.313  1.00  0.00    -0.217 NA
ATOM      3  C   UNL     1      -6.623  -8.354  11.755  1.00  0.00     0.182 A 
ATOM      4  N   UNL     1      -6.248  -8.320  10.454  1.00  0.00    -0.215 NA
ATOM      5  C   UNL     1      -5.328  -7.382  10.072  1.00  0.00     0.226 A 
ATOM      6  N   UNL     1      -4.806  -6.504  10.989  1.00  0.00    -0.217 NA
ATOM      7  C   UNL     1      -5.184  -6.537  12.302  1.00  0.00     0.152 A 
ATOM      8  C   UNL     1      -6.121  -7.497  12.675  1.00  0.00     0.127 A 
ATOM      9  N   UNL     1      -6.668  -7.763  13.868  1.00  0.00    -0.340 N 
ATOM     10  H   UNL     1      -6.500  -7.290  14.782  1.00  0.00     0.168 HD
ENDROOT
BRANCH   7  11
ATOM     11  N   UNL     1      -4.628  -5.614  13.238  1.00  0.00    -0.382 N 
ATOM     12  H   UNL     1      -4.686  -4.582  13.085  1.00  0.00     0.158 HD
ATOM     13  H   UNL     1      -4.151  -5.964  14.097  1.00  0.00     0.158 HD
ENDBRANCH   7  11
TORSDOF 1
ENDMDL
MODEL 4
REMARK VINA RESULT:    -4.081      1.359      2.021
REMARK INTER + INTRA:          -4.201
REMARK INTER:                  -4.201
REMARK INTRA:                   0.000
REMARK UNBOUND:                 0.000
REMARK SMILES Nc1ncnc2nc[nH]c12
REMARK SMILES IDX 8 1 7 2 6 3 5 4 4 5 3 6 2 7 10 8 9 9 1 11
REMARK H PARENT 9 10 1 12 1 13
REMARK Flexibility Score: inf
ROOT
ATOM      1  C   UNL     1      -4.564  -7.451   9.172  1.00  0.00     0.199 A 
ATOM      2  N   UNL     1      -5.559  -8.369   9.308  1.00  0.00    -0.217 NA
ATOM      3  C   UNL     1      -5.953  -8.178  10.578  1.00  0.00     0.182 A 
ATOM      4  N   UNL     1      -6.934  -8.847  11.229  1.00  0.00    -0.215 NA
ATOM      5  C   UNL     1      -7.194  -8.508  12.529  1.00  0.00     0.226 A 
ATOM      6  N   UNL     1      -6.473  -7.516  13.147  1.00  0.00    -0.217 NA
ATOM      7  C   UNL     1      -5.483  -6.841  12.491  1.00  0.00     0.152 A 
ATOM      8  C   UNL     1      -5.231  -7.197  11.169  1.00  0.00     0.127 A 
ATOM      9  N   UNL     1      -4.340  -6.719  10.292  1.00  0.00    -0.340 N 
ATOM     10  H   UNL     1      -3.633  -5.963  10.427  1.00  0.00     0.168 HD
ENDROOT
BRANCH   7  11
ATOM     11  N   UNL     1      -4.747  -5.813  13.155  1.00  0.00    -0.382 N 
ATOM     12  H   UNL     1      -3.760  -5.595  12.893  1.00  0.00     0.158 HD
ATOM     13  H   UNL     1      -5.193  -5.261  13.919  1.00  0.00     0.158 HD
ENDBRANCH   7  11
TORSDOF 1
ENDMDL
MODEL 5
REMARK VINA RESULT:    -4.026      2.092      2.594
REMARK INTER + INTRA:          -4.144
REMARK INTER:                  -4.144
REMARK INTRA:                   0.000
REMARK UNBOUND:                 0.000
REMARK SMILES Nc1ncnc2nc[nH]c12
REMARK SMILES IDX 8 1 7 2 6 3 5 4 4 5 3 6 2 7 10 8 9 9 1 11
REMARK H PARENT 9 10 1 12 1 13
REMARK Flexibility Score: inf
ROOT
ATOM      1  C   UNL     1      -4.003  -7.594   9.122  1.00  0.00     0.199 A 
ATOM      2  N   UNL     1      -3.391  -8.538   9.889  1.00  0.00    -0.217 NA
ATOM      3  C   UNL     1      -3.876  -8.270  11.112  1.00  0.00     0.182 A 
ATOM      4  N   UNL     1      -3.583  -8.927  12.260  1.00  0.00    -0.215 NA
ATOM      5  C   UNL     1      -4.182  -8.507  13.415  1.00  0.00     0.226 A 
ATOM      6  N   UNL     1      -5.054  -7.447  13.402  1.00  0.00    -0.217 NA
ATOM      7  C   UNL     1      -5.351  -6.783  12.246  1.00  0.00     0.152 A 
ATOM      8  C   UNL     1      -4.733  -7.223  11.078  1.00  0.00     0.127 A 
ATOM      9  N   UNL     1      -4.830  -6.776   9.819  1.00  0.00    -0.340 N 
ATOM     10  H   UNL     1      -5.402  -5.985   9.450  1.00  0.00     0.168 HD
ENDROOT
BRANCH   7  11
ATOM     11  N   UNL     1      -6.261  -5.683  12.256  1.00  0.00    -0.382 N 
ATOM     12  H   UNL     1      -6.844  -5.450  11.422  1.00  0.00     0.158 HD
ATOM     13  H   UNL     1      -6.355  -5.090  13.110  1.00  0.00     0.158 HD
ENDBRANCH   7  11
TORSDOF 1
ENDMDL
MODEL 6
REMARK VINA RESULT:    -4.015     15.715     16.189
REMARK INTER + INTRA:          -4.133
REMARK INTER:                  -4.133
REMARK INTRA:                   0.000
REMARK UNBOUND:                 0.000
REMARK SMILES Nc1ncnc2nc[nH]c12
REMARK SMILES IDX 8 1 7 2 6 3 5 4 4 5 3 6 2 7 10 8 9 9 1 11
REMARK H PARENT 9 10 1 12 1 13
REMARK Flexibility Score: inf
ROOT
ATOM      1  C   UNL     1       3.159   5.322   7.824  1.00  0.00     0.199 A 
ATOM      2  N   UNL     1       3.549   5.828   9.026  1.00  0.00    -0.217 NA
ATOM      3  C   UNL     1       2.439   6.457   9.445  1.00  0.00     0.182 A 
ATOM      4  N   UNL     1       2.285   7.138  10.606  1.00  0.00    -0.215 NA
ATOM      5  C   UNL     1       1.071   7.714  10.861  1.00  0.00     0.226 A 
ATOM      6  N   UNL     1       0.043   7.600   9.958  1.00  0.00    -0.217 NA
ATOM      7  C   UNL     1       0.197   6.914   8.786  1.00  0.00     0.152 A 
ATOM      8  C   UNL     1       1.438   6.333   8.542  1.00  0.00     0.127 A 
ATOM      9  N   UNL     1       1.874   5.613   7.500  1.00  0.00    -0.340 N 
ATOM     10  H   UNL     1       1.357   5.337   6.637  1.00  0.00     0.168 HD
ENDROOT
BRANCH   7  11
ATOM     11  N   UNL     1      -0.886   6.809   7.862  1.00  0.00    -0.382 N 
ATOM     12  H   UNL     1      -1.365   7.657   7.486  1.00  0.00     0.158 HD
ATOM     13  H   UNL     1      -1.216   5.870   7.548  1.00  0.00     0.158 HD
ENDBRANCH   7  11
TORSDOF 1
ENDMDL
MODEL 7
REMARK VINA RESULT:    -3.951      2.056      2.668
REMARK INTER + INTRA:          -4.067
REMARK INTER:                  -4.067
REMARK INTRA:                   0.000
REMARK UNBOUND:                 0.000
REMARK SMILES Nc1ncnc2nc[nH]c12
REMARK SMILES IDX 8 1 7 2 6 3 5 4 4 5 3 6 2 7 10 8 9 9 1 11
REMARK H PARENT 9 10 1 12 1 13
REMARK Flexibility Score: inf
ROOT
ATOM      1  C   UNL     1      -6.674  -8.600   7.890  1.00  0.00     0.199 A 
ATOM      2  N   UNL     1      -5.846  -9.678   7.824  1.00  0.00    -0.217 NA
ATOM      3  C   UNL     1      -4.724  -9.213   8.398  1.00  0.00     0.182 A 
ATOM      4  N   UNL     1      -3.570  -9.897   8.588  1.00  0.00    -0.215 NA
ATOM      5  C   UNL     1      -2.530  -9.251   9.197  1.00  0.00     0.226 A 
ATOM      6  N   UNL     1      -2.661  -7.945   9.599  1.00  0.00    -0.217 NA
ATOM      7  C   UNL     1      -3.824  -7.254   9.408  1.00  0.00     0.152 A 
ATOM      8  C   UNL     1      -4.874  -7.926   8.788  1.00  0.00     0.127 A 
ATOM      9  N   UNL     1      -6.109  -7.513   8.475  1.00  0.00    -0.340 N 
ATOM     10  H   UNL     1      -6.545  -6.579   8.636  1.00  0.00     0.168 HD
ENDROOT
BRANCH   7  11
ATOM     11  N   UNL     1      -3.938  -5.896   9.835  1.00  0.00    -0.382 N 
ATOM     12  H   UNL     1      -3.259  -5.168   9.519  1.00  0.00     0.158 HD
ATOM     13  H   UNL     1      -4.711  -5.613  10.476  1.00  0.00     0.158 HD
ENDBRANCH   7  11
TORSDOF 1
ENDMDL
MODEL 8
REMARK VINA RESULT:    -3.832     15.460     17.174
REMARK INTER + INTRA:          -3.944
REMARK INTER:                  -3.944
REMARK INTRA:                   0.000
REMARK UNBOUND:                 0.000
REMARK SMILES Nc1ncnc2nc[nH]c12
REMARK SMILES IDX 8 1 7 2 6 3 5 4 4 5 3 6 2 7 10 8 9 9 1 11
REMARK H PARENT 9 10 1 12 1 13
REMARK Flexibility Score: inf
ROOT
ATOM      1  C   UNL     1       1.755   9.414   6.927  1.00  0.00     0.199 A 
ATOM      2  N   UNL     1       2.264   9.442   8.189  1.00  0.00    -0.217 NA
ATOM      3  C   UNL     1       1.519   8.518   8.818  1.00  0.00     0.182 A 
ATOM      4  N   UNL     1       1.619   8.147  10.117  1.00  0.00    -0.215 NA
ATOM      5  C   UNL     1       0.767   7.181  10.579  1.00  0.00     0.226 A 
ATOM      6  N   UNL     1      -0.159   6.611   9.742  1.00  0.00    -0.217 NA
ATOM      7  C   UNL     1      -0.260   6.984   8.432  1.00  0.00     0.152 A 
ATOM      8  C   UNL     1       0.613   7.967   7.976  1.00  0.00     0.127 A 
ATOM      9  N   UNL     1       0.745   8.523   6.765  1.00  0.00    -0.340 N 
ATOM     10  H   UNL     1       0.203   8.326   5.895  1.00  0.00     0.168 HD
ENDROOT
BRANCH   7  11
ATOM     11  N   UNL     1      -1.231   6.376   7.580  1.00  0.00    -0.382 N 
ATOM     12  H   UNL     1      -1.111   5.402   7.225  1.00  0.00     0.158 HD
ATOM     13  H   UNL     1      -2.085   6.906   7.299  1.00  0.00     0.158 HD
ENDBRANCH   7  11
TORSDOF 1
ENDMDL
MODEL 9
REMARK VINA RESULT:    -3.825      2.285      2.555
REMARK INTER + INTRA:          -3.936
REMARK INTER:                  -3.936
REMARK INTRA:                   0.000
REMARK UNBOUND:                 0.000
REMARK SMILES Nc1ncnc2nc[nH]c12
REMARK SMILES IDX 8 1 7 2 6 3 5 4 4 5 3 6 2 7 10 8 9 9 1 11
REMARK H PARENT 9 10 1 12 1 13
REMARK Flexibility Score: inf
ROOT
ATOM      1  C   UNL     1      -2.202  -9.316   9.934  1.00  0.00     0.199 A 
ATOM      2  N   UNL     1      -3.120 -10.010  10.661  1.00  0.00    -0.217 NA
ATOM      3  C   UNL     1      -4.060  -9.080  10.897  1.00  0.00     0.182 A 
ATOM      4  N   UNL     1      -5.210  -9.252  11.591  1.00  0.00    -0.215 NA
ATOM      5  C   UNL     1      -6.050  -8.180  11.725  1.00  0.00     0.226 A 
ATOM      6  N   UNL     1      -5.725  -6.968  11.168  1.00  0.00    -0.217 NA
ATOM      7  C   UNL     1      -4.565  -6.793  10.468  1.00  0.00     0.152 A 
ATOM      8  C   UNL     1      -3.722  -7.894  10.340  1.00  0.00     0.127 A 
ATOM      9  N   UNL     1      -2.542  -8.020   9.720  1.00  0.00    -0.340 N 
ATOM     10  H   UNL     1      -2.000  -7.298   9.196  1.00  0.00     0.168 HD
ENDROOT
BRANCH   7  11
ATOM     11  N   UNL     1      -4.249  -5.523   9.897  1.00  0.00    -0.382 N 
ATOM     12  H   UNL     1      -4.946  -4.993   9.328  1.00  0.00     0.158 HD
ATOM     13  H   UNL     1      -3.305  -5.104  10.045  1.00  0.00     0.158 HD
ENDBRANCH   7  11
TORSDOF 1
ENDMDL
