MODEL 1
REMARK VINA RESULT:    -4.134      0.000      0.000
REMARK INTER + INTRA:          -7.833
REMARK INTER:                  -7.034
REMARK INTRA:                  -0.799
REMARK UNBOUND:                -0.799
REMARK SMILES CCCCCCCCCCCCCC(=O)[O-]
REMARK SMILES IDX 8 1 9 2 10 3 11 4 12 5 13 6 14 7 15 8 16 9 7 10 6 11 5 12
REMARK SMILES IDX 4 13 3 14 2 15 1 16
REMARK H PARENT
REMARK Flexibility Score: inf
ROOT
ATOM      1  C   UNL     1      36.205 107.105 263.180  1.00  0.00     0.000 C 
ENDROOT
BRANCH   1   2
ATOM      2  C   UNL     1      35.339 106.097 263.962  1.00  0.00     0.000 C 
BRANCH   2   3
ATOM      3  C   UNL     1      36.126 105.003 264.711  1.00  0.00     0.000 C 
BRANCH   3   4
ATOM      4  C   UNL     1      35.607 104.682 266.127  1.00  0.00     0.000 C 
BRANCH   4   5
ATOM      5  C   UNL     1      34.875 105.840 266.832  1.00  0.00     0.006 C 
BRANCH   5   6
ATOM      6  C   UNL     1      34.991 105.827 268.364  1.00  0.00     0.053 C 
BRANCH   6   7
ATOM      7  C   UNL     1      35.131 107.208 268.926  1.00  0.00     0.041 C 
ATOM      8  O   UNL     1      35.446 107.372 270.134  1.00  0.00    -0.550 OA
ATOM      9  O   UNL     1      34.881 108.314 268.124  1.00  0.00    -0.550 OA
ENDBRANCH   6   7
ENDBRANCH   5   6
ENDBRANCH   4   5
ENDBRANCH   3   4
ENDBRANCH   2   3
ENDBRANCH   1   2
BRANCH   1  10
ATOM     10  C   UNL     1      36.686 106.618 261.802  1.00  0.00     0.000 C 
BRANCH  10  11
ATOM     11  C   UNL     1      38.217 106.590 261.680  1.00  0.00    -0.000 C 
BRANCH  11  12
ATOM     12  C   UNL     1      38.648 106.186 260.265  1.00  0.00    -0.000 C 
BRANCH  12  13
ATOM     13  C   UNL     1      37.535 105.410 259.550  1.00  0.00    -0.000 C 
BRANCH  13  14
ATOM     14  C   UNL     1      37.213 106.043 258.187  1.00  0.00    -0.000 C 
BRANCH  14  15
ATOM     15  C   UNL     1      35.864 106.779 258.184  1.00  0.00    -0.003 C 
ATOM     16  C   UNL     1      36.017 108.293 258.315  1.00  0.00     0.004 C 
ENDBRANCH  14  15
ENDBRANCH  13  14
ENDBRANCH  12  13
ENDBRANCH  11  12
ENDBRANCH  10  11
ENDBRANCH   1  10
TORSDOF 12
ENDMDL
MODEL 2
REMARK VINA RESULT:    -3.303      3.800      7.891
REMARK INTER + INTRA:          -6.419
REMARK INTER:                  -5.873
REMARK INTRA:                  -0.546
REMARK UNBOUND:                -0.799
REMARK SMILES CCCCCCCCCCCCCC(=O)[O-]
REMARK SMILES IDX 8 1 9 2 10 3 11 4 12 5 13 6 14 7 15 8 16 9 7 10 6 11 5 12
REMARK SMILES IDX 4 13 3 14 2 15 1 16
REMARK H PARENT
REMARK Flexibility Score: inf
ROOT
ATOM      1  C   UNL     1      35.939 104.915 265.505  1.00  0.00     0.000 C 
ENDROOT
BRANCH   1   2
ATOM      2  C   UNL     1      35.399 105.070 264.068  1.00  0.00     0.000 C 
BRANCH   2   3
ATOM      3  C   UNL     1      35.615 106.459 263.436  1.00  0.00     0.000 C 
BRANCH   3   4
ATOM      4  C   UNL     1      37.090 106.876 263.270  1.00  0.00     0.000 C 
BRANCH   4   5
ATOM      5  C   UNL     1      37.650 106.737 261.840  1.00  0.00     0.006 C 
BRANCH   5   6
ATOM      6  C   UNL     1      36.722 105.999 260.862  1.00  0.00     0.053 C 
BRANCH   6   7
ATOM      7  C   UNL     1      36.924 106.454 259.450  1.00  0.00     0.041 C 
ATOM      8  O   UNL     1      36.364 107.502 259.035  1.00  0.00    -0.550 OA
ATOM      9  O   UNL     1      37.703 105.700 258.582  1.00  0.00    -0.550 OA
ENDBRANCH   6   7
ENDBRANCH   5   6
ENDBRANCH   4   5
ENDBRANCH   3   4
ENDBRANCH   2   3
ENDBRANCH   1   2
BRANCH   1  10
ATOM     10  C   UNL     1      34.951 104.294 266.508  1.00  0.00     0.000 C 
BRANCH  10  11
ATOM     11  C   UNL     1      35.122 104.843 267.932  1.00  0.00    -0.000 C 
BRANCH  11  12
ATOM     12  C   UNL     1      34.876 106.356 267.970  1.00  0.00    -0.000 C 
BRANCH  12  13
ATOM     13  C   UNL     1      35.549 106.994 269.191  1.00  0.00    -0.000 C 
BRANCH  13  14
ATOM     14  C   UNL     1      35.894 108.467 268.921  1.00  0.00    -0.000 C 
BRANCH  14  15
ATOM     15  C   UNL     1      34.888 109.145 267.978  1.00  0.00    -0.003 C 
ATOM     16  C   UNL     1      35.401 109.248 266.542  1.00  0.00     0.004 C 
ENDBRANCH  14  15
ENDBRANCH  13  14
ENDBRANCH  12  13
ENDBRANCH  11  12
ENDBRANCH  10  11
ENDBRANCH   1  10
TORSDOF 12
ENDMDL
MODEL 3
REMARK VINA RESULT:    -3.188      1.491      2.282
REMARK INTER + INTRA:          -6.224
REMARK INTER:                  -6.766
REMARK INTRA:                   0.542
REMARK UNBOUND:                -0.799
REMARK SMILES CCCCCCCCCCCCCC(=O)[O-]
REMARK SMILES IDX 8 1 9 2 10 3 11 4 12 5 13 6 14 7 15 8 16 9 7 10 6 11 5 12
REMARK SMILES IDX 4 13 3 14 2 15 1 16
REMARK H PARENT
REMARK Flexibility Score: inf
ROOT
ATOM      1  C   UNL     1      36.126 106.434 264.250  1.00  0.00     0.000 C 
ENDROOT
BRANCH   1   2
ATOM      2  C   UNL     1      35.216 106.950 265.384  1.00  0.00     0.000 C 
BRANCH   2   3
ATOM      3  C   UNL     1      34.890 108.455 265.325  1.00  0.00     0.000 C 
BRANCH   3   4
ATOM      4  C   UNL     1      35.280 109.254 266.585  1.00  0.00     0.000 C 
BRANCH   4   5
ATOM      5  C   UNL     1      34.875 108.603 267.922  1.00  0.00     0.006 C 
BRANCH   5   6
ATOM      6  C   UNL     1      34.890 107.067 267.912  1.00  0.00     0.053 C 
BRANCH   6   7
ATOM      7  C   UNL     1      35.125 106.500 269.278  1.00  0.00     0.041 C 
ATOM      8  O   UNL     1      35.579 107.231 270.198  1.00  0.00    -0.550 OA
ATOM      9  O   UNL     1      34.875 105.157 269.526  1.00  0.00    -0.550 OA
ENDBRANCH   6   7
ENDBRANCH   5   6
ENDBRANCH   4   5
ENDBRANCH   3   4
ENDBRANCH   2   3
ENDBRANCH   1   2
BRANCH   1  10
ATOM     10  C   UNL     1      35.429 105.531 263.217  1.00  0.00     0.000 C 
BRANCH  10  11
ATOM     11  C   UNL     1      36.175 105.476 261.875  1.00  0.00    -0.000 C 
BRANCH  11  12
ATOM     12  C   UNL     1      37.110 106.681 261.716  1.00  0.00    -0.000 C 
BRANCH  12  13
ATOM     13  C   UNL     1      37.889 106.604 260.398  1.00  0.00    -0.000 C 
BRANCH  13  14
ATOM     14  C   UNL     1      37.277 105.554 259.459  1.00  0.00    -0.000 C 
BRANCH  14  15
ATOM     15  C   UNL     1      36.747 106.167 258.153  1.00  0.00    -0.003 C 
ATOM     16  C   UNL     1      36.313 107.623 258.318  1.00  0.00     0.004 C 
ENDBRANCH  14  15
ENDBRANCH  13  14
ENDBRANCH  12  13
ENDBRANCH  11  12
ENDBRANCH  10  11
ENDBRANCH   1  10
TORSDOF 12
ENDMDL
MODEL 4
REMARK VINA RESULT:    -2.656      1.070      1.323
REMARK INTER + INTRA:          -5.319
REMARK INTER:                  -5.185
REMARK INTRA:                  -0.134
REMARK UNBOUND:                -0.799
REMARK SMILES CCCCCCCCCCCCCC(=O)[O-]
REMARK SMILES IDX 8 1 9 2 10 3 11 4 12 5 13 6 14 7 15 8 16 9 7 10 6 11 5 12
REMARK SMILES IDX 4 13 3 14 2 15 1 16
REMARK H PARENT
REMARK Flexibility Score: inf
ROOT
ATOM      1  C   UNL     1      36.858 106.520 263.108  1.00  0.00     0.000 C 
ENDROOT
BRANCH   1   2
ATOM      2  C   UNL     1      35.829 106.838 264.212  1.00  0.00     0.000 C 
BRANCH   2   3
ATOM      3  C   UNL     1      34.890 105.674 264.584  1.00  0.00     0.000 C 
BRANCH   3   4
ATOM      4  C   UNL     1      35.273 104.914 265.870  1.00  0.00     0.000 C 
BRANCH   4   5
ATOM      5  C   UNL     1      35.385 105.786 267.135  1.00  0.00     0.006 C 
BRANCH   5   6
ATOM      6  C   UNL     1      34.877 107.226 266.962  1.00  0.00     0.053 C 
BRANCH   6   7
ATOM      7  C   UNL     1      35.171 108.071 268.163  1.00  0.00     0.041 C 
ATOM      8  O   UNL     1      35.523 107.534 269.246  1.00  0.00    -0.550 OA
ATOM      9  O   UNL     1      35.024 109.450 268.095  1.00  0.00    -0.550 OA
ENDBRANCH   6   7
ENDBRANCH   5   6
ENDBRANCH   4   5
ENDBRANCH   3   4
ENDBRANCH   2   3
ENDBRANCH   1   2
BRANCH   1  10
ATOM     10  C   UNL     1      36.302 106.548 261.674  1.00  0.00     0.000 C 
BRANCH  10  11
ATOM     11  C   UNL     1      36.519 105.225 260.924  1.00  0.00    -0.000 C 
BRANCH  11  12
ATOM     12  C   UNL     1      37.312 105.450 259.631  1.00  0.00    -0.000 C 
BRANCH  12  13
ATOM     13  C   UNL     1      37.039 106.843 259.052  1.00  0.00    -0.000 C 
BRANCH  13  14
ATOM     14  C   UNL     1      35.938 106.787 257.981  1.00  0.00    -0.000 C 
BRANCH  14  15
ATOM     15  C   UNL     1      35.150 108.102 257.875  1.00  0.00    -0.003 C 
ATOM     16  C   UNL     1      35.858 109.271 258.559  1.00  0.00     0.004 C 
ENDBRANCH  14  15
ENDBRANCH  13  14
ENDBRANCH  12  13
ENDBRANCH  11  12
ENDBRANCH  10  11
ENDBRANCH   1  10
TORSDOF 12
ENDMDL
MODEL 5
REMARK VINA RESULT:    -2.647      4.074      8.156
REMARK INTER + INTRA:          -5.303
REMARK INTER:                  -5.226
REMARK INTRA:                  -0.077
REMARK UNBOUND:                -0.799
REMARK SMILES CCCCCCCCCCCCCC(=O)[O-]
REMARK SMILES IDX 8 1 9 2 10 3 11 4 12 5 13 6 14 7 15 8 16 9 7 10 6 11 5 12
REMARK SMILES IDX 4 13 3 14 2 15 1 16
REMARK H PARENT
REMARK Flexibility Score: inf
ROOT
ATOM      1  C   UNL     1      37.346 106.805 263.844  1.00  0.00     0.000 C 
ENDROOT
BRANCH   1   2
ATOM      2  C   UNL     1      38.192 106.381 262.627  1.00  0.00     0.000 C 
BRANCH   2   3
ATOM      3  C   UNL     1      37.734 106.967 261.277  1.00  0.00     0.000 C 
BRANCH   3   4
ATOM      4  C   UNL     1      36.880 106.018 260.412  1.00  0.00     0.000 C 
BRANCH   4   5
ATOM      5  C   UNL     1      37.536 105.573 259.090  1.00  0.00     0.006 C 
BRANCH   5   6
ATOM      6  C   UNL     1      37.275 106.511 257.902  1.00  0.00     0.053 C 
BRANCH   6   7
ATOM      7  C   UNL     1      35.927 107.159 257.987  1.00  0.00     0.041 C 
ATOM      8  O   UNL     1      34.882 106.465 257.878  1.00  0.00    -0.550 OA
ATOM      9  O   UNL     1      35.826 108.534 258.152  1.00  0.00    -0.550 OA
ENDBRANCH   6   7
ENDBRANCH   5   6
ENDBRANCH   4   5
ENDBRANCH   3   4
ENDBRANCH   2   3
ENDBRANCH   1   2
BRANCH   1  10
ATOM     10  C   UNL     1      36.339 105.750 264.336  1.00  0.00     0.000 C 
BRANCH  10  11
ATOM     11  C   UNL     1      34.901 106.286 264.409  1.00  0.00    -0.000 C 
BRANCH  11  12
ATOM     12  C   UNL     1      34.889 107.776 264.774  1.00  0.00    -0.000 C 
BRANCH  12  13
ATOM     13  C   UNL     1      35.679 108.035 266.062  1.00  0.00    -0.000 C 
BRANCH  13  14
ATOM     14  C   UNL     1      35.181 107.133 267.202  1.00  0.00    -0.000 C 
BRANCH  14  15
ATOM     15  C   UNL     1      35.220 107.835 268.569  1.00  0.00    -0.003 C 
ATOM     16  C   UNL     1      35.513 106.873 269.719  1.00  0.00     0.004 C 
ENDBRANCH  14  15
ENDBRANCH  13  14
ENDBRANCH  12  13
ENDBRANCH  11  12
ENDBRANCH  10  11
ENDBRANCH   1  10
TORSDOF 12
ENDMDL
MODEL 6
REMARK VINA RESULT:    -2.626      3.004      7.292
REMARK INTER + INTRA:          -5.267
REMARK INTER:                  -4.289
REMARK INTRA:                  -0.978
REMARK UNBOUND:                -0.799
REMARK SMILES CCCCCCCCCCCCCC(=O)[O-]
REMARK SMILES IDX 8 1 9 2 10 3 11 4 12 5 13 6 14 7 15 8 16 9 7 10 6 11 5 12
REMARK SMILES IDX 4 13 3 14 2 15 1 16
REMARK H PARENT
REMARK Flexibility Score: inf
ROOT
ATOM      1  C   UNL     1      36.015 105.233 263.176  1.00  0.00     0.000 C 
ENDROOT
BRANCH   1   2
ATOM      2  C   UNL     1      35.956 104.557 261.791  1.00  0.00     0.000 C 
BRANCH   2   3
ATOM      3  C   UNL     1      36.127 105.510 260.592  1.00  0.00     0.000 C 
BRANCH   3   4
ATOM      4  C   UNL     1      37.467 105.376 259.840  1.00  0.00     0.000 C 
BRANCH   4   5
ATOM      5  C   UNL     1      38.482 106.504 260.111  1.00  0.00     0.006 C 
BRANCH   5   6
ATOM      6  C   UNL     1      39.541 106.165 261.171  1.00  0.00     0.053 C 
BRANCH   6   7
ATOM      7  C   UNL     1      39.300 106.896 262.456  1.00  0.00     0.041 C 
ATOM      8  O   UNL     1      38.288 107.634 262.586  1.00  0.00    -0.550 OA
ATOM      9  O   UNL     1      40.211 106.789 263.499  1.00  0.00    -0.550 OA
ENDBRANCH   6   7
ENDBRANCH   5   6
ENDBRANCH   4   5
ENDBRANCH   3   4
ENDBRANCH   2   3
ENDBRANCH   1   2
BRANCH   1  10
ATOM     10  C   UNL     1      35.175 106.516 263.310  1.00  0.00     0.000 C 
BRANCH  10  11
ATOM     11  C   UNL     1      34.879 106.885 264.771  1.00  0.00    -0.000 C 
BRANCH  11  12
ATOM     12  C   UNL     1      34.880 105.638 265.664  1.00  0.00    -0.000 C 
BRANCH  12  13
ATOM     13  C   UNL     1      34.879 106.023 267.148  1.00  0.00    -0.000 C 
BRANCH  13  14
ATOM     14  C   UNL     1      35.090 107.535 267.324  1.00  0.00    -0.000 C 
BRANCH  14  15
ATOM     15  C   UNL     1      35.313 107.932 268.791  1.00  0.00    -0.003 C 
ATOM     16  C   UNL     1      35.458 106.724 269.715  1.00  0.00     0.004 C 
ENDBRANCH  14  15
ENDBRANCH  13  14
ENDBRANCH  12  13
ENDBRANCH  11  12
ENDBRANCH  10  11
ENDBRANCH   1  10
TORSDOF 12
ENDMDL
MODEL 7
REMARK VINA RESULT:    -2.467      1.677      2.957
REMARK INTER + INTRA:          -4.997
REMARK INTER:                  -4.797
REMARK INTRA:                  -0.200
REMARK UNBOUND:                -0.799
REMARK SMILES CCCCCCCCCCCCCC(=O)[O-]
REMARK SMILES IDX 8 1 9 2 10 3 11 4 12 5 13 6 14 7 15 8 16 9 7 10 6 11 5 12
REMARK SMILES IDX 4 13 3 14 2 15 1 16
REMARK H PARENT
REMARK Flexibility Score: inf
ROOT
ATOM      1  C   UNL     1      35.573 105.418 264.823  1.00  0.00     0.000 C 
ENDROOT
BRANCH   1   2
ATOM      2  C   UNL     1      36.062 106.878 264.741  1.00  0.00     0.000 C 
BRANCH   2   3
ATOM      3  C   UNL     1      35.019 107.938 265.146  1.00  0.00     0.000 C 
BRANCH   3   4
ATOM      4  C   UNL     1      35.464 108.892 266.274  1.00  0.00     0.000 C 
BRANCH   4   5
ATOM      5  C   UNL     1      35.189 108.385 267.703  1.00  0.00     0.006 C 
BRANCH   5   6
ATOM      6  C   UNL     1      34.882 106.883 267.798  1.00  0.00     0.053 C 
BRANCH   6   7
ATOM      7  C   UNL     1      35.047 106.365 269.193  1.00  0.00     0.041 C 
ATOM      8  O   UNL     1      34.875 105.142 269.440  1.00  0.00    -0.550 OA
ATOM      9  O   UNL     1      35.358 107.238 270.227  1.00  0.00    -0.550 OA
ENDBRANCH   6   7
ENDBRANCH   5   6
ENDBRANCH   4   5
ENDBRANCH   3   4
ENDBRANCH   2   3
ENDBRANCH   1   2
BRANCH   1  10
ATOM     10  C   UNL     1      34.961 104.862 263.526  1.00  0.00     0.000 C 
BRANCH  10  11
ATOM     11  C   UNL     1      35.452 105.600 262.271  1.00  0.00    -0.000 C 
BRANCH  11  12
ATOM     12  C   UNL     1      36.143 104.634 261.301  1.00  0.00    -0.000 C 
BRANCH  12  13
ATOM     13  C   UNL     1      37.190 105.363 260.450  1.00  0.00    -0.000 C 
BRANCH  13  14
ATOM     14  C   UNL     1      37.179 106.872 260.739  1.00  0.00    -0.000 C 
BRANCH  14  15
ATOM     15  C   UNL     1      38.008 107.240 261.979  1.00  0.00    -0.003 C 
ATOM     16  C   UNL     1      39.346 106.505 262.034  1.00  0.00     0.004 C 
ENDBRANCH  14  15
ENDBRANCH  13  14
ENDBRANCH  12  13
ENDBRANCH  11  12
ENDBRANCH  10  11
ENDBRANCH   1  10
TORSDOF 12
ENDMDL
MODEL 8
REMARK VINA RESULT:    -2.391      3.814      7.804
REMARK INTER + INTRA:          -4.868
REMARK INTER:                  -4.534
REMARK INTRA:                  -0.334
REMARK UNBOUND:                -0.799
REMARK SMILES CCCCCCCCCCCCCC(=O)[O-]
REMARK SMILES IDX 8 1 9 2 10 3 11 4 12 5 13 6 14 7 15 8 16 9 7 10 6 11 5 12
REMARK SMILES IDX 4 13 3 14 2 15 1 16
REMARK H PARENT
REMARK Flexibility Score: inf
ROOT
ATOM      1  C   UNL     1      35.582 104.817 265.235  1.00  0.00     0.000 C 
ENDROOT
BRANCH   1   2
ATOM      2  C   UNL     1      35.120 104.258 263.875  1.00  0.00     0.000 C 
BRANCH   2   3
ATOM      3  C   UNL     1      35.018 105.298 262.742  1.00  0.00     0.000 C 
BRANCH   3   4
ATOM      4  C   UNL     1      36.255 105.384 261.824  1.00  0.00     0.000 C 
BRANCH   4   5
ATOM      5  C   UNL     1      37.237 106.524 262.158  1.00  0.00     0.006 C 
BRANCH   5   6
ATOM      6  C   UNL     1      38.013 107.069 260.949  1.00  0.00     0.053 C 
BRANCH   6   7
ATOM      7  C   UNL     1      37.458 106.564 259.653  1.00  0.00     0.041 C 
ATOM      8  O   UNL     1      36.437 107.100 259.149  1.00  0.00    -0.550 OA
ATOM      9  O   UNL     1      38.048 105.478 259.020  1.00  0.00    -0.550 OA
ENDBRANCH   6   7
ENDBRANCH   5   6
ENDBRANCH   4   5
ENDBRANCH   3   4
ENDBRANCH   2   3
ENDBRANCH   1   2
BRANCH   1  10
ATOM     10  C   UNL     1      34.878 106.112 265.679  1.00  0.00     0.000 C 
BRANCH  10  11
ATOM     11  C   UNL     1      35.562 107.377 265.140  1.00  0.00    -0.000 C 
BRANCH  11  12
ATOM     12  C   UNL     1      35.271 108.584 266.040  1.00  0.00    -0.000 C 
BRANCH  12  13
ATOM     13  C   UNL     1      35.978 108.447 267.393  1.00  0.00    -0.000 C 
BRANCH  13  14
ATOM     14  C   UNL     1      34.972 108.543 268.551  1.00  0.00    -0.000 C 
BRANCH  14  15
ATOM     15  C   UNL     1      35.115 107.389 269.555  1.00  0.00    -0.003 C 
ATOM     16  C   UNL     1      35.140 106.019 268.879  1.00  0.00     0.004 C 
ENDBRANCH  14  15
ENDBRANCH  13  14
ENDBRANCH  12  13
ENDBRANCH  11  12
ENDBRANCH  10  11
ENDBRANCH   1  10
TORSDOF 12
ENDMDL
