MODEL 1
REMARK VINA RESULT:    -4.889      0.000      0.000
REMARK INTER + INTRA:          -5.596
REMARK INTER:                  -5.318
REMARK INTRA:                  -0.277
REMARK UNBOUND:                -0.277
REMARK SMILES CC1=C[C@H]2[C@@H](C(C)C)CC[C@](C)(O)[C@@H]2CC1
REMARK SMILES IDX 1 1 2 2 3 3 4 4 5 5 9 6 10 7 11 8 14 9 15 10 16 11 12 12
REMARK SMILES IDX 6 13 7 14 8 15 13 16
REMARK H PARENT 13 17
REMARK Flexibility Score: inf
ROOT
ATOM      1  C   UNL     1     137.960 140.564 142.080  1.00  0.00     0.039 C 
ATOM      2  C   UNL     1     138.181 141.105 143.466  1.00  0.00    -0.077 C 
ATOM      3  C   UNL     1     138.457 140.246 144.468  1.00  0.00    -0.024 C 
ATOM      4  C   UNL     1     138.658 140.684 145.909  1.00  0.00     0.021 C 
ATOM      5  C   UNL     1     139.789 139.891 146.658  1.00  0.00    -0.001 C 
ATOM      6  C   UNL     1     140.265 140.637 147.940  1.00  0.00     0.007 C 
ATOM      7  C   UNL     1     139.155 141.502 148.551  1.00  0.00     0.035 C 
ATOM      8  C   UNL     1     138.694 142.642 147.587  1.00  0.00     0.065 C 
ATOM      9  C   UNL     1     138.841 142.215 146.077  1.00  0.00     0.028 C 
ATOM     10  C   UNL     1     137.885 142.973 145.136  1.00  0.00     0.011 C 
ATOM     11  C   UNL     1     138.185 142.602 143.681  1.00  0.00     0.031 C 
ATOM     12  C   UNL     1     139.550 143.897 147.847  1.00  0.00     0.042 C 
ENDROOT
BRANCH   5  13
ATOM     13  C   UNL     1     140.989 139.409 145.767  1.00  0.00    -0.014 C 
ATOM     14  C   UNL     1     141.919 138.456 146.534  1.00  0.00     0.007 C 
ATOM     15  C   UNL     1     141.810 140.546 145.132  1.00  0.00     0.007 C 
ENDBRANCH   5  13
BRANCH   8  16
ATOM     16  O   UNL     1     137.360 142.982 147.888  1.00  0.00    -0.390 OA
ATOM     17  H   UNL     1     137.146 142.628 148.790  1.00  0.00     0.211 HD
ENDBRANCH   8  16
TORSDOF 2
ENDMDL
MODEL 2
REMARK VINA RESULT:    -4.731      7.693      9.940
REMARK INTER + INTRA:          -5.423
REMARK INTER:                  -5.016
REMARK INTRA:                  -0.407
REMARK UNBOUND:                -0.277
REMARK SMILES CC1=C[C@H]2[C@@H](C(C)C)CC[C@](C)(O)[C@@H]2CC1
REMARK SMILES IDX 1 1 2 2 3 3 4 4 5 5 9 6 10 7 11 8 14 9 15 10 16 11 12 12
REMARK SMILES IDX 6 13 7 14 8 15 13 16
REMARK H PARENT 13 17
REMARK Flexibility Score: inf
ROOT
ATOM      1  C   UNL     1     143.529 136.300 148.648  1.00  0.00     0.039 C 
ATOM      2  C   UNL     1     144.851 136.880 148.223  1.00  0.00    -0.077 C 
ATOM      3  C   UNL     1     145.783 137.142 149.161  1.00  0.00    -0.024 C 
ATOM      4  C   UNL     1     147.133 137.763 148.844  1.00  0.00     0.021 C 
ATOM      5  C   UNL     1     148.316 137.171 149.692  1.00  0.00    -0.001 C 
ATOM      6  C   UNL     1     149.701 137.490 149.054  1.00  0.00     0.007 C 
ATOM      7  C   UNL     1     149.678 138.794 148.246  1.00  0.00     0.035 C 
ATOM      8  C   UNL     1     148.697 138.721 147.031  1.00  0.00     0.065 C 
ATOM      9  C   UNL     1     147.477 137.770 147.331  1.00  0.00     0.028 C 
ATOM     10  C   UNL     1     146.224 138.109 146.501  1.00  0.00     0.011 C 
ATOM     11  C   UNL     1     145.136 137.062 146.749  1.00  0.00     0.031 C 
ATOM     12  C   UNL     1     149.461 138.197 145.799  1.00  0.00     0.042 C 
ENDROOT
BRANCH   5  13
ATOM     13  C   UNL     1     148.177 135.660 150.095  1.00  0.00    -0.014 C 
ATOM     14  C   UNL     1     148.903 135.354 151.415  1.00  0.00     0.007 C 
ATOM     15  C   UNL     1     148.623 134.665 149.008  1.00  0.00     0.007 C 
ENDBRANCH   5  13
BRANCH   8  16
ATOM     16  O   UNL     1     148.259 140.024 146.722  1.00  0.00    -0.390 OA
ATOM     17  H   UNL     1     147.758 139.988 145.866  1.00  0.00     0.211 HD
ENDBRANCH   8  16
TORSDOF 2
ENDMDL
MODEL 3
REMARK VINA RESULT:    -4.717      5.634      8.518
REMARK INTER + INTRA:          -5.408
REMARK INTER:                  -5.006
REMARK INTRA:                  -0.402
REMARK UNBOUND:                -0.277
REMARK SMILES CC1=C[C@H]2[C@@H](C(C)C)CC[C@](C)(O)[C@@H]2CC1
REMARK SMILES IDX 1 1 2 2 3 3 4 4 5 5 9 6 10 7 11 8 14 9 15 10 16 11 12 12
REMARK SMILES IDX 6 13 7 14 8 15 13 16
REMARK H PARENT 13 17
REMARK Flexibility Score: inf
ROOT
ATOM      1  C   UNL     1     137.385 143.201 144.189  1.00  0.00     0.039 C 
ATOM      2  C   UNL     1     136.524 143.928 143.193  1.00  0.00    -0.077 C 
ATOM      3  C   UNL     1     135.760 144.957 143.615  1.00  0.00    -0.024 C 
ATOM      4  C   UNL     1     134.827 145.732 142.700  1.00  0.00     0.021 C 
ATOM      5  C   UNL     1     134.785 147.274 142.999  1.00  0.00    -0.001 C 
ATOM      6  C   UNL     1     134.193 148.078 141.804  1.00  0.00     0.007 C 
ATOM      7  C   UNL     1     133.195 147.248 140.987  1.00  0.00     0.035 C 
ATOM      8  C   UNL     1     133.866 146.002 140.322  1.00  0.00     0.065 C 
ATOM      9  C   UNL     1     135.063 145.460 141.191  1.00  0.00     0.028 C 
ATOM     10  C   UNL     1     135.355 143.965 140.957  1.00  0.00     0.011 C 
ATOM     11  C   UNL     1     136.610 143.553 141.730  1.00  0.00     0.031 C 
ATOM     12  C   UNL     1     134.386 146.397 138.926  1.00  0.00     0.042 C 
ENDROOT
BRANCH   5  13
ATOM     13  C   UNL     1     136.121 147.900 143.538  1.00  0.00    -0.014 C 
ATOM     14  C   UNL     1     135.853 149.026 144.549  1.00  0.00     0.007 C 
ATOM     15  C   UNL     1     137.082 148.396 142.443  1.00  0.00     0.007 C 
ENDBRANCH   5  13
BRANCH   8  16
ATOM     16  O   UNL     1     132.887 145.006 140.132  1.00  0.00    -0.390 OA
ATOM     17  H   UNL     1     133.248 144.147 140.473  1.00  0.00     0.211 HD
ENDBRANCH   8  16
TORSDOF 2
ENDMDL
MODEL 4
REMARK VINA RESULT:    -4.714      7.495     10.800
REMARK INTER + INTRA:          -5.404
REMARK INTER:                  -5.007
REMARK INTRA:                  -0.398
REMARK UNBOUND:                -0.277
REMARK SMILES CC1=C[C@H]2[C@@H](C(C)C)CC[C@](C)(O)[C@@H]2CC1
REMARK SMILES IDX 1 1 2 2 3 3 4 4 5 5 9 6 10 7 11 8 14 9 15 10 16 11 12 12
REMARK SMILES IDX 6 13 7 14 8 15 13 16
REMARK H PARENT 13 17
REMARK Flexibility Score: inf
ROOT
ATOM      1  C   UNL     1     146.204 133.159 152.094  1.00  0.00     0.039 C 
ATOM      2  C   UNL     1     146.775 134.232 151.207  1.00  0.00    -0.077 C 
ATOM      3  C   UNL     1     146.245 134.421 149.982  1.00  0.00    -0.024 C 
ATOM      4  C   UNL     1     146.771 135.448 148.995  1.00  0.00     0.021 C 
ATOM      5  C   UNL     1     145.644 136.169 148.171  1.00  0.00    -0.001 C 
ATOM      6  C   UNL     1     146.159 137.486 147.518  1.00  0.00     0.007 C 
ATOM      7  C   UNL     1     147.662 137.432 147.215  1.00  0.00     0.035 C 
ATOM      8  C   UNL     1     148.522 137.280 148.511  1.00  0.00     0.065 C 
ATOM      9  C   UNL     1     147.749 136.475 149.624  1.00  0.00     0.028 C 
ATOM     10  C   UNL     1     148.686 135.775 150.628  1.00  0.00     0.011 C 
ATOM     11  C   UNL     1     147.862 135.134 151.748  1.00  0.00     0.031 C 
ATOM     12  C   UNL     1     148.875 138.680 149.048  1.00  0.00     0.042 C 
ENDROOT
BRANCH   5  13
ATOM     13  C   UNL     1     144.276 136.365 148.915  1.00  0.00    -0.014 C 
ATOM     14  C   UNL     1     143.109 136.520 147.927  1.00  0.00     0.007 C 
ATOM     15  C   UNL     1     144.260 137.522 149.930  1.00  0.00     0.007 C 
ENDBRANCH   5  13
BRANCH   8  16
ATOM     16  O   UNL     1     149.736 136.645 148.180  1.00  0.00    -0.390 OA
ATOM     17  H   UNL     1     150.286 137.284 147.657  1.00  0.00     0.211 HD
ENDBRANCH   8  16
TORSDOF 2
ENDMDL
MODEL 5
REMARK VINA RESULT:    -4.681      5.966      8.025
REMARK INTER + INTRA:          -5.369
REMARK INTER:                  -4.970
REMARK INTRA:                  -0.398
REMARK UNBOUND:                -0.277
REMARK SMILES CC1=C[C@H]2[C@@H](C(C)C)CC[C@](C)(O)[C@@H]2CC1
REMARK SMILES IDX 1 1 2 2 3 3 4 4 5 5 9 6 10 7 11 8 14 9 15 10 16 11 12 12
REMARK SMILES IDX 6 13 7 14 8 15 13 16
REMARK H PARENT 13 17
REMARK Flexibility Score: inf
ROOT
ATOM      1  C   UNL     1     132.894 142.823 139.380  1.00  0.00     0.039 C 
ATOM      2  C   UNL     1     133.293 144.151 139.964  1.00  0.00    -0.077 C 
ATOM      3  C   UNL     1     133.658 144.213 141.261  1.00  0.00    -0.024 C 
ATOM      4  C   UNL     1     134.042 145.508 141.958  1.00  0.00     0.021 C 
ATOM      5  C   UNL     1     135.227 145.350 142.976  1.00  0.00    -0.001 C 
ATOM      6  C   UNL     1     135.874 146.723 143.326  1.00  0.00     0.007 C 
ATOM      7  C   UNL     1     134.872 147.880 143.216  1.00  0.00     0.035 C 
ATOM      8  C   UNL     1     134.338 148.062 141.758  1.00  0.00     0.065 C 
ATOM      9  C   UNL     1     134.292 146.690 140.985  1.00  0.00     0.028 C 
ATOM     10  C   UNL     1     133.257 146.671 139.843  1.00  0.00     0.011 C 
ATOM     11  C   UNL     1     133.371 145.361 139.060  1.00  0.00     0.031 C 
ATOM     12  C   UNL     1     135.258 149.042 141.004  1.00  0.00     0.042 C 
ENDROOT
BRANCH   5  13
ATOM     13  C   UNL     1     136.297 144.260 142.613  1.00  0.00    -0.014 C 
ATOM     14  C   UNL     1     137.045 143.760 143.860  1.00  0.00     0.007 C 
ATOM     15  C   UNL     1     137.307 144.690 141.534  1.00  0.00     0.007 C 
ENDBRANCH   5  13
BRANCH   8  16
ATOM     16  O   UNL     1     133.060 148.654 141.813  1.00  0.00    -0.390 OA
ATOM     17  H   UNL     1     132.382 147.931 141.794  1.00  0.00     0.211 HD
ENDBRANCH   8  16
TORSDOF 2
ENDMDL
MODEL 6
REMARK VINA RESULT:    -4.651      6.774      9.263
REMARK INTER + INTRA:          -5.337
REMARK INTER:                  -4.955
REMARK INTRA:                  -0.381
REMARK UNBOUND:                -0.277
REMARK SMILES CC1=C[C@H]2[C@@H](C(C)C)CC[C@](C)(O)[C@@H]2CC1
REMARK SMILES IDX 1 1 2 2 3 3 4 4 5 5 9 6 10 7 11 8 14 9 15 10 16 11 12 12
REMARK SMILES IDX 6 13 7 14 8 15 13 16
REMARK H PARENT 13 17
REMARK Flexibility Score: inf
ROOT
ATOM      1  C   UNL     1     147.203 134.648 149.153  1.00  0.00     0.039 C 
ATOM      2  C   UNL     1     146.714 135.682 148.175  1.00  0.00    -0.077 C 
ATOM      3  C   UNL     1     147.367 136.858 148.084  1.00  0.00    -0.024 C 
ATOM      4  C   UNL     1     146.934 137.983 147.159  1.00  0.00     0.021 C 
ATOM      5  C   UNL     1     148.132 138.748 146.490  1.00  0.00    -0.001 C 
ATOM      6  C   UNL     1     147.673 139.566 145.246  1.00  0.00     0.007 C 
ATOM      7  C   UNL     1     146.210 140.015 145.358  1.00  0.00     0.035 C 
ATOM      8  C   UNL     1     145.223 138.805 145.414  1.00  0.00     0.065 C 
ATOM      9  C   UNL     1     145.884 137.552 146.101  1.00  0.00     0.028 C 
ATOM     10  C   UNL     1     144.857 136.590 146.729  1.00  0.00     0.011 C 
ATOM     11  C   UNL     1     145.567 135.339 147.252  1.00  0.00     0.031 C 
ATOM     12  C   UNL     1     144.799 138.436 143.979  1.00  0.00     0.042 C 
ENDROOT
BRANCH   5  13
ATOM     13  C   UNL     1     149.414 137.888 146.201  1.00  0.00    -0.014 C 
ATOM     14  C   UNL     1     150.697 138.621 146.624  1.00  0.00     0.007 C 
ATOM     15  C   UNL     1     149.543 137.403 144.746  1.00  0.00     0.007 C 
ENDBRANCH   5  13
BRANCH   8  16
ATOM     16  O   UNL     1     144.057 139.201 146.100  1.00  0.00    -0.390 OA
ATOM     17  H   UNL     1     143.898 138.558 146.838  1.00  0.00     0.211 HD
ENDBRANCH   8  16
TORSDOF 2
ENDMDL
MODEL 7
REMARK VINA RESULT:    -4.614      8.087      9.406
REMARK INTER + INTRA:          -5.296
REMARK INTER:                  -4.948
REMARK INTRA:                  -0.348
REMARK UNBOUND:                -0.277
REMARK SMILES CC1=C[C@H]2[C@@H](C(C)C)CC[C@](C)(O)[C@@H]2CC1
REMARK SMILES IDX 1 1 2 2 3 3 4 4 5 5 9 6 10 7 11 8 14 9 15 10 16 11 12 12
REMARK SMILES IDX 6 13 7 14 8 15 13 16
REMARK H PARENT 13 17
REMARK Flexibility Score: inf
ROOT
ATOM      1  C   UNL     1     146.033 138.120 142.747  1.00  0.00     0.039 C 
ATOM      2  C   UNL     1     146.837 138.256 144.011  1.00  0.00    -0.077 C 
ATOM      3  C   UNL     1     146.210 138.153 145.201  1.00  0.00    -0.024 C 
ATOM      4  C   UNL     1     146.921 138.314 146.534  1.00  0.00     0.021 C 
ATOM      5  C   UNL     1     146.411 137.328 147.645  1.00  0.00    -0.001 C 
ATOM      6  C   UNL     1     147.426 137.207 148.821  1.00  0.00     0.007 C 
ATOM      7  C   UNL     1     148.255 138.485 149.001  1.00  0.00     0.035 C 
ATOM      8  C   UNL     1     149.142 138.796 147.753  1.00  0.00     0.065 C 
ATOM      9  C   UNL     1     148.469 138.282 146.424  1.00  0.00     0.028 C 
ATOM     10  C   UNL     1     148.931 139.052 145.172  1.00  0.00     0.011 C 
ATOM     11  C   UNL     1     148.339 138.407 143.916  1.00  0.00     0.031 C 
ATOM     12  C   UNL     1     150.512 138.112 147.927  1.00  0.00     0.042 C 
ENDROOT
BRANCH   5  13
ATOM     13  C   UNL     1     145.915 135.927 147.138  1.00  0.00    -0.014 C 
ATOM     14  C   UNL     1     144.435 135.690 147.481  1.00  0.00     0.007 C 
ATOM     15  C   UNL     1     146.762 134.735 147.620  1.00  0.00     0.007 C 
ENDBRANCH   5  13
BRANCH   8  16
ATOM     16  O   UNL     1     149.378 140.184 147.696  1.00  0.00    -0.390 OA
ATOM     17  H   UNL     1     150.077 140.353 147.013  1.00  0.00     0.211 HD
ENDBRANCH   8  16
TORSDOF 2
ENDMDL
MODEL 8
REMARK VINA RESULT:    -4.603      7.077      9.700
REMARK INTER + INTRA:          -5.284
REMARK INTER:                  -4.877
REMARK INTRA:                  -0.408
REMARK UNBOUND:                -0.277
REMARK SMILES CC1=C[C@H]2[C@@H](C(C)C)CC[C@](C)(O)[C@@H]2CC1
REMARK SMILES IDX 1 1 2 2 3 3 4 4 5 5 9 6 10 7 11 8 14 9 15 10 16 11 12 12
REMARK SMILES IDX 6 13 7 14 8 15 13 16
REMARK H PARENT 13 17
REMARK Flexibility Score: inf
ROOT
ATOM      1  C   UNL     1     143.450 138.861 143.961  1.00  0.00     0.039 C 
ATOM      2  C   UNL     1     144.906 138.642 144.273  1.00  0.00    -0.077 C 
ATOM      3  C   UNL     1     145.777 138.480 143.257  1.00  0.00    -0.024 C 
ATOM      4  C   UNL     1     147.259 138.214 143.464  1.00  0.00     0.021 C 
ATOM      5  C   UNL     1     148.183 138.945 142.425  1.00  0.00    -0.001 C 
ATOM      6  C   UNL     1     149.659 139.018 142.916  1.00  0.00     0.007 C 
ATOM      7  C   UNL     1     150.019 137.848 143.841  1.00  0.00     0.035 C 
ATOM      8  C   UNL     1     149.172 137.850 145.154  1.00  0.00     0.065 C 
ATOM      9  C   UNL     1     147.741 138.465 144.917  1.00  0.00     0.028 C 
ATOM     10  C   UNL     1     146.689 137.962 145.924  1.00  0.00     0.011 C 
ATOM     11  C   UNL     1     145.368 138.706 145.712  1.00  0.00     0.031 C 
ATOM     12  C   UNL     1     149.910 138.674 146.228  1.00  0.00     0.042 C 
ENDROOT
BRANCH   5  13
ATOM     13  C   UNL     1     147.658 140.329 141.900  1.00  0.00    -0.014 C 
ATOM     14  C   UNL     1     148.124 140.605 140.462  1.00  0.00     0.007 C 
ATOM     15  C   UNL     1     148.003 141.527 142.803  1.00  0.00     0.007 C 
ENDBRANCH   5  13
BRANCH   8  16
ATOM     16  O   UNL     1     149.080 136.529 145.638  1.00  0.00    -0.390 OA
ATOM     17  H   UNL     1     148.952 136.567 146.621  1.00  0.00     0.211 HD
ENDBRANCH   8  16
TORSDOF 2
ENDMDL
MODEL 9
REMARK VINA RESULT:    -4.543      8.073     10.050
REMARK INTER + INTRA:          -5.219
REMARK INTER:                  -4.817
REMARK INTRA:                  -0.402
REMARK UNBOUND:                -0.277
REMARK SMILES CC1=C[C@H]2[C@@H](C(C)C)CC[C@](C)(O)[C@@H]2CC1
REMARK SMILES IDX 1 1 2 2 3 3 4 4 5 5 9 6 10 7 11 8 14 9 15 10 16 11 12 12
REMARK SMILES IDX 6 13 7 14 8 15 13 16
REMARK H PARENT 13 17
REMARK Flexibility Score: inf
ROOT
ATOM      1  C   UNL     1     144.328 136.005 148.271  1.00  0.00     0.039 C 
ATOM      2  C   UNL     1     145.694 136.621 148.135  1.00  0.00    -0.077 C 
ATOM      3  C   UNL     1     146.312 136.589 146.937  1.00  0.00    -0.024 C 
ATOM      4  C   UNL     1     147.705 137.147 146.702  1.00  0.00     0.021 C 
ATOM      5  C   UNL     1     147.873 137.864 145.314  1.00  0.00    -0.001 C 
ATOM      6  C   UNL     1     149.128 138.786 145.289  1.00  0.00     0.007 C 
ATOM      7  C   UNL     1     150.230 138.290 146.235  1.00  0.00     0.035 C 
ATOM      8  C   UNL     1     149.773 138.295 147.730  1.00  0.00     0.065 C 
ATOM      9  C   UNL     1     148.224 138.039 147.860  1.00  0.00     0.028 C 
ATOM     10  C   UNL     1     147.821 137.436 149.220  1.00  0.00     0.011 C 
ATOM     11  C   UNL     1     146.296 137.347 149.318  1.00  0.00     0.031 C 
ATOM     12  C   UNL     1     150.118 139.661 148.355  1.00  0.00     0.042 C 
ENDROOT
BRANCH   5  13
ATOM     13  C   UNL     1     146.592 138.582 144.758  1.00  0.00    -0.014 C 
ATOM     14  C   UNL     1     146.504 138.481 143.227  1.00  0.00     0.007 C 
ATOM     15  C   UNL     1     146.441 140.049 145.197  1.00  0.00     0.007 C 
ENDBRANCH   5  13
BRANCH   8  16
ATOM     16  O   UNL     1     150.508 137.320 148.434  1.00  0.00    -0.390 OA
ATOM     17  H   UNL     1     151.080 137.784 149.099  1.00  0.00     0.211 HD
ENDBRANCH   8  16
TORSDOF 2
ENDMDL
