MODEL 1
REMARK VINA RESULT:    -5.943      0.000      0.000
REMARK INTER + INTRA:         -19.995
REMARK INTER:                 -15.670
REMARK INTRA:                  -4.325
REMARK UNBOUND:                -4.325
REMARK SMILES CCCCCCCCCCCCCCCCCCCCCCCCCCCCCC(=O)[O-]
REMARK SMILES IDX 16 1 17 2 18 3 19 4 20 5 21 6 22 7 23 8 24 9 25 10 26 11
REMARK SMILES IDX 27 12 28 13 29 14 30 15 31 16 32 17 15 18 14 19 13 20 12 21
REMARK SMILES IDX 11 22 10 23 9 24 8 25 7 26 6 27 5 28 4 29 3 30 2 31 1 32
REMARK H PARENT
REMARK Flexibility Score: inf
ROOT
ATOM      1  C   UNL     1       9.420  18.509  37.434  1.00  0.00     0.000 C 
ENDROOT
BRANCH   1   2
ATOM      2  C   UNL     1      10.250  17.252  37.088  1.00  0.00     0.000 C 
BRANCH   2   3
ATOM      3  C   UNL     1      11.762  17.529  37.029  1.00  0.00     0.000 C 
BRANCH   3   4
ATOM      4  C   UNL     1      12.313  17.473  35.596  1.00  0.00     0.000 C 
BRANCH   4   5
ATOM      5  C   UNL     1      13.609  16.656  35.536  1.00  0.00     0.000 C 
BRANCH   5   6
ATOM      6  C   UNL     1      13.618  15.551  36.601  1.00  0.00     0.000 C 
BRANCH   6   7
ATOM      7  C   UNL     1      14.838  15.632  37.536  1.00  0.00     0.000 C 
BRANCH   7   8
ATOM      8  C   UNL     1      15.033  17.016  38.188  1.00  0.00     0.000 C 
BRANCH   8   9
ATOM      9  C   UNL     1      16.378  17.656  37.798  1.00  0.00     0.000 C 
BRANCH   9  10
ATOM     10  C   UNL     1      16.253  18.619  36.608  1.00  0.00     0.000 C 
BRANCH  10  11
ATOM     11  C   UNL     1      17.397  18.462  35.593  1.00  0.00     0.000 C 
BRANCH  11  12
ATOM     12  C   UNL     1      17.945  17.028  35.599  1.00  0.00     0.000 C 
BRANCH  12  13
ATOM     13  C   UNL     1      18.659  16.650  34.288  1.00  0.00     0.006 C 
BRANCH  13  14
ATOM     14  C   UNL     1      18.438  17.657  33.144  1.00  0.00     0.053 C 
BRANCH  14  15
ATOM     15  C   UNL     1      19.715  18.280  32.666  1.00  0.00     0.041 C 
ATOM     16  O   UNL     1      19.991  19.471  32.965  1.00  0.00    -0.550 OA
ATOM     17  O   UNL     1      20.617  17.533  31.917  1.00  0.00    -0.550 OA
ENDBRANCH  14  15
ENDBRANCH  13  14
ENDBRANCH  12  13
ENDBRANCH  11  12
ENDBRANCH  10  11
ENDBRANCH   9  10
ENDBRANCH   8   9
ENDBRANCH   7   8
ENDBRANCH   6   7
ENDBRANCH   5   6
ENDBRANCH   4   5
ENDBRANCH   3   4
ENDBRANCH   2   3
ENDBRANCH   1   2
BRANCH   1  18
ATOM     18  C   UNL     1       8.138  18.599  36.592  1.00  0.00     0.000 C 
BRANCH  18  19
ATOM     19  C   UNL     1       8.151  17.639  35.387  1.00  0.00     0.000 C 
BRANCH  19  20
ATOM     20  C   UNL     1       8.361  18.322  34.020  1.00  0.00     0.000 C 
BRANCH  20  21
ATOM     21  C   UNL     1       9.759  18.138  33.390  1.00  0.00     0.000 C 
BRANCH  21  22
ATOM     22  C   UNL     1       9.979  18.893  32.066  1.00  0.00     0.000 C 
BRANCH  22  23
ATOM     23  C   UNL     1       8.690  19.011  31.237  1.00  0.00     0.000 C 
BRANCH  23  24
ATOM     24  C   UNL     1       8.358  20.469  30.873  1.00  0.00    -0.000 C 
BRANCH  24  25
ATOM     25  C   UNL     1       8.571  21.478  32.021  1.00  0.00    -0.000 C 
BRANCH  25  26
ATOM     26  C   UNL     1       9.120  22.857  31.595  1.00  0.00    -0.000 C 
BRANCH  26  27
ATOM     27  C   UNL     1      10.443  23.278  32.266  1.00  0.00    -0.000 C 
BRANCH  27  28
ATOM     28  C   UNL     1      11.265  22.115  32.850  1.00  0.00    -0.000 C 
BRANCH  28  29
ATOM     29  C   UNL     1      11.517  22.270  34.358  1.00  0.00    -0.000 C 
BRANCH  29  30
ATOM     30  C   UNL     1      10.723  21.253  35.192  1.00  0.00    -0.000 C 
BRANCH  30  31
ATOM     31  C   UNL     1       9.325  21.768  35.570  1.00  0.00    -0.003 C 
ATOM     32  C   UNL     1       9.346  23.268  35.848  1.00  0.00     0.004 C 
ENDBRANCH  30  31
ENDBRANCH  29  30
ENDBRANCH  28  29
ENDBRANCH  27  28
ENDBRANCH  26  27
ENDBRANCH  25  26
ENDBRANCH  24  25
ENDBRANCH  23  24
ENDBRANCH  22  23
ENDBRANCH  21  22
ENDBRANCH  20  21
ENDBRANCH  19  20
ENDBRANCH  18  19
ENDBRANCH   1  18
TORSDOF 28
ENDMDL
MODEL 2
REMARK VINA RESULT:    -5.916      3.493      9.048
REMARK INTER + INTRA:         -19.925
REMARK INTER:                 -15.589
REMARK INTRA:                  -4.336
REMARK UNBOUND:                -4.325
REMARK SMILES CCCCCCCCCCCCCCCCCCCCCCCCCCCCCC(=O)[O-]
REMARK SMILES IDX 16 1 17 2 18 3 19 4 20 5 21 6 22 7 23 8 24 9 25 10 26 11
REMARK SMILES IDX 27 12 28 13 29 14 30 15 31 16 32 17 15 18 14 19 13 20 12 21
REMARK SMILES IDX 11 22 10 23 9 24 8 25 7 26 6 27 5 28 4 29 3 30 2 31 1 32
REMARK H PARENT
REMARK Flexibility Score: inf
ROOT
ATOM      1  C   UNL     1      11.067  17.337  35.925  1.00  0.00     0.000 C 
ENDROOT
BRANCH   1   2
ATOM      2  C   UNL     1      10.049  17.021  34.804  1.00  0.00     0.000 C 
BRANCH   2   3
ATOM      3  C   UNL     1       8.621  17.479  35.144  1.00  0.00     0.000 C 
BRANCH   3   4
ATOM      4  C   UNL     1       8.072  18.491  34.128  1.00  0.00     0.000 C 
BRANCH   4   5
ATOM      5  C   UNL     1       8.871  18.446  32.820  1.00  0.00     0.000 C 
BRANCH   5   6
ATOM      6  C   UNL     1       8.618  19.699  31.972  1.00  0.00     0.000 C 
BRANCH   6   7
ATOM      7  C   UNL     1       9.593  20.845  32.293  1.00  0.00     0.000 C 
BRANCH   7   8
ATOM      8  C   UNL     1      10.870  20.389  33.029  1.00  0.00     0.000 C 
BRANCH   8   9
ATOM      9  C   UNL     1      11.239  21.331  34.189  1.00  0.00     0.000 C 
BRANCH   9  10
ATOM     10  C   UNL     1      10.620  20.896  35.526  1.00  0.00     0.000 C 
BRANCH  10  11
ATOM     11  C   UNL     1       9.358  21.696  35.886  1.00  0.00     0.000 C 
BRANCH  11  12
ATOM     12  C   UNL     1       8.899  21.386  37.317  1.00  0.00     0.000 C 
BRANCH  12  13
ATOM     13  C   UNL     1       9.095  19.909  37.706  1.00  0.00     0.006 C 
BRANCH  13  14
ATOM     14  C   UNL     1       8.604  19.566  39.125  1.00  0.00     0.053 C 
BRANCH  14  15
ATOM     15  C   UNL     1       9.620  19.881  40.182  1.00  0.00     0.041 C 
ATOM     16  O   UNL     1      10.147  18.955  40.852  1.00  0.00    -0.550 OA
ATOM     17  O   UNL     1      10.010  21.197  40.402  1.00  0.00    -0.550 OA
ENDBRANCH  14  15
ENDBRANCH  13  14
ENDBRANCH  12  13
ENDBRANCH  11  12
ENDBRANCH  10  11
ENDBRANCH   9  10
ENDBRANCH   8   9
ENDBRANCH   7   8
ENDBRANCH   6   7
ENDBRANCH   5   6
ENDBRANCH   4   5
ENDBRANCH   3   4
ENDBRANCH   2   3
ENDBRANCH   1   2
BRANCH   1  18
ATOM     18  C   UNL     1      12.472  17.606  35.365  1.00  0.00     0.000 C 
BRANCH  18  19
ATOM     19  C   UNL     1      13.393  16.375  35.454  1.00  0.00     0.000 C 
BRANCH  19  20
ATOM     20  C   UNL     1      13.486  15.739  36.857  1.00  0.00     0.000 C 
BRANCH  20  21
ATOM     21  C   UNL     1      14.806  14.999  37.167  1.00  0.00     0.000 C 
BRANCH  21  22
ATOM     22  C   UNL     1      15.687  15.665  38.241  1.00  0.00     0.000 C 
BRANCH  22  23
ATOM     23  C   UNL     1      15.220  17.089  38.583  1.00  0.00     0.000 C 
BRANCH  23  24
ATOM     24  C   UNL     1      16.167  18.167  38.029  1.00  0.00    -0.000 C 
BRANCH  24  25
ATOM     25  C   UNL     1      15.938  18.516  36.543  1.00  0.00    -0.000 C 
BRANCH  25  26
ATOM     26  C   UNL     1      17.158  18.309  35.620  1.00  0.00    -0.000 C 
BRANCH  26  27
ATOM     27  C   UNL     1      17.132  17.023  34.769  1.00  0.00    -0.000 C 
BRANCH  27  28
ATOM     28  C   UNL     1      18.347  16.098  34.963  1.00  0.00    -0.000 C 
BRANCH  28  29
ATOM     29  C   UNL     1      19.670  16.774  34.570  1.00  0.00    -0.000 C 
BRANCH  29  30
ATOM     30  C   UNL     1      19.625  17.374  33.157  1.00  0.00    -0.000 C 
BRANCH  30  31
ATOM     31  C   UNL     1      20.043  18.853  33.133  1.00  0.00    -0.003 C 
ATOM     32  C   UNL     1      21.496  19.022  33.569  1.00  0.00     0.004 C 
ENDBRANCH  30  31
ENDBRANCH  29  30
ENDBRANCH  28  29
ENDBRANCH  27  28
ENDBRANCH  26  27
ENDBRANCH  25  26
ENDBRANCH  24  25
ENDBRANCH  23  24
ENDBRANCH  22  23
ENDBRANCH  21  22
ENDBRANCH  20  21
ENDBRANCH  19  20
ENDBRANCH  18  19
ENDBRANCH   1  18
TORSDOF 28
ENDMDL
MODEL 3
REMARK VINA RESULT:    -5.796      2.520      4.975
REMARK INTER + INTRA:         -19.608
REMARK INTER:                 -14.659
REMARK INTRA:                  -4.949
REMARK UNBOUND:                -4.325
REMARK SMILES CCCCCCCCCCCCCCCCCCCCCCCCCCCCCC(=O)[O-]
REMARK SMILES IDX 16 1 17 2 18 3 19 4 20 5 21 6 22 7 23 8 24 9 25 10 26 11
REMARK SMILES IDX 27 12 28 13 29 14 30 15 31 16 32 17 15 18 14 19 13 20 12 21
REMARK SMILES IDX 11 22 10 23 9 24 8 25 7 26 6 27 5 28 4 29 3 30 2 31 1 32
REMARK H PARENT
REMARK Flexibility Score: inf
ROOT
ATOM      1  C   UNL     1      10.920  19.324  32.798  1.00  0.00     0.000 C 
ENDROOT
BRANCH   1   2
ATOM      2  C   UNL     1      10.600  18.824  34.226  1.00  0.00     0.000 C 
BRANCH   2   3
ATOM      3  C   UNL     1      10.112  17.366  34.254  1.00  0.00     0.000 C 
BRANCH   3   4
ATOM      4  C   UNL     1       9.007  17.137  35.296  1.00  0.00     0.000 C 
BRANCH   4   5
ATOM      5  C   UNL     1       8.194  18.417  35.526  1.00  0.00     0.000 C 
BRANCH   5   6
ATOM      6  C   UNL     1       8.152  18.788  37.014  1.00  0.00     0.000 C 
BRANCH   6   7
ATOM      7  C   UNL     1       8.884  20.105  37.323  1.00  0.00     0.000 C 
BRANCH   7   8
ATOM      8  C   UNL     1      10.366  19.919  37.711  1.00  0.00     0.000 C 
BRANCH   8   9
ATOM      9  C   UNL     1      10.629  18.546  38.354  1.00  0.00     0.000 C 
BRANCH   9  10
ATOM     10  C   UNL     1      11.846  17.830  37.748  1.00  0.00     0.000 C 
BRANCH  10  11
ATOM     11  C   UNL     1      13.063  17.832  38.687  1.00  0.00     0.000 C 
BRANCH  11  12
ATOM     12  C   UNL     1      13.762  16.465  38.685  1.00  0.00     0.000 C 
BRANCH  12  13
ATOM     13  C   UNL     1      15.262  16.555  38.350  1.00  0.00     0.006 C 
BRANCH  13  14
ATOM     14  C   UNL     1      15.631  15.970  36.974  1.00  0.00     0.053 C 
BRANCH  14  15
ATOM     15  C   UNL     1      15.034  16.743  35.836  1.00  0.00     0.041 C 
ATOM     16  O   UNL     1      13.938  16.385  35.331  1.00  0.00    -0.550 OA
ATOM     17  O   UNL     1      15.673  17.880  35.356  1.00  0.00    -0.550 OA
ENDBRANCH  14  15
ENDBRANCH  13  14
ENDBRANCH  12  13
ENDBRANCH  11  12
ENDBRANCH  10  11
ENDBRANCH   9  10
ENDBRANCH   8   9
ENDBRANCH   7   8
ENDBRANCH   6   7
ENDBRANCH   5   6
ENDBRANCH   4   5
ENDBRANCH   3   4
ENDBRANCH   2   3
ENDBRANCH   1   2
BRANCH   1  18
ATOM     18  C   UNL     1       9.884  18.835  31.774  1.00  0.00     0.000 C 
BRANCH  18  19
ATOM     19  C   UNL     1       8.631  19.730  31.723  1.00  0.00     0.000 C 
BRANCH  19  20
ATOM     20  C   UNL     1       8.919  21.232  31.515  1.00  0.00     0.000 C 
BRANCH  20  21
ATOM     21  C   UNL     1       8.356  22.175  32.601  1.00  0.00     0.000 C 
BRANCH  21  22
ATOM     22  C   UNL     1       8.941  21.966  34.009  1.00  0.00     0.000 C 
BRANCH  22  23
ATOM     23  C   UNL     1       8.588  23.115  34.968  1.00  0.00     0.000 C 
BRANCH  23  24
ATOM     24  C   UNL     1       9.832  23.720  35.642  1.00  0.00    -0.000 C 
BRANCH  24  25
ATOM     25  C   UNL     1      10.278  25.077  35.057  1.00  0.00    -0.000 C 
BRANCH  25  26
ATOM     26  C   UNL     1       9.744  25.394  33.643  1.00  0.00    -0.000 C 
BRANCH  26  27
ATOM     27  C   UNL     1      10.824  25.645  32.571  1.00  0.00    -0.000 C 
BRANCH  27  28
ATOM     28  C   UNL     1      11.154  24.424  31.694  1.00  0.00    -0.000 C 
BRANCH  28  29
ATOM     29  C   UNL     1      11.955  23.353  32.452  1.00  0.00    -0.000 C 
BRANCH  29  30
ATOM     30  C   UNL     1      13.431  23.739  32.627  1.00  0.00    -0.000 C 
BRANCH  30  31
ATOM     31  C   UNL     1      13.815  23.941  34.102  1.00  0.00    -0.003 C 
ATOM     32  C   UNL     1      14.100  25.409  34.401  1.00  0.00     0.004 C 
ENDBRANCH  30  31
ENDBRANCH  29  30
ENDBRANCH  28  29
ENDBRANCH  27  28
ENDBRANCH  26  27
ENDBRANCH  25  26
ENDBRANCH  24  25
ENDBRANCH  23  24
ENDBRANCH  22  23
ENDBRANCH  21  22
ENDBRANCH  20  21
ENDBRANCH  19  20
ENDBRANCH  18  19
ENDBRANCH   1  18
TORSDOF 28
ENDMDL
MODEL 4
REMARK VINA RESULT:    -5.757      1.566      4.307
REMARK INTER + INTRA:         -19.507
REMARK INTER:                 -15.320
REMARK INTRA:                  -4.187
REMARK UNBOUND:                -4.325
REMARK SMILES CCCCCCCCCCCCCCCCCCCCCCCCCCCCCC(=O)[O-]
REMARK SMILES IDX 16 1 17 2 18 3 19 4 20 5 21 6 22 7 23 8 24 9 25 10 26 11
REMARK SMILES IDX 27 12 28 13 29 14 30 15 31 16 32 17 15 18 14 19 13 20 12 21
REMARK SMILES IDX 11 22 10 23 9 24 8 25 7 26 6 27 5 28 4 29 3 30 2 31 1 32
REMARK H PARENT
REMARK Flexibility Score: inf
ROOT
ATOM      1  C   UNL     1       9.653  19.497  32.013  1.00  0.00     0.000 C 
ENDROOT
BRANCH   1   2
ATOM      2  C   UNL     1       9.370  18.078  32.558  1.00  0.00     0.000 C 
BRANCH   2   3
ATOM      3  C   UNL     1       8.433  18.080  33.777  1.00  0.00     0.000 C 
BRANCH   3   4
ATOM      4  C   UNL     1       9.131  17.591  35.055  1.00  0.00     0.000 C 
BRANCH   4   5
ATOM      5  C   UNL     1      10.559  17.120  34.756  1.00  0.00     0.000 C 
BRANCH   5   6
ATOM      6  C   UNL     1      11.586  17.898  35.589  1.00  0.00     0.000 C 
BRANCH   6   7
ATOM      7  C   UNL     1      11.867  17.244  36.954  1.00  0.00     0.000 C 
BRANCH   7   8
ATOM      8  C   UNL     1      13.119  16.344  36.969  1.00  0.00     0.000 C 
BRANCH   8   9
ATOM      9  C   UNL     1      13.880  16.431  38.304  1.00  0.00     0.000 C 
BRANCH   9  10
ATOM     10  C   UNL     1      14.849  17.622  38.359  1.00  0.00     0.000 C 
BRANCH  10  11
ATOM     11  C   UNL     1      15.394  18.009  36.975  1.00  0.00     0.000 C 
BRANCH  11  12
ATOM     12  C   UNL     1      16.907  17.767  36.891  1.00  0.00     0.000 C 
BRANCH  12  13
ATOM     13  C   UNL     1      17.267  16.417  36.243  1.00  0.00     0.006 C 
BRANCH  13  14
ATOM     14  C   UNL     1      17.605  16.515  34.744  1.00  0.00     0.053 C 
BRANCH  14  15
ATOM     15  C   UNL     1      18.960  17.107  34.492  1.00  0.00     0.041 C 
ATOM     16  O   UNL     1      19.981  16.372  34.478  1.00  0.00    -0.550 OA
ATOM     17  O   UNL     1      19.089  18.467  34.238  1.00  0.00    -0.550 OA
ENDBRANCH  14  15
ENDBRANCH  13  14
ENDBRANCH  12  13
ENDBRANCH  11  12
ENDBRANCH  10  11
ENDBRANCH   9  10
ENDBRANCH   8   9
ENDBRANCH   7   8
ENDBRANCH   6   7
ENDBRANCH   5   6
ENDBRANCH   4   5
ENDBRANCH   3   4
ENDBRANCH   2   3
ENDBRANCH   1   2
BRANCH   1  18
ATOM     18  C   UNL     1       8.426  20.414  32.140  1.00  0.00     0.000 C 
BRANCH  18  19
ATOM     19  C   UNL     1       8.164  21.235  30.864  1.00  0.00     0.000 C 
BRANCH  19  20
ATOM     20  C   UNL     1       8.253  22.764  31.050  1.00  0.00     0.000 C 
BRANCH  20  21
ATOM     21  C   UNL     1       9.048  23.241  32.285  1.00  0.00     0.000 C 
BRANCH  21  22
ATOM     22  C   UNL     1      10.556  23.443  32.048  1.00  0.00     0.000 C 
BRANCH  22  23
ATOM     23  C   UNL     1      11.419  22.568  32.973  1.00  0.00     0.000 C 
BRANCH  23  24
ATOM     24  C   UNL     1      11.022  22.709  34.453  1.00  0.00    -0.000 C 
BRANCH  24  25
ATOM     25  C   UNL     1      10.724  21.371  35.164  1.00  0.00    -0.000 C 
BRANCH  25  26
ATOM     26  C   UNL     1       9.287  21.216  35.705  1.00  0.00    -0.000 C 
BRANCH  26  27
ATOM     27  C   UNL     1       9.160  21.177  37.241  1.00  0.00    -0.000 C 
BRANCH  27  28
ATOM     28  C   UNL     1       8.670  19.833  37.811  1.00  0.00    -0.000 C 
BRANCH  28  29
ATOM     29  C   UNL     1       9.083  19.630  39.278  1.00  0.00    -0.000 C 
BRANCH  29  30
ATOM     30  C   UNL     1       9.902  20.808  39.825  1.00  0.00    -0.000 C 
BRANCH  30  31
ATOM     31  C   UNL     1      11.322  20.393  40.243  1.00  0.00    -0.003 C 
ATOM     32  C   UNL     1      11.583  18.924  39.924  1.00  0.00     0.004 C 
ENDBRANCH  30  31
ENDBRANCH  29  30
ENDBRANCH  28  29
ENDBRANCH  27  28
ENDBRANCH  26  27
ENDBRANCH  25  26
ENDBRANCH  24  25
ENDBRANCH  23  24
ENDBRANCH  22  23
ENDBRANCH  21  22
ENDBRANCH  20  21
ENDBRANCH  19  20
ENDBRANCH  18  19
ENDBRANCH   1  18
TORSDOF 28
ENDMDL
MODEL 5
REMARK VINA RESULT:    -5.731      1.294      2.499
REMARK INTER + INTRA:         -19.437
REMARK INTER:                 -15.313
REMARK INTRA:                  -4.125
REMARK UNBOUND:                -4.325
REMARK SMILES CCCCCCCCCCCCCCCCCCCCCCCCCCCCCC(=O)[O-]
REMARK SMILES IDX 16 1 17 2 18 3 19 4 20 5 21 6 22 7 23 8 24 9 25 10 26 11
REMARK SMILES IDX 27 12 28 13 29 14 30 15 31 16 32 17 15 18 14 19 13 20 12 21
REMARK SMILES IDX 11 22 10 23 9 24 8 25 7 26 6 27 5 28 4 29 3 30 2 31 1 32
REMARK H PARENT
REMARK Flexibility Score: inf
ROOT
ATOM      1  C   UNL     1       8.888  19.636  36.295  1.00  0.00     0.000 C 
ENDROOT
BRANCH   1   2
ATOM      2  C   UNL     1       8.304  18.895  37.520  1.00  0.00     0.000 C 
BRANCH   2   3
ATOM      3  C   UNL     1       9.355  18.613  38.607  1.00  0.00     0.000 C 
BRANCH   3   4
ATOM      4  C   UNL     1      10.721  19.234  38.277  1.00  0.00     0.000 C 
BRANCH   4   5
ATOM      5  C   UNL     1      11.802  18.153  38.158  1.00  0.00     0.000 C 
BRANCH   5   6
ATOM      6  C   UNL     1      12.257  17.982  36.703  1.00  0.00     0.000 C 
BRANCH   6   7
ATOM      7  C   UNL     1      12.417  16.507  36.296  1.00  0.00     0.000 C 
BRANCH   7   8
ATOM      8  C   UNL     1      13.872  15.997  36.357  1.00  0.00     0.000 C 
BRANCH   8   9
ATOM      9  C   UNL     1      14.326  15.708  37.799  1.00  0.00     0.000 C 
BRANCH   9  10
ATOM     10  C   UNL     1      15.720  16.274  38.108  1.00  0.00     0.000 C 
BRANCH  10  11
ATOM     11  C   UNL     1      15.764  17.809  38.048  1.00  0.00     0.000 C 
BRANCH  11  12
ATOM     12  C   UNL     1      16.533  18.290  36.810  1.00  0.00     0.000 C 
BRANCH  12  13
ATOM     13  C   UNL     1      17.447  17.206  36.209  1.00  0.00     0.006 C 
BRANCH  13  14
ATOM     14  C   UNL     1      17.458  17.181  34.670  1.00  0.00     0.053 C 
BRANCH  14  15
ATOM     15  C   UNL     1      18.521  18.060  34.082  1.00  0.00     0.041 C 
ATOM     16  O   UNL     1      19.151  18.869  34.812  1.00  0.00    -0.550 OA
ATOM     17  O   UNL     1      18.840  17.960  32.733  1.00  0.00    -0.550 OA
ENDBRANCH  14  15
ENDBRANCH  13  14
ENDBRANCH  12  13
ENDBRANCH  11  12
ENDBRANCH  10  11
ENDBRANCH   9  10
ENDBRANCH   8   9
ENDBRANCH   7   8
ENDBRANCH   6   7
ENDBRANCH   5   6
ENDBRANCH   4   5
ENDBRANCH   3   4
ENDBRANCH   2   3
ENDBRANCH   1   2
BRANCH   1  18
ATOM     18  C   UNL     1       8.139  19.284  35.001  1.00  0.00     0.000 C 
BRANCH  18  19
ATOM     19  C   UNL     1       8.520  17.896  34.453  1.00  0.00     0.000 C 
BRANCH  19  20
ATOM     20  C   UNL     1       9.896  17.832  33.758  1.00  0.00     0.000 C 
BRANCH  20  21
ATOM     21  C   UNL     1      10.041  18.693  32.484  1.00  0.00     0.000 C 
BRANCH  21  22
ATOM     22  C   UNL     1       8.896  18.543  31.465  1.00  0.00     0.000 C 
BRANCH  22  23
ATOM     23  C   UNL     1       8.708  19.802  30.604  1.00  0.00     0.000 C 
BRANCH  23  24
ATOM     24  C   UNL     1       8.007  20.938  31.370  1.00  0.00    -0.000 C 
BRANCH  24  25
ATOM     25  C   UNL     1       8.870  22.203  31.567  1.00  0.00    -0.000 C 
BRANCH  25  26
ATOM     26  C   UNL     1       8.642  22.958  32.894  1.00  0.00    -0.000 C 
BRANCH  26  27
ATOM     27  C   UNL     1       9.594  22.575  34.045  1.00  0.00    -0.000 C 
BRANCH  27  28
ATOM     28  C   UNL     1      10.929  21.955  33.594  1.00  0.00    -0.000 C 
BRANCH  28  29
ATOM     29  C   UNL     1      12.145  22.782  34.044  1.00  0.00    -0.000 C 
BRANCH  29  30
ATOM     30  C   UNL     1      12.637  23.741  32.951  1.00  0.00    -0.000 C 
BRANCH  30  31
ATOM     31  C   UNL     1      12.198  25.193  33.201  1.00  0.00    -0.003 C 
ATOM     32  C   UNL     1      11.174  25.645  32.165  1.00  0.00     0.004 C 
ENDBRANCH  30  31
ENDBRANCH  29  30
ENDBRANCH  28  29
ENDBRANCH  27  28
ENDBRANCH  26  27
ENDBRANCH  25  26
ENDBRANCH  24  25
ENDBRANCH  23  24
ENDBRANCH  22  23
ENDBRANCH  21  22
ENDBRANCH  20  21
ENDBRANCH  19  20
ENDBRANCH  18  19
ENDBRANCH   1  18
TORSDOF 28
ENDMDL
MODEL 6
REMARK VINA RESULT:    -5.731      3.006      9.097
REMARK INTER + INTRA:         -19.436
REMARK INTER:                 -15.455
REMARK INTRA:                  -3.981
REMARK UNBOUND:                -4.325
REMARK SMILES CCCCCCCCCCCCCCCCCCCCCCCCCCCCCC(=O)[O-]
REMARK SMILES IDX 16 1 17 2 18 3 19 4 20 5 21 6 22 7 23 8 24 9 25 10 26 11
REMARK SMILES IDX 27 12 28 13 29 14 30 15 31 16 32 17 15 18 14 19 13 20 12 21
REMARK SMILES IDX 11 22 10 23 9 24 8 25 7 26 6 27 5 28 4 29 3 30 2 31 1 32
REMARK H PARENT
REMARK Flexibility Score: inf
ROOT
ATOM      1  C   UNL     1      11.604  17.106  37.039  1.00  0.00     0.000 C 
ENDROOT
BRANCH   1   2
ATOM      2  C   UNL     1      11.180  18.438  37.700  1.00  0.00     0.000 C 
BRANCH   2   3
ATOM      3  C   UNL     1       9.898  18.310  38.539  1.00  0.00     0.000 C 
BRANCH   3   4
ATOM      4  C   UNL     1       8.655  18.812  37.791  1.00  0.00     0.000 C 
BRANCH   4   5
ATOM      5  C   UNL     1       8.991  20.029  36.921  1.00  0.00     0.000 C 
BRANCH   5   6
ATOM      6  C   UNL     1       8.675  19.759  35.444  1.00  0.00     0.000 C 
BRANCH   6   7
ATOM      7  C   UNL     1       8.108  18.349  35.202  1.00  0.00     0.000 C 
BRANCH   7   8
ATOM      8  C   UNL     1       9.074  17.409  34.451  1.00  0.00     0.000 C 
BRANCH   8   9
ATOM      9  C   UNL     1       9.796  18.123  33.294  1.00  0.00     0.000 C 
BRANCH   9  10
ATOM     10  C   UNL     1       8.948  18.186  32.014  1.00  0.00     0.000 C 
BRANCH  10  11
ATOM     11  C   UNL     1       9.167  19.483  31.220  1.00  0.00     0.000 C 
BRANCH  11  12
ATOM     12  C   UNL     1       8.289  20.618  31.766  1.00  0.00     0.000 C 
BRANCH  12  13
ATOM     13  C   UNL     1       9.010  21.978  31.793  1.00  0.00     0.006 C 
BRANCH  13  14
ATOM     14  C   UNL     1      10.224  22.023  32.738  1.00  0.00     0.053 C 
BRANCH  14  15
ATOM     15  C   UNL     1       9.945  22.774  34.006  1.00  0.00     0.041 C 
ATOM     16  O   UNL     1      10.834  22.876  34.891  1.00  0.00    -0.550 OA
ATOM     17  O   UNL     1       8.714  23.390  34.193  1.00  0.00    -0.550 OA
ENDBRANCH  14  15
ENDBRANCH  13  14
ENDBRANCH  12  13
ENDBRANCH  11  12
ENDBRANCH  10  11
ENDBRANCH   9  10
ENDBRANCH   8   9
ENDBRANCH   7   8
ENDBRANCH   6   7
ENDBRANCH   5   6
ENDBRANCH   4   5
ENDBRANCH   3   4
ENDBRANCH   2   3
ENDBRANCH   1   2
BRANCH   1  18
ATOM     18  C   UNL     1      12.534  17.332  35.837  1.00  0.00     0.000 C 
BRANCH  18  19
ATOM     19  C   UNL     1      13.660  16.285  35.752  1.00  0.00     0.000 C 
BRANCH  19  20
ATOM     20  C   UNL     1      13.809  15.394  37.003  1.00  0.00     0.000 C 
BRANCH  20  21
ATOM     21  C   UNL     1      15.027  15.703  37.902  1.00  0.00     0.000 C 
BRANCH  21  22
ATOM     22  C   UNL     1      14.922  17.011  38.708  1.00  0.00     0.000 C 
BRANCH  22  23
ATOM     23  C   UNL     1      15.798  18.132  38.124  1.00  0.00     0.000 C 
BRANCH  23  24
ATOM     24  C   UNL     1      16.786  17.613  37.065  1.00  0.00    -0.000 C 
BRANCH  24  25
ATOM     25  C   UNL     1      16.892  18.497  35.803  1.00  0.00    -0.000 C 
BRANCH  25  26
ATOM     26  C   UNL     1      17.356  17.769  34.524  1.00  0.00    -0.000 C 
BRANCH  26  27
ATOM     27  C   UNL     1      17.611  16.256  34.681  1.00  0.00    -0.000 C 
BRANCH  27  28
ATOM     28  C   UNL     1      19.085  15.835  34.544  1.00  0.00    -0.000 C 
BRANCH  28  29
ATOM     29  C   UNL     1      20.029  17.038  34.384  1.00  0.00    -0.000 C 
BRANCH  29  30
ATOM     30  C   UNL     1      20.350  17.338  32.913  1.00  0.00    -0.000 C 
BRANCH  30  31
ATOM     31  C   UNL     1      21.809  17.013  32.552  1.00  0.00    -0.003 C 
ATOM     32  C   UNL     1      22.761  17.445  33.663  1.00  0.00     0.004 C 
ENDBRANCH  30  31
ENDBRANCH  29  30
ENDBRANCH  28  29
ENDBRANCH  27  28
ENDBRANCH  26  27
ENDBRANCH  25  26
ENDBRANCH  24  25
ENDBRANCH  23  24
ENDBRANCH  22  23
ENDBRANCH  21  22
ENDBRANCH  20  21
ENDBRANCH  19  20
ENDBRANCH  18  19
ENDBRANCH   1  18
TORSDOF 28
ENDMDL
MODEL 7
REMARK VINA RESULT:    -5.707      1.670      2.945
REMARK INTER + INTRA:         -19.375
REMARK INTER:                 -15.453
REMARK INTRA:                  -3.922
REMARK UNBOUND:                -4.325
REMARK SMILES CCCCCCCCCCCCCCCCCCCCCCCCCCCCCC(=O)[O-]
REMARK SMILES IDX 16 1 17 2 18 3 19 4 20 5 21 6 22 7 23 8 24 9 25 10 26 11
REMARK SMILES IDX 27 12 28 13 29 14 30 15 31 16 32 17 15 18 14 19 13 20 12 21
REMARK SMILES IDX 11 22 10 23 9 24 8 25 7 26 6 27 5 28 4 29 3 30 2 31 1 32
REMARK H PARENT
REMARK Flexibility Score: inf
ROOT
ATOM      1  C   UNL     1      11.502  17.268  35.533  1.00  0.00     0.000 C 
ENDROOT
BRANCH   1   2
ATOM      2  C   UNL     1      12.630  17.848  36.416  1.00  0.00     0.000 C 
BRANCH   2   3
ATOM      3  C   UNL     1      12.922  16.988  37.657  1.00  0.00     0.000 C 
BRANCH   3   4
ATOM      4  C   UNL     1      13.720  17.750  38.725  1.00  0.00     0.000 C 
BRANCH   4   5
ATOM      5  C   UNL     1      15.209  17.394  38.659  1.00  0.00     0.000 C 
BRANCH   5   6
ATOM      6  C   UNL     1      15.434  16.089  37.884  1.00  0.00     0.000 C 
BRANCH   6   7
ATOM      7  C   UNL     1      16.479  16.231  36.764  1.00  0.00     0.000 C 
BRANCH   7   8
ATOM      8  C   UNL     1      16.189  17.387  35.784  1.00  0.00     0.000 C 
BRANCH   8   9
ATOM      9  C   UNL     1      17.468  18.148  35.392  1.00  0.00     0.000 C 
BRANCH   9  10
ATOM     10  C   UNL     1      18.153  17.559  34.149  1.00  0.00     0.000 C 
BRANCH  10  11
ATOM     11  C   UNL     1      19.319  18.424  33.646  1.00  0.00     0.000 C 
BRANCH  11  12
ATOM     12  C   UNL     1      19.827  17.927  32.286  1.00  0.00     0.000 C 
BRANCH  12  13
ATOM     13  C   UNL     1      21.166  17.172  32.382  1.00  0.00     0.006 C 
BRANCH  13  14
ATOM     14  C   UNL     1      21.894  17.361  33.725  1.00  0.00     0.053 C 
BRANCH  14  15
ATOM     15  C   UNL     1      23.059  18.300  33.626  1.00  0.00     0.041 C 
ATOM     16  O   UNL     1      22.868  19.535  33.473  1.00  0.00    -0.550 OA
ATOM     17  O   UNL     1      24.357  17.815  33.739  1.00  0.00    -0.550 OA
ENDBRANCH  14  15
ENDBRANCH  13  14
ENDBRANCH  12  13
ENDBRANCH  11  12
ENDBRANCH  10  11
ENDBRANCH   9  10
ENDBRANCH   8   9
ENDBRANCH   7   8
ENDBRANCH   6   7
ENDBRANCH   5   6
ENDBRANCH   4   5
ENDBRANCH   3   4
ENDBRANCH   2   3
ENDBRANCH   1   2
BRANCH   1  18
ATOM     18  C   UNL     1      10.285  16.839  36.367  1.00  0.00     0.000 C 
BRANCH  18  19
ATOM     19  C   UNL     1       9.022  16.628  35.510  1.00  0.00     0.000 C 
BRANCH  19  20
ATOM     20  C   UNL     1       8.283  17.924  35.118  1.00  0.00     0.000 C 
BRANCH  20  21
ATOM     21  C   UNL     1       8.212  18.221  33.604  1.00  0.00     0.000 C 
BRANCH  21  22
ATOM     22  C   UNL     1       9.540  18.042  32.845  1.00  0.00     0.000 C 
BRANCH  22  23
ATOM     23  C   UNL     1       9.931  19.295  32.045  1.00  0.00     0.000 C 
BRANCH  23  24
ATOM     24  C   UNL     1       8.953  20.463  32.266  1.00  0.00    -0.000 C 
BRANCH  24  25
ATOM     25  C   UNL     1       9.632  21.832  32.482  1.00  0.00    -0.000 C 
BRANCH  25  26
ATOM     26  C   UNL     1       9.351  22.501  33.844  1.00  0.00    -0.000 C 
BRANCH  26  27
ATOM     27  C   UNL     1       9.143  21.532  35.025  1.00  0.00    -0.000 C 
BRANCH  27  28
ATOM     28  C   UNL     1      10.439  21.069  35.714  1.00  0.00    -0.000 C 
BRANCH  28  29
ATOM     29  C   UNL     1      10.178  20.405  37.075  1.00  0.00    -0.000 C 
BRANCH  29  30
ATOM     30  C   UNL     1       8.704  20.489  37.496  1.00  0.00    -0.000 C 
BRANCH  30  31
ATOM     31  C   UNL     1       8.359  19.509  38.629  1.00  0.00    -0.003 C 
ATOM     32  C   UNL     1       9.613  18.823  39.164  1.00  0.00     0.004 C 
ENDBRANCH  30  31
ENDBRANCH  29  30
ENDBRANCH  28  29
ENDBRANCH  27  28
ENDBRANCH  26  27
ENDBRANCH  25  26
ENDBRANCH  24  25
ENDBRANCH  23  24
ENDBRANCH  22  23
ENDBRANCH  21  22
ENDBRANCH  20  21
ENDBRANCH  19  20
ENDBRANCH  18  19
ENDBRANCH   1  18
TORSDOF 28
ENDMDL
MODEL 8
REMARK VINA RESULT:    -5.646      1.234      2.094
REMARK INTER + INTRA:         -19.213
REMARK INTER:                 -15.677
REMARK INTRA:                  -3.536
REMARK UNBOUND:                -4.325
REMARK SMILES CCCCCCCCCCCCCCCCCCCCCCCCCCCCCC(=O)[O-]
REMARK SMILES IDX 16 1 17 2 18 3 19 4 20 5 21 6 22 7 23 8 24 9 25 10 26 11
REMARK SMILES IDX 27 12 28 13 29 14 30 15 31 16 32 17 15 18 14 19 13 20 12 21
REMARK SMILES IDX 11 22 10 23 9 24 8 25 7 26 6 27 5 28 4 29 3 30 2 31 1 32
REMARK H PARENT
REMARK Flexibility Score: inf
ROOT
ATOM      1  C   UNL     1       9.595  18.460  37.061  1.00  0.00     0.000 C 
ENDROOT
BRANCH   1   2
ATOM      2  C   UNL     1      10.667  17.368  36.840  1.00  0.00     0.000 C 
BRANCH   2   3
ATOM      3  C   UNL     1      11.979  17.925  36.263  1.00  0.00     0.000 C 
BRANCH   3   4
ATOM      4  C   UNL     1      12.911  16.817  35.750  1.00  0.00     0.000 C 
BRANCH   4   5
ATOM      5  C   UNL     1      13.422  15.949  36.906  1.00  0.00     0.000 C 
BRANCH   5   6
ATOM      6  C   UNL     1      13.886  16.814  38.085  1.00  0.00     0.000 C 
BRANCH   6   7
ATOM      7  C   UNL     1      15.398  16.700  38.352  1.00  0.00     0.000 C 
BRANCH   7   8
ATOM      8  C   UNL     1      16.107  15.645  37.478  1.00  0.00     0.000 C 
BRANCH   8   9
ATOM      9  C   UNL     1      16.963  16.288  36.372  1.00  0.00     0.000 C 
BRANCH   9  10
ATOM     10  C   UNL     1      17.114  17.807  36.547  1.00  0.00     0.000 C 
BRANCH  10  11
ATOM     11  C   UNL     1      17.645  18.501  35.282  1.00  0.00     0.000 C 
BRANCH  11  12
ATOM     12  C   UNL     1      18.275  17.485  34.320  1.00  0.00     0.000 C 
BRANCH  12  13
ATOM     13  C   UNL     1      19.054  18.148  33.169  1.00  0.00     0.006 C 
BRANCH  13  14
ATOM     14  C   UNL     1      20.083  17.222  32.496  1.00  0.00     0.053 C 
BRANCH  14  15
ATOM     15  C   UNL     1      21.409  17.223  33.196  1.00  0.00     0.041 C 
ATOM     16  O   UNL     1      22.269  18.102  32.925  1.00  0.00    -0.550 OA
ATOM     17  O   UNL     1      21.682  16.273  34.173  1.00  0.00    -0.550 OA
ENDBRANCH  14  15
ENDBRANCH  13  14
ENDBRANCH  12  13
ENDBRANCH  11  12
ENDBRANCH  10  11
ENDBRANCH   9  10
ENDBRANCH   8   9
ENDBRANCH   7   8
ENDBRANCH   6   7
ENDBRANCH   5   6
ENDBRANCH   4   5
ENDBRANCH   3   4
ENDBRANCH   2   3
ENDBRANCH   1   2
BRANCH   1  18
ATOM     18  C   UNL     1       9.984  19.789  36.395  1.00  0.00     0.000 C 
BRANCH  18  19
ATOM     19  C   UNL     1       9.132  20.101  35.151  1.00  0.00     0.000 C 
BRANCH  19  20
ATOM     20  C   UNL     1       8.121  19.001  34.768  1.00  0.00     0.000 C 
BRANCH  20  21
ATOM     21  C   UNL     1       8.485  18.165  33.521  1.00  0.00     0.000 C 
BRANCH  21  22
ATOM     22  C   UNL     1       9.973  18.199  33.128  1.00  0.00     0.000 C 
BRANCH  22  23
ATOM     23  C   UNL     1      10.207  18.885  31.773  1.00  0.00     0.000 C 
BRANCH  23  24
ATOM     24  C   UNL     1       9.019  18.706  30.811  1.00  0.00    -0.000 C 
BRANCH  24  25
ATOM     25  C   UNL     1       8.390  20.028  30.321  1.00  0.00    -0.000 C 
BRANCH  25  26
ATOM     26  C   UNL     1       7.935  20.996  31.435  1.00  0.00    -0.000 C 
BRANCH  26  27
ATOM     27  C   UNL     1       8.685  22.342  31.488  1.00  0.00    -0.000 C 
BRANCH  27  28
ATOM     28  C   UNL     1       8.627  23.057  32.849  1.00  0.00    -0.000 C 
BRANCH  28  29
ATOM     29  C   UNL     1      10.021  23.419  33.386  1.00  0.00    -0.000 C 
BRANCH  29  30
ATOM     30  C   UNL     1      11.129  22.552  32.770  1.00  0.00    -0.000 C 
BRANCH  30  31
ATOM     31  C   UNL     1      12.508  23.227  32.838  1.00  0.00    -0.003 C 
ATOM     32  C   UNL     1      12.999  23.334  34.279  1.00  0.00     0.004 C 
ENDBRANCH  30  31
ENDBRANCH  29  30
ENDBRANCH  28  29
ENDBRANCH  27  28
ENDBRANCH  26  27
ENDBRANCH  25  26
ENDBRANCH  24  25
ENDBRANCH  23  24
ENDBRANCH  22  23
ENDBRANCH  21  22
ENDBRANCH  20  21
ENDBRANCH  19  20
ENDBRANCH  18  19
ENDBRANCH   1  18
TORSDOF 28
ENDMDL
MODEL 9
REMARK VINA RESULT:    -5.633      1.219      3.356
REMARK INTER + INTRA:         -19.179
REMARK INTER:                 -15.625
REMARK INTRA:                  -3.554
REMARK UNBOUND:                -4.325
REMARK SMILES CCCCCCCCCCCCCCCCCCCCCCCCCCCCCC(=O)[O-]
REMARK SMILES IDX 16 1 17 2 18 3 19 4 20 5 21 6 22 7 23 8 24 9 25 10 26 11
REMARK SMILES IDX 27 12 28 13 29 14 30 15 31 16 32 17 15 18 14 19 13 20 12 21
REMARK SMILES IDX 11 22 10 23 9 24 8 25 7 26 6 27 5 28 4 29 3 30 2 31 1 32
REMARK H PARENT
REMARK Flexibility Score: inf
ROOT
ATOM      1  C   UNL     1       8.609  18.197  37.244  1.00  0.00     0.000 C 
ENDROOT
BRANCH   1   2
ATOM      2  C   UNL     1       8.515  17.798  35.753  1.00  0.00     0.000 C 
BRANCH   2   3
ATOM      3  C   UNL     1       9.634  16.837  35.318  1.00  0.00     0.000 C 
BRANCH   3   4
ATOM      4  C   UNL     1      10.997  17.537  35.206  1.00  0.00     0.000 C 
BRANCH   4   5
ATOM      5  C   UNL     1      11.997  16.959  36.215  1.00  0.00     0.000 C 
BRANCH   5   6
ATOM      6  C   UNL     1      12.641  18.068  37.056  1.00  0.00     0.000 C 
BRANCH   6   7
ATOM      7  C   UNL     1      13.167  17.562  38.411  1.00  0.00     0.000 C 
BRANCH   7   8
ATOM      8  C   UNL     1      13.878  16.195  38.332  1.00  0.00     0.000 C 
BRANCH   8   9
ATOM      9  C   UNL     1      15.409  16.340  38.267  1.00  0.00     0.000 C 
BRANCH   9  10
ATOM     10  C   UNL     1      15.959  16.178  36.841  1.00  0.00     0.000 C 
BRANCH  10  11
ATOM     11  C   UNL     1      16.476  17.499  36.251  1.00  0.00     0.000 C 
BRANCH  11  12
ATOM     12  C   UNL     1      17.946  17.374  35.824  1.00  0.00     0.000 C 
BRANCH  12  13
ATOM     13  C   UNL     1      18.349  18.397  34.746  1.00  0.00     0.006 C 
BRANCH  13  14
ATOM     14  C   UNL     1      18.517  17.791  33.341  1.00  0.00     0.053 C 
BRANCH  14  15
ATOM     15  C   UNL     1      19.935  17.834  32.856  1.00  0.00     0.041 C 
ATOM     16  O   UNL     1      20.286  17.149  31.860  1.00  0.00    -0.550 OA
ATOM     17  O   UNL     1      20.860  18.661  33.482  1.00  0.00    -0.550 OA
ENDBRANCH  14  15
ENDBRANCH  13  14
ENDBRANCH  12  13
ENDBRANCH  11  12
ENDBRANCH  10  11
ENDBRANCH   9  10
ENDBRANCH   8   9
ENDBRANCH   7   8
ENDBRANCH   6   7
ENDBRANCH   5   6
ENDBRANCH   4   5
ENDBRANCH   3   4
ENDBRANCH   2   3
ENDBRANCH   1   2
BRANCH   1  18
ATOM     18  C   UNL     1       7.900  19.531  37.526  1.00  0.00     0.000 C 
BRANCH  18  19
ATOM     19  C   UNL     1       8.884  20.664  37.874  1.00  0.00     0.000 C 
BRANCH  19  20
ATOM     20  C   UNL     1      10.133  20.735  36.971  1.00  0.00     0.000 C 
BRANCH  20  21
ATOM     21  C   UNL     1       9.957  21.514  35.648  1.00  0.00     0.000 C 
BRANCH  21  22
ATOM     22  C   UNL     1       9.023  22.736  35.734  1.00  0.00     0.000 C 
BRANCH  22  23
ATOM     23  C   UNL     1       9.789  24.067  35.655  1.00  0.00     0.000 C 
BRANCH  23  24
ATOM     24  C   UNL     1      10.811  24.089  34.506  1.00  0.00    -0.000 C 
BRANCH  24  25
ATOM     25  C   UNL     1      10.354  24.878  33.260  1.00  0.00    -0.000 C 
BRANCH  25  26
ATOM     26  C   UNL     1      10.262  24.058  31.956  1.00  0.00    -0.000 C 
BRANCH  26  27
ATOM     27  C   UNL     1       9.790  22.600  32.125  1.00  0.00    -0.000 C 
BRANCH  27  28
ATOM     28  C   UNL     1       8.581  22.210  31.256  1.00  0.00    -0.000 C 
BRANCH  28  29
ATOM     29  C   UNL     1       8.355  20.691  31.207  1.00  0.00    -0.000 C 
BRANCH  29  30
ATOM     30  C   UNL     1       9.003  19.963  32.394  1.00  0.00    -0.000 C 
BRANCH  30  31
ATOM     31  C   UNL     1       9.943  18.832  31.946  1.00  0.00    -0.003 C 
ATOM     32  C   UNL     1       9.422  18.149  30.685  1.00  0.00     0.004 C 
ENDBRANCH  30  31
ENDBRANCH  29  30
ENDBRANCH  28  29
ENDBRANCH  27  28
ENDBRANCH  26  27
ENDBRANCH  25  26
ENDBRANCH  24  25
ENDBRANCH  23  24
ENDBRANCH  22  23
ENDBRANCH  21  22
ENDBRANCH  20  21
ENDBRANCH  19  20
ENDBRANCH  18  19
ENDBRANCH   1  18
TORSDOF 28
ENDMDL
