MODEL 1
REMARK VINA RESULT:    -3.836      0.000      0.000
REMARK INTER + INTRA:         -13.398
REMARK INTER:                  -8.769
REMARK INTRA:                  -4.629
REMARK UNBOUND:                -4.629
REMARK SMILES CCCCCCCCCCCCCCCCCCCCCCCC(=O)[O-]
REMARK SMILES IDX 13 1 14 2 15 3 16 4 17 5 18 6 19 7 20 8 21 9 22 10 23 11
REMARK SMILES IDX 24 12 25 13 26 14 12 15 11 16 10 17 9 18 8 19 7 20 6 21 5 22
REMARK SMILES IDX 4 23 3 24 2 25 1 26
REMARK H PARENT
REMARK Flexibility Score: inf
ROOT
ATOM      1  C   UNL     1     -12.108  -8.447  25.389  1.00  0.00     0.000 C 
ENDROOT
BRANCH   1   2
ATOM      2  C   UNL     1     -12.301  -7.129  24.610  1.00  0.00     0.000 C 
BRANCH   2   3
ATOM      3  C   UNL     1     -13.267  -7.216  23.415  1.00  0.00     0.000 C 
BRANCH   3   4
ATOM      4  C   UNL     1     -14.382  -6.162  23.466  1.00  0.00     0.000 C 
BRANCH   4   5
ATOM      5  C   UNL     1     -14.861  -5.941  24.909  1.00  0.00     0.000 C 
BRANCH   5   6
ATOM      6  C   UNL     1     -15.917  -6.980  25.341  1.00  0.00     0.000 C 
BRANCH   6   7
ATOM      7  C   UNL     1     -15.484  -7.841  26.540  1.00  0.00     0.000 C 
BRANCH   7   8
ATOM      8  C   UNL     1     -15.630  -9.347  26.272  1.00  0.00     0.000 C 
BRANCH   8   9
ATOM      9  C   UNL     1     -15.603  -9.701  24.772  1.00  0.00     0.000 C 
BRANCH   9  10
ATOM     10  C   UNL     1     -14.699 -10.889  24.389  1.00  0.00     0.006 C 
BRANCH  10  11
ATOM     11  C   UNL     1     -15.302 -12.251  24.761  1.00  0.00     0.053 C 
BRANCH  11  12
ATOM     12  C   UNL     1     -15.279 -13.188  23.594  1.00  0.00     0.041 C 
ATOM     13  O   UNL     1     -15.806 -14.329  23.687  1.00  0.00    -0.550 OA
ATOM     14  O   UNL     1     -14.657 -12.813  22.410  1.00  0.00    -0.550 OA
ENDBRANCH  11  12
ENDBRANCH  10  11
ENDBRANCH   9  10
ENDBRANCH   8   9
ENDBRANCH   7   8
ENDBRANCH   6   7
ENDBRANCH   5   6
ENDBRANCH   4   5
ENDBRANCH   3   4
ENDBRANCH   2   3
ENDBRANCH   1   2
BRANCH   1  15
ATOM     15  C   UNL     1     -11.307  -8.323  26.700  1.00  0.00     0.000 C 
BRANCH  15  16
ATOM     16  C   UNL     1     -12.095  -8.654  27.984  1.00  0.00     0.000 C 
BRANCH  16  17
ATOM     17  C   UNL     1     -11.873 -10.069  28.547  1.00  0.00     0.000 C 
BRANCH  17  18
ATOM     18  C   UNL     1     -12.895 -11.089  28.021  1.00  0.00    -0.000 C 
BRANCH  18  19
ATOM     19  C   UNL     1     -12.306 -12.046  26.967  1.00  0.00    -0.000 C 
BRANCH  19  20
ATOM     20  C   UNL     1     -10.768 -12.105  26.920  1.00  0.00    -0.000 C 
BRANCH  20  21
ATOM     21  C   UNL     1     -10.190 -11.645  25.570  1.00  0.00    -0.000 C 
BRANCH  21  22
ATOM     22  C   UNL     1     -11.025 -12.127  24.373  1.00  0.00    -0.000 C 
BRANCH  22  23
ATOM     23  C   UNL     1     -10.703 -13.579  23.973  1.00  0.00    -0.000 C 
BRANCH  23  24
ATOM     24  C   UNL     1     -11.931 -14.504  24.097  1.00  0.00    -0.000 C 
BRANCH  24  25
ATOM     25  C   UNL     1     -11.919 -15.372  25.366  1.00  0.00    -0.003 C 
ATOM     26  C   UNL     1     -13.294 -15.937  25.717  1.00  0.00     0.004 C 
ENDBRANCH  24  25
ENDBRANCH  23  24
ENDBRANCH  22  23
ENDBRANCH  21  22
ENDBRANCH  20  21
ENDBRANCH  19  20
ENDBRANCH  18  19
ENDBRANCH  17  18
ENDBRANCH  16  17
ENDBRANCH  15  16
ENDBRANCH   1  15
TORSDOF 22
ENDMDL
MODEL 2
REMARK VINA RESULT:    -3.737      2.597      5.333
REMARK INTER + INTRA:         -13.172
REMARK INTER:                  -8.785
REMARK INTRA:                  -4.388
REMARK UNBOUND:                -4.629
REMARK SMILES CCCCCCCCCCCCCCCCCCCCCCCC(=O)[O-]
REMARK SMILES IDX 13 1 14 2 15 3 16 4 17 5 18 6 19 7 20 8 21 9 22 10 23 11
REMARK SMILES IDX 24 12 25 13 26 14 12 15 11 16 10 17 9 18 8 19 7 20 6 21 5 22
REMARK SMILES IDX 4 23 3 24 2 25 1 26
REMARK H PARENT
REMARK Flexibility Score: inf
ROOT
ATOM      1  C   UNL     1     -11.272 -12.509  26.774  1.00  0.00     0.000 C 
ENDROOT
BRANCH   1   2
ATOM      2  C   UNL     1     -12.707 -12.986  26.471  1.00  0.00     0.000 C 
BRANCH   2   3
ATOM      3  C   UNL     1     -13.818 -12.201  27.192  1.00  0.00     0.000 C 
BRANCH   3   4
ATOM      4  C   UNL     1     -13.714 -12.284  28.722  1.00  0.00     0.000 C 
BRANCH   4   5
ATOM      5  C   UNL     1     -13.664 -10.880  29.344  1.00  0.00     0.000 C 
BRANCH   5   6
ATOM      6  C   UNL     1     -12.388 -10.656  30.182  1.00  0.00     0.000 C 
BRANCH   6   7
ATOM      7  C   UNL     1     -11.230 -10.023  29.390  1.00  0.00     0.000 C 
BRANCH   7   8
ATOM      8  C   UNL     1     -11.607  -8.669  28.769  1.00  0.00     0.000 C 
BRANCH   8   9
ATOM      9  C   UNL     1     -11.475  -8.650  27.233  1.00  0.00     0.000 C 
BRANCH   9  10
ATOM     10  C   UNL     1     -12.806  -8.656  26.456  1.00  0.00     0.006 C 
BRANCH  10  11
ATOM     11  C   UNL     1     -12.676  -9.234  25.039  1.00  0.00     0.053 C 
BRANCH  11  12
ATOM     12  C   UNL     1     -12.779  -8.156  24.005  1.00  0.00     0.041 C 
ATOM     13  O   UNL     1     -13.228  -8.420  22.858  1.00  0.00    -0.550 OA
ATOM     14  O   UNL     1     -12.359  -6.865  24.299  1.00  0.00    -0.550 OA
ENDBRANCH  11  12
ENDBRANCH  10  11
ENDBRANCH   9  10
ENDBRANCH   8   9
ENDBRANCH   7   8
ENDBRANCH   6   7
ENDBRANCH   5   6
ENDBRANCH   4   5
ENDBRANCH   3   4
ENDBRANCH   2   3
ENDBRANCH   1   2
BRANCH   1  15
ATOM     15  C   UNL     1     -10.337 -13.579  27.373  1.00  0.00     0.000 C 
BRANCH  15  16
ATOM     16  C   UNL     1     -10.175 -13.524  28.906  1.00  0.00     0.000 C 
BRANCH  16  17
ATOM     17  C   UNL     1     -10.812 -14.694  29.677  1.00  0.00     0.000 C 
BRANCH  17  18
ATOM     18  C   UNL     1     -11.672 -15.601  28.782  1.00  0.00    -0.000 C 
BRANCH  18  19
ATOM     19  C   UNL     1     -11.103 -17.026  28.643  1.00  0.00    -0.000 C 
BRANCH  19  20
ATOM     20  C   UNL     1     -10.820 -17.483  27.201  1.00  0.00    -0.000 C 
BRANCH  20  21
ATOM     21  C   UNL     1     -11.979 -17.178  26.235  1.00  0.00    -0.000 C 
BRANCH  21  22
ATOM     22  C   UNL     1     -11.559 -16.259  25.077  1.00  0.00    -0.000 C 
BRANCH  22  23
ATOM     23  C   UNL     1     -10.034 -16.223  24.872  1.00  0.00    -0.000 C 
BRANCH  23  24
ATOM     24  C   UNL     1      -9.624 -15.316  23.692  1.00  0.00    -0.000 C 
BRANCH  24  25
ATOM     25  C   UNL     1     -10.476 -14.043  23.573  1.00  0.00    -0.003 C 
ATOM     26  C   UNL     1     -11.024 -13.820  22.165  1.00  0.00     0.004 C 
ENDBRANCH  24  25
ENDBRANCH  23  24
ENDBRANCH  22  23
ENDBRANCH  21  22
ENDBRANCH  20  21
ENDBRANCH  19  20
ENDBRANCH  18  19
ENDBRANCH  17  18
ENDBRANCH  16  17
ENDBRANCH  15  16
ENDBRANCH   1  15
TORSDOF 22
ENDMDL
MODEL 3
REMARK VINA RESULT:    -3.721      3.844      6.540
REMARK INTER + INTRA:         -13.136
REMARK INTER:                  -8.963
REMARK INTRA:                  -4.173
REMARK UNBOUND:                -4.629
REMARK SMILES CCCCCCCCCCCCCCCCCCCCCCCC(=O)[O-]
REMARK SMILES IDX 13 1 14 2 15 3 16 4 17 5 18 6 19 7 20 8 21 9 22 10 23 11
REMARK SMILES IDX 24 12 25 13 26 14 12 15 11 16 10 17 9 18 8 19 7 20 6 21 5 22
REMARK SMILES IDX 4 23 3 24 2 25 1 26
REMARK H PARENT
REMARK Flexibility Score: inf
ROOT
ATOM      1  C   UNL     1     -11.598  -9.957  25.746  1.00  0.00     0.000 C 
ENDROOT
BRANCH   1   2
ATOM      2  C   UNL     1     -10.634 -11.155  25.878  1.00  0.00     0.000 C 
BRANCH   2   3
ATOM      3  C   UNL     1     -10.202 -11.789  24.544  1.00  0.00     0.000 C 
BRANCH   3   4
ATOM      4  C   UNL     1     -11.344 -12.527  23.832  1.00  0.00     0.000 C 
BRANCH   4   5
ATOM      5  C   UNL     1     -11.580 -13.909  24.462  1.00  0.00     0.000 C 
BRANCH   5   6
ATOM      6  C   UNL     1     -10.410 -14.879  24.198  1.00  0.00     0.000 C 
BRANCH   6   7
ATOM      7  C   UNL     1     -10.435 -16.135  25.087  1.00  0.00     0.000 C 
BRANCH   7   8
ATOM      8  C   UNL     1     -11.846 -16.481  25.585  1.00  0.00     0.000 C 
BRANCH   8   9
ATOM      9  C   UNL     1     -11.849 -17.181  26.959  1.00  0.00     0.000 C 
BRANCH   9  10
ATOM     10  C   UNL     1     -10.518 -17.846  27.363  1.00  0.00     0.006 C 
BRANCH  10  11
ATOM     11  C   UNL     1     -10.710 -19.155  28.144  1.00  0.00     0.053 C 
BRANCH  11  12
ATOM     12  C   UNL     1     -11.056 -18.882  29.575  1.00  0.00     0.041 C 
ATOM     13  O   UNL     1     -11.872 -19.626  30.182  1.00  0.00    -0.550 OA
ATOM     14  O   UNL     1     -10.497 -17.794  30.233  1.00  0.00    -0.550 OA
ENDBRANCH  11  12
ENDBRANCH  10  11
ENDBRANCH   9  10
ENDBRANCH   8   9
ENDBRANCH   7   8
ENDBRANCH   6   7
ENDBRANCH   5   6
ENDBRANCH   4   5
ENDBRANCH   3   4
ENDBRANCH   2   3
ENDBRANCH   1   2
BRANCH   1  15
ATOM     15  C   UNL     1     -11.256  -8.739  26.626  1.00  0.00     0.000 C 
BRANCH  15  16
ATOM     16  C   UNL     1     -12.197  -8.511  27.827  1.00  0.00     0.000 C 
BRANCH  16  17
ATOM     17  C   UNL     1     -11.608  -8.873  29.202  1.00  0.00     0.000 C 
BRANCH  17  18
ATOM     18  C   UNL     1     -11.630 -10.385  29.482  1.00  0.00    -0.000 C 
BRANCH  18  19
ATOM     19  C   UNL     1     -12.877 -10.836  30.266  1.00  0.00    -0.000 C 
BRANCH  19  20
ATOM     20  C   UNL     1     -13.700 -11.955  29.604  1.00  0.00    -0.000 C 
BRANCH  20  21
ATOM     21  C   UNL     1     -13.314 -12.196  28.134  1.00  0.00    -0.000 C 
BRANCH  21  22
ATOM     22  C   UNL     1     -12.665 -13.572  27.910  1.00  0.00    -0.000 C 
BRANCH  22  23
ATOM     23  C   UNL     1     -12.204 -14.230  29.223  1.00  0.00    -0.000 C 
BRANCH  23  24
ATOM     24  C   UNL     1     -10.693 -14.541  29.221  1.00  0.00    -0.000 C 
BRANCH  24  25
ATOM     25  C   UNL     1      -9.841 -13.441  28.568  1.00  0.00    -0.003 C 
ATOM     26  C   UNL     1      -8.853 -13.982  27.537  1.00  0.00     0.004 C 
ENDBRANCH  24  25
ENDBRANCH  23  24
ENDBRANCH  22  23
ENDBRANCH  21  22
ENDBRANCH  20  21
ENDBRANCH  19  20
ENDBRANCH  18  19
ENDBRANCH  17  18
ENDBRANCH  16  17
ENDBRANCH  15  16
ENDBRANCH   1  15
TORSDOF 22
ENDMDL
MODEL 4
REMARK VINA RESULT:    -3.675      2.165      5.436
REMARK INTER + INTRA:         -13.032
REMARK INTER:                  -9.365
REMARK INTRA:                  -3.667
REMARK UNBOUND:                -4.629
REMARK SMILES CCCCCCCCCCCCCCCCCCCCCCCC(=O)[O-]
REMARK SMILES IDX 13 1 14 2 15 3 16 4 17 5 18 6 19 7 20 8 21 9 22 10 23 11
REMARK SMILES IDX 24 12 25 13 26 14 12 15 11 16 10 17 9 18 8 19 7 20 6 21 5 22
REMARK SMILES IDX 4 23 3 24 2 25 1 26
REMARK H PARENT
REMARK Flexibility Score: inf
ROOT
ATOM      1  C   UNL     1     -13.945  -6.826  23.884  1.00  0.00     0.000 C 
ENDROOT
BRANCH   1   2
ATOM      2  C   UNL     1     -12.488  -7.063  24.331  1.00  0.00     0.000 C 
BRANCH   2   3
ATOM      3  C   UNL     1     -12.227  -8.426  24.998  1.00  0.00     0.000 C 
BRANCH   3   4
ATOM      4  C   UNL     1     -11.695  -8.299  26.433  1.00  0.00     0.000 C 
BRANCH   4   5
ATOM      5  C   UNL     1     -10.885  -9.543  26.828  1.00  0.00     0.000 C 
BRANCH   5   6
ATOM      6  C   UNL     1     -11.083 -10.710  25.838  1.00  0.00     0.000 C 
BRANCH   6   7
ATOM      7  C   UNL     1     -10.190 -11.928  26.130  1.00  0.00     0.000 C 
BRANCH   7   8
ATOM      8  C   UNL     1     -10.809 -13.247  25.642  1.00  0.00     0.000 C 
BRANCH   8   9
ATOM      9  C   UNL     1     -12.312 -13.130  25.322  1.00  0.00     0.000 C 
BRANCH   9  10
ATOM     10  C   UNL     1     -13.144 -14.400  25.584  1.00  0.00     0.006 C 
BRANCH  10  11
ATOM     11  C   UNL     1     -12.358 -15.697  25.345  1.00  0.00     0.053 C 
BRANCH  11  12
ATOM     12  C   UNL     1     -12.159 -16.451  26.623  1.00  0.00     0.041 C 
ATOM     13  O   UNL     1     -12.489 -15.930  27.722  1.00  0.00    -0.550 OA
ATOM     14  O   UNL     1     -11.588 -17.717  26.605  1.00  0.00    -0.550 OA
ENDBRANCH  11  12
ENDBRANCH  10  11
ENDBRANCH   9  10
ENDBRANCH   8   9
ENDBRANCH   7   8
ENDBRANCH   6   7
ENDBRANCH   5   6
ENDBRANCH   4   5
ENDBRANCH   3   4
ENDBRANCH   2   3
ENDBRANCH   1   2
BRANCH   1  15
ATOM     15  C   UNL     1     -14.801  -5.985  24.853  1.00  0.00     0.000 C 
BRANCH  15  16
ATOM     16  C   UNL     1     -15.978  -6.735  25.509  1.00  0.00     0.000 C 
BRANCH  16  17
ATOM     17  C   UNL     1     -15.584  -7.780  26.568  1.00  0.00     0.000 C 
BRANCH  17  18
ATOM     18  C   UNL     1     -16.052  -9.200  26.208  1.00  0.00    -0.000 C 
BRANCH  18  19
ATOM     19  C   UNL     1     -14.946 -10.260  26.373  1.00  0.00    -0.000 C 
BRANCH  19  20
ATOM     20  C   UNL     1     -14.264 -10.289  27.753  1.00  0.00    -0.000 C 
BRANCH  20  21
ATOM     21  C   UNL     1     -13.891 -11.710  28.210  1.00  0.00    -0.000 C 
BRANCH  21  22
ATOM     22  C   UNL     1     -13.417 -11.757  29.672  1.00  0.00    -0.000 C 
BRANCH  22  23
ATOM     23  C   UNL     1     -11.914 -12.070  29.797  1.00  0.00    -0.000 C 
BRANCH  23  24
ATOM     24  C   UNL     1     -11.166 -11.010  30.633  1.00  0.00    -0.000 C 
BRANCH  24  25
ATOM     25  C   UNL     1     -11.646  -9.573  30.375  1.00  0.00    -0.003 C 
ATOM     26  C   UNL     1     -11.258  -8.603  31.488  1.00  0.00     0.004 C 
ENDBRANCH  24  25
ENDBRANCH  23  24
ENDBRANCH  22  23
ENDBRANCH  21  22
ENDBRANCH  20  21
ENDBRANCH  19  20
ENDBRANCH  18  19
ENDBRANCH  17  18
ENDBRANCH  16  17
ENDBRANCH  15  16
ENDBRANCH   1  15
TORSDOF 22
ENDMDL
MODEL 5
REMARK VINA RESULT:    -3.662      2.420      5.608
REMARK INTER + INTRA:         -13.000
REMARK INTER:                  -8.393
REMARK INTRA:                  -4.607
REMARK UNBOUND:                -4.629
REMARK SMILES CCCCCCCCCCCCCCCCCCCCCCCC(=O)[O-]
REMARK SMILES IDX 13 1 14 2 15 3 16 4 17 5 18 6 19 7 20 8 21 9 22 10 23 11
REMARK SMILES IDX 24 12 25 13 26 14 12 15 11 16 10 17 9 18 8 19 7 20 6 21 5 22
REMARK SMILES IDX 4 23 3 24 2 25 1 26
REMARK H PARENT
REMARK Flexibility Score: inf
ROOT
ATOM      1  C   UNL     1     -10.143 -12.040  24.012  1.00  0.00     0.000 C 
ENDROOT
BRANCH   1   2
ATOM      2  C   UNL     1     -10.555 -13.423  23.465  1.00  0.00     0.000 C 
BRANCH   2   3
ATOM      3  C   UNL     1     -11.558 -13.386  22.298  1.00  0.00     0.000 C 
BRANCH   3   4
ATOM      4  C   UNL     1     -12.847 -14.168  22.591  1.00  0.00     0.000 C 
BRANCH   4   5
ATOM      5  C   UNL     1     -14.082 -13.374  22.141  1.00  0.00     0.000 C 
BRANCH   5   6
ATOM      6  C   UNL     1     -14.861 -12.776  23.331  1.00  0.00     0.000 C 
BRANCH   6   7
ATOM      7  C   UNL     1     -14.428 -13.335  24.698  1.00  0.00     0.000 C 
BRANCH   7   8
ATOM      8  C   UNL     1     -15.350 -14.459  25.198  1.00  0.00     0.000 C 
BRANCH   8   9
ATOM      9  C   UNL     1     -14.615 -15.797  25.408  1.00  0.00     0.000 C 
BRANCH   9  10
ATOM     10  C   UNL     1     -13.298 -15.709  26.203  1.00  0.00     0.006 C 
BRANCH  10  11
ATOM     11  C   UNL     1     -12.101 -16.320  25.458  1.00  0.00     0.053 C 
BRANCH  11  12
ATOM     12  C   UNL     1     -11.008 -16.693  26.410  1.00  0.00     0.041 C 
ATOM     13  O   UNL     1     -11.008 -17.827  26.961  1.00  0.00    -0.550 OA
ATOM     14  O   UNL     1     -10.001 -15.784  26.708  1.00  0.00    -0.550 OA
ENDBRANCH  11  12
ENDBRANCH  10  11
ENDBRANCH   9  10
ENDBRANCH   8   9
ENDBRANCH   7   8
ENDBRANCH   6   7
ENDBRANCH   5   6
ENDBRANCH   4   5
ENDBRANCH   3   4
ENDBRANCH   2   3
ENDBRANCH   1   2
BRANCH   1  15
ATOM     15  C   UNL     1     -10.240 -11.883  25.542  1.00  0.00     0.000 C 
BRANCH  15  16
ATOM     16  C   UNL     1     -11.438 -12.599  26.201  1.00  0.00     0.000 C 
BRANCH  16  17
ATOM     17  C   UNL     1     -11.502 -12.498  27.735  1.00  0.00     0.000 C 
BRANCH  17  18
ATOM     18  C   UNL     1     -12.904 -12.136  28.252  1.00  0.00    -0.000 C 
BRANCH  18  19
ATOM     19  C   UNL     1     -12.977 -10.721  28.857  1.00  0.00    -0.000 C 
BRANCH  19  20
ATOM     20  C   UNL     1     -11.640  -9.960  28.913  1.00  0.00    -0.000 C 
BRANCH  20  21
ATOM     21  C   UNL     1     -11.712  -8.570  28.257  1.00  0.00    -0.000 C 
BRANCH  21  22
ATOM     22  C   UNL     1     -11.292  -8.590  26.778  1.00  0.00    -0.000 C 
BRANCH  22  23
ATOM     23  C   UNL     1     -12.459  -8.268  25.826  1.00  0.00    -0.000 C 
BRANCH  23  24
ATOM     24  C   UNL     1     -13.117  -9.541  25.256  1.00  0.00    -0.000 C 
BRANCH  24  25
ATOM     25  C   UNL     1     -14.590  -9.707  25.664  1.00  0.00    -0.003 C 
ATOM     26  C   UNL     1     -15.070  -8.622  26.625  1.00  0.00     0.004 C 
ENDBRANCH  24  25
ENDBRANCH  23  24
ENDBRANCH  22  23
ENDBRANCH  21  22
ENDBRANCH  20  21
ENDBRANCH  19  20
ENDBRANCH  18  19
ENDBRANCH  17  18
ENDBRANCH  16  17
ENDBRANCH  15  16
ENDBRANCH   1  15
TORSDOF 22
ENDMDL
MODEL 6
REMARK VINA RESULT:    -3.631      2.338      4.135
REMARK INTER + INTRA:         -12.931
REMARK INTER:                  -8.409
REMARK INTRA:                  -4.521
REMARK UNBOUND:                -4.629
REMARK SMILES CCCCCCCCCCCCCCCCCCCCCCCC(=O)[O-]
REMARK SMILES IDX 13 1 14 2 15 3 16 4 17 5 18 6 19 7 20 8 21 9 22 10 23 11
REMARK SMILES IDX 24 12 25 13 26 14 12 15 11 16 10 17 9 18 8 19 7 20 6 21 5 22
REMARK SMILES IDX 4 23 3 24 2 25 1 26
REMARK H PARENT
REMARK Flexibility Score: inf
ROOT
ATOM      1  C   UNL     1     -10.784 -12.494  26.479  1.00  0.00     0.000 C 
ENDROOT
BRANCH   1   2
ATOM      2  C   UNL     1     -10.512 -10.986  26.298  1.00  0.00     0.000 C 
BRANCH   2   3
ATOM      3  C   UNL     1     -10.933 -10.104  27.486  1.00  0.00     0.000 C 
BRANCH   3   4
ATOM      4  C   UNL     1     -11.272  -8.664  27.073  1.00  0.00     0.000 C 
BRANCH   4   5
ATOM      5  C   UNL     1     -12.026  -8.641  25.735  1.00  0.00     0.000 C 
BRANCH   5   6
ATOM      6  C   UNL     1     -13.435  -8.027  25.867  1.00  0.00     0.000 C 
BRANCH   6   7
ATOM      7  C   UNL     1     -14.574  -9.050  25.709  1.00  0.00     0.000 C 
BRANCH   7   8
ATOM      8  C   UNL     1     -14.640 -10.049  26.876  1.00  0.00     0.000 C 
BRANCH   8   9
ATOM      9  C   UNL     1     -14.326 -11.497  26.452  1.00  0.00     0.000 C 
BRANCH   9  10
ATOM     10  C   UNL     1     -14.730 -11.865  25.011  1.00  0.00     0.006 C 
BRANCH  10  11
ATOM     11  C   UNL     1     -13.546 -12.334  24.152  1.00  0.00     0.053 C 
BRANCH  11  12
ATOM     12  C   UNL     1     -13.799 -13.695  23.582  1.00  0.00     0.041 C 
ATOM     13  O   UNL     1     -14.660 -14.451  24.108  1.00  0.00    -0.550 OA
ATOM     14  O   UNL     1     -13.071 -14.140  22.487  1.00  0.00    -0.550 OA
ENDBRANCH  11  12
ENDBRANCH  10  11
ENDBRANCH   9  10
ENDBRANCH   8   9
ENDBRANCH   7   8
ENDBRANCH   6   7
ENDBRANCH   5   6
ENDBRANCH   4   5
ENDBRANCH   3   4
ENDBRANCH   2   3
ENDBRANCH   1   2
BRANCH   1  15
ATOM     15  C   UNL     1     -10.840 -12.980  27.941  1.00  0.00     0.000 C 
BRANCH  15  16
ATOM     16  C   UNL     1     -11.807 -14.152  28.206  1.00  0.00     0.000 C 
BRANCH  16  17
ATOM     17  C   UNL     1     -12.607 -14.635  26.983  1.00  0.00     0.000 C 
BRANCH  17  18
ATOM     18  C   UNL     1     -12.792 -16.161  26.955  1.00  0.00    -0.000 C 
BRANCH  18  19
ATOM     19  C   UNL     1     -12.021 -16.841  25.807  1.00  0.00    -0.000 C 
BRANCH  19  20
ATOM     20  C   UNL     1     -11.170 -15.897  24.938  1.00  0.00    -0.000 C 
BRANCH  20  21
ATOM     21  C   UNL     1      -9.666 -16.218  24.998  1.00  0.00    -0.000 C 
BRANCH  21  22
ATOM     22  C   UNL     1      -9.012 -15.745  26.306  1.00  0.00    -0.000 C 
BRANCH  22  23
ATOM     23  C   UNL     1      -8.524 -16.915  27.181  1.00  0.00    -0.000 C 
BRANCH  23  24
ATOM     24  C   UNL     1      -9.465 -17.184  28.374  1.00  0.00    -0.000 C 
BRANCH  24  25
ATOM     25  C   UNL     1      -9.943 -18.642  28.461  1.00  0.00    -0.003 C 
ATOM     26  C   UNL     1     -11.284 -18.790  29.176  1.00  0.00     0.004 C 
ENDBRANCH  24  25
ENDBRANCH  23  24
ENDBRANCH  22  23
ENDBRANCH  21  22
ENDBRANCH  20  21
ENDBRANCH  19  20
ENDBRANCH  18  19
ENDBRANCH  17  18
ENDBRANCH  16  17
ENDBRANCH  15  16
ENDBRANCH   1  15
TORSDOF 22
ENDMDL
MODEL 7
REMARK VINA RESULT:    -3.607      3.473      6.281
REMARK INTER + INTRA:         -12.874
REMARK INTER:                  -8.559
REMARK INTRA:                  -4.316
REMARK UNBOUND:                -4.629
REMARK SMILES CCCCCCCCCCCCCCCCCCCCCCCC(=O)[O-]
REMARK SMILES IDX 13 1 14 2 15 3 16 4 17 5 18 6 19 7 20 8 21 9 22 10 23 11
REMARK SMILES IDX 24 12 25 13 26 14 12 15 11 16 10 17 9 18 8 19 7 20 6 21 5 22
REMARK SMILES IDX 4 23 3 24 2 25 1 26
REMARK H PARENT
REMARK Flexibility Score: inf
ROOT
ATOM      1  C   UNL     1      -9.995 -13.960  28.966  1.00  0.00     0.000 C 
ENDROOT
BRANCH   1   2
ATOM      2  C   UNL     1      -9.850 -12.474  29.355  1.00  0.00     0.000 C 
BRANCH   2   3
ATOM      3  C   UNL     1     -10.545 -12.077  30.670  1.00  0.00     0.000 C 
BRANCH   3   4
ATOM      4  C   UNL     1     -11.519 -10.901  30.502  1.00  0.00     0.000 C 
BRANCH   4   5
ATOM      5  C   UNL     1     -12.938 -11.405  30.201  1.00  0.00     0.000 C 
BRANCH   5   6
ATOM      6  C   UNL     1     -13.453 -10.919  28.830  1.00  0.00     0.000 C 
BRANCH   6   7
ATOM      7  C   UNL     1     -13.059 -11.837  27.659  1.00  0.00     0.000 C 
BRANCH   7   8
ATOM      8  C   UNL     1     -12.428 -11.067  26.488  1.00  0.00     0.000 C 
BRANCH   8   9
ATOM      9  C   UNL     1     -11.293 -10.122  26.927  1.00  0.00     0.000 C 
BRANCH   9  10
ATOM     10  C   UNL     1     -11.530  -8.627  26.637  1.00  0.00     0.006 C 
BRANCH  10  11
ATOM     11  C   UNL     1     -12.431  -8.384  25.417  1.00  0.00     0.053 C 
BRANCH  11  12
ATOM     12  C   UNL     1     -13.708  -7.711  25.815  1.00  0.00     0.041 C 
ATOM     13  O   UNL     1     -14.338  -8.103  26.833  1.00  0.00    -0.550 OA
ATOM     14  O   UNL     1     -14.215  -6.668  25.051  1.00  0.00    -0.550 OA
ENDBRANCH  11  12
ENDBRANCH  10  11
ENDBRANCH   9  10
ENDBRANCH   8   9
ENDBRANCH   7   8
ENDBRANCH   6   7
ENDBRANCH   5   6
ENDBRANCH   4   5
ENDBRANCH   3   4
ENDBRANCH   2   3
ENDBRANCH   1   2
BRANCH   1  15
ATOM     15  C   UNL     1     -10.937 -14.786  29.866  1.00  0.00     0.000 C 
BRANCH  15  16
ATOM     16  C   UNL     1     -12.346 -15.032  29.290  1.00  0.00     0.000 C 
BRANCH  16  17
ATOM     17  C   UNL     1     -13.012 -16.351  29.720  1.00  0.00     0.000 C 
BRANCH  17  18
ATOM     18  C   UNL     1     -12.161 -17.150  30.720  1.00  0.00    -0.000 C 
BRANCH  18  19
ATOM     19  C   UNL     1     -12.013 -18.635  30.336  1.00  0.00    -0.000 C 
BRANCH  19  20
ATOM     20  C   UNL     1     -10.692 -19.003  29.636  1.00  0.00    -0.000 C 
BRANCH  20  21
ATOM     21  C   UNL     1     -10.735 -18.775  28.114  1.00  0.00    -0.000 C 
BRANCH  21  22
ATOM     22  C   UNL     1      -9.761 -17.680  27.652  1.00  0.00    -0.000 C 
BRANCH  22  23
ATOM     23  C   UNL     1     -10.318 -16.846  26.483  1.00  0.00    -0.000 C 
BRANCH  23  24
ATOM     24  C   UNL     1     -11.771 -17.229  26.133  1.00  0.00    -0.000 C 
BRANCH  24  25
ATOM     25  C   UNL     1     -12.639 -16.030  25.719  1.00  0.00    -0.003 C 
ATOM     26  C   UNL     1     -11.850 -14.726  25.621  1.00  0.00     0.004 C 
ENDBRANCH  24  25
ENDBRANCH  23  24
ENDBRANCH  22  23
ENDBRANCH  21  22
ENDBRANCH  20  21
ENDBRANCH  19  20
ENDBRANCH  18  19
ENDBRANCH  17  18
ENDBRANCH  16  17
ENDBRANCH  15  16
ENDBRANCH   1  15
TORSDOF 22
ENDMDL
MODEL 8
REMARK VINA RESULT:    -3.586      2.592      4.468
REMARK INTER + INTRA:         -12.827
REMARK INTER:                  -8.246
REMARK INTRA:                  -4.581
REMARK UNBOUND:                -4.629
REMARK SMILES CCCCCCCCCCCCCCCCCCCCCCCC(=O)[O-]
REMARK SMILES IDX 13 1 14 2 15 3 16 4 17 5 18 6 19 7 20 8 21 9 22 10 23 11
REMARK SMILES IDX 24 12 25 13 26 14 12 15 11 16 10 17 9 18 8 19 7 20 6 21 5 22
REMARK SMILES IDX 4 23 3 24 2 25 1 26
REMARK H PARENT
REMARK Flexibility Score: inf
ROOT
ATOM      1  C   UNL     1     -13.711 -10.959  29.074  1.00  0.00     0.000 C 
ENDROOT
BRANCH   1   2
ATOM      2  C   UNL     1     -13.380 -11.687  27.755  1.00  0.00     0.000 C 
BRANCH   2   3
ATOM      3  C   UNL     1     -13.880 -10.982  26.481  1.00  0.00     0.000 C 
BRANCH   3   4
ATOM      4  C   UNL     1     -12.740 -10.556  25.545  1.00  0.00     0.000 C 
BRANCH   4   5
ATOM      5  C   UNL     1     -11.389 -10.597  26.273  1.00  0.00     0.000 C 
BRANCH   5   6
ATOM      6  C   UNL     1     -10.344 -11.448  25.522  1.00  0.00     0.000 C 
BRANCH   6   7
ATOM      7  C   UNL     1     -10.885 -12.800  25.027  1.00  0.00     0.000 C 
BRANCH   7   8
ATOM      8  C   UNL     1     -10.722 -12.986  23.511  1.00  0.00     0.000 C 
BRANCH   8   9
ATOM      9  C   UNL     1     -11.948 -13.642  22.846  1.00  0.00     0.000 C 
BRANCH   9  10
ATOM     10  C   UNL     1     -13.115 -13.976  23.796  1.00  0.00     0.006 C 
BRANCH  10  11
ATOM     11  C   UNL     1     -14.409 -13.225  23.450  1.00  0.00     0.053 C 
BRANCH  11  12
ATOM     12  C   UNL     1     -15.550 -14.176  23.261  1.00  0.00     0.041 C 
ATOM     13  O   UNL     1     -16.101 -14.287  22.133  1.00  0.00    -0.550 OA
ATOM     14  O   UNL     1     -16.021 -14.922  24.334  1.00  0.00    -0.550 OA
ENDBRANCH  11  12
ENDBRANCH  10  11
ENDBRANCH   9  10
ENDBRANCH   8   9
ENDBRANCH   7   8
ENDBRANCH   6   7
ENDBRANCH   5   6
ENDBRANCH   4   5
ENDBRANCH   3   4
ENDBRANCH   2   3
ENDBRANCH   1   2
BRANCH   1  15
ATOM     15  C   UNL     1     -12.630 -11.060  30.169  1.00  0.00     0.000 C 
BRANCH  15  16
ATOM     16  C   UNL     1     -11.255 -10.474  29.790  1.00  0.00     0.000 C 
BRANCH  16  17
ATOM     17  C   UNL     1     -10.128 -11.506  29.607  1.00  0.00     0.000 C 
BRANCH  17  18
ATOM     18  C   UNL     1     -10.569 -12.939  29.946  1.00  0.00    -0.000 C 
BRANCH  18  19
ATOM     19  C   UNL     1     -10.570 -13.875  28.723  1.00  0.00    -0.000 C 
BRANCH  19  20
ATOM     20  C   UNL     1     -10.818 -15.362  29.035  1.00  0.00    -0.000 C 
BRANCH  20  21
ATOM     21  C   UNL     1     -12.227 -15.834  28.631  1.00  0.00    -0.000 C 
BRANCH  21  22
ATOM     22  C   UNL     1     -12.637 -15.345  27.233  1.00  0.00    -0.000 C 
BRANCH  22  23
ATOM     23  C   UNL     1     -12.895 -16.503  26.252  1.00  0.00    -0.000 C 
BRANCH  23  24
ATOM     24  C   UNL     1     -11.603 -17.272  25.904  1.00  0.00    -0.000 C 
BRANCH  24  25
ATOM     25  C   UNL     1     -10.629 -16.471  25.025  1.00  0.00    -0.003 C 
ATOM     26  C   UNL     1      -9.298 -16.184  25.716  1.00  0.00     0.004 C 
ENDBRANCH  24  25
ENDBRANCH  23  24
ENDBRANCH  22  23
ENDBRANCH  21  22
ENDBRANCH  20  21
ENDBRANCH  19  20
ENDBRANCH  18  19
ENDBRANCH  17  18
ENDBRANCH  16  17
ENDBRANCH  15  16
ENDBRANCH   1  15
TORSDOF 22
ENDMDL
MODEL 9
REMARK VINA RESULT:    -3.585      1.797      3.561
REMARK INTER + INTRA:         -12.825
REMARK INTER:                  -8.320
REMARK INTRA:                  -4.504
REMARK UNBOUND:                -4.629
REMARK SMILES CCCCCCCCCCCCCCCCCCCCCCCC(=O)[O-]
REMARK SMILES IDX 13 1 14 2 15 3 16 4 17 5 18 6 19 7 20 8 21 9 22 10 23 11
REMARK SMILES IDX 24 12 25 13 26 14 12 15 11 16 10 17 9 18 8 19 7 20 6 21 5 22
REMARK SMILES IDX 4 23 3 24 2 25 1 26
REMARK H PARENT
REMARK Flexibility Score: inf
ROOT
ATOM      1  C   UNL     1     -11.259  -8.632  26.875  1.00  0.00     0.000 C 
ENDROOT
BRANCH   1   2
ATOM      2  C   UNL     1     -12.366  -8.247  25.871  1.00  0.00     0.000 C 
BRANCH   2   3
ATOM      3  C   UNL     1     -13.782  -8.161  26.468  1.00  0.00     0.000 C 
BRANCH   3   4
ATOM      4  C   UNL     1     -14.850  -8.807  25.574  1.00  0.00     0.000 C 
BRANCH   4   5
ATOM      5  C   UNL     1     -14.381 -10.177  25.063  1.00  0.00     0.000 C 
BRANCH   5   6
ATOM      6  C   UNL     1     -14.540 -11.284  26.126  1.00  0.00     0.000 C 
BRANCH   6   7
ATOM      7  C   UNL     1     -13.581 -12.471  25.933  1.00  0.00     0.000 C 
BRANCH   7   8
ATOM      8  C   UNL     1     -12.124 -12.028  25.726  1.00  0.00     0.000 C 
BRANCH   8   9
ATOM      9  C   UNL     1     -11.252 -13.109  25.057  1.00  0.00     0.000 C 
BRANCH   9  10
ATOM     10  C   UNL     1     -11.339 -13.169  23.520  1.00  0.00     0.006 C 
BRANCH  10  11
ATOM     11  C   UNL     1     -11.639 -11.806  22.878  1.00  0.00     0.053 C 
BRANCH  11  12
ATOM     12  C   UNL     1     -12.871 -11.871  22.029  1.00  0.00     0.041 C 
ATOM     13  O   UNL     1     -13.840 -12.599  22.374  1.00  0.00    -0.550 OA
ATOM     14  O   UNL     1     -12.942 -11.146  20.846  1.00  0.00    -0.550 OA
ENDBRANCH  11  12
ENDBRANCH  10  11
ENDBRANCH   9  10
ENDBRANCH   8   9
ENDBRANCH   7   8
ENDBRANCH   6   7
ENDBRANCH   5   6
ENDBRANCH   4   5
ENDBRANCH   3   4
ENDBRANCH   2   3
ENDBRANCH   1   2
BRANCH   1  15
ATOM     15  C   UNL     1     -11.721  -8.780  28.338  1.00  0.00     0.000 C 
BRANCH  15  16
ATOM     16  C   UNL     1     -11.791 -10.229  28.861  1.00  0.00     0.000 C 
BRANCH  16  17
ATOM     17  C   UNL     1     -13.096 -10.605  29.585  1.00  0.00     0.000 C 
BRANCH  17  18
ATOM     18  C   UNL     1     -13.327 -12.124  29.649  1.00  0.00    -0.000 C 
BRANCH  18  19
ATOM     19  C   UNL     1     -12.083 -12.941  29.252  1.00  0.00    -0.000 C 
BRANCH  19  20
ATOM     20  C   UNL     1     -12.352 -14.414  28.894  1.00  0.00    -0.000 C 
BRANCH  20  21
ATOM     21  C   UNL     1     -11.140 -15.105  28.244  1.00  0.00    -0.000 C 
BRANCH  21  22
ATOM     22  C   UNL     1     -11.542 -16.060  27.108  1.00  0.00    -0.000 C 
BRANCH  22  23
ATOM     23  C   UNL     1     -13.052 -16.358  27.091  1.00  0.00    -0.000 C 
BRANCH  23  24
ATOM     24  C   UNL     1     -13.682 -16.108  25.705  1.00  0.00    -0.000 C 
BRANCH  24  25
ATOM     25  C   UNL     1     -15.189 -16.403  25.654  1.00  0.00    -0.003 C 
ATOM     26  C   UNL     1     -15.989 -15.310  24.948  1.00  0.00     0.004 C 
ENDBRANCH  24  25
ENDBRANCH  23  24
ENDBRANCH  22  23
ENDBRANCH  21  22
ENDBRANCH  20  21
ENDBRANCH  19  20
ENDBRANCH  18  19
ENDBRANCH  17  18
ENDBRANCH  16  17
ENDBRANCH  15  16
ENDBRANCH   1  15
TORSDOF 22
ENDMDL
