MODEL 1
REMARK VINA RESULT:    -4.032      0.000      0.000
REMARK INTER + INTRA:          -4.917
REMARK INTER:                  -4.857
REMARK INTRA:                  -0.060
REMARK UNBOUND:                -0.060
REMARK SMILES CC[C@@H](C)[C@@H]([NH3+])C(=O)[O-]
REMARK SMILES IDX 3 1 4 2 5 3 6 4 7 8 8 9 9 10 2 11 1 12
REMARK H PARENT 6 5 6 6 6 7
REMARK Flexibility Score: inf
ROOT
ATOM      1  C   UNL     1       2.105   9.728  18.116  1.00  0.00     0.050 C 
ATOM      2  C   UNL     1       1.751   8.892  16.875  1.00  0.00     0.014 C 
ENDROOT
BRANCH   1   3
ATOM      3  C   UNL     1       1.765  11.239  17.880  1.00  0.00     0.230 C 
BRANCH   3   4
ATOM      4  N   UNL     1       1.340  11.926  19.110  1.00  0.00    -0.350 N 
ATOM      5  H   UNL     1       0.599  12.628  18.879  1.00  0.00     0.345 HD
ATOM      6  H   UNL     1       2.139  12.425  19.563  1.00  0.00     0.345 HD
ATOM      7  H   UNL     1       0.930  11.246  19.788  1.00  0.00     0.345 HD
ENDBRANCH   3   4
BRANCH   3   8
ATOM      8  C   UNL     1       2.899  11.975  17.204  1.00  0.00     0.099 C 
ATOM      9  O   UNL     1       2.756  13.182  16.875  1.00  0.00    -0.544 OA
ATOM     10  O   UNL     1       4.117  11.348  16.967  1.00  0.00    -0.544 OA
ENDBRANCH   3   8
ENDBRANCH   1   3
BRANCH   1  11
ATOM     11  C   UNL     1       1.450   9.090  19.369  1.00  0.00     0.006 C 
ATOM     12  C   UNL     1       2.456   8.480  20.345  1.00  0.00     0.004 C 
ENDBRANCH   1  11
TORSDOF 4
ENDMDL
MODEL 2
REMARK VINA RESULT:    -3.763      2.600      3.794
REMARK INTER + INTRA:          -4.593
REMARK INTER:                  -4.525
REMARK INTRA:                  -0.067
REMARK UNBOUND:                -0.060
REMARK SMILES CC[C@@H](C)[C@@H]([NH3+])C(=O)[O-]
REMARK SMILES IDX 3 1 4 2 5 3 6 4 7 8 8 9 9 10 2 11 1 12
REMARK H PARENT 6 5 6 6 6 7
REMARK Flexibility Score: inf
ROOT
ATOM      1  C   UNL     1       2.382  11.122  16.951  1.00  0.00     0.050 C 
ATOM      2  C   UNL     1       3.828  11.641  16.875  1.00  0.00     0.014 C 
ENDROOT
BRANCH   1   3
ATOM      3  C   UNL     1       2.362   9.591  17.282  1.00  0.00     0.230 C 
BRANCH   3   4
ATOM      4  N   UNL     1       3.597   8.904  16.875  1.00  0.00    -0.350 N 
ATOM      5  H   UNL     1       4.122   8.595  17.726  1.00  0.00     0.345 HD
ATOM      6  H   UNL     1       4.217   9.533  16.315  1.00  0.00     0.345 HD
ATOM      7  H   UNL     1       3.376   8.051  16.314  1.00  0.00     0.345 HD
ENDBRANCH   3   4
BRANCH   3   8
ATOM      8  C   UNL     1       2.043   9.331  18.736  1.00  0.00     0.099 C 
ATOM      9  O   UNL     1       2.918   9.540  19.618  1.00  0.00    -0.544 OA
ATOM     10  O   UNL     1       0.781   8.894  19.125  1.00  0.00    -0.544 OA
ENDBRANCH   3   8
ENDBRANCH   1   3
BRANCH   1  11
ATOM     11  C   UNL     1       1.564  12.020  17.915  1.00  0.00     0.006 C 
ATOM     12  C   UNL     1       0.132  12.278  17.449  1.00  0.00     0.004 C 
ENDBRANCH   1  11
TORSDOF 4
ENDMDL
MODEL 3
REMARK VINA RESULT:    -3.718      2.862      4.193
REMARK INTER + INTRA:          -4.539
REMARK INTER:                  -4.483
REMARK INTRA:                  -0.055
REMARK UNBOUND:                -0.060
REMARK SMILES CC[C@@H](C)[C@@H]([NH3+])C(=O)[O-]
REMARK SMILES IDX 3 1 4 2 5 3 6 4 7 8 8 9 9 10 2 11 1 12
REMARK H PARENT 6 5 6 6 6 7
REMARK Flexibility Score: inf
ROOT
ATOM      1  C   UNL     1       1.771  11.056  18.341  1.00  0.00     0.050 C 
ATOM      2  C   UNL     1       0.342  11.605  18.196  1.00  0.00     0.014 C 
ENDROOT
BRANCH   1   3
ATOM      3  C   UNL     1       1.755   9.493  18.436  1.00  0.00     0.230 C 
BRANCH   3   4
ATOM      4  N   UNL     1       2.858   8.866  17.691  1.00  0.00    -0.350 N 
ATOM      5  H   UNL     1       3.118   9.472  16.878  1.00  0.00     0.345 HD
ATOM      6  H   UNL     1       2.586   7.924  17.328  1.00  0.00     0.345 HD
ATOM      7  H   UNL     1       3.703   8.770  18.297  1.00  0.00     0.345 HD
ENDBRANCH   3   4
BRANCH   3   8
ATOM      8  C   UNL     1       1.719   9.013  19.869  1.00  0.00     0.099 C 
ATOM      9  O   UNL     1       2.766   8.567  20.409  1.00  0.00    -0.544 OA
ATOM     10  O   UNL     1       0.550   9.088  20.619  1.00  0.00    -0.544 OA
ENDBRANCH   3   8
ENDBRANCH   1   3
BRANCH   1  11
ATOM     11  C   UNL     1       2.663  11.643  17.217  1.00  0.00     0.006 C 
ATOM     12  C   UNL     1       2.360  13.104  16.890  1.00  0.00     0.004 C 
ENDBRANCH   1  11
TORSDOF 4
ENDMDL
MODEL 4
REMARK VINA RESULT:    -3.608      1.659      2.207
REMARK INTER + INTRA:          -4.407
REMARK INTER:                  -4.335
REMARK INTRA:                  -0.072
REMARK UNBOUND:                -0.060
REMARK SMILES CC[C@@H](C)[C@@H]([NH3+])C(=O)[O-]
REMARK SMILES IDX 3 1 4 2 5 3 6 4 7 8 8 9 9 10 2 11 1 12
REMARK H PARENT 6 5 6 6 6 7
REMARK Flexibility Score: inf
ROOT
ATOM      1  C   UNL     1       2.012   9.755  19.379  1.00  0.00     0.050 C 
ATOM      2  C   UNL     1       2.420   8.565  20.264  1.00  0.00     0.014 C 
ENDROOT
BRANCH   1   3
ATOM      3  C   UNL     1       2.511   9.547  17.909  1.00  0.00     0.230 C 
BRANCH   3   4
ATOM      4  N   UNL     1       1.493   8.931  17.043  1.00  0.00    -0.350 N 
ATOM      5  H   UNL     1       1.950   8.555  16.180  1.00  0.00     0.345 HD
ATOM      6  H   UNL     1       0.766   9.625  16.757  1.00  0.00     0.345 HD
ATOM      7  H   UNL     1       1.033   8.130  17.531  1.00  0.00     0.345 HD
ENDBRANCH   3   4
BRANCH   3   8
ATOM      8  C   UNL     1       3.042  10.827  17.306  1.00  0.00     0.099 C 
ATOM      9  O   UNL     1       2.241  11.714  16.909  1.00  0.00    -0.544 OA
ATOM     10  O   UNL     1       4.410  11.059  17.210  1.00  0.00    -0.544 OA
ENDBRANCH   3   8
ENDBRANCH   1   3
BRANCH   1  11
ATOM     11  C   UNL     1       0.490  10.010  19.532  1.00  0.00     0.006 C 
ATOM     12  C   UNL     1      -0.097   9.468  20.835  1.00  0.00     0.004 C 
ENDBRANCH   1  11
TORSDOF 4
ENDMDL
MODEL 5
REMARK VINA RESULT:    -3.358      3.052      3.955
REMARK INTER + INTRA:          -4.105
REMARK INTER:                  -4.167
REMARK INTRA:                   0.062
REMARK UNBOUND:                -0.060
REMARK SMILES CC[C@@H](C)[C@@H]([NH3+])C(=O)[O-]
REMARK SMILES IDX 3 1 4 2 5 3 6 4 7 8 8 9 9 10 2 11 1 12
REMARK H PARENT 6 5 6 6 6 7
REMARK Flexibility Score: inf
ROOT
ATOM      1  C   UNL     1       1.716   9.676  17.796  1.00  0.00     0.050 C 
ATOM      2  C   UNL     1       0.505   9.430  16.880  1.00  0.00     0.014 C 
ENDROOT
BRANCH   1   3
ATOM      3  C   UNL     1       1.599   8.824  19.106  1.00  0.00     0.230 C 
BRANCH   3   4
ATOM      4  N   UNL     1       2.890   8.655  19.792  1.00  0.00    -0.350 N 
ATOM      5  H   UNL     1       2.901   7.737  20.295  1.00  0.00     0.345 HD
ATOM      6  H   UNL     1       3.053   9.416  20.490  1.00  0.00     0.345 HD
ATOM      7  H   UNL     1       3.674   8.647  19.102  1.00  0.00     0.345 HD
ENDBRANCH   3   4
BRANCH   3   8
ATOM      8  C   UNL     1       0.547   9.369  20.043  1.00  0.00     0.099 C 
ATOM      9  O   UNL     1       0.240   8.730  21.084  1.00  0.00    -0.544 OA
ATOM     10  O   UNL     1      -0.071  10.590  19.792  1.00  0.00    -0.544 OA
ENDBRANCH   3   8
ENDBRANCH   1   3
BRANCH   1  11
ATOM     11  C   UNL     1       3.023   9.470  16.986  1.00  0.00     0.006 C 
ATOM     12  C   UNL     1       3.882  10.729  16.875  1.00  0.00     0.004 C 
ENDBRANCH   1  11
TORSDOF 4
ENDMDL
MODEL 6
REMARK VINA RESULT:    -3.175      2.269      3.818
REMARK INTER + INTRA:          -3.885
REMARK INTER:                  -4.007
REMARK INTRA:                   0.122
REMARK UNBOUND:                -0.060
REMARK SMILES CC[C@@H](C)[C@@H]([NH3+])C(=O)[O-]
REMARK SMILES IDX 3 1 4 2 5 3 6 4 7 8 8 9 9 10 2 11 1 12
REMARK H PARENT 6 5 6 6 6 7
REMARK Flexibility Score: inf
ROOT
ATOM      1  C   UNL     1       1.523  11.669  18.355  1.00  0.00     0.050 C 
ATOM      2  C   UNL     1      -0.010  11.790  18.326  1.00  0.00     0.014 C 
ENDROOT
BRANCH   1   3
ATOM      3  C   UNL     1       1.955  10.202  18.693  1.00  0.00     0.230 C 
BRANCH   3   4
ATOM      4  N   UNL     1       1.434   9.739  19.989  1.00  0.00    -0.350 N 
ATOM      5  H   UNL     1       1.683  10.432  20.733  1.00  0.00     0.345 HD
ATOM      6  H   UNL     1       1.837   8.812  20.253  1.00  0.00     0.345 HD
ATOM      7  H   UNL     1       0.392   9.667  19.961  1.00  0.00     0.345 HD
ENDBRANCH   3   4
BRANCH   3   8
ATOM      8  C   UNL     1       1.602   9.238  17.584  1.00  0.00     0.099 C 
ATOM      9  O   UNL     1       2.514   8.731  16.879  1.00  0.00    -0.544 OA
ATOM     10  O   UNL     1       0.281   8.873  17.347  1.00  0.00    -0.544 OA
ENDBRANCH   3   8
ENDBRANCH   1   3
BRANCH   1  11
ATOM     11  C   UNL     1       2.109  12.246  17.040  1.00  0.00     0.006 C 
ATOM     12  C   UNL     1       1.887  13.749  16.875  1.00  0.00     0.004 C 
ENDBRANCH   1  11
TORSDOF 4
ENDMDL
MODEL 7
REMARK VINA RESULT:    -2.790     22.405     23.328
REMARK INTER + INTRA:          -3.421
REMARK INTER:                  -3.561
REMARK INTRA:                   0.140
REMARK UNBOUND:                -0.060
REMARK SMILES CC[C@@H](C)[C@@H]([NH3+])C(=O)[O-]
REMARK SMILES IDX 3 1 4 2 5 3 6 4 7 8 8 9 9 10 2 11 1 12
REMARK H PARENT 6 5 6 6 6 7
REMARK Flexibility Score: inf
ROOT
ATOM      1  C   UNL     1      15.249  13.270  36.611  1.00  0.00     0.050 C 
ATOM      2  C   UNL     1      14.870  14.671  37.120  1.00  0.00     0.014 C 
ENDROOT
BRANCH   1   3
ATOM      3  C   UNL     1      16.742  12.944  36.952  1.00  0.00     0.230 C 
BRANCH   3   4
ATOM      4  N   UNL     1      16.985  11.502  37.123  1.00  0.00    -0.350 N 
ATOM      5  H   UNL     1      16.865  11.245  38.130  1.00  0.00     0.345 HD
ATOM      6  H   UNL     1      17.954  11.242  36.829  1.00  0.00     0.345 HD
ATOM      7  H   UNL     1      16.296  10.946  36.569  1.00  0.00     0.345 HD
ENDBRANCH   3   4
BRANCH   3   8
ATOM      8  C   UNL     1      17.697  13.546  35.947  1.00  0.00     0.099 C 
ATOM      9  O   UNL     1      18.596  12.832  35.429  1.00  0.00    -0.544 OA
ATOM     10  O   UNL     1      17.579  14.876  35.557  1.00  0.00    -0.544 OA
ENDBRANCH   3   8
ENDBRANCH   1   3
BRANCH   1  11
ATOM     11  C   UNL     1      14.211  12.239  37.125  1.00  0.00     0.006 C 
ATOM     12  C   UNL     1      12.760  12.683  36.943  1.00  0.00     0.004 C 
ENDBRANCH   1  11
TORSDOF 4
ENDMDL
MODEL 8
REMARK VINA RESULT:    -2.744      3.089      3.981
REMARK INTER + INTRA:          -3.365
REMARK INTER:                  -3.287
REMARK INTRA:                  -0.079
REMARK UNBOUND:                -0.060
REMARK SMILES CC[C@@H](C)[C@@H]([NH3+])C(=O)[O-]
REMARK SMILES IDX 3 1 4 2 5 3 6 4 7 8 8 9 9 10 2 11 1 12
REMARK H PARENT 6 5 6 6 6 7
REMARK Flexibility Score: inf
ROOT
ATOM      1  C   UNL     1       0.808   8.326  21.229  1.00  0.00     0.050 C 
ATOM      2  C   UNL     1      -0.121   9.397  21.825  1.00  0.00     0.014 C 
ENDROOT
BRANCH   1   3
ATOM      3  C   UNL     1       1.834   8.973  20.238  1.00  0.00     0.230 C 
BRANCH   3   4
ATOM      4  N   UNL     1       2.918   8.053  19.860  1.00  0.00    -0.350 N 
ATOM      5  H   UNL     1       3.813   8.587  19.766  1.00  0.00     0.345 HD
ATOM      6  H   UNL     1       2.718   7.581  18.949  1.00  0.00     0.345 HD
ATOM      7  H   UNL     1       3.059   7.328  20.599  1.00  0.00     0.345 HD
ENDBRANCH   3   4
BRANCH   3   8
ATOM      8  C   UNL     1       1.154   9.550  19.017  1.00  0.00     0.099 C 
ATOM      9  O   UNL     1       1.130  10.797  18.843  1.00  0.00    -0.544 OA
ATOM     10  O   UNL     1       0.579   8.721  18.060  1.00  0.00    -0.544 OA
ENDBRANCH   3   8
ENDBRANCH   1   3
BRANCH   1  11
ATOM     11  C   UNL     1       1.431   7.491  22.377  1.00  0.00     0.006 C 
ATOM     12  C   UNL     1       0.400   6.888  23.330  1.00  0.00     0.004 C 
ENDBRANCH   1  11
TORSDOF 4
ENDMDL
MODEL 9
REMARK VINA RESULT:    -1.716      2.396      3.202
REMARK INTER + INTRA:          -2.127
REMARK INTER:                  -2.107
REMARK INTRA:                  -0.020
REMARK UNBOUND:                -0.060
REMARK SMILES CC[C@@H](C)[C@@H]([NH3+])C(=O)[O-]
REMARK SMILES IDX 3 1 4 2 5 3 6 4 7 8 8 9 9 10 2 11 1 12
REMARK H PARENT 6 5 6 6 6 7
REMARK Flexibility Score: inf
ROOT
ATOM      1  C   UNL     1       2.527   9.149  18.096  1.00  0.00     0.050 C 
ATOM      2  C   UNL     1       3.142   9.686  19.399  1.00  0.00     0.014 C 
ENDROOT
BRANCH   1   3
ATOM      3  C   UNL     1       0.964   9.226  18.149  1.00  0.00     0.230 C 
BRANCH   3   4
ATOM      4  N   UNL     1       0.406   8.627  19.372  1.00  0.00    -0.350 N 
ATOM      5  H   UNL     1      -0.150   9.346  19.891  1.00  0.00     0.345 HD
ATOM      6  H   UNL     1       1.162   8.275  20.003  1.00  0.00     0.345 HD
ATOM      7  H   UNL     1      -0.239   7.840  19.135  1.00  0.00     0.345 HD
ENDBRANCH   3   4
BRANCH   3   8
ATOM      8  C   UNL     1       0.459  10.636  17.949  1.00  0.00     0.099 C 
ATOM      9  O   UNL     1      -0.118  10.950  16.875  1.00  0.00    -0.544 OA
ATOM     10  O   UNL     1       0.592  11.592  18.951  1.00  0.00    -0.544 OA
ENDBRANCH   3   8
ENDBRANCH   1   3
BRANCH   1  11
ATOM     11  C   UNL     1       3.185   9.864  16.886  1.00  0.00     0.006 C 
ATOM     12  C   UNL     1       4.159  10.972  17.281  1.00  0.00     0.004 C 
ENDBRANCH   1  11
TORSDOF 4
ENDMDL
