MODEL 1
REMARK VINA RESULT:     9.871      0.000      0.000
REMARK INTER + INTRA:          18.139
REMARK INTER:                  18.528
REMARK INTRA:                  -0.389
REMARK UNBOUND:                -0.389
REMARK SMILES O=C([O-])CCCCCCCCCCCCCCC(=O)[O-]
REMARK SMILES IDX 10 1 9 2 8 3 7 4 6 5 5 6 4 7 2 8 1 9 3 10 11 11 12 12 13 13
REMARK SMILES IDX 14 14 15 15 16 16 17 17 18 18 19 19 20 20
REMARK H PARENT
REMARK Flexibility Score: inf
ROOT
ATOM      1  C   UNL     1       4.784  41.698  11.621  1.00  0.00     0.000 C 
ENDROOT
BRANCH   1   2
ATOM      2  C   UNL     1       4.022  42.315  10.438  1.00  0.00     0.000 C 
BRANCH   2   3
ATOM      3  C   UNL     1       4.929  43.148   9.517  1.00  0.00     0.000 C 
BRANCH   3   4
ATOM      4  C   UNL     1       6.197  42.389   9.089  1.00  0.00     0.000 C 
BRANCH   4   5
ATOM      5  C   UNL     1       6.635  42.684   7.637  1.00  0.00     0.000 C 
BRANCH   5   6
ATOM      6  C   UNL     1       8.002  42.065   7.273  1.00  0.00     0.006 C 
BRANCH   6   7
ATOM      7  C   UNL     1       8.384  42.257   5.795  1.00  0.00     0.053 C 
BRANCH   7   8
ATOM      8  C   UNL     1       8.958  41.013   5.194  1.00  0.00     0.041 C 
ATOM      9  O   UNL     1       9.086  39.973   5.892  1.00  0.00    -0.550 OA
ATOM     10  O   UNL     1       9.312  40.990   3.851  1.00  0.00    -0.550 OA
ENDBRANCH   7   8
ENDBRANCH   6   7
ENDBRANCH   5   6
ENDBRANCH   4   5
ENDBRANCH   3   4
ENDBRANCH   2   3
ENDBRANCH   1   2
BRANCH   1  11
ATOM     11  C   UNL     1       3.943  41.648  12.909  1.00  0.00     0.000 C 
BRANCH  11  12
ATOM     12  C   UNL     1       4.580  40.766  13.994  1.00  0.00     0.000 C 
BRANCH  12  13
ATOM     13  C   UNL     1       3.546  39.911  14.748  1.00  0.00     0.000 C 
BRANCH  13  14
ATOM     14  C   UNL     1       4.185  39.051  15.849  1.00  0.00     0.000 C 
BRANCH  14  15
ATOM     15  C   UNL     1       5.695  39.311  15.998  1.00  0.00     0.000 C 
BRANCH  15  16
ATOM     16  C   UNL     1       6.554  38.212  15.348  1.00  0.00     0.006 C 
BRANCH  16  17
ATOM     17  C   UNL     1       7.994  38.143  15.882  1.00  0.00     0.053 C 
BRANCH  17  18
ATOM     18  C   UNL     1       8.877  39.174  15.248  1.00  0.00     0.041 C 
ATOM     19  O   UNL     1      10.108  39.200  15.508  1.00  0.00    -0.550 OA
ATOM     20  O   UNL     1       8.333  40.125  14.395  1.00  0.00    -0.550 OA
ENDBRANCH  17  18
ENDBRANCH  16  17
ENDBRANCH  15  16
ENDBRANCH  14  15
ENDBRANCH  13  14
ENDBRANCH  12  13
ENDBRANCH  11  12
ENDBRANCH   1  11
TORSDOF 15
ENDMDL
MODEL 2
REMARK VINA RESULT:    10.628      0.818      8.559
REMARK INTER + INTRA:          19.559
REMARK INTER:                  19.767
REMARK INTRA:                  -0.209
REMARK UNBOUND:                -0.389
REMARK SMILES O=C([O-])CCCCCCCCCCCCCCC(=O)[O-]
REMARK SMILES IDX 10 1 9 2 8 3 7 4 6 5 5 6 4 7 2 8 1 9 3 10 11 11 12 12 13 13
REMARK SMILES IDX 14 14 15 15 16 16 17 17 18 18 19 19 20 20
REMARK H PARENT
REMARK Flexibility Score: inf
ROOT
ATOM      1  C   UNL     1       4.062  41.855  11.600  1.00  0.00     0.000 C 
ENDROOT
BRANCH   1   2
ATOM      2  C   UNL     1       4.663  41.246  12.877  1.00  0.00     0.000 C 
BRANCH   2   3
ATOM      3  C   UNL     1       3.630  41.100  14.008  1.00  0.00     0.000 C 
BRANCH   3   4
ATOM      4  C   UNL     1       3.798  39.792  14.799  1.00  0.00     0.000 C 
BRANCH   4   5
ATOM      5  C   UNL     1       5.082  39.748  15.657  1.00  0.00     0.000 C 
BRANCH   5   6
ATOM      6  C   UNL     1       6.106  38.699  15.174  1.00  0.00     0.006 C 
BRANCH   6   7
ATOM      7  C   UNL     1       7.464  38.796  15.889  1.00  0.00     0.053 C 
BRANCH   7   8
ATOM      8  C   UNL     1       8.484  39.522  15.069  1.00  0.00     0.041 C 
ATOM      9  O   UNL     1       8.362  40.757  14.856  1.00  0.00    -0.550 OA
ATOM     10  O   UNL     1       9.591  38.843  14.576  1.00  0.00    -0.550 OA
ENDBRANCH   7   8
ENDBRANCH   6   7
ENDBRANCH   5   6
ENDBRANCH   4   5
ENDBRANCH   3   4
ENDBRANCH   2   3
ENDBRANCH   1   2
BRANCH   1  11
ATOM     11  C   UNL     1       5.137  42.358  10.620  1.00  0.00     0.000 C 
BRANCH  11  12
ATOM     12  C   UNL     1       4.532  43.050   9.389  1.00  0.00     0.000 C 
BRANCH  12  13
ATOM     13  C   UNL     1       5.450  42.977   8.156  1.00  0.00     0.000 C 
BRANCH  13  14
ATOM     14  C   UNL     1       6.888  42.572   8.517  1.00  0.00     0.000 C 
BRANCH  14  15
ATOM     15  C   UNL     1       7.583  41.794   7.384  1.00  0.00     0.000 C 
BRANCH  15  16
ATOM     16  C   UNL     1       8.042  42.705   6.232  1.00  0.00     0.006 C 
BRANCH  16  17
ATOM     17  C   UNL     1       9.369  42.279   5.585  1.00  0.00     0.053 C 
BRANCH  17  18
ATOM     18  C   UNL     1       9.233  41.001   4.816  1.00  0.00     0.041 C 
ATOM     19  O   UNL     1       8.591  40.033   5.303  1.00  0.00    -0.550 OA
ATOM     20  O   UNL     1       9.840  40.868   3.574  1.00  0.00    -0.550 OA
ENDBRANCH  17  18
ENDBRANCH  16  17
ENDBRANCH  15  16
ENDBRANCH  14  15
ENDBRANCH  13  14
ENDBRANCH  12  13
ENDBRANCH  11  12
ENDBRANCH   1  11
TORSDOF 15
ENDMDL
MODEL 3
REMARK VINA RESULT:    10.741      1.030      8.195
REMARK INTER + INTRA:          19.771
REMARK INTER:                  20.127
REMARK INTRA:                  -0.356
REMARK UNBOUND:                -0.389
REMARK SMILES O=C([O-])CCCCCCCCCCCCCCC(=O)[O-]
REMARK SMILES IDX 10 1 9 2 8 3 7 4 6 5 5 6 4 7 2 8 1 9 3 10 11 11 12 12 13 13
REMARK SMILES IDX 14 14 15 15 16 16 17 17 18 18 19 19 20 20
REMARK H PARENT
REMARK Flexibility Score: inf
ROOT
ATOM      1  C   UNL     1       4.146  41.662  13.171  1.00  0.00     0.000 C 
ENDROOT
BRANCH   1   2
ATOM      2  C   UNL     1       4.662  40.544  14.090  1.00  0.00     0.000 C 
BRANCH   2   3
ATOM      3  C   UNL     1       3.526  39.806  14.820  1.00  0.00     0.000 C 
BRANCH   3   4
ATOM      4  C   UNL     1       4.045  38.827  15.887  1.00  0.00     0.000 C 
BRANCH   4   5
ATOM      5  C   UNL     1       5.326  38.073  15.465  1.00  0.00     0.000 C 
BRANCH   5   6
ATOM      6  C   UNL     1       6.609  38.628  16.122  1.00  0.00     0.006 C 
BRANCH   6   7
ATOM      7  C   UNL     1       7.899  38.163  15.427  1.00  0.00     0.053 C 
BRANCH   7   8
ATOM      8  C   UNL     1       8.770  39.312  15.025  1.00  0.00     0.041 C 
ATOM      9  O   UNL     1       9.962  39.110  14.672  1.00  0.00    -0.550 OA
ATOM     10  O   UNL     1       8.253  40.601  14.999  1.00  0.00    -0.550 OA
ENDBRANCH   7   8
ENDBRANCH   6   7
ENDBRANCH   5   6
ENDBRANCH   4   5
ENDBRANCH   3   4
ENDBRANCH   2   3
ENDBRANCH   1   2
BRANCH   1  11
ATOM     11  C   UNL     1       4.771  41.611  11.765  1.00  0.00     0.000 C 
BRANCH  11  12
ATOM     12  C   UNL     1       3.942  42.378  10.724  1.00  0.00     0.000 C 
BRANCH  12  13
ATOM     13  C   UNL     1       4.793  43.347   9.884  1.00  0.00     0.000 C 
BRANCH  13  14
ATOM     14  C   UNL     1       4.675  43.077   8.376  1.00  0.00     0.000 C 
BRANCH  14  15
ATOM     15  C   UNL     1       6.047  42.982   7.685  1.00  0.00     0.000 C 
BRANCH  15  16
ATOM     16  C   UNL     1       7.116  42.324   8.575  1.00  0.00     0.006 C 
BRANCH  16  17
ATOM     17  C   UNL     1       8.370  41.864   7.814  1.00  0.00     0.053 C 
BRANCH  17  18
ATOM     18  C   UNL     1       8.245  42.089   6.338  1.00  0.00     0.041 C 
ATOM     19  O   UNL     1       8.098  41.112   5.557  1.00  0.00    -0.550 OA
ATOM     20  O   UNL     1       8.319  43.376   5.822  1.00  0.00    -0.550 OA
ENDBRANCH  17  18
ENDBRANCH  16  17
ENDBRANCH  15  16
ENDBRANCH  14  15
ENDBRANCH  13  14
ENDBRANCH  12  13
ENDBRANCH  11  12
ENDBRANCH   1  11
TORSDOF 15
ENDMDL
MODEL 4
REMARK VINA RESULT:    10.781      1.522      1.851
REMARK INTER + INTRA:          19.846
REMARK INTER:                  18.849
REMARK INTRA:                   0.997
REMARK UNBOUND:                -0.389
REMARK SMILES O=C([O-])CCCCCCCCCCCCCCC(=O)[O-]
REMARK SMILES IDX 10 1 9 2 8 3 7 4 6 5 5 6 4 7 2 8 1 9 3 10 11 11 12 12 13 13
REMARK SMILES IDX 14 14 15 15 16 16 17 17 18 18 19 19 20 20
REMARK H PARENT
REMARK Flexibility Score: inf
ROOT
ATOM      1  C   UNL     1       4.653  41.809  11.422  1.00  0.00     0.000 C 
ENDROOT
BRANCH   1   2
ATOM      2  C   UNL     1       3.761  42.559  10.420  1.00  0.00     0.000 C 
BRANCH   2   3
ATOM      3  C   UNL     1       4.563  43.197   9.273  1.00  0.00     0.000 C 
BRANCH   3   4
ATOM      4  C   UNL     1       5.972  42.597   9.130  1.00  0.00     0.000 C 
BRANCH   4   5
ATOM      5  C   UNL     1       6.561  42.733   7.708  1.00  0.00     0.000 C 
BRANCH   5   6
ATOM      6  C   UNL     1       7.621  41.659   7.379  1.00  0.00     0.006 C 
BRANCH   6   7
ATOM      7  C   UNL     1       8.537  42.046   6.206  1.00  0.00     0.053 C 
BRANCH   7   8
ATOM      8  C   UNL     1       9.246  43.342   6.445  1.00  0.00     0.041 C 
ATOM      9  O   UNL     1       8.857  44.392   5.869  1.00  0.00    -0.550 OA
ATOM     10  O   UNL     1      10.309  43.399   7.337  1.00  0.00    -0.550 OA
ENDBRANCH   7   8
ENDBRANCH   6   7
ENDBRANCH   5   6
ENDBRANCH   4   5
ENDBRANCH   3   4
ENDBRANCH   2   3
ENDBRANCH   1   2
BRANCH   1  11
ATOM     11  C   UNL     1       3.970  41.602  12.786  1.00  0.00     0.000 C 
BRANCH  11  12
ATOM     12  C   UNL     1       4.767  40.663  13.706  1.00  0.00     0.000 C 
BRANCH  12  13
ATOM     13  C   UNL     1       3.872  39.918  14.713  1.00  0.00     0.000 C 
BRANCH  13  14
ATOM     14  C   UNL     1       4.670  39.342  15.893  1.00  0.00     0.000 C 
BRANCH  14  15
ATOM     15  C   UNL     1       6.167  39.186  15.572  1.00  0.00     0.000 C 
BRANCH  15  16
ATOM     16  C   UNL     1       6.962  40.484  15.799  1.00  0.00     0.006 C 
BRANCH  16  17
ATOM     17  C   UNL     1       8.405  40.436  15.271  1.00  0.00     0.053 C 
BRANCH  17  18
ATOM     18  C   UNL     1       8.910  39.031  15.144  1.00  0.00     0.041 C 
ATOM     19  O   UNL     1       8.281  38.081  15.680  1.00  0.00    -0.550 OA
ATOM     20  O   UNL     1      10.090  38.776  14.460  1.00  0.00    -0.550 OA
ENDBRANCH  17  18
ENDBRANCH  16  17
ENDBRANCH  15  16
ENDBRANCH  14  15
ENDBRANCH  13  14
ENDBRANCH  12  13
ENDBRANCH  11  12
ENDBRANCH   1  11
TORSDOF 15
ENDMDL
MODEL 5
REMARK VINA RESULT:    10.929      1.332      8.112
REMARK INTER + INTRA:          20.123
REMARK INTER:                  19.883
REMARK INTRA:                   0.240
REMARK UNBOUND:                -0.389
REMARK SMILES O=C([O-])CCCCCCCCCCCCCCC(=O)[O-]
REMARK SMILES IDX 10 1 9 2 8 3 7 4 6 5 5 6 4 7 2 8 1 9 3 10 11 11 12 12 13 13
REMARK SMILES IDX 14 14 15 15 16 16 17 17 18 18 19 19 20 20
REMARK H PARENT
REMARK Flexibility Score: inf
ROOT
ATOM      1  C   UNL     1       4.935  40.949  13.395  1.00  0.00     0.000 C 
ENDROOT
BRANCH   1   2
ATOM      2  C   UNL     1       3.879  40.521  14.426  1.00  0.00     0.000 C 
BRANCH   2   3
ATOM      3  C   UNL     1       4.347  39.347  15.303  1.00  0.00     0.000 C 
BRANCH   3   4
ATOM      4  C   UNL     1       5.879  39.211  15.343  1.00  0.00     0.000 C 
BRANCH   4   5
ATOM      5  C   UNL     1       6.616  40.558  15.509  1.00  0.00     0.000 C 
BRANCH   5   6
ATOM      6  C   UNL     1       8.133  40.464  15.236  1.00  0.00     0.006 C 
BRANCH   6   7
ATOM      7  C   UNL     1       8.818  39.312  15.990  1.00  0.00     0.053 C 
BRANCH   7   8
ATOM      8  C   UNL     1      10.102  38.897  15.343  1.00  0.00     0.041 C 
ATOM      9  O   UNL     1      10.222  38.941  14.090  1.00  0.00    -0.550 OA
ATOM     10  O   UNL     1      11.180  38.504  16.125  1.00  0.00    -0.550 OA
ENDBRANCH   7   8
ENDBRANCH   6   7
ENDBRANCH   5   6
ENDBRANCH   4   5
ENDBRANCH   3   4
ENDBRANCH   2   3
ENDBRANCH   1   2
BRANCH   1  11
ATOM     11  C   UNL     1       4.318  41.628  12.159  1.00  0.00     0.000 C 
BRANCH  11  12
ATOM     12  C   UNL     1       5.316  41.751  10.997  1.00  0.00     0.000 C 
BRANCH  12  13
ATOM     13  C   UNL     1       5.268  43.132  10.318  1.00  0.00     0.000 C 
BRANCH  13  14
ATOM     14  C   UNL     1       4.245  43.189   9.173  1.00  0.00     0.000 C 
BRANCH  14  15
ATOM     15  C   UNL     1       4.913  43.274   7.789  1.00  0.00     0.000 C 
BRANCH  15  16
ATOM     16  C   UNL     1       6.244  42.505   7.723  1.00  0.00     0.006 C 
BRANCH  16  17
ATOM     17  C   UNL     1       7.138  42.896   6.535  1.00  0.00     0.053 C 
BRANCH  17  18
ATOM     18  C   UNL     1       8.539  42.393   6.699  1.00  0.00     0.041 C 
ATOM     19  O   UNL     1       8.778  41.157   6.662  1.00  0.00    -0.550 OA
ATOM     20  O   UNL     1       9.578  43.287   6.921  1.00  0.00    -0.550 OA
ENDBRANCH  17  18
ENDBRANCH  16  17
ENDBRANCH  15  16
ENDBRANCH  14  15
ENDBRANCH  13  14
ENDBRANCH  12  13
ENDBRANCH  11  12
ENDBRANCH   1  11
TORSDOF 15
ENDMDL
MODEL 6
REMARK VINA RESULT:    11.035      2.262      3.156
REMARK INTER + INTRA:          20.323
REMARK INTER:                  20.521
REMARK INTRA:                  -0.198
REMARK UNBOUND:                -0.389
REMARK SMILES O=C([O-])CCCCCCCCCCCCCCC(=O)[O-]
REMARK SMILES IDX 10 1 9 2 8 3 7 4 6 5 5 6 4 7 2 8 1 9 3 10 11 11 12 12 13 13
REMARK SMILES IDX 14 14 15 15 16 16 17 17 18 18 19 19 20 20
REMARK H PARENT
REMARK Flexibility Score: inf
ROOT
ATOM      1  C   UNL     1       6.835  42.011  10.989  1.00  0.00     0.000 C 
ENDROOT
BRANCH   1   2
ATOM      2  C   UNL     1       5.711  42.365  10.002  1.00  0.00     0.000 C 
BRANCH   2   3
ATOM      3  C   UNL     1       6.235  42.656   8.585  1.00  0.00     0.000 C 
BRANCH   3   4
ATOM      4  C   UNL     1       7.719  42.287   8.414  1.00  0.00     0.000 C 
BRANCH   4   5
ATOM      5  C   UNL     1       8.033  41.592   7.071  1.00  0.00     0.000 C 
BRANCH   5   6
ATOM      6  C   UNL     1       8.556  42.561   5.988  1.00  0.00     0.006 C 
BRANCH   6   7
ATOM      7  C   UNL     1       9.726  41.989   5.170  1.00  0.00     0.053 C 
BRANCH   7   8
ATOM      8  C   UNL     1       9.314  40.812   4.342  1.00  0.00     0.041 C 
ATOM      9  O   UNL     1       8.467  39.993   4.783  1.00  0.00    -0.550 OA
ATOM     10  O   UNL     1       9.835  40.645   3.065  1.00  0.00    -0.550 OA
ENDBRANCH   7   8
ENDBRANCH   6   7
ENDBRANCH   5   6
ENDBRANCH   4   5
ENDBRANCH   3   4
ENDBRANCH   2   3
ENDBRANCH   1   2
BRANCH   1  11
ATOM     11  C   UNL     1       6.334  41.188  12.189  1.00  0.00     0.000 C 
BRANCH  11  12
ATOM     12  C   UNL     1       7.482  40.545  12.982  1.00  0.00     0.000 C 
BRANCH  12  13
ATOM     13  C   UNL     1       7.464  40.932  14.472  1.00  0.00     0.000 C 
BRANCH  13  14
ATOM     14  C   UNL     1       8.236  39.933  15.348  1.00  0.00     0.000 C 
BRANCH  14  15
ATOM     15  C   UNL     1       7.485  38.600  15.522  1.00  0.00     0.000 C 
BRANCH  15  16
ATOM     16  C   UNL     1       6.066  38.787  16.087  1.00  0.00     0.006 C 
BRANCH  16  17
ATOM     17  C   UNL     1       5.006  37.883  15.437  1.00  0.00     0.053 C 
BRANCH  17  18
ATOM     18  C   UNL     1       3.656  38.531  15.412  1.00  0.00     0.041 C 
ATOM     19  O   UNL     1       3.483  39.659  15.943  1.00  0.00    -0.550 OA
ATOM     20  O   UNL     1       2.581  37.875  14.827  1.00  0.00    -0.550 OA
ENDBRANCH  17  18
ENDBRANCH  16  17
ENDBRANCH  15  16
ENDBRANCH  14  15
ENDBRANCH  13  14
ENDBRANCH  12  13
ENDBRANCH  11  12
ENDBRANCH   1  11
TORSDOF 15
ENDMDL
MODEL 7
REMARK VINA RESULT:    11.379      1.173      2.465
REMARK INTER + INTRA:          20.968
REMARK INTER:                  21.507
REMARK INTRA:                  -0.540
REMARK UNBOUND:                -0.389
REMARK SMILES O=C([O-])CCCCCCCCCCCCCCC(=O)[O-]
REMARK SMILES IDX 10 1 9 2 8 3 7 4 6 5 5 6 4 7 2 8 1 9 3 10 11 11 12 12 13 13
REMARK SMILES IDX 14 14 15 15 16 16 17 17 18 18 19 19 20 20
REMARK H PARENT
REMARK Flexibility Score: inf
ROOT
ATOM      1  C   UNL     1       4.591  43.159   8.908  1.00  0.00     0.000 C 
ENDROOT
BRANCH   1   2
ATOM      2  C   UNL     1       6.029  42.659   8.699  1.00  0.00     0.000 C 
BRANCH   2   3
ATOM      3  C   UNL     1       6.548  42.922   7.275  1.00  0.00     0.000 C 
BRANCH   3   4
ATOM      4  C   UNL     1       7.664  41.948   6.861  1.00  0.00     0.000 C 
BRANCH   4   5
ATOM      5  C   UNL     1       8.970  42.651   6.430  1.00  0.00     0.000 C 
BRANCH   5   6
ATOM      6  C   UNL     1       9.900  41.751   5.587  1.00  0.00     0.006 C 
BRANCH   6   7
ATOM      7  C   UNL     1       9.140  40.768   4.681  1.00  0.00     0.053 C 
BRANCH   7   8
ATOM      8  C   UNL     1       9.929  40.396   3.465  1.00  0.00     0.041 C 
ATOM      9  O   UNL     1      10.726  39.422   3.501  1.00  0.00    -0.550 OA
ATOM     10  O   UNL     1       9.752  41.097   2.279  1.00  0.00    -0.550 OA
ENDBRANCH   7   8
ENDBRANCH   6   7
ENDBRANCH   5   6
ENDBRANCH   4   5
ENDBRANCH   3   4
ENDBRANCH   2   3
ENDBRANCH   1   2
BRANCH   1  11
ATOM     11  C   UNL     1       4.001  42.723  10.261  1.00  0.00     0.000 C 
BRANCH  11  12
ATOM     12  C   UNL     1       5.007  41.934  11.114  1.00  0.00     0.000 C 
BRANCH  12  13
ATOM     13  C   UNL     1       4.433  41.527  12.483  1.00  0.00     0.000 C 
BRANCH  13  14
ATOM     14  C   UNL     1       5.504  40.949  13.421  1.00  0.00     0.000 C 
BRANCH  14  15
ATOM     15  C   UNL     1       4.896  40.243  14.646  1.00  0.00     0.000 C 
BRANCH  15  16
ATOM     16  C   UNL     1       5.919  40.025  15.776  1.00  0.00     0.006 C 
BRANCH  16  17
ATOM     17  C   UNL     1       7.058  39.059  15.413  1.00  0.00     0.053 C 
BRANCH  17  18
ATOM     18  C   UNL     1       8.373  39.767  15.284  1.00  0.00     0.041 C 
ATOM     19  O   UNL     1       8.431  41.020  15.387  1.00  0.00    -0.550 OA
ATOM     20  O   UNL     1       9.529  39.044  15.021  1.00  0.00    -0.550 OA
ENDBRANCH  17  18
ENDBRANCH  16  17
ENDBRANCH  15  16
ENDBRANCH  14  15
ENDBRANCH  13  14
ENDBRANCH  12  13
ENDBRANCH  11  12
ENDBRANCH   1  11
TORSDOF 15
ENDMDL
MODEL 8
REMARK VINA RESULT:    12.685      1.466      1.993
REMARK INTER + INTRA:          23.420
REMARK INTER:                  23.859
REMARK INTRA:                  -0.439
REMARK UNBOUND:                -0.389
REMARK SMILES O=C([O-])CCCCCCCCCCCCCCC(=O)[O-]
REMARK SMILES IDX 10 1 9 2 8 3 7 4 6 5 5 6 4 7 2 8 1 9 3 10 11 11 12 12 13 13
REMARK SMILES IDX 14 14 15 15 16 16 17 17 18 18 19 19 20 20
REMARK H PARENT
REMARK Flexibility Score: inf
ROOT
ATOM      1  C   UNL     1       6.592  42.021  10.472  1.00  0.00     0.000 C 
ENDROOT
BRANCH   1   2
ATOM      2  C   UNL     1       5.374  42.658   9.786  1.00  0.00     0.000 C 
BRANCH   2   3
ATOM      3  C   UNL     1       5.657  43.060   8.328  1.00  0.00     0.000 C 
BRANCH   3   4
ATOM      4  C   UNL     1       6.925  42.395   7.765  1.00  0.00     0.000 C 
BRANCH   4   5
ATOM      5  C   UNL     1       7.344  42.935   6.380  1.00  0.00     0.000 C 
BRANCH   5   6
ATOM      6  C   UNL     1       8.865  42.852   6.125  1.00  0.00     0.006 C 
BRANCH   6   7
ATOM      7  C   UNL     1       9.388  41.411   6.014  1.00  0.00     0.053 C 
BRANCH   7   8
ATOM      8  C   UNL     1       9.003  40.768   4.719  1.00  0.00     0.041 C 
ATOM      9  O   UNL     1       9.724  40.920   3.698  1.00  0.00    -0.550 OA
ATOM     10  O   UNL     1       7.870  39.966   4.649  1.00  0.00    -0.550 OA
ENDBRANCH   7   8
ENDBRANCH   6   7
ENDBRANCH   5   6
ENDBRANCH   4   5
ENDBRANCH   3   4
ENDBRANCH   2   3
ENDBRANCH   1   2
BRANCH   1  11
ATOM     11  C   UNL     1       6.277  41.516  11.892  1.00  0.00     0.000 C 
BRANCH  11  12
ATOM     12  C   UNL     1       7.429  40.696  12.494  1.00  0.00     0.000 C 
BRANCH  12  13
ATOM     13  C   UNL     1       7.399  40.671  14.032  1.00  0.00     0.000 C 
BRANCH  13  14
ATOM     14  C   UNL     1       6.078  40.113  14.585  1.00  0.00     0.000 C 
BRANCH  14  15
ATOM     15  C   UNL     1       6.288  38.877  15.478  1.00  0.00     0.000 C 
BRANCH  15  16
ATOM     16  C   UNL     1       7.638  38.183  15.224  1.00  0.00     0.006 C 
BRANCH  16  17
ATOM     17  C   UNL     1       8.779  38.682  16.125  1.00  0.00     0.053 C 
BRANCH  17  18
ATOM     18  C   UNL     1      10.110  38.596  15.443  1.00  0.00     0.041 C 
ATOM     19  O   UNL     1      11.132  38.241  16.087  1.00  0.00    -0.550 OA
ATOM     20  O   UNL     1      10.228  38.936  14.101  1.00  0.00    -0.550 OA
ENDBRANCH  17  18
ENDBRANCH  16  17
ENDBRANCH  15  16
ENDBRANCH  14  15
ENDBRANCH  13  14
ENDBRANCH  12  13
ENDBRANCH  11  12
ENDBRANCH   1  11
TORSDOF 15
ENDMDL
