MODEL 1
REMARK VINA RESULT:    -3.166      0.000      0.000
REMARK INTER + INTRA:          -3.548
REMARK INTER:                  -3.537
REMARK INTRA:                  -0.011
REMARK UNBOUND:                -0.011
REMARK SMILES CCCC(=O)[O-]
REMARK SMILES IDX 3 1 4 2 5 3 6 4 2 5 1 6
REMARK H PARENT
REMARK Flexibility Score: inf
ROOT
ATOM      1  C   UNL     1      38.832  19.937   5.888  1.00  0.00     0.052 C 
ENDROOT
BRANCH   1   2
ATOM      2  C   UNL     1      39.278  19.361   7.197  1.00  0.00     0.041 C 
ATOM      3  O   UNL     1      38.580  18.487   7.775  1.00  0.00    -0.550 OA
ATOM      4  O   UNL     1      40.481  19.766   7.761  1.00  0.00    -0.550 OA
ENDBRANCH   1   2
BRANCH   1   5
ATOM      5  C   UNL     1      37.309  19.855   5.723  1.00  0.00     0.003 C 
ATOM      6  C   UNL     1      36.860  20.180   4.298  1.00  0.00     0.004 C 
ENDBRANCH   1   5
TORSDOF 2
ENDMDL
MODEL 2
REMARK VINA RESULT:    -3.164      2.330      3.038
REMARK INTER + INTRA:          -3.545
REMARK INTER:                  -3.505
REMARK INTRA:                  -0.041
REMARK UNBOUND:                -0.011
REMARK SMILES CCCC(=O)[O-]
REMARK SMILES IDX 3 1 4 2 5 3 6 4 2 5 1 6
REMARK H PARENT
REMARK Flexibility Score: inf
ROOT
ATOM      1  C   UNL     1      38.580  19.092   6.935  1.00  0.00     0.052 C 
ENDROOT
BRANCH   1   2
ATOM      2  C   UNL     1      37.525  19.871   7.659  1.00  0.00     0.041 C 
ATOM      3  O   UNL     1      36.684  19.277   8.383  1.00  0.00    -0.550 OA
ATOM      4  O   UNL     1      37.491  21.257   7.558  1.00  0.00    -0.550 OA
ENDBRANCH   1   2
BRANCH   1   5
ATOM      5  C   UNL     1      39.787  19.969   6.578  1.00  0.00     0.003 C 
ATOM      6  C   UNL     1      40.814  20.034   7.708  1.00  0.00     0.004 C 
ENDBRANCH   1   5
TORSDOF 2
ENDMDL
MODEL 3
REMARK VINA RESULT:    -3.151      1.773      2.524
REMARK INTER + INTRA:          -3.531
REMARK INTER:                  -3.489
REMARK INTRA:                  -0.042
REMARK UNBOUND:                -0.011
REMARK SMILES CCCC(=O)[O-]
REMARK SMILES IDX 3 1 4 2 5 3 6 4 2 5 1 6
REMARK H PARENT
REMARK Flexibility Score: inf
ROOT
ATOM      1  C   UNL     1      37.477  20.072   6.210  1.00  0.00     0.052 C 
ENDROOT
BRANCH   1   2
ATOM      2  C   UNL     1      37.733  19.353   7.499  1.00  0.00     0.041 C 
ATOM      3  O   UNL     1      38.877  18.893   7.751  1.00  0.00    -0.550 OA
ATOM      4  O   UNL     1      36.714  19.219   8.434  1.00  0.00    -0.550 OA
ENDBRANCH   1   2
BRANCH   1   5
ATOM      5  C   UNL     1      38.188  21.430   6.167  1.00  0.00     0.003 C 
ATOM      6  C   UNL     1      37.902  22.275   7.409  1.00  0.00     0.004 C 
ENDBRANCH   1   5
TORSDOF 2
ENDMDL
MODEL 4
REMARK VINA RESULT:    -3.098      2.611      3.269
REMARK INTER + INTRA:          -3.471
REMARK INTER:                  -3.422
REMARK INTRA:                  -0.050
REMARK UNBOUND:                -0.011
REMARK SMILES CCCC(=O)[O-]
REMARK SMILES IDX 3 1 4 2 5 3 6 4 2 5 1 6
REMARK H PARENT
REMARK Flexibility Score: inf
ROOT
ATOM      1  C   UNL     1      37.611  19.826   7.544  1.00  0.00     0.052 C 
ENDROOT
BRANCH   1   2
ATOM      2  C   UNL     1      37.705  21.119   6.792  1.00  0.00     0.041 C 
ATOM      3  O   UNL     1      37.719  21.120   5.533  1.00  0.00    -0.550 OA
ATOM      4  O   UNL     1      37.746  22.323   7.483  1.00  0.00    -0.550 OA
ENDBRANCH   1   2
BRANCH   1   5
ATOM      5  C   UNL     1      38.849  18.949   7.320  1.00  0.00     0.003 C 
ATOM      6  C   UNL     1      40.153  19.715   7.546  1.00  0.00     0.004 C 
ENDBRANCH   1   5
TORSDOF 2
ENDMDL
MODEL 5
REMARK VINA RESULT:    -3.036     12.734     13.258
REMARK INTER + INTRA:          -3.402
REMARK INTER:                  -3.418
REMARK INTRA:                   0.016
REMARK UNBOUND:                -0.011
REMARK SMILES CCCC(=O)[O-]
REMARK SMILES IDX 3 1 4 2 5 3 6 4 2 5 1 6
REMARK H PARENT
REMARK Flexibility Score: inf
ROOT
ATOM      1  C   UNL     1      30.008  18.313  16.740  1.00  0.00     0.052 C 
ENDROOT
BRANCH   1   2
ATOM      2  C   UNL     1      29.865  19.549  15.905  1.00  0.00     0.041 C 
ATOM      3  O   UNL     1      29.049  20.447  16.238  1.00  0.00    -0.550 OA
ATOM      4  O   UNL     1      30.658  19.721  14.777  1.00  0.00    -0.550 OA
ENDBRANCH   1   2
BRANCH   1   5
ATOM      5  C   UNL     1      28.911  17.287  16.426  1.00  0.00     0.003 C 
ATOM      6  C   UNL     1      28.795  17.000  14.929  1.00  0.00     0.004 C 
ENDBRANCH   1   5
TORSDOF 2
ENDMDL
MODEL 6
REMARK VINA RESULT:    -2.964      1.315      1.605
REMARK INTER + INTRA:          -3.322
REMARK INTER:                  -3.288
REMARK INTRA:                  -0.034
REMARK UNBOUND:                -0.011
REMARK SMILES CCCC(=O)[O-]
REMARK SMILES IDX 3 1 4 2 5 3 6 4 2 5 1 6
REMARK H PARENT
REMARK Flexibility Score: inf
ROOT
ATOM      1  C   UNL     1      38.776  19.222   6.841  1.00  0.00     0.052 C 
ENDROOT
BRANCH   1   2
ATOM      2  C   UNL     1      39.775  20.237   7.307  1.00  0.00     0.041 C 
ATOM      3  O   UNL     1      40.888  19.867   7.765  1.00  0.00    -0.550 OA
ATOM      4  O   UNL     1      39.488  21.592   7.204  1.00  0.00    -0.550 OA
ENDBRANCH   1   2
BRANCH   1   5
ATOM      5  C   UNL     1      37.446  19.875   6.445  1.00  0.00     0.003 C 
ATOM      6  C   UNL     1      37.293  20.012   4.931  1.00  0.00     0.004 C 
ENDBRANCH   1   5
TORSDOF 2
ENDMDL
MODEL 7
REMARK VINA RESULT:    -2.863      2.059      2.371
REMARK INTER + INTRA:          -3.209
REMARK INTER:                  -3.157
REMARK INTRA:                  -0.052
REMARK UNBOUND:                -0.011
REMARK SMILES CCCC(=O)[O-]
REMARK SMILES IDX 3 1 4 2 5 3 6 4 2 5 1 6
REMARK H PARENT
REMARK Flexibility Score: inf
ROOT
ATOM      1  C   UNL     1      38.779  21.061   5.877  1.00  0.00     0.052 C 
ENDROOT
BRANCH   1   2
ATOM      2  C   UNL     1      37.968  21.273   7.118  1.00  0.00     0.041 C 
ATOM      3  O   UNL     1      37.716  22.440   7.519  1.00  0.00    -0.550 OA
ATOM      4  O   UNL     1      37.463  20.182   7.813  1.00  0.00    -0.550 OA
ENDBRANCH   1   2
BRANCH   1   5
ATOM      5  C   UNL     1      38.219  19.918   5.021  1.00  0.00     0.003 C 
ATOM      6  C   UNL     1      36.894  20.286   4.355  1.00  0.00     0.004 C 
ENDBRANCH   1   5
TORSDOF 2
ENDMDL
MODEL 8
REMARK VINA RESULT:    -2.781      1.948      2.591
REMARK INTER + INTRA:          -3.118
REMARK INTER:                  -3.077
REMARK INTRA:                  -0.041
REMARK UNBOUND:                -0.011
REMARK SMILES CCCC(=O)[O-]
REMARK SMILES IDX 3 1 4 2 5 3 6 4 2 5 1 6
REMARK H PARENT
REMARK Flexibility Score: inf
ROOT
ATOM      1  C   UNL     1      38.940  19.647   6.190  1.00  0.00     0.052 C 
ENDROOT
BRANCH   1   2
ATOM      2  C   UNL     1      39.900  20.765   6.461  1.00  0.00     0.041 C 
ATOM      3  O   UNL     1      40.020  21.710   5.639  1.00  0.00    -0.550 OA
ATOM      4  O   UNL     1      40.639  20.777   7.638  1.00  0.00    -0.550 OA
ENDBRANCH   1   2
BRANCH   1   5
ATOM      5  C   UNL     1      38.448  18.996   7.488  1.00  0.00     0.003 C 
ATOM      6  C   UNL     1      37.128  19.592   7.975  1.00  0.00     0.004 C 
ENDBRANCH   1   5
TORSDOF 2
ENDMDL
MODEL 9
REMARK VINA RESULT:    -2.767      2.956      3.380
REMARK INTER + INTRA:          -3.101
REMARK INTER:                  -3.030
REMARK INTRA:                  -0.071
REMARK UNBOUND:                -0.011
REMARK SMILES CCCC(=O)[O-]
REMARK SMILES IDX 3 1 4 2 5 3 6 4 2 5 1 6
REMARK H PARENT
REMARK Flexibility Score: inf
ROOT
ATOM      1  C   UNL     1      38.320  19.907   5.854  1.00  0.00     0.052 C 
ENDROOT
BRANCH   1   2
ATOM      2  C   UNL     1      37.511  20.408   4.697  1.00  0.00     0.041 C 
ATOM      3  O   UNL     1      36.297  20.093   4.589  1.00  0.00    -0.550 OA
ATOM      4  O   UNL     1      38.091  21.248   3.755  1.00  0.00    -0.550 OA
ENDBRANCH   1   2
BRANCH   1   5
ATOM      5  C   UNL     1      37.741  20.373   7.195  1.00  0.00     0.003 C 
ATOM      6  C   UNL     1      37.825  21.889   7.370  1.00  0.00     0.004 C 
ENDBRANCH   1   5
TORSDOF 2
ENDMDL
