MODEL 1
REMARK VINA RESULT:    -1.900      0.000      0.000
REMARK INTER + INTRA:          -1.900
REMARK INTER:                  -1.900
REMARK INTRA:                   0.000
REMARK UNBOUND:                 0.000
REMARK SMILES CC(=O)[O-]
REMARK SMILES IDX 1 1 2 2 3 3 4 4
REMARK H PARENT
REMARK Flexibility Score: inf
ROOT
ATOM      1  C   UNL     1     -35.031  18.408  17.971  1.00  0.00     0.063 C 
ATOM      2  C   UNL     1     -35.784  17.253  17.401  1.00  0.00     0.038 C 
ATOM      3  O   UNL     1     -35.224  16.477  16.583  1.00  0.00    -0.550 OA
ATOM      4  O   UNL     1     -37.086  17.001  17.811  1.00  0.00    -0.550 OA
ENDROOT
TORSDOF 0
ENDMDL
MODEL 2
REMARK VINA RESULT:    -1.862      1.418      1.770
REMARK INTER + INTRA:          -1.862
REMARK INTER:                  -1.862
REMARK INTRA:                   0.000
REMARK UNBOUND:                 0.000
REMARK SMILES CC(=O)[O-]
REMARK SMILES IDX 1 1 2 2 3 3 4 4
REMARK H PARENT
REMARK Flexibility Score: inf
ROOT
ATOM      1  C   UNL     1     -37.055  16.921  17.770  1.00  0.00     0.063 C 
ATOM      2  C   UNL     1     -35.653  17.276  17.404  1.00  0.00     0.038 C 
ATOM      3  O   UNL     1     -35.051  16.627  16.509  1.00  0.00    -0.550 OA
ATOM      4  O   UNL     1     -35.027  18.356  18.012  1.00  0.00    -0.550 OA
ENDROOT
TORSDOF 0
ENDMDL
MODEL 3
REMARK VINA RESULT:    -1.387      1.421      2.092
REMARK INTER + INTRA:          -1.387
REMARK INTER:                  -1.387
REMARK INTRA:                   0.000
REMARK UNBOUND:                 0.000
REMARK SMILES CC(=O)[O-]
REMARK SMILES IDX 1 1 2 2 3 3 4 4
REMARK H PARENT
REMARK Flexibility Score: inf
ROOT
ATOM      1  C   UNL     1     -35.100  16.486  16.515  1.00  0.00     0.063 C 
ATOM      2  C   UNL     1     -35.734  17.423  17.488  1.00  0.00     0.038 C 
ATOM      3  O   UNL     1     -36.931  17.252  17.839  1.00  0.00    -0.550 OA
ATOM      4  O   UNL     1     -34.990  18.452  18.049  1.00  0.00    -0.550 OA
ENDROOT
TORSDOF 0
ENDMDL
MODEL 4
REMARK VINA RESULT:    -0.713      2.607      2.868
REMARK INTER + INTRA:          -0.713
REMARK INTER:                  -0.713
REMARK INTRA:                   0.000
REMARK UNBOUND:                 0.000
REMARK SMILES CC(=O)[O-]
REMARK SMILES IDX 1 1 2 2 3 3 4 4
REMARK H PARENT
REMARK Flexibility Score: inf
ROOT
ATOM      1  C   UNL     1     -36.783  16.923  17.661  1.00  0.00     0.063 C 
ATOM      2  C   UNL     1     -38.186  16.529  17.977  1.00  0.00     0.038 C 
ATOM      3  O   UNL     1     -38.414  15.649  18.848  1.00  0.00    -0.550 OA
ATOM      4  O   UNL     1     -39.246  17.169  17.349  1.00  0.00    -0.550 OA
ENDROOT
TORSDOF 0
ENDMDL
MODEL 5
REMARK VINA RESULT:    -0.494     14.771     15.309
REMARK INTER + INTRA:          -0.494
REMARK INTER:                  -0.494
REMARK INTRA:                   0.000
REMARK UNBOUND:                 0.000
REMARK SMILES CC(=O)[O-]
REMARK SMILES IDX 1 1 2 2 3 3 4 4
REMARK H PARENT
REMARK Flexibility Score: inf
ROOT
ATOM      1  C   UNL     1     -39.001  19.068  31.606  1.00  0.00     0.063 C 
ATOM      2  C   UNL     1     -40.429  18.756  31.901  1.00  0.00     0.038 C 
ATOM      3  O   UNL     1     -41.124  18.125  31.062  1.00  0.00    -0.550 OA
ATOM      4  O   UNL     1     -40.980  19.112  33.125  1.00  0.00    -0.550 OA
ENDROOT
TORSDOF 0
ENDMDL
MODEL 6
REMARK VINA RESULT:    -0.203      2.547      3.367
REMARK INTER + INTRA:          -0.203
REMARK INTER:                  -0.203
REMARK INTRA:                   0.000
REMARK UNBOUND:                 0.000
REMARK SMILES CC(=O)[O-]
REMARK SMILES IDX 1 1 2 2 3 3 4 4
REMARK H PARENT
REMARK Flexibility Score: inf
ROOT
ATOM      1  C   UNL     1     -39.469  17.081  17.336  1.00  0.00     0.063 C 
ATOM      2  C   UNL     1     -38.278  16.516  18.034  1.00  0.00     0.038 C 
ATOM      3  O   UNL     1     -38.421  15.605  18.890  1.00  0.00    -0.550 OA
ATOM      4  O   UNL     1     -37.003  16.956  17.701  1.00  0.00    -0.550 OA
ENDROOT
TORSDOF 0
ENDMDL
MODEL 7
REMARK VINA RESULT:    -0.062      5.059      5.708
REMARK INTER + INTRA:          -0.062
REMARK INTER:                  -0.062
REMARK INTRA:                   0.000
REMARK UNBOUND:                 0.000
REMARK SMILES CC(=O)[O-]
REMARK SMILES IDX 1 1 2 2 3 3 4 4
REMARK H PARENT
REMARK Flexibility Score: inf
ROOT
ATOM      1  C   UNL     1     -32.902  12.451  19.249  1.00  0.00     0.063 C 
ATOM      2  C   UNL     1     -32.741  12.916  17.841  1.00  0.00     0.038 C 
ATOM      3  O   UNL     1     -33.752  13.239  17.164  1.00  0.00    -0.550 OA
ATOM      4  O   UNL     1     -31.473  13.046  17.292  1.00  0.00    -0.550 OA
ENDROOT
TORSDOF 0
ENDMDL
MODEL 8
REMARK VINA RESULT:     0.407      5.562      5.777
REMARK INTER + INTRA:           0.407
REMARK INTER:                   0.407
REMARK INTRA:                   0.000
REMARK UNBOUND:                 0.000
REMARK SMILES CC(=O)[O-]
REMARK SMILES IDX 1 1 2 2 3 3 4 4
REMARK H PARENT
REMARK Flexibility Score: inf
ROOT
ATOM      1  C   UNL     1     -33.463  13.100  17.359  1.00  0.00     0.063 C 
ATOM      2  C   UNL     1     -32.734  12.704  18.598  1.00  0.00     0.038 C 
ATOM      3  O   UNL     1     -31.482  12.817  18.658  1.00  0.00    -0.550 OA
ATOM      4  O   UNL     1     -33.441  12.259  19.708  1.00  0.00    -0.550 OA
ENDROOT
TORSDOF 0
ENDMDL
MODEL 9
REMARK VINA RESULT:     0.587      9.642      9.937
REMARK INTER + INTRA:           0.587
REMARK INTER:                   0.587
REMARK INTRA:                   0.000
REMARK UNBOUND:                 0.000
REMARK SMILES CC(=O)[O-]
REMARK SMILES IDX 1 1 2 2 3 3 4 4
REMARK H PARENT
REMARK Flexibility Score: inf
ROOT
ATOM      1  C   UNL     1     -26.466  16.982  20.819  1.00  0.00     0.063 C 
ATOM      2  C   UNL     1     -27.137  16.154  21.862  1.00  0.00     0.038 C 
ATOM      3  O   UNL     1     -28.019  16.664  22.602  1.00  0.00    -0.550 OA
ATOM      4  O   UNL     1     -26.831  14.805  21.984  1.00  0.00    -0.550 OA
ENDROOT
TORSDOF 0
ENDMDL
