MODEL 1
REMARK VINA RESULT:    -4.568      0.000      0.000
REMARK INTER + INTRA:          -6.635
REMARK INTER:                  -6.171
REMARK INTRA:                  -0.464
REMARK UNBOUND:                -0.464
REMARK SMILES CCCCCCCC(=O)[O-]
REMARK SMILES IDX 5 1 6 2 7 3 8 4 9 5 10 6 4 7 3 8 2 9 1 10
REMARK H PARENT
REMARK Flexibility Score: inf
ROOT
ATOM      1  C   UNL     1      15.763   7.486  50.044  1.00  0.00     0.000 C 
ENDROOT
BRANCH   1   2
ATOM      2  C   UNL     1      17.270   7.803  50.099  1.00  0.00     0.006 C 
BRANCH   2   3
ATOM      3  C   UNL     1      17.610   9.268  49.772  1.00  0.00     0.053 C 
BRANCH   3   4
ATOM      4  C   UNL     1      18.640   9.842  50.697  1.00  0.00     0.041 C 
ATOM      5  O   UNL     1      18.579   9.621  51.935  1.00  0.00    -0.550 OA
ATOM      6  O   UNL     1      19.652  10.651  50.193  1.00  0.00    -0.550 OA
ENDBRANCH   3   4
ENDBRANCH   2   3
ENDBRANCH   1   2
BRANCH   1   7
ATOM      7  C   UNL     1      15.403   6.464  48.952  1.00  0.00     0.000 C 
BRANCH   7   8
ATOM      8  C   UNL     1      14.395   7.019  47.933  1.00  0.00    -0.000 C 
BRANCH   8   9
ATOM      9  C   UNL     1      14.950   8.214  47.147  1.00  0.00    -0.003 C 
ATOM     10  C   UNL     1      16.182   7.816  46.338  1.00  0.00     0.004 C 
ENDBRANCH   8   9
ENDBRANCH   7   8
ENDBRANCH   1   7
TORSDOF 6
ENDMDL
MODEL 2
REMARK VINA RESULT:    -4.564      3.231      5.382
REMARK INTER + INTRA:          -6.629
REMARK INTER:                  -6.335
REMARK INTRA:                  -0.294
REMARK UNBOUND:                -0.464
REMARK SMILES CCCCCCCC(=O)[O-]
REMARK SMILES IDX 5 1 6 2 7 3 8 4 9 5 10 6 4 7 3 8 2 9 1 10
REMARK H PARENT
REMARK Flexibility Score: inf
ROOT
ATOM      1  C   UNL     1      18.272   8.217  49.650  1.00  0.00     0.000 C 
ENDROOT
BRANCH   1   2
ATOM      2  C   UNL     1      17.212   7.707  48.655  1.00  0.00     0.006 C 
BRANCH   2   3
ATOM      3  C   UNL     1      15.995   7.047  49.325  1.00  0.00     0.053 C 
BRANCH   3   4
ATOM      4  C   UNL     1      14.815   6.943  48.406  1.00  0.00     0.041 C 
ATOM      5  O   UNL     1      13.852   6.183  48.690  1.00  0.00    -0.550 OA
ATOM      6  O   UNL     1      14.795   7.663  47.218  1.00  0.00    -0.550 OA
ENDBRANCH   3   4
ENDBRANCH   2   3
ENDBRANCH   1   2
BRANCH   1   7
ATOM      7  C   UNL     1      18.096   9.702  50.009  1.00  0.00     0.000 C 
BRANCH   7   8
ATOM      8  C   UNL     1      18.355   9.984  51.498  1.00  0.00    -0.000 C 
BRANCH   8   9
ATOM      9  C   UNL     1      18.456   8.699  52.332  1.00  0.00    -0.003 C 
ATOM     10  C   UNL     1      19.406   8.884  53.512  1.00  0.00     0.004 C 
ENDBRANCH   8   9
ENDBRANCH   7   8
ENDBRANCH   1   7
TORSDOF 6
ENDMDL
MODEL 3
REMARK VINA RESULT:    -4.555      1.156      1.243
REMARK INTER + INTRA:          -6.617
REMARK INTER:                  -6.281
REMARK INTRA:                  -0.335
REMARK UNBOUND:                -0.464
REMARK SMILES CCCCCCCC(=O)[O-]
REMARK SMILES IDX 5 1 6 2 7 3 8 4 9 5 10 6 4 7 3 8 2 9 1 10
REMARK H PARENT
REMARK Flexibility Score: inf
ROOT
ATOM      1  C   UNL     1      16.244   7.504  50.079  1.00  0.00     0.000 C 
ENDROOT
BRANCH   1   2
ATOM      2  C   UNL     1      17.399   8.485  49.802  1.00  0.00     0.006 C 
BRANCH   2   3
ATOM      3  C   UNL     1      17.735   9.402  50.991  1.00  0.00     0.053 C 
BRANCH   3   4
ATOM      4  C   UNL     1      18.843   8.862  51.843  1.00  0.00     0.041 C 
ATOM      5  O   UNL     1      19.020   9.299  53.010  1.00  0.00    -0.550 OA
ATOM      6  O   UNL     1      19.703   7.897  51.333  1.00  0.00    -0.550 OA
ENDBRANCH   3   4
ENDBRANCH   2   3
ENDBRANCH   1   2
BRANCH   1   7
ATOM      7  C   UNL     1      15.925   6.597  48.878  1.00  0.00     0.000 C 
BRANCH   7   8
ATOM      8  C   UNL     1      14.603   6.974  48.189  1.00  0.00    -0.000 C 
BRANCH   8   9
ATOM      9  C   UNL     1      14.790   8.034  47.095  1.00  0.00    -0.003 C 
ATOM     10  C   UNL     1      16.103   7.825  46.345  1.00  0.00     0.004 C 
ENDBRANCH   8   9
ENDBRANCH   7   8
ENDBRANCH   1   7
TORSDOF 6
ENDMDL
MODEL 4
REMARK VINA RESULT:    -4.544      0.985      1.549
REMARK INTER + INTRA:          -6.602
REMARK INTER:                  -6.294
REMARK INTRA:                  -0.308
REMARK UNBOUND:                -0.464
REMARK SMILES CCCCCCCC(=O)[O-]
REMARK SMILES IDX 5 1 6 2 7 3 8 4 9 5 10 6 4 7 3 8 2 9 1 10
REMARK H PARENT
REMARK Flexibility Score: inf
ROOT
ATOM      1  C   UNL     1      17.009   7.558  49.768  1.00  0.00     0.000 C 
ENDROOT
BRANCH   1   2
ATOM      2  C   UNL     1      17.543   8.998  49.652  1.00  0.00     0.006 C 
BRANCH   2   3
ATOM      3  C   UNL     1      17.797   9.679  51.007  1.00  0.00     0.053 C 
BRANCH   3   4
ATOM      4  C   UNL     1      18.982   9.111  51.727  1.00  0.00     0.041 C 
ATOM      5  O   UNL     1      19.956   8.644  51.081  1.00  0.00    -0.550 OA
ATOM      6  O   UNL     1      18.995   9.067  53.116  1.00  0.00    -0.550 OA
ENDBRANCH   3   4
ENDBRANCH   2   3
ENDBRANCH   1   2
BRANCH   1   7
ATOM      7  C   UNL     1      15.479   7.470  49.634  1.00  0.00     0.000 C 
BRANCH   7   8
ATOM      8  C   UNL     1      15.036   6.931  48.265  1.00  0.00    -0.000 C 
BRANCH   8   9
ATOM      9  C   UNL     1      14.848   8.044  47.225  1.00  0.00    -0.003 C 
ATOM     10  C   UNL     1      15.964   8.017  46.184  1.00  0.00     0.004 C 
ENDBRANCH   8   9
ENDBRANCH   7   8
ENDBRANCH   1   7
TORSDOF 6
ENDMDL
MODEL 5
REMARK VINA RESULT:    -4.443      3.239      5.050
REMARK INTER + INTRA:          -6.465
REMARK INTER:                  -6.114
REMARK INTRA:                  -0.351
REMARK UNBOUND:                -0.464
REMARK SMILES CCCCCCCC(=O)[O-]
REMARK SMILES IDX 5 1 6 2 7 3 8 4 9 5 10 6 4 7 3 8 2 9 1 10
REMARK H PARENT
REMARK Flexibility Score: inf
ROOT
ATOM      1  C   UNL     1      16.834   7.804  50.114  1.00  0.00     0.000 C 
ENDROOT
BRANCH   1   2
ATOM      2  C   UNL     1      16.689   8.392  48.698  1.00  0.00     0.006 C 
BRANCH   2   3
ATOM      3  C   UNL     1      16.155   7.392  47.659  1.00  0.00     0.053 C 
BRANCH   3   4
ATOM      4  C   UNL     1      14.660   7.391  47.572  1.00  0.00     0.041 C 
ATOM      5  O   UNL     1      14.068   8.145  46.755  1.00  0.00    -0.550 OA
ATOM      6  O   UNL     1      13.915   6.579  48.419  1.00  0.00    -0.550 OA
ENDBRANCH   3   4
ENDBRANCH   2   3
ENDBRANCH   1   2
BRANCH   1   7
ATOM      7  C   UNL     1      17.910   8.513  50.954  1.00  0.00     0.000 C 
BRANCH   7   8
ATOM      8  C   UNL     1      18.019  10.011  50.631  1.00  0.00    -0.000 C 
BRANCH   8   9
ATOM      9  C   UNL     1      19.427  10.415  50.170  1.00  0.00    -0.003 C 
ATOM     10  C   UNL     1      20.221   9.198  49.701  1.00  0.00     0.004 C 
ENDBRANCH   8   9
ENDBRANCH   7   8
ENDBRANCH   1   7
TORSDOF 6
ENDMDL
MODEL 6
REMARK VINA RESULT:    -4.384      1.344      1.966
REMARK INTER + INTRA:          -6.386
REMARK INTER:                  -6.240
REMARK INTRA:                  -0.146
REMARK UNBOUND:                -0.464
REMARK SMILES CCCCCCCC(=O)[O-]
REMARK SMILES IDX 5 1 6 2 7 3 8 4 9 5 10 6 4 7 3 8 2 9 1 10
REMARK H PARENT
REMARK Flexibility Score: inf
ROOT
ATOM      1  C   UNL     1      17.219   8.335  50.459  1.00  0.00     0.000 C 
ENDROOT
BRANCH   1   2
ATOM      2  C   UNL     1      17.533   9.838  50.585  1.00  0.00     0.006 C 
BRANCH   2   3
ATOM      3  C   UNL     1      19.024  10.146  50.807  1.00  0.00     0.053 C 
BRANCH   3   4
ATOM      4  C   UNL     1      19.921   9.053  50.312  1.00  0.00     0.041 C 
ATOM      5  O   UNL     1      20.458   8.253  51.123  1.00  0.00    -0.550 OA
ATOM      6  O   UNL     1      20.190   8.937  48.954  1.00  0.00    -0.550 OA
ENDBRANCH   3   4
ENDBRANCH   2   3
ENDBRANCH   1   2
BRANCH   1   7
ATOM      7  C   UNL     1      16.351   8.002  49.233  1.00  0.00     0.000 C 
BRANCH   7   8
ATOM      8  C   UNL     1      15.189   7.055  49.572  1.00  0.00    -0.000 C 
BRANCH   8   9
ATOM      9  C   UNL     1      14.315   6.734  48.352  1.00  0.00    -0.003 C 
ATOM     10  C   UNL     1      14.564   7.728  47.221  1.00  0.00     0.004 C 
ENDBRANCH   8   9
ENDBRANCH   7   8
ENDBRANCH   1   7
TORSDOF 6
ENDMDL
MODEL 7
REMARK VINA RESULT:    -4.186      1.867      2.886
REMARK INTER + INTRA:          -6.119
REMARK INTER:                  -5.689
REMARK INTRA:                  -0.430
REMARK UNBOUND:                -0.464
REMARK SMILES CCCCCCCC(=O)[O-]
REMARK SMILES IDX 5 1 6 2 7 3 8 4 9 5 10 6 4 7 3 8 2 9 1 10
REMARK H PARENT
REMARK Flexibility Score: inf
ROOT
ATOM      1  C   UNL     1      18.028   9.537  49.482  1.00  0.00     0.000 C 
ENDROOT
BRANCH   1   2
ATOM      2  C   UNL     1      17.803   9.778  50.987  1.00  0.00     0.006 C 
BRANCH   2   3
ATOM      3  C   UNL     1      18.076   8.544  51.863  1.00  0.00     0.053 C 
BRANCH   3   4
ATOM      4  C   UNL     1      19.492   8.482  52.351  1.00  0.00     0.041 C 
ATOM      5  O   UNL     1      20.423   8.171  51.563  1.00  0.00    -0.550 OA
ATOM      6  O   UNL     1      19.778   8.739  53.686  1.00  0.00    -0.550 OA
ENDBRANCH   3   4
ENDBRANCH   2   3
ENDBRANCH   1   2
BRANCH   1   7
ATOM      7  C   UNL     1      16.849   8.817  48.805  1.00  0.00     0.000 C 
BRANCH   7   8
ATOM      8  C   UNL     1      17.184   7.366  48.424  1.00  0.00    -0.000 C 
BRANCH   8   9
ATOM      9  C   UNL     1      16.198   6.356  49.026  1.00  0.00    -0.003 C 
ATOM     10  C   UNL     1      14.945   7.055  49.548  1.00  0.00     0.004 C 
ENDBRANCH   8   9
ENDBRANCH   7   8
ENDBRANCH   1   7
TORSDOF 6
ENDMDL
MODEL 8
REMARK VINA RESULT:    -3.853      1.551      2.322
REMARK INTER + INTRA:          -5.669
REMARK INTER:                  -5.366
REMARK INTRA:                  -0.303
REMARK UNBOUND:                -0.464
REMARK SMILES CCCCCCCC(=O)[O-]
REMARK SMILES IDX 5 1 6 2 7 3 8 4 9 5 10 6 4 7 3 8 2 9 1 10
REMARK H PARENT
REMARK Flexibility Score: inf
ROOT
ATOM      1  C   UNL     1      18.187   7.526  49.049  1.00  0.00     0.000 C 
ENDROOT
BRANCH   1   2
ATOM      2  C   UNL     1      19.382   8.451  49.351  1.00  0.00     0.006 C 
BRANCH   2   3
ATOM      3  C   UNL     1      18.977   9.870  49.786  1.00  0.00     0.053 C 
BRANCH   3   4
ATOM      4  C   UNL     1      18.669   9.960  51.249  1.00  0.00     0.041 C 
ATOM      5  O   UNL     1      17.860  10.825  51.678  1.00  0.00    -0.550 OA
ATOM      6  O   UNL     1      19.301   9.108  52.146  1.00  0.00    -0.550 OA
ENDBRANCH   3   4
ENDBRANCH   2   3
ENDBRANCH   1   2
BRANCH   1   7
ATOM      7  C   UNL     1      16.953   8.287  48.534  1.00  0.00     0.000 C 
BRANCH   7   8
ATOM      8  C   UNL     1      15.694   8.001  49.368  1.00  0.00    -0.000 C 
BRANCH   8   9
ATOM      9  C   UNL     1      15.320   6.512  49.381  1.00  0.00    -0.003 C 
ATOM     10  C   UNL     1      14.040   6.260  48.589  1.00  0.00     0.004 C 
ENDBRANCH   8   9
ENDBRANCH   7   8
ENDBRANCH   1   7
TORSDOF 6
ENDMDL
MODEL 9
REMARK VINA RESULT:    -3.728      8.484      9.712
REMARK INTER + INTRA:          -5.500
REMARK INTER:                  -5.149
REMARK INTRA:                  -0.351
REMARK UNBOUND:                -0.464
REMARK SMILES CCCCCCCC(=O)[O-]
REMARK SMILES IDX 5 1 6 2 7 3 8 4 9 5 10 6 4 7 3 8 2 9 1 10
REMARK H PARENT
REMARK Flexibility Score: inf
ROOT
ATOM      1  C   UNL     1      12.896   1.174  47.632  1.00  0.00     0.000 C 
ENDROOT
BRANCH   1   2
ATOM      2  C   UNL     1      13.269   1.515  46.177  1.00  0.00     0.006 C 
BRANCH   2   3
ATOM      3  C   UNL     1      12.307   0.922  45.132  1.00  0.00     0.053 C 
BRANCH   3   4
ATOM      4  C   UNL     1      11.459   1.965  44.471  1.00  0.00     0.041 C 
ATOM      5  O   UNL     1      10.286   2.182  44.874  1.00  0.00    -0.550 OA
ATOM      6  O   UNL     1      11.954   2.677  43.385  1.00  0.00    -0.550 OA
ENDBRANCH   3   4
ENDBRANCH   2   3
ENDBRANCH   1   2
BRANCH   1   7
ATOM      7  C   UNL     1      14.113   0.791  48.491  1.00  0.00     0.000 C 
BRANCH   7   8
ATOM      8  C   UNL     1      15.390   1.535  48.071  1.00  0.00    -0.000 C 
BRANCH   8   9
ATOM      9  C   UNL     1      16.511   0.582  47.632  1.00  0.00    -0.003 C 
ATOM     10  C   UNL     1      16.068  -0.875  47.744  1.00  0.00     0.004 C 
ENDBRANCH   8   9
ENDBRANCH   7   8
ENDBRANCH   1   7
TORSDOF 6
ENDMDL
