MODEL 1
REMARK VINA RESULT:    -2.119      0.000      0.000
REMARK INTER + INTRA:          -5.328
REMARK INTER:                  -3.729
REMARK INTRA:                  -1.600
REMARK UNBOUND:                -1.600
REMARK SMILES CCCCCCCCCCCCCCC(=O)[O-]
REMARK SMILES IDX 9 1 10 2 11 3 12 4 13 5 14 6 15 7 16 8 17 9 8 10 7 11 6 12
REMARK SMILES IDX 5 13 4 14 3 15 2 16 1 17
REMARK H PARENT
REMARK Flexibility Score: inf
ROOT
ATOM      1  C   UNL     1      12.721  30.280  20.554  1.00  0.00     0.000 C 
ENDROOT
BRANCH   1   2
ATOM      2  C   UNL     1      13.977  30.697  21.340  1.00  0.00     0.000 C 
BRANCH   2   3
ATOM      3  C   UNL     1      13.688  31.011  22.816  1.00  0.00     0.000 C 
BRANCH   3   4
ATOM      4  C   UNL     1      14.667  30.311  23.774  1.00  0.00     0.000 C 
BRANCH   4   5
ATOM      5  C   UNL     1      14.291  30.466  25.266  1.00  0.00     0.006 C 
BRANCH   5   6
ATOM      6  C   UNL     1      13.453  29.296  25.803  1.00  0.00     0.053 C 
BRANCH   6   7
ATOM      7  C   UNL     1      13.414  29.282  27.300  1.00  0.00     0.041 C 
ATOM      8  O   UNL     1      14.476  29.128  27.960  1.00  0.00    -0.550 OA
ATOM      9  O   UNL     1      12.210  29.464  27.968  1.00  0.00    -0.550 OA
ENDBRANCH   6   7
ENDBRANCH   5   6
ENDBRANCH   4   5
ENDBRANCH   3   4
ENDBRANCH   2   3
ENDBRANCH   1   2
BRANCH   1  10
ATOM     10  C   UNL     1      12.982  29.633  19.180  1.00  0.00     0.000 C 
BRANCH  10  11
ATOM     11  C   UNL     1      14.476  29.424  18.887  1.00  0.00    -0.000 C 
BRANCH  11  12
ATOM     12  C   UNL     1      14.906  27.952  19.009  1.00  0.00    -0.000 C 
BRANCH  12  13
ATOM     13  C   UNL     1      15.125  27.487  20.464  1.00  0.00    -0.000 C 
BRANCH  13  14
ATOM     14  C   UNL     1      13.936  26.665  20.994  1.00  0.00    -0.000 C 
BRANCH  14  15
ATOM     15  C   UNL     1      13.667  26.906  22.488  1.00  0.00    -0.000 C 
BRANCH  15  16
ATOM     16  C   UNL     1      14.916  26.691  23.356  1.00  0.00    -0.003 C 
ATOM     17  C   UNL     1      14.628  25.727  24.502  1.00  0.00     0.004 C 
ENDBRANCH  15  16
ENDBRANCH  14  15
ENDBRANCH  13  14
ENDBRANCH  12  13
ENDBRANCH  11  12
ENDBRANCH  10  11
ENDBRANCH   1  10
TORSDOF 13
ENDMDL
MODEL 2
REMARK VINA RESULT:    -1.960      4.164      6.266
REMARK INTER + INTRA:          -5.050
REMARK INTER:                  -3.842
REMARK INTRA:                  -1.208
REMARK UNBOUND:                -1.600
REMARK SMILES CCCCCCCCCCCCCCC(=O)[O-]
REMARK SMILES IDX 9 1 10 2 11 3 12 4 13 5 14 6 15 7 16 8 17 9 8 10 7 11 6 12
REMARK SMILES IDX 5 13 4 14 3 15 2 16 1 17
REMARK H PARENT
REMARK Flexibility Score: inf
ROOT
ATOM      1  C   UNL     1      13.497  28.548  21.481  1.00  0.00     0.000 C 
ENDROOT
BRANCH   1   2
ATOM      2  C   UNL     1      13.358  30.081  21.474  1.00  0.00     0.000 C 
BRANCH   2   3
ATOM      3  C   UNL     1      14.600  30.796  20.921  1.00  0.00     0.000 C 
BRANCH   3   4
ATOM      4  C   UNL     1      14.481  31.120  19.422  1.00  0.00     0.000 C 
BRANCH   4   5
ATOM      5  C   UNL     1      13.024  31.125  18.903  1.00  0.00     0.006 C 
BRANCH   5   6
ATOM      6  C   UNL     1      12.687  29.902  18.038  1.00  0.00     0.053 C 
BRANCH   6   7
ATOM      7  C   UNL     1      13.674  29.722  16.924  1.00  0.00     0.041 C 
ATOM      8  O   UNL     1      13.849  30.638  16.078  1.00  0.00    -0.550 OA
ATOM      9  O   UNL     1      14.419  28.552  16.835  1.00  0.00    -0.550 OA
ENDBRANCH   6   7
ENDBRANCH   5   6
ENDBRANCH   4   5
ENDBRANCH   3   4
ENDBRANCH   2   3
ENDBRANCH   1   2
BRANCH   1  10
ATOM     10  C   UNL     1      14.940  28.012  21.531  1.00  0.00     0.000 C 
BRANCH  10  11
ATOM     11  C   UNL     1      15.030  26.568  22.049  1.00  0.00    -0.000 C 
BRANCH  11  12
ATOM     12  C   UNL     1      14.275  26.363  23.374  1.00  0.00    -0.000 C 
BRANCH  12  13
ATOM     13  C   UNL     1      14.951  27.042  24.584  1.00  0.00    -0.000 C 
BRANCH  13  14
ATOM     14  C   UNL     1      13.930  27.744  25.498  1.00  0.00    -0.000 C 
BRANCH  14  15
ATOM     15  C   UNL     1      13.768  29.236  25.170  1.00  0.00    -0.000 C 
BRANCH  15  16
ATOM     16  C   UNL     1      13.684  30.113  26.428  1.00  0.00    -0.003 C 
ATOM     17  C   UNL     1      12.737  29.506  27.458  1.00  0.00     0.004 C 
ENDBRANCH  15  16
ENDBRANCH  14  15
ENDBRANCH  13  14
ENDBRANCH  12  13
ENDBRANCH  11  12
ENDBRANCH  10  11
ENDBRANCH   1  10
TORSDOF 13
ENDMDL
MODEL 3
REMARK VINA RESULT:    -1.799      1.679      4.395
REMARK INTER + INTRA:          -4.766
REMARK INTER:                  -3.691
REMARK INTRA:                  -1.075
REMARK UNBOUND:                -1.600
REMARK SMILES CCCCCCCCCCCCCCC(=O)[O-]
REMARK SMILES IDX 9 1 10 2 11 3 12 4 13 5 14 6 15 7 16 8 17 9 8 10 7 11 6 12
REMARK SMILES IDX 5 13 4 14 3 15 2 16 1 17
REMARK H PARENT
REMARK Flexibility Score: inf
ROOT
ATOM      1  C   UNL     1      13.477  29.504  23.398  1.00  0.00     0.000 C 
ENDROOT
BRANCH   1   2
ATOM      2  C   UNL     1      13.016  28.044  23.240  1.00  0.00     0.000 C 
BRANCH   2   3
ATOM      3  C   UNL     1      14.024  27.030  23.803  1.00  0.00     0.000 C 
BRANCH   3   4
ATOM      4  C   UNL     1      14.002  26.962  25.340  1.00  0.00     0.000 C 
BRANCH   4   5
ATOM      5  C   UNL     1      15.042  27.885  26.016  1.00  0.00     0.006 C 
BRANCH   5   6
ATOM      6  C   UNL     1      14.554  28.470  27.350  1.00  0.00     0.053 C 
BRANCH   6   7
ATOM      7  C   UNL     1      13.658  29.652  27.142  1.00  0.00     0.041 C 
ATOM      8  O   UNL     1      14.089  30.680  26.556  1.00  0.00    -0.550 OA
ATOM      9  O   UNL     1      12.337  29.611  27.574  1.00  0.00    -0.550 OA
ENDBRANCH   6   7
ENDBRANCH   5   6
ENDBRANCH   4   5
ENDBRANCH   3   4
ENDBRANCH   2   3
ENDBRANCH   1   2
BRANCH   1  10
ATOM     10  C   UNL     1      14.782  29.872  22.665  1.00  0.00     0.000 C 
BRANCH  10  11
ATOM     11  C   UNL     1      14.576  30.916  21.556  1.00  0.00    -0.000 C 
BRANCH  11  12
ATOM     12  C   UNL     1      15.125  30.456  20.195  1.00  0.00    -0.000 C 
BRANCH  12  13
ATOM     13  C   UNL     1      14.088  29.711  19.328  1.00  0.00    -0.000 C 
BRANCH  13  14
ATOM     14  C   UNL     1      12.688  30.340  19.432  1.00  0.00    -0.000 C 
BRANCH  14  15
ATOM     15  C   UNL     1      12.078  30.663  18.059  1.00  0.00    -0.000 C 
BRANCH  15  16
ATOM     16  C   UNL     1      12.921  30.120  16.896  1.00  0.00    -0.003 C 
ATOM     17  C   UNL     1      12.984  31.123  15.748  1.00  0.00     0.004 C 
ENDBRANCH  15  16
ENDBRANCH  14  15
ENDBRANCH  13  14
ENDBRANCH  12  13
ENDBRANCH  11  12
ENDBRANCH  10  11
ENDBRANCH   1  10
TORSDOF 13
ENDMDL
MODEL 4
REMARK VINA RESULT:    -1.768      2.134      4.014
REMARK INTER + INTRA:          -4.712
REMARK INTER:                  -3.686
REMARK INTRA:                  -1.025
REMARK UNBOUND:                -1.600
REMARK SMILES CCCCCCCCCCCCCCC(=O)[O-]
REMARK SMILES IDX 9 1 10 2 11 3 12 4 13 5 14 6 15 7 16 8 17 9 8 10 7 11 6 12
REMARK SMILES IDX 5 13 4 14 3 15 2 16 1 17
REMARK H PARENT
REMARK Flexibility Score: inf
ROOT
ATOM      1  C   UNL     1      12.168  29.447  24.157  1.00  0.00     0.000 C 
ENDROOT
BRANCH   1   2
ATOM      2  C   UNL     1      12.529  29.049  25.600  1.00  0.00     0.000 C 
BRANCH   2   3
ATOM      3  C   UNL     1      13.668  29.894  26.191  1.00  0.00     0.000 C 
BRANCH   3   4
ATOM      4  C   UNL     1      15.049  29.241  26.006  1.00  0.00     0.000 C 
BRANCH   4   5
ATOM      5  C   UNL     1      15.063  27.725  26.311  1.00  0.00     0.006 C 
BRANCH   5   6
ATOM      6  C   UNL     1      15.125  26.855  25.047  1.00  0.00     0.053 C 
BRANCH   6   7
ATOM      7  C   UNL     1      14.218  25.666  25.147  1.00  0.00     0.041 C 
ATOM      8  O   UNL     1      12.994  25.778  24.873  1.00  0.00    -0.550 OA
ATOM      9  O   UNL     1      14.730  24.429  25.518  1.00  0.00    -0.550 OA
ENDBRANCH   6   7
ENDBRANCH   5   6
ENDBRANCH   4   5
ENDBRANCH   3   4
ENDBRANCH   2   3
ENDBRANCH   1   2
BRANCH   1  10
ATOM     10  C   UNL     1      13.190  29.035  23.080  1.00  0.00     0.000 C 
BRANCH  10  11
ATOM     11  C   UNL     1      13.582  30.192  22.148  1.00  0.00    -0.000 C 
BRANCH  11  12
ATOM     12  C   UNL     1      12.519  30.477  21.073  1.00  0.00    -0.000 C 
BRANCH  12  13
ATOM     13  C   UNL     1      13.075  30.470  19.633  1.00  0.00    -0.000 C 
BRANCH  13  14
ATOM     14  C   UNL     1      14.561  30.072  19.590  1.00  0.00    -0.000 C 
BRANCH  14  15
ATOM     15  C   UNL     1      14.774  28.625  19.115  1.00  0.00    -0.000 C 
BRANCH  15  16
ATOM     16  C   UNL     1      14.988  27.646  20.278  1.00  0.00    -0.003 C 
ATOM     17  C   UNL     1      15.123  26.214  19.772  1.00  0.00     0.004 C 
ENDBRANCH  15  16
ENDBRANCH  14  15
ENDBRANCH  13  14
ENDBRANCH  12  13
ENDBRANCH  11  12
ENDBRANCH  10  11
ENDBRANCH   1  10
TORSDOF 13
ENDMDL
MODEL 5
REMARK VINA RESULT:    -1.592      2.406      5.007
REMARK INTER + INTRA:          -4.401
REMARK INTER:                  -3.328
REMARK INTRA:                  -1.073
REMARK UNBOUND:                -1.600
REMARK SMILES CCCCCCCCCCCCCCC(=O)[O-]
REMARK SMILES IDX 9 1 10 2 11 3 12 4 13 5 14 6 15 7 16 8 17 9 8 10 7 11 6 12
REMARK SMILES IDX 5 13 4 14 3 15 2 16 1 17
REMARK H PARENT
REMARK Flexibility Score: inf
ROOT
ATOM      1  C   UNL     1      12.347  29.434  24.031  1.00  0.00     0.000 C 
ENDROOT
BRANCH   1   2
ATOM      2  C   UNL     1      12.544  29.247  25.546  1.00  0.00     0.000 C 
BRANCH   2   3
ATOM      3  C   UNL     1      13.832  29.901  26.071  1.00  0.00     0.000 C 
BRANCH   3   4
ATOM      4  C   UNL     1      15.088  29.067  25.768  1.00  0.00     0.000 C 
BRANCH   4   5
ATOM      5  C   UNL     1      14.986  27.599  26.241  1.00  0.00     0.006 C 
BRANCH   5   6
ATOM      6  C   UNL     1      15.125  26.584  25.095  1.00  0.00     0.053 C 
BRANCH   6   7
ATOM      7  C   UNL     1      14.337  25.338  25.360  1.00  0.00     0.041 C 
ATOM      8  O   UNL     1      13.113  25.288  25.069  1.00  0.00    -0.550 OA
ATOM      9  O   UNL     1      14.961  24.222  25.905  1.00  0.00    -0.550 OA
ENDBRANCH   6   7
ENDBRANCH   5   6
ENDBRANCH   4   5
ENDBRANCH   3   4
ENDBRANCH   2   3
ENDBRANCH   1   2
BRANCH   1  10
ATOM     10  C   UNL     1      12.892  28.296  23.146  1.00  0.00     0.000 C 
BRANCH  10  11
ATOM     11  C   UNL     1      13.674  28.805  21.924  1.00  0.00    -0.000 C 
BRANCH  11  12
ATOM     12  C   UNL     1      13.913  30.325  21.961  1.00  0.00    -0.000 C 
BRANCH  12  13
ATOM     13  C   UNL     1      13.676  31.023  20.605  1.00  0.00    -0.000 C 
BRANCH  13  14
ATOM     14  C   UNL     1      14.344  30.268  19.442  1.00  0.00    -0.000 C 
BRANCH  14  15
ATOM     15  C   UNL     1      14.137  30.964  18.087  1.00  0.00    -0.000 C 
BRANCH  15  16
ATOM     16  C   UNL     1      12.768  30.651  17.465  1.00  0.00    -0.003 C 
ATOM     17  C   UNL     1      12.703  31.121  16.016  1.00  0.00     0.004 C 
ENDBRANCH  15  16
ENDBRANCH  14  15
ENDBRANCH  13  14
ENDBRANCH  12  13
ENDBRANCH  11  12
ENDBRANCH  10  11
ENDBRANCH   1  10
TORSDOF 13
ENDMDL
MODEL 6
REMARK VINA RESULT:    -1.336      4.372      6.905
REMARK INTER + INTRA:          -3.951
REMARK INTER:                  -2.960
REMARK INTRA:                  -0.991
REMARK UNBOUND:                -1.600
REMARK SMILES CCCCCCCCCCCCCCC(=O)[O-]
REMARK SMILES IDX 9 1 10 2 11 3 12 4 13 5 14 6 15 7 16 8 17 9 8 10 7 11 6 12
REMARK SMILES IDX 5 13 4 14 3 15 2 16 1 17
REMARK H PARENT
REMARK Flexibility Score: inf
ROOT
ATOM      1  C   UNL     1      12.995  30.324  22.633  1.00  0.00     0.000 C 
ENDROOT
BRANCH   1   2
ATOM      2  C   UNL     1      12.816  30.510  21.116  1.00  0.00     0.000 C 
BRANCH   2   3
ATOM      3  C   UNL     1      14.144  30.485  20.345  1.00  0.00     0.000 C 
BRANCH   3   4
ATOM      4  C   UNL     1      14.431  29.117  19.701  1.00  0.00     0.000 C 
BRANCH   4   5
ATOM      5  C   UNL     1      14.463  29.155  18.155  1.00  0.00     0.006 C 
BRANCH   5   6
ATOM      6  C   UNL     1      14.668  30.568  17.589  1.00  0.00     0.053 C 
BRANCH   6   7
ATOM      7  C   UNL     1      13.660  30.893  16.530  1.00  0.00     0.041 C 
ATOM      8  O   UNL     1      12.441  30.994  16.824  1.00  0.00    -0.550 OA
ATOM      9  O   UNL     1      14.072  31.110  15.220  1.00  0.00    -0.550 OA
ENDBRANCH   6   7
ENDBRANCH   5   6
ENDBRANCH   4   5
ENDBRANCH   3   4
ENDBRANCH   2   3
ENDBRANCH   1   2
BRANCH   1  10
ATOM     10  C   UNL     1      14.392  30.667  23.184  1.00  0.00     0.000 C 
BRANCH  10  11
ATOM     11  C   UNL     1      15.057  29.492  23.918  1.00  0.00    -0.000 C 
BRANCH  11  12
ATOM     12  C   UNL     1      14.051  28.406  24.336  1.00  0.00    -0.000 C 
BRANCH  12  13
ATOM     13  C   UNL     1      14.401  27.716  25.672  1.00  0.00    -0.000 C 
BRANCH  13  14
ATOM     14  C   UNL     1      15.097  28.676  26.652  1.00  0.00    -0.000 C 
BRANCH  14  15
ATOM     15  C   UNL     1      14.149  29.755  27.200  1.00  0.00    -0.000 C 
BRANCH  15  16
ATOM     16  C   UNL     1      13.068  29.178  28.125  1.00  0.00    -0.003 C 
ATOM     17  C   UNL     1      11.707  29.802  27.835  1.00  0.00     0.004 C 
ENDBRANCH  15  16
ENDBRANCH  14  15
ENDBRANCH  13  14
ENDBRANCH  12  13
ENDBRANCH  11  12
ENDBRANCH  10  11
ENDBRANCH   1  10
TORSDOF 13
ENDMDL
MODEL 7
REMARK VINA RESULT:    -1.275     24.448     26.375
REMARK INTER + INTRA:          -3.843
REMARK INTER:                  -3.779
REMARK INTRA:                  -0.064
REMARK UNBOUND:                -1.600
REMARK SMILES CCCCCCCCCCCCCCC(=O)[O-]
REMARK SMILES IDX 9 1 10 2 11 3 12 4 13 5 14 6 15 7 16 8 17 9 8 10 7 11 6 12
REMARK SMILES IDX 5 13 4 14 3 15 2 16 1 17
REMARK H PARENT
REMARK Flexibility Score: inf
ROOT
ATOM      1  C   UNL     1      -0.701  14.379  11.350  1.00  0.00     0.000 C 
ENDROOT
BRANCH   1   2
ATOM      2  C   UNL     1      -0.810  15.235  10.075  1.00  0.00     0.000 C 
BRANCH   2   3
ATOM      3  C   UNL     1      -2.121  15.008   9.307  1.00  0.00     0.000 C 
BRANCH   3   4
ATOM      4  C   UNL     1      -2.450  16.159   8.340  1.00  0.00     0.000 C 
BRANCH   4   5
ATOM      5  C   UNL     1      -3.957  16.284   8.017  1.00  0.00     0.006 C 
BRANCH   5   6
ATOM      6  C   UNL     1      -4.578  17.592   8.531  1.00  0.00     0.053 C 
BRANCH   6   7
ATOM      7  C   UNL     1      -4.726  17.586  10.022  1.00  0.00     0.041 C 
ATOM      8  O   UNL     1      -5.125  16.550  10.615  1.00  0.00    -0.550 OA
ATOM      9  O   UNL     1      -4.400  18.718  10.759  1.00  0.00    -0.550 OA
ENDBRANCH   6   7
ENDBRANCH   5   6
ENDBRANCH   4   5
ENDBRANCH   3   4
ENDBRANCH   2   3
ENDBRANCH   1   2
BRANCH   1  10
ATOM     10  C   UNL     1      -1.445  13.030  11.309  1.00  0.00     0.000 C 
BRANCH  10  11
ATOM     11  C   UNL     1      -0.614  11.903  10.677  1.00  0.00    -0.000 C 
BRANCH  11  12
ATOM     12  C   UNL     1      -1.306  11.261   9.463  1.00  0.00    -0.000 C 
BRANCH  12  13
ATOM     13  C   UNL     1      -2.842  11.423   9.467  1.00  0.00    -0.000 C 
BRANCH  13  14
ATOM     14  C   UNL     1      -3.476  10.876  10.758  1.00  0.00    -0.000 C 
BRANCH  14  15
ATOM     15  C   UNL     1      -4.907  11.393  10.981  1.00  0.00    -0.000 C 
BRANCH  15  16
ATOM     16  C   UNL     1      -5.125  12.798  10.401  1.00  0.00    -0.003 C 
ATOM     17  C   UNL     1      -4.992  12.792   8.882  1.00  0.00     0.004 C 
ENDBRANCH  15  16
ENDBRANCH  14  15
ENDBRANCH  13  14
ENDBRANCH  12  13
ENDBRANCH  11  12
ENDBRANCH  10  11
ENDBRANCH   1  10
TORSDOF 13
ENDMDL
MODEL 8
REMARK VINA RESULT:    -0.272      2.371      4.483
REMARK INTER + INTRA:          -2.079
REMARK INTER:                  -1.184
REMARK INTRA:                  -0.895
REMARK UNBOUND:                -1.600
REMARK SMILES CCCCCCCCCCCCCCC(=O)[O-]
REMARK SMILES IDX 9 1 10 2 11 3 12 4 13 5 14 6 15 7 16 8 17 9 8 10 7 11 6 12
REMARK SMILES IDX 5 13 4 14 3 15 2 16 1 17
REMARK H PARENT
REMARK Flexibility Score: inf
ROOT
ATOM      1  C   UNL     1      12.552  28.549  23.774  1.00  0.00     0.000 C 
ENDROOT
BRANCH   1   2
ATOM      2  C   UNL     1      12.165  28.779  25.245  1.00  0.00     0.000 C 
BRANCH   2   3
ATOM      3  C   UNL     1      13.350  28.627  26.211  1.00  0.00     0.000 C 
BRANCH   3   4
ATOM      4  C   UNL     1      14.563  27.940  25.559  1.00  0.00     0.000 C 
BRANCH   4   5
ATOM      5  C   UNL     1      15.124  26.759  26.385  1.00  0.00     0.006 C 
BRANCH   5   6
ATOM      6  C   UNL     1      14.935  25.398  25.698  1.00  0.00     0.053 C 
BRANCH   6   7
ATOM      7  C   UNL     1      14.776  24.290  26.694  1.00  0.00     0.041 C 
ATOM      8  O   UNL     1      15.125  24.461  27.892  1.00  0.00    -0.550 OA
ATOM      9  O   UNL     1      14.220  23.077  26.306  1.00  0.00    -0.550 OA
ENDBRANCH   6   7
ENDBRANCH   5   6
ENDBRANCH   4   5
ENDBRANCH   3   4
ENDBRANCH   2   3
ENDBRANCH   1   2
BRANCH   1  10
ATOM     10  C   UNL     1      12.344  27.115  23.249  1.00  0.00     0.000 C 
BRANCH  10  11
ATOM     11  C   UNL     1      13.377  26.707  22.186  1.00  0.00    -0.000 C 
BRANCH  11  12
ATOM     12  C   UNL     1      14.750  27.363  22.407  1.00  0.00    -0.000 C 
BRANCH  12  13
ATOM     13  C   UNL     1      14.965  28.647  21.576  1.00  0.00    -0.000 C 
BRANCH  13  14
ATOM     14  C   UNL     1      14.972  28.362  20.064  1.00  0.00    -0.000 C 
BRANCH  14  15
ATOM     15  C   UNL     1      14.113  29.358  19.268  1.00  0.00    -0.000 C 
BRANCH  15  16
ATOM     16  C   UNL     1      12.793  29.696  19.976  1.00  0.00    -0.003 C 
ATOM     17  C   UNL     1      12.868  31.058  20.658  1.00  0.00     0.004 C 
ENDBRANCH  15  16
ENDBRANCH  14  15
ENDBRANCH  13  14
ENDBRANCH  12  13
ENDBRANCH  11  12
ENDBRANCH  10  11
ENDBRANCH   1  10
TORSDOF 13
ENDMDL
MODEL 9
REMARK VINA RESULT:    -0.057     24.598     26.564
REMARK INTER + INTRA:          -1.700
REMARK INTER:                  -0.724
REMARK INTRA:                  -0.976
REMARK UNBOUND:                -1.600
REMARK SMILES CCCCCCCCCCCCCCC(=O)[O-]
REMARK SMILES IDX 9 1 10 2 11 3 12 4 13 5 14 6 15 7 16 8 17 9 8 10 7 11 6 12
REMARK SMILES IDX 5 13 4 14 3 15 2 16 1 17
REMARK H PARENT
REMARK Flexibility Score: inf
ROOT
ATOM      1  C   UNL     1      -0.649  12.796  10.668  1.00  0.00     0.000 C 
ENDROOT
BRANCH   1   2
ATOM      2  C   UNL     1      -1.136  14.124  11.276  1.00  0.00     0.000 C 
BRANCH   2   3
ATOM      3  C   UNL     1      -1.072  15.299  10.288  1.00  0.00     0.000 C 
BRANCH   3   4
ATOM      4  C   UNL     1      -1.540  14.912   8.874  1.00  0.00     0.000 C 
BRANCH   4   5
ATOM      5  C   UNL     1      -1.718  16.121   7.928  1.00  0.00     0.006 C 
BRANCH   5   6
ATOM      6  C   UNL     1      -3.161  16.644   7.880  1.00  0.00     0.053 C 
BRANCH   6   7
ATOM      7  C   UNL     1      -3.284  17.993   8.522  1.00  0.00     0.041 C 
ATOM      8  O   UNL     1      -2.597  18.960   8.100  1.00  0.00    -0.550 OA
ATOM      9  O   UNL     1      -4.175  18.187   9.570  1.00  0.00    -0.550 OA
ENDBRANCH   6   7
ENDBRANCH   5   6
ENDBRANCH   4   5
ENDBRANCH   3   4
ENDBRANCH   2   3
ENDBRANCH   1   2
BRANCH   1  10
ATOM     10  C   UNL     1      -1.745  11.749  10.395  1.00  0.00     0.000 C 
BRANCH  10  11
ATOM     11  C   UNL     1      -1.801  11.305   8.925  1.00  0.00    -0.000 C 
BRANCH  11  12
ATOM     12  C   UNL     1      -3.223  10.939   8.467  1.00  0.00    -0.000 C 
BRANCH  12  13
ATOM     13  C   UNL     1      -4.259  10.923   9.611  1.00  0.00    -0.000 C 
BRANCH  13  14
ATOM     14  C   UNL     1      -4.993  12.270   9.745  1.00  0.00    -0.000 C 
BRANCH  14  15
ATOM     15  C   UNL     1      -4.597  13.272   8.649  1.00  0.00    -0.000 C 
BRANCH  15  16
ATOM     16  C   UNL     1      -5.125  14.687   8.924  1.00  0.00    -0.003 C 
ATOM     17  C   UNL     1      -5.101  15.002  10.416  1.00  0.00     0.004 C 
ENDBRANCH  15  16
ENDBRANCH  14  15
ENDBRANCH  13  14
ENDBRANCH  12  13
ENDBRANCH  11  12
ENDBRANCH  10  11
ENDBRANCH   1  10
TORSDOF 13
ENDMDL
