MODEL 1
REMARK VINA RESULT:    -6.965      0.000      0.000
REMARK INTER + INTRA:          -7.575
REMARK INTER:                  -7.575
REMARK INTRA:                   0.000
REMARK UNBOUND:                 0.000
REMARK SMILES Cc1cc(O)c2c(c1)C(=O)c1cc(O)cc(O)c1C2=O
REMARK SMILES IDX 1 1 2 2 8 3 7 4 6 5 4 6 3 7 19 8 20 9 18 10 11 11 9 12 10 13
REMARK SMILES IDX 12 14 13 15 15 16 16 17 5 18 17 20 14 22
REMARK H PARENT 5 19 17 21 14 23
REMARK Flexibility Score: inf
ROOT
ATOM      1  C   UNL     1     150.749 146.852 154.582  1.00  0.00     0.044 C 
ATOM      2  C   UNL     1     151.152 148.297 154.583  1.00  0.00    -0.047 A 
ATOM      3  C   UNL     1     150.404 149.238 153.865  1.00  0.00     0.016 A 
ATOM      4  C   UNL     1     150.756 150.597 153.883  1.00  0.00     0.038 A 
ATOM      5  C   UNL     1     151.876 151.024 154.631  1.00  0.00     0.076 A 
ATOM      6  C   UNL     1     152.579 150.080 155.423  1.00  0.00     0.127 A 
ATOM      7  C   UNL     1     152.222 148.729 155.373  1.00  0.00     0.050 A 
ATOM      8  C   UNL     1     152.306 152.441 154.507  1.00  0.00     0.201 C 
ATOM      9  O   UNL     1     153.522 152.741 154.644  1.00  0.00    -0.288 OA
ATOM     10  C   UNL     1     151.338 153.467 154.039  1.00  0.00     0.076 A 
ATOM     11  C   UNL     1     150.218 153.036 153.292  1.00  0.00     0.041 A 
ATOM     12  C   UNL     1     149.954 151.587 153.126  1.00  0.00     0.194 C 
ATOM     13  O   UNL     1     149.031 151.198 152.358  1.00  0.00    -0.289 OA
ATOM     14  C   UNL     1     149.356 153.984 152.716  1.00  0.00     0.059 A 
ATOM     15  C   UNL     1     149.589 155.352 152.887  1.00  0.00     0.120 A 
ATOM     16  C   UNL     1     150.670 155.780 153.657  1.00  0.00     0.093 A 
ATOM     17  C   UNL     1     151.532 154.856 154.258  1.00  0.00     0.131 A 
ENDROOT
BRANCH   6  18
ATOM     18  O   UNL     1     153.607 150.443 156.296  1.00  0.00    -0.507 OA
ATOM     19  H   UNL     1     154.478 150.856 155.992  1.00  0.00     0.293 HD
ENDBRANCH   6  18
BRANCH  17  20
ATOM     20  O   UNL     1     152.537 155.358 155.088  1.00  0.00    -0.507 OA
ATOM     21  H   UNL     1     152.378 155.650 156.042  1.00  0.00     0.293 HD
ENDBRANCH  17  20
BRANCH  15  22
ATOM     22  O   UNL     1     148.743 156.295 152.307  1.00  0.00    -0.508 OA
ATOM     23  H   UNL     1     149.108 157.086 151.790  1.00  0.00     0.293 HD
ENDBRANCH  15  22
TORSDOF 3
ENDMDL
MODEL 2
REMARK VINA RESULT:    -6.963      4.668      8.652
REMARK INTER + INTRA:          -7.573
REMARK INTER:                  -7.573
REMARK INTRA:                   0.000
REMARK UNBOUND:                 0.000
REMARK SMILES Cc1cc(O)c2c(c1)C(=O)c1cc(O)cc(O)c1C2=O
REMARK SMILES IDX 1 1 2 2 8 3 7 4 6 5 4 6 3 7 19 8 20 9 18 10 11 11 9 12 10 13
REMARK SMILES IDX 12 14 13 15 15 16 16 17 5 18 17 20 14 22
REMARK H PARENT 5 19 17 21 14 23
REMARK Flexibility Score: inf
ROOT
ATOM      1  C   UNL     1     148.033 152.006 154.589  1.00  0.00     0.044 C 
ATOM      2  C   UNL     1     147.644 150.558 154.593  1.00  0.00    -0.047 A 
ATOM      3  C   UNL     1     148.399 149.624 153.872  1.00  0.00     0.016 A 
ATOM      4  C   UNL     1     148.060 148.261 153.892  1.00  0.00     0.038 A 
ATOM      5  C   UNL     1     146.948 147.824 154.645  1.00  0.00     0.076 A 
ATOM      6  C   UNL     1     146.239 148.761 155.440  1.00  0.00     0.127 A 
ATOM      7  C   UNL     1     146.582 150.116 155.388  1.00  0.00     0.050 A 
ATOM      8  C   UNL     1     146.531 146.403 154.524  1.00  0.00     0.201 C 
ATOM      9  O   UNL     1     145.318 146.091 154.666  1.00  0.00    -0.288 OA
ATOM     10  C   UNL     1     147.506 145.386 154.052  1.00  0.00     0.076 A 
ATOM     11  C   UNL     1     148.619 145.828 153.301  1.00  0.00     0.041 A 
ATOM     12  C   UNL     1     148.868 147.279 153.132  1.00  0.00     0.194 C 
ATOM     13  O   UNL     1     149.784 147.676 152.361  1.00  0.00    -0.289 OA
ATOM     14  C   UNL     1     149.488 144.887 152.722  1.00  0.00     0.059 A 
ATOM     15  C   UNL     1     149.269 143.518 152.895  1.00  0.00     0.120 A 
ATOM     16  C   UNL     1     148.195 143.080 153.669  1.00  0.00     0.093 A 
ATOM     17  C   UNL     1     147.327 143.995 154.273  1.00  0.00     0.131 A 
ENDROOT
BRANCH   6  18
ATOM     18  O   UNL     1     145.217 148.389 156.317  1.00  0.00    -0.507 OA
ATOM     19  H   UNL     1     144.658 147.555 156.201  1.00  0.00     0.293 HD
ENDBRANCH   6  18
BRANCH  17  20
ATOM     20  O   UNL     1     146.331 143.484 155.108  1.00  0.00    -0.507 OA
ATOM     21  H   UNL     1     145.820 142.635 154.911  1.00  0.00     0.293 HD
ENDBRANCH  17  20
BRANCH  15  22
ATOM     22  O   UNL     1     150.122 142.582 152.312  1.00  0.00    -0.508 OA
ATOM     23  H   UNL     1     150.684 141.956 152.875  1.00  0.00     0.293 HD
ENDBRANCH  15  22
TORSDOF 3
ENDMDL
MODEL 3
REMARK VINA RESULT:    -6.915      8.571     10.472
REMARK INTER + INTRA:          -7.522
REMARK INTER:                  -7.522
REMARK INTRA:                   0.000
REMARK UNBOUND:                 0.000
REMARK SMILES Cc1cc(O)c2c(c1)C(=O)c1cc(O)cc(O)c1C2=O
REMARK SMILES IDX 1 1 2 2 8 3 7 4 6 5 4 6 3 7 19 8 20 9 18 10 11 11 9 12 10 13
REMARK SMILES IDX 12 14 13 15 15 16 16 17 5 18 17 20 14 22
REMARK H PARENT 5 19 17 21 14 23
REMARK Flexibility Score: inf
ROOT
ATOM      1  C   UNL     1     148.007 146.814 144.489  1.00  0.00     0.044 C 
ATOM      2  C   UNL     1     147.629 148.264 144.417  1.00  0.00    -0.047 A 
ATOM      3  C   UNL     1     148.361 149.218 145.133  1.00  0.00     0.016 A 
ATOM      4  C   UNL     1     148.034 150.582 145.050  1.00  0.00     0.038 A 
ATOM      5  C   UNL     1     146.956 150.998 144.236  1.00  0.00     0.076 A 
ATOM      6  C   UNL     1     146.273 150.036 143.449  1.00  0.00     0.127 A 
ATOM      7  C   UNL     1     146.603 148.682 143.564  1.00  0.00     0.050 A 
ATOM      8  C   UNL     1     146.545 152.424 144.288  1.00  0.00     0.201 C 
ATOM      9  O   UNL     1     145.342 152.738 144.086  1.00  0.00    -0.288 OA
ATOM     10  C   UNL     1     147.508 153.452 144.762  1.00  0.00     0.076 A 
ATOM     11  C   UNL     1     148.587 153.032 145.574  1.00  0.00     0.041 A 
ATOM     12  C   UNL     1     148.818 151.587 145.805  1.00  0.00     0.194 C 
ATOM     13  O   UNL     1     149.699 151.213 146.627  1.00  0.00    -0.289 OA
ATOM     14  C   UNL     1     149.439 153.988 146.153  1.00  0.00     0.059 A 
ATOM     15  C   UNL     1     149.237 155.352 145.921  1.00  0.00     0.120 A 
ATOM     16  C   UNL     1     148.198 155.767 145.088  1.00  0.00     0.093 A 
ATOM     17  C   UNL     1     147.349 154.835 144.483  1.00  0.00     0.131 A 
ENDROOT
BRANCH   6  18
ATOM     18  O   UNL     1     145.290 150.382 142.517  1.00  0.00    -0.507 OA
ATOM     19  H   UNL     1     144.655 149.714 142.101  1.00  0.00     0.293 HD
ENDBRANCH   6  18
BRANCH  17  20
ATOM     20  O   UNL     1     146.390 155.321 143.591  1.00  0.00    -0.507 OA
ATOM     21  H   UNL     1     146.508 156.168 143.054  1.00  0.00     0.293 HD
ENDBRANCH  17  20
BRANCH  15  22
ATOM     22  O   UNL     1     150.072 156.303 146.504  1.00  0.00    -0.508 OA
ATOM     23  H   UNL     1     150.750 156.818 145.956  1.00  0.00     0.293 HD
ENDBRANCH  15  22
TORSDOF 3
ENDMDL
MODEL 4
REMARK VINA RESULT:    -6.908      9.698     12.131
REMARK INTER + INTRA:          -7.513
REMARK INTER:                  -7.513
REMARK INTRA:                   0.000
REMARK UNBOUND:                 0.000
REMARK SMILES Cc1cc(O)c2c(c1)C(=O)c1cc(O)cc(O)c1C2=O
REMARK SMILES IDX 1 1 2 2 8 3 7 4 6 5 4 6 3 7 19 8 20 9 18 10 11 11 9 12 10 13
REMARK SMILES IDX 12 14 13 15 15 16 16 17 5 18 17 20 14 22
REMARK H PARENT 5 19 17 21 14 23
REMARK Flexibility Score: inf
ROOT
ATOM      1  C   UNL     1     150.959 152.016 144.503  1.00  0.00     0.044 C 
ATOM      2  C   UNL     1     151.302 150.559 144.410  1.00  0.00    -0.047 A 
ATOM      3  C   UNL     1     150.584 149.618 145.158  1.00  0.00     0.016 A 
ATOM      4  C   UNL     1     150.879 148.248 145.056  1.00  0.00     0.038 A 
ATOM      5  C   UNL     1     151.909 147.812 144.193  1.00  0.00     0.076 A 
ATOM      6  C   UNL     1     152.575 148.762 143.376  1.00  0.00     0.127 A 
ATOM      7  C   UNL     1     152.279 150.123 143.510  1.00  0.00     0.050 A 
ATOM      8  C   UNL     1     152.292 146.377 144.223  1.00  0.00     0.201 C 
ATOM      9  O   UNL     1     153.478 146.039 143.964  1.00  0.00    -0.288 OA
ATOM     10  C   UNL     1     151.330 145.368 144.738  1.00  0.00     0.076 A 
ATOM     11  C   UNL     1     150.300 145.808 145.600  1.00  0.00     0.041 A 
ATOM     12  C   UNL     1     150.110 147.257 145.845  1.00  0.00     0.194 C 
ATOM     13  O   UNL     1     149.276 147.647 146.708  1.00  0.00    -0.289 OA
ATOM     14  C   UNL     1     149.456 144.868 146.216  1.00  0.00     0.059 A 
ATOM     15  C   UNL     1     149.618 143.502 145.973  1.00  0.00     0.120 A 
ATOM     16  C   UNL     1     150.608 143.067 145.091  1.00  0.00     0.093 A 
ATOM     17  C   UNL     1     151.448 143.983 144.450  1.00  0.00     0.131 A 
ENDROOT
BRANCH   6  18
ATOM     18  O   UNL     1     153.506 148.399 142.400  1.00  0.00    -0.507 OA
ATOM     19  H   UNL     1     153.488 147.512 141.914  1.00  0.00     0.293 HD
ENDBRANCH   6  18
BRANCH  17  20
ATOM     20  O   UNL     1     152.353 143.480 143.513  1.00  0.00    -0.507 OA
ATOM     21  H   UNL     1     152.087 142.875 142.749  1.00  0.00     0.293 HD
ENDBRANCH  17  20
BRANCH  15  22
ATOM     22  O   UNL     1     148.791 142.566 146.591  1.00  0.00    -0.508 OA
ATOM     23  H   UNL     1     148.108 142.033 146.065  1.00  0.00     0.293 HD
ENDBRANCH  15  22
TORSDOF 3
ENDMDL
MODEL 5
REMARK VINA RESULT:    -6.477      3.468      5.231
REMARK INTER + INTRA:          -7.045
REMARK INTER:                  -7.045
REMARK INTRA:                   0.000
REMARK UNBOUND:                 0.000
REMARK SMILES Cc1cc(O)c2c(c1)C(=O)c1cc(O)cc(O)c1C2=O
REMARK SMILES IDX 1 1 2 2 8 3 7 4 6 5 4 6 3 7 19 8 20 9 18 10 11 11 9 12 10 13
REMARK SMILES IDX 12 14 13 15 15 16 16 17 5 18 17 20 14 22
REMARK H PARENT 5 19 17 21 14 23
REMARK Flexibility Score: inf
ROOT
ATOM      1  C   UNL     1     151.956 156.112 156.470  1.00  0.00     0.044 C 
ATOM      2  C   UNL     1     151.877 155.380 155.164  1.00  0.00    -0.047 A 
ATOM      3  C   UNL     1     150.866 155.684 154.245  1.00  0.00     0.016 A 
ATOM      4  C   UNL     1     150.800 155.024 153.007  1.00  0.00     0.038 A 
ATOM      5  C   UNL     1     151.763 154.042 152.682  1.00  0.00     0.076 A 
ATOM      6  C   UNL     1     152.833 153.798 153.581  1.00  0.00     0.127 A 
ATOM      7  C   UNL     1     152.866 154.453 154.816  1.00  0.00     0.050 A 
ATOM      8  C   UNL     1     151.577 153.261 151.432  1.00  0.00     0.201 C 
ATOM      9  O   UNL     1     151.999 152.076 151.364  1.00  0.00    -0.288 OA
ATOM     10  C   UNL     1     150.732 153.810 150.339  1.00  0.00     0.076 A 
ATOM     11  C   UNL     1     149.772 154.794 150.668  1.00  0.00     0.041 A 
ATOM     12  C   UNL     1     149.731 155.358 152.037  1.00  0.00     0.194 C 
ATOM     13  O   UNL     1     148.799 156.141 152.369  1.00  0.00    -0.289 OA
ATOM     14  C   UNL     1     148.864 155.237 149.691  1.00  0.00     0.059 A 
ATOM     15  C   UNL     1     148.911 154.723 148.392  1.00  0.00     0.120 A 
ATOM     16  C   UNL     1     149.883 153.782 148.054  1.00  0.00     0.093 A 
ATOM     17  C   UNL     1     150.812 153.339 149.002  1.00  0.00     0.131 A 
ENDROOT
BRANCH   6  18
ATOM     18  O   UNL     1     153.898 152.947 153.275  1.00  0.00    -0.507 OA
ATOM     19  H   UNL     1     153.812 151.941 153.224  1.00  0.00     0.293 HD
ENDBRANCH   6  18
BRANCH  17  20
ATOM     20  O   UNL     1     151.811 152.466 148.566  1.00  0.00    -0.507 OA
ATOM     21  H   UNL     1     151.814 152.033 147.654  1.00  0.00     0.293 HD
ENDBRANCH  17  20
BRANCH  15  22
ATOM     22  O   UNL     1     148.004 155.151 147.424  1.00  0.00    -0.508 OA
ATOM     23  H   UNL     1     147.353 154.509 146.989  1.00  0.00     0.293 HD
ENDBRANCH  15  22
TORSDOF 3
ENDMDL
MODEL 6
REMARK VINA RESULT:    -6.465      8.533     10.945
REMARK INTER + INTRA:          -7.032
REMARK INTER:                  -7.032
REMARK INTRA:                   0.000
REMARK UNBOUND:                 0.000
REMARK SMILES Cc1cc(O)c2c(c1)C(=O)c1cc(O)cc(O)c1C2=O
REMARK SMILES IDX 1 1 2 2 8 3 7 4 6 5 4 6 3 7 19 8 20 9 18 10 11 11 9 12 10 13
REMARK SMILES IDX 12 14 13 15 15 16 16 17 5 18 17 20 14 22
REMARK H PARENT 5 19 17 21 14 23
REMARK Flexibility Score: inf
ROOT
ATOM      1  C   UNL     1     152.058 142.757 142.435  1.00  0.00     0.044 C 
ATOM      2  C   UNL     1     151.961 143.491 143.740  1.00  0.00    -0.047 A 
ATOM      3  C   UNL     1     150.922 143.205 144.633  1.00  0.00     0.016 A 
ATOM      4  C   UNL     1     150.839 143.867 145.870  1.00  0.00     0.038 A 
ATOM      5  C   UNL     1     151.812 144.830 146.219  1.00  0.00     0.076 A 
ATOM      6  C   UNL     1     152.908 145.053 145.347  1.00  0.00     0.127 A 
ATOM      7  C   UNL     1     152.958 144.398 144.112  1.00  0.00     0.050 A 
ATOM      8  C   UNL     1     151.609 145.614 147.464  1.00  0.00     0.201 C 
ATOM      9  O   UNL     1     152.052 146.791 147.543  1.00  0.00    -0.288 OA
ATOM     10  C   UNL     1     150.728 145.081 148.536  1.00  0.00     0.076 A 
ATOM     11  C   UNL     1     149.758 144.116 148.183  1.00  0.00     0.041 A 
ATOM     12  C   UNL     1     149.740 143.553 146.813  1.00  0.00     0.194 C 
ATOM     13  O   UNL     1     148.801 142.788 146.457  1.00  0.00    -0.289 OA
ATOM     14  C   UNL     1     148.817 143.690 149.137  1.00  0.00     0.059 A 
ATOM     15  C   UNL     1     148.842 144.203 150.437  1.00  0.00     0.120 A 
ATOM     16  C   UNL     1     149.824 145.125 150.799  1.00  0.00     0.093 A 
ATOM     17  C   UNL     1     150.784 145.550 149.875  1.00  0.00     0.131 A 
ENDROOT
BRANCH   6  18
ATOM     18  O   UNL     1     153.981 145.884 145.679  1.00  0.00    -0.507 OA
ATOM     19  H   UNL     1     154.546 145.762 146.509  1.00  0.00     0.293 HD
ENDBRANCH   6  18
BRANCH  17  20
ATOM     20  O   UNL     1     151.788 146.405 150.335  1.00  0.00    -0.507 OA
ATOM     21  H   UNL     1     151.863 147.375 150.064  1.00  0.00     0.293 HD
ENDBRANCH  17  20
BRANCH  15  22
ATOM     22  O   UNL     1     147.904 143.792 151.382  1.00  0.00    -0.508 OA
ATOM     23  H   UNL     1     146.963 143.530 151.114  1.00  0.00     0.293 HD
ENDBRANCH  15  22
TORSDOF 3
ENDMDL
MODEL 7
REMARK VINA RESULT:    -6.450      8.332      9.557
REMARK INTER + INTRA:          -7.016
REMARK INTER:                  -7.016
REMARK INTRA:                   0.000
REMARK UNBOUND:                 0.000
REMARK SMILES Cc1cc(O)c2c(c1)C(=O)c1cc(O)cc(O)c1C2=O
REMARK SMILES IDX 1 1 2 2 8 3 7 4 6 5 4 6 3 7 19 8 20 9 18 10 11 11 9 12 10 13
REMARK SMILES IDX 12 14 13 15 15 16 16 17 5 18 17 20 14 22
REMARK H PARENT 5 19 17 21 14 23
REMARK Flexibility Score: inf
ROOT
ATOM      1  C   UNL     1     146.859 142.928 156.371  1.00  0.00     0.044 C 
ATOM      2  C   UNL     1     146.950 143.639 155.053  1.00  0.00    -0.047 A 
ATOM      3  C   UNL     1     147.985 143.337 154.160  1.00  0.00     0.016 A 
ATOM      4  C   UNL     1     148.063 143.976 152.911  1.00  0.00     0.038 A 
ATOM      5  C   UNL     1     147.088 144.933 152.549  1.00  0.00     0.076 A 
ATOM      6  C   UNL     1     145.996 145.172 153.423  1.00  0.00     0.127 A 
ATOM      7  C   UNL     1     145.952 144.540 154.669  1.00  0.00     0.050 A 
ATOM      8  C   UNL     1     147.285 145.694 151.289  1.00  0.00     0.201 C 
ATOM      9  O   UNL     1     146.842 146.870 151.191  1.00  0.00    -0.288 OA
ATOM     10  C   UNL     1     148.161 145.142 150.223  1.00  0.00     0.076 A 
ATOM     11  C   UNL     1     149.133 144.183 150.588  1.00  0.00     0.041 A 
ATOM     12  C   UNL     1     149.157 143.645 151.969  1.00  0.00     0.194 C 
ATOM     13  O   UNL     1     150.097 142.886 152.334  1.00  0.00    -0.289 OA
ATOM     14  C   UNL     1     150.068 143.739 149.638  1.00  0.00     0.059 A 
ATOM     15  C   UNL     1     150.037 144.229 148.329  1.00  0.00     0.120 A 
ATOM     16  C   UNL     1     149.054 145.145 147.955  1.00  0.00     0.093 A 
ATOM     17  C   UNL     1     148.099 145.587 148.876  1.00  0.00     0.131 A 
ENDROOT
BRANCH   6  18
ATOM     18  O   UNL     1     144.922 145.998 153.080  1.00  0.00    -0.507 OA
ATOM     19  H   UNL     1     144.698 146.257 152.129  1.00  0.00     0.293 HD
ENDBRANCH   6  18
BRANCH  17  20
ATOM     20  O   UNL     1     147.092 146.433 148.405  1.00  0.00    -0.507 OA
ATOM     21  H   UNL     1     146.433 146.905 149.007  1.00  0.00     0.293 HD
ENDBRANCH  17  20
BRANCH  15  22
ATOM     22  O   UNL     1     150.970 143.801 147.387  1.00  0.00    -0.508 OA
ATOM     23  H   UNL     1     151.966 143.899 147.546  1.00  0.00     0.293 HD
ENDBRANCH  15  22
TORSDOF 3
ENDMDL
MODEL 8
REMARK VINA RESULT:    -6.447      6.366      9.484
REMARK INTER + INTRA:          -7.013
REMARK INTER:                  -7.013
REMARK INTRA:                   0.000
REMARK UNBOUND:                 0.000
REMARK SMILES Cc1cc(O)c2c(c1)C(=O)c1cc(O)cc(O)c1C2=O
REMARK SMILES IDX 1 1 2 2 8 3 7 4 6 5 4 6 3 7 19 8 20 9 18 10 11 11 9 12 10 13
REMARK SMILES IDX 12 14 13 15 15 16 16 17 5 18 17 20 14 22
REMARK H PARENT 5 19 17 21 14 23
REMARK Flexibility Score: inf
ROOT
ATOM      1  C   UNL     1     146.819 156.125 142.448  1.00  0.00     0.044 C 
ATOM      2  C   UNL     1     146.942 155.395 143.752  1.00  0.00    -0.047 A 
ATOM      3  C   UNL     1     147.989 155.695 144.632  1.00  0.00     0.016 A 
ATOM      4  C   UNL     1     148.096 155.036 145.868  1.00  0.00     0.038 A 
ATOM      5  C   UNL     1     147.140 154.061 146.231  1.00  0.00     0.076 A 
ATOM      6  C   UNL     1     146.036 153.822 145.373  1.00  0.00     0.127 A 
ATOM      7  C   UNL     1     145.961 154.475 144.138  1.00  0.00     0.050 A 
ATOM      8  C   UNL     1     147.368 153.282 147.475  1.00  0.00     0.201 C 
ATOM      9  O   UNL     1     146.941 152.099 147.561  1.00  0.00    -0.288 OA
ATOM     10  C   UNL     1     148.256 153.827 148.534  1.00  0.00     0.076 A 
ATOM     11  C   UNL     1     149.210 154.804 148.168  1.00  0.00     0.041 A 
ATOM     12  C   UNL     1     149.203 155.365 146.797  1.00  0.00     0.194 C 
ATOM     13  O   UNL     1     150.127 156.142 146.428  1.00  0.00    -0.289 OA
ATOM     14  C   UNL     1     150.156 155.243 149.109  1.00  0.00     0.059 A 
ATOM     15  C   UNL     1     150.154 154.732 150.410  1.00  0.00     0.120 A 
ATOM     16  C   UNL     1     149.189 153.798 150.786  1.00  0.00     0.093 A 
ATOM     17  C   UNL     1     148.223 153.359 149.874  1.00  0.00     0.131 A 
ENDROOT
BRANCH   6  18
ATOM     18  O   UNL     1     144.978 152.979 145.720  1.00  0.00    -0.507 OA
ATOM     19  H   UNL     1     144.031 153.104 145.388  1.00  0.00     0.293 HD
ENDBRANCH   6  18
BRANCH  17  20
ATOM     20  O   UNL     1     147.236 152.493 150.349  1.00  0.00    -0.507 OA
ATOM     21  H   UNL     1     147.416 151.537 150.621  1.00  0.00     0.293 HD
ENDBRANCH  17  20
BRANCH  15  22
ATOM     22  O   UNL     1     151.099 155.156 151.342  1.00  0.00    -0.508 OA
ATOM     23  H   UNL     1     150.847 155.763 152.113  1.00  0.00     0.293 HD
ENDBRANCH  15  22
TORSDOF 3
ENDMDL
MODEL 9
REMARK VINA RESULT:    -6.339      9.569     12.196
REMARK INTER + INTRA:          -6.895
REMARK INTER:                  -6.895
REMARK INTRA:                   0.000
REMARK UNBOUND:                 0.000
REMARK SMILES Cc1cc(O)c2c(c1)C(=O)c1cc(O)cc(O)c1C2=O
REMARK SMILES IDX 1 1 2 2 8 3 7 4 6 5 4 6 3 7 19 8 20 9 18 10 11 11 9 12 10 13
REMARK SMILES IDX 12 14 13 15 15 16 16 17 5 18 17 20 14 22
REMARK H PARENT 5 19 17 21 14 23
REMARK Flexibility Score: inf
ROOT
ATOM      1  C   UNL     1     151.509 151.918 144.744  1.00  0.00     0.044 C 
ATOM      2  C   UNL     1     151.001 150.521 144.944  1.00  0.00    -0.047 A 
ATOM      3  C   UNL     1     151.618 149.447 144.292  1.00  0.00     0.016 A 
ATOM      4  C   UNL     1     151.168 148.132 144.495  1.00  0.00     0.038 A 
ATOM      5  C   UNL     1     150.083 147.886 145.366  1.00  0.00     0.076 A 
ATOM      6  C   UNL     1     149.518 148.968 146.088  1.00  0.00     0.127 A 
ATOM      7  C   UNL     1     149.968 150.271 145.854  1.00  0.00     0.050 A 
ATOM      8  C   UNL     1     149.541 146.505 145.441  1.00  0.00     0.201 C 
ATOM      9  O   UNL     1     148.320 146.324 145.698  1.00  0.00    -0.288 OA
ATOM     10  C   UNL     1     150.389 145.357 145.030  1.00  0.00     0.076 A 
ATOM     11  C   UNL     1     151.475 145.606 144.161  1.00  0.00     0.041 A 
ATOM     12  C   UNL     1     151.832 147.000 143.806  1.00  0.00     0.194 C 
ATOM     13  O   UNL     1     152.717 147.223 142.934  1.00  0.00    -0.289 OA
ATOM     14  C   UNL     1     152.216 144.531 143.641  1.00  0.00     0.059 A 
ATOM     15  C   UNL     1     151.897 143.215 143.989  1.00  0.00     0.120 A 
ATOM     16  C   UNL     1     150.851 142.968 144.878  1.00  0.00     0.093 A 
ATOM     17  C   UNL     1     150.111 144.022 145.425  1.00  0.00     0.131 A 
ENDROOT
BRANCH   6  18
ATOM     18  O   UNL     1     148.538 148.792 147.068  1.00  0.00    -0.507 OA
ATOM     19  H   UNL     1     148.553 148.041 147.744  1.00  0.00     0.293 HD
ENDBRANCH   6  18
BRANCH  17  20
ATOM     20  O   UNL     1     149.141 143.701 146.377  1.00  0.00    -0.507 OA
ATOM     21  H   UNL     1     149.322 143.124 147.186  1.00  0.00     0.293 HD
ENDBRANCH  17  20
BRANCH  15  22
ATOM     22  O   UNL     1     152.621 142.146 143.467  1.00  0.00    -0.508 OA
ATOM     23  H   UNL     1     152.159 141.351 143.042  1.00  0.00     0.293 HD
ENDBRANCH  15  22
TORSDOF 3
ENDMDL
