MODEL 1
REMARK VINA RESULT:    -5.135      0.000      0.000
REMARK INTER + INTRA:          -8.510
REMARK INTER:                  -7.837
REMARK INTRA:                  -0.673
REMARK UNBOUND:                -0.673
REMARK SMILES O=C([O-])CCCCCCCCC(=O)[O-]
REMARK SMILES IDX 7 1 6 2 5 3 4 4 2 5 1 6 3 7 8 8 9 9 10 10 11 11 12 12 13 13
REMARK SMILES IDX 14 14
REMARK H PARENT
REMARK Flexibility Score: inf
ROOT
ATOM      1  C   UNL     1      16.177   6.405  49.734  1.00  0.00     0.000 C 
ENDROOT
BRANCH   1   2
ATOM      2  C   UNL     1      14.802   7.034  49.429  1.00  0.00     0.000 C 
BRANCH   2   3
ATOM      3  C   UNL     1      14.405   7.035  47.942  1.00  0.00     0.006 C 
BRANCH   3   4
ATOM      4  C   UNL     1      14.842   8.309  47.210  1.00  0.00     0.053 C 
BRANCH   4   5
ATOM      5  C   UNL     1      15.803   7.976  46.112  1.00  0.00     0.041 C 
ATOM      6  O   UNL     1      16.880   7.378  46.372  1.00  0.00    -0.550 OA
ATOM      7  O   UNL     1      15.533   8.370  44.808  1.00  0.00    -0.550 OA
ENDBRANCH   4   5
ENDBRANCH   3   4
ENDBRANCH   2   3
ENDBRANCH   1   2
BRANCH   1   8
ATOM      8  C   UNL     1      17.370   7.381  49.685  1.00  0.00     0.000 C 
BRANCH   8   9
ATOM      9  C   UNL     1      17.194   8.664  50.517  1.00  0.00     0.000 C 
BRANCH   9  10
ATOM     10  C   UNL     1      17.752   9.912  49.811  1.00  0.00     0.006 C 
BRANCH  10  11
ATOM     11  C   UNL     1      19.073  10.384  50.431  1.00  0.00     0.053 C 
BRANCH  11  12
ATOM     12  C   UNL     1      20.231  10.150  49.511  1.00  0.00     0.041 C 
ATOM     13  O   UNL     1      21.087  11.055  49.324  1.00  0.00    -0.550 OA
ATOM     14  O   UNL     1      20.384   8.918  48.885  1.00  0.00    -0.550 OA
ENDBRANCH  11  12
ENDBRANCH  10  11
ENDBRANCH   9  10
ENDBRANCH   8   9
ENDBRANCH   1   8
TORSDOF 9
ENDMDL
MODEL 2
REMARK VINA RESULT:    -5.030      2.081      5.823
REMARK INTER + INTRA:          -8.349
REMARK INTER:                  -7.664
REMARK INTRA:                  -0.685
REMARK UNBOUND:                -0.673
REMARK SMILES O=C([O-])CCCCCCCCC(=O)[O-]
REMARK SMILES IDX 7 1 6 2 5 3 4 4 2 5 1 6 3 7 8 8 9 9 10 10 11 11 12 12 13 13
REMARK SMILES IDX 14 14
REMARK H PARENT
REMARK Flexibility Score: inf
ROOT
ATOM      1  C   UNL     1      16.877   8.840  50.079  1.00  0.00     0.000 C 
ENDROOT
BRANCH   1   2
ATOM      2  C   UNL     1      18.280   9.140  49.515  1.00  0.00     0.000 C 
BRANCH   2   3
ATOM      3  C   UNL     1      19.322   9.571  50.562  1.00  0.00     0.006 C 
BRANCH   3   4
ATOM      4  C   UNL     1      18.702   9.858  51.935  1.00  0.00     0.053 C 
BRANCH   4   5
ATOM      5  C   UNL     1      19.198   8.875  52.948  1.00  0.00     0.041 C 
ATOM      6  O   UNL     1      19.573   9.269  54.084  1.00  0.00    -0.550 OA
ATOM      7  O   UNL     1      19.294   7.528  52.622  1.00  0.00    -0.550 OA
ENDBRANCH   4   5
ENDBRANCH   3   4
ENDBRANCH   2   3
ENDBRANCH   1   2
BRANCH   1   8
ATOM      8  C   UNL     1      16.487   7.349  50.108  1.00  0.00     0.000 C 
BRANCH   8   9
ATOM      9  C   UNL     1      15.019   7.054  49.749  1.00  0.00     0.000 C 
BRANCH   9  10
ATOM     10  C   UNL     1      14.841   6.616  48.285  1.00  0.00     0.006 C 
BRANCH  10  11
ATOM     11  C   UNL     1      14.776   7.813  47.328  1.00  0.00     0.053 C 
BRANCH  11  12
ATOM     12  C   UNL     1      15.920   7.810  46.360  1.00  0.00     0.041 C 
ATOM     13  O   UNL     1      15.803   8.368  45.237  1.00  0.00    -0.550 OA
ATOM     14  O   UNL     1      17.128   7.220  46.713  1.00  0.00    -0.550 OA
ENDBRANCH  11  12
ENDBRANCH  10  11
ENDBRANCH   9  10
ENDBRANCH   8   9
ENDBRANCH   1   8
TORSDOF 9
ENDMDL
MODEL 3
REMARK VINA RESULT:    -4.947      1.935      2.289
REMARK INTER + INTRA:          -8.223
REMARK INTER:                  -7.709
REMARK INTRA:                  -0.514
REMARK UNBOUND:                -0.673
REMARK SMILES O=C([O-])CCCCCCCCC(=O)[O-]
REMARK SMILES IDX 7 1 6 2 5 3 4 4 2 5 1 6 3 7 8 8 9 9 10 10 11 11 12 12 13 13
REMARK SMILES IDX 14 14
REMARK H PARENT
REMARK Flexibility Score: inf
ROOT
ATOM      1  C   UNL     1      15.815   7.749  50.077  1.00  0.00     0.000 C 
ENDROOT
BRANCH   1   2
ATOM      2  C   UNL     1      15.212   6.507  49.390  1.00  0.00     0.000 C 
BRANCH   2   3
ATOM      3  C   UNL     1      14.482   6.789  48.065  1.00  0.00     0.006 C 
BRANCH   3   4
ATOM      4  C   UNL     1      14.928   8.101  47.407  1.00  0.00     0.053 C 
BRANCH   4   5
ATOM      5  C   UNL     1      15.962   7.835  46.359  1.00  0.00     0.041 C 
ATOM      6  O   UNL     1      15.750   8.162  45.162  1.00  0.00    -0.550 OA
ATOM      7  O   UNL     1      17.140   7.180  46.695  1.00  0.00    -0.550 OA
ENDBRANCH   4   5
ENDBRANCH   3   4
ENDBRANCH   2   3
ENDBRANCH   1   2
BRANCH   1   8
ATOM      8  C   UNL     1      17.356   7.803  50.098  1.00  0.00     0.000 C 
BRANCH   8   9
ATOM      9  C   UNL     1      17.961   9.191  49.820  1.00  0.00     0.000 C 
BRANCH   9  10
ATOM     10  C   UNL     1      18.393   9.920  51.104  1.00  0.00     0.006 C 
BRANCH  10  11
ATOM     11  C   UNL     1      18.379   8.994  52.327  1.00  0.00     0.053 C 
BRANCH  11  12
ATOM     12  C   UNL     1      19.753   8.503  52.665  1.00  0.00     0.041 C 
ATOM     13  O   UNL     1      20.113   8.400  53.868  1.00  0.00    -0.550 OA
ATOM     14  O   UNL     1      20.626   8.127  51.651  1.00  0.00    -0.550 OA
ENDBRANCH  11  12
ENDBRANCH  10  11
ENDBRANCH   9  10
ENDBRANCH   8   9
ENDBRANCH   1   8
TORSDOF 9
ENDMDL
MODEL 4
REMARK VINA RESULT:    -4.812      2.524      3.160
REMARK INTER + INTRA:          -8.017
REMARK INTER:                  -7.475
REMARK INTRA:                  -0.542
REMARK UNBOUND:                -0.673
REMARK SMILES O=C([O-])CCCCCCCCC(=O)[O-]
REMARK SMILES IDX 7 1 6 2 5 3 4 4 2 5 1 6 3 7 8 8 9 9 10 10 11 11 12 12 13 13
REMARK SMILES IDX 14 14
REMARK H PARENT
REMARK Flexibility Score: inf
ROOT
ATOM      1  C   UNL     1      18.033   7.579  48.316  1.00  0.00     0.000 C 
ENDROOT
BRANCH   1   2
ATOM      2  C   UNL     1      16.989   7.324  47.209  1.00  0.00     0.000 C 
BRANCH   2   3
ATOM      3  C   UNL     1      15.780   8.277  47.227  1.00  0.00     0.006 C 
BRANCH   3   4
ATOM      4  C   UNL     1      14.442   7.538  47.350  1.00  0.00     0.053 C 
BRANCH   4   5
ATOM      5  C   UNL     1      14.421   6.697  48.588  1.00  0.00     0.041 C 
ATOM      6  O   UNL     1      14.239   5.454  48.507  1.00  0.00    -0.550 OA
ATOM      7  O   UNL     1      14.553   7.293  49.836  1.00  0.00    -0.550 OA
ENDBRANCH   4   5
ENDBRANCH   3   4
ENDBRANCH   2   3
ENDBRANCH   1   2
BRANCH   1   8
ATOM      8  C   UNL     1      17.554   8.477  49.474  1.00  0.00     0.000 C 
BRANCH   8   9
ATOM      9  C   UNL     1      18.171   9.887  49.501  1.00  0.00     0.000 C 
BRANCH   9  10
ATOM     10  C   UNL     1      18.596  10.324  50.913  1.00  0.00     0.006 C 
BRANCH  10  11
ATOM     11  C   UNL     1      18.220   9.285  51.977  1.00  0.00     0.053 C 
BRANCH  11  12
ATOM     12  C   UNL     1      19.433   8.652  52.586  1.00  0.00     0.041 C 
ATOM     13  O   UNL     1      20.229   7.987  51.872  1.00  0.00    -0.550 OA
ATOM     14  O   UNL     1      19.702   8.825  53.939  1.00  0.00    -0.550 OA
ENDBRANCH  11  12
ENDBRANCH  10  11
ENDBRANCH   9  10
ENDBRANCH   8   9
ENDBRANCH   1   8
TORSDOF 9
ENDMDL
MODEL 5
REMARK VINA RESULT:    -4.580      1.030      5.154
REMARK INTER + INTRA:          -7.663
REMARK INTER:                  -7.204
REMARK INTRA:                  -0.458
REMARK UNBOUND:                -0.673
REMARK SMILES O=C([O-])CCCCCCCCC(=O)[O-]
REMARK SMILES IDX 7 1 6 2 5 3 4 4 2 5 1 6 3 7 8 8 9 9 10 10 11 11 12 12 13 13
REMARK SMILES IDX 14 14
REMARK H PARENT
REMARK Flexibility Score: inf
ROOT
ATOM      1  C   UNL     1      16.881   8.229  51.153  1.00  0.00     0.000 C 
ENDROOT
BRANCH   1   2
ATOM      2  C   UNL     1      17.857   9.423  51.182  1.00  0.00     0.000 C 
BRANCH   2   3
ATOM      3  C   UNL     1      19.195   9.150  51.893  1.00  0.00     0.006 C 
BRANCH   3   4
ATOM      4  C   UNL     1      20.245   8.525  50.966  1.00  0.00     0.053 C 
BRANCH   4   5
ATOM      5  C   UNL     1      20.194   9.163  49.614  1.00  0.00     0.041 C 
ATOM      6  O   UNL     1      19.839   8.493  48.609  1.00  0.00    -0.550 OA
ATOM      7  O   UNL     1      20.588  10.486  49.455  1.00  0.00    -0.550 OA
ENDBRANCH   4   5
ENDBRANCH   3   4
ENDBRANCH   2   3
ENDBRANCH   1   2
BRANCH   1   8
ATOM      8  C   UNL     1      16.749   7.523  49.789  1.00  0.00     0.000 C 
BRANCH   8   9
ATOM      9  C   UNL     1      15.483   6.664  49.621  1.00  0.00     0.000 C 
BRANCH   9  10
ATOM     10  C   UNL     1      14.730   6.962  48.313  1.00  0.00     0.006 C 
BRANCH  10  11
ATOM     11  C   UNL     1      15.281   8.202  47.598  1.00  0.00     0.053 C 
BRANCH  11  12
ATOM     12  C   UNL     1      16.041   7.836  46.360  1.00  0.00     0.041 C 
ATOM     13  O   UNL     1      15.641   8.226  45.231  1.00  0.00    -0.550 OA
ATOM     14  O   UNL     1      17.210   7.092  46.457  1.00  0.00    -0.550 OA
ENDBRANCH  11  12
ENDBRANCH  10  11
ENDBRANCH   9  10
ENDBRANCH   8   9
ENDBRANCH   1   8
TORSDOF 9
ENDMDL
MODEL 6
REMARK VINA RESULT:    -4.546      2.793      6.453
REMARK INTER + INTRA:          -7.611
REMARK INTER:                  -7.216
REMARK INTRA:                  -0.395
REMARK UNBOUND:                -0.673
REMARK SMILES O=C([O-])CCCCCCCCC(=O)[O-]
REMARK SMILES IDX 7 1 6 2 5 3 4 4 2 5 1 6 3 7 8 8 9 9 10 10 11 11 12 12 13 13
REMARK SMILES IDX 14 14
REMARK H PARENT
REMARK Flexibility Score: inf
ROOT
ATOM      1  C   UNL     1      18.887  10.233  50.164  1.00  0.00     0.000 C 
ENDROOT
BRANCH   1   2
ATOM      2  C   UNL     1      20.001   9.218  49.833  1.00  0.00     0.000 C 
BRANCH   2   3
ATOM      3  C   UNL     1      20.561   8.452  51.044  1.00  0.00     0.006 C 
BRANCH   3   4
ATOM      4  C   UNL     1      19.464   7.966  52.000  1.00  0.00     0.053 C 
BRANCH   4   5
ATOM      5  C   UNL     1      19.695   8.503  53.377  1.00  0.00     0.041 C 
ATOM      6  O   UNL     1      20.574   7.989  54.118  1.00  0.00    -0.550 OA
ATOM      7  O   UNL     1      18.906   9.539  53.861  1.00  0.00    -0.550 OA
ENDBRANCH   4   5
ENDBRANCH   3   4
ENDBRANCH   2   3
ENDBRANCH   1   2
BRANCH   1   8
ATOM      8  C   UNL     1      17.455   9.762  49.841  1.00  0.00     0.000 C 
BRANCH   8   9
ATOM      9  C   UNL     1      17.360   8.649  48.782  1.00  0.00     0.000 C 
BRANCH   9  10
ATOM     10  C   UNL     1      16.937   7.295  49.378  1.00  0.00     0.006 C 
BRANCH  10  11
ATOM     11  C   UNL     1      15.451   7.270  49.757  1.00  0.00     0.053 C 
BRANCH  11  12
ATOM     12  C   UNL     1      14.586   6.928  48.583  1.00  0.00     0.041 C 
ATOM     13  O   UNL     1      13.538   6.249  48.742  1.00  0.00    -0.550 OA
ATOM     14  O   UNL     1      14.921   7.390  47.315  1.00  0.00    -0.550 OA
ENDBRANCH  11  12
ENDBRANCH  10  11
ENDBRANCH   9  10
ENDBRANCH   8   9
ENDBRANCH   1   8
TORSDOF 9
ENDMDL
MODEL 7
REMARK VINA RESULT:    -4.497      2.805      3.586
REMARK INTER + INTRA:          -7.536
REMARK INTER:                  -6.976
REMARK INTRA:                  -0.560
REMARK UNBOUND:                -0.673
REMARK SMILES O=C([O-])CCCCCCCCC(=O)[O-]
REMARK SMILES IDX 7 1 6 2 5 3 4 4 2 5 1 6 3 7 8 8 9 9 10 10 11 11 12 12 13 13
REMARK SMILES IDX 14 14
REMARK H PARENT
REMARK Flexibility Score: inf
ROOT
ATOM      1  C   UNL     1      17.829   9.870  49.864  1.00  0.00     0.000 C 
ENDROOT
BRANCH   1   2
ATOM      2  C   UNL     1      16.881   8.956  49.061  1.00  0.00     0.000 C 
BRANCH   2   3
ATOM      3  C   UNL     1      16.414   7.693  49.807  1.00  0.00     0.006 C 
BRANCH   3   4
ATOM      4  C   UNL     1      15.976   6.570  48.858  1.00  0.00     0.053 C 
BRANCH   4   5
ATOM      5  C   UNL     1      14.642   6.883  48.258  1.00  0.00     0.041 C 
ATOM      6  O   UNL     1      13.589   6.437  48.786  1.00  0.00    -0.550 OA
ATOM      7  O   UNL     1      14.563   7.626  47.087  1.00  0.00    -0.550 OA
ENDBRANCH   4   5
ENDBRANCH   3   4
ENDBRANCH   2   3
ENDBRANCH   1   2
BRANCH   1   8
ATOM      8  C   UNL     1      19.253  10.006  49.287  1.00  0.00     0.000 C 
BRANCH   8   9
ATOM      9  C   UNL     1      20.357   9.328  50.117  1.00  0.00     0.000 C 
BRANCH   9  10
ATOM     10  C   UNL     1      19.889   8.018  50.775  1.00  0.00     0.006 C 
BRANCH  10  11
ATOM     11  C   UNL     1      20.382   7.890  52.221  1.00  0.00     0.053 C 
BRANCH  11  12
ATOM     12  C   UNL     1      19.386   8.438  53.197  1.00  0.00     0.041 C 
ATOM     13  O   UNL     1      19.775   9.076  54.210  1.00  0.00    -0.550 OA
ATOM     14  O   UNL     1      18.026   8.272  52.967  1.00  0.00    -0.550 OA
ENDBRANCH  11  12
ENDBRANCH  10  11
ENDBRANCH   9  10
ENDBRANCH   8   9
ENDBRANCH   1   8
TORSDOF 9
ENDMDL
MODEL 8
REMARK VINA RESULT:    -4.474      1.274      2.004
REMARK INTER + INTRA:          -7.501
REMARK INTER:                  -7.062
REMARK INTRA:                  -0.440
REMARK UNBOUND:                -0.673
REMARK SMILES O=C([O-])CCCCCCCCC(=O)[O-]
REMARK SMILES IDX 7 1 6 2 5 3 4 4 2 5 1 6 3 7 8 8 9 9 10 10 11 11 12 12 13 13
REMARK SMILES IDX 14 14
REMARK H PARENT
REMARK Flexibility Score: inf
ROOT
ATOM      1  C   UNL     1      17.089   7.398  50.084  1.00  0.00     0.000 C 
ENDROOT
BRANCH   1   2
ATOM      2  C   UNL     1      15.782   6.581  50.018  1.00  0.00     0.000 C 
BRANCH   2   3
ATOM      3  C   UNL     1      14.592   7.312  49.370  1.00  0.00     0.006 C 
BRANCH   3   4
ATOM      4  C   UNL     1      14.372   6.910  47.907  1.00  0.00     0.053 C 
BRANCH   4   5
ATOM      5  C   UNL     1      14.619   8.076  47.002  1.00  0.00     0.041 C 
ATOM      6  O   UNL     1      13.879   8.270  46.002  1.00  0.00    -0.550 OA
ATOM      7  O   UNL     1      15.697   8.921  47.235  1.00  0.00    -0.550 OA
ENDBRANCH   4   5
ENDBRANCH   3   4
ENDBRANCH   2   3
ENDBRANCH   1   2
BRANCH   1   8
ATOM      8  C   UNL     1      16.912   8.889  50.435  1.00  0.00     0.000 C 
BRANCH   8   9
ATOM      9  C   UNL     1      18.054   9.500  51.267  1.00  0.00     0.000 C 
BRANCH   9  10
ATOM     10  C   UNL     1      19.102   8.458  51.696  1.00  0.00     0.006 C 
BRANCH  10  11
ATOM     11  C   UNL     1      20.468   8.714  51.049  1.00  0.00     0.053 C 
BRANCH  11  12
ATOM     12  C   UNL     1      20.331   9.296  49.676  1.00  0.00     0.041 C 
ATOM     13  O   UNL     1      19.973   8.570  48.711  1.00  0.00    -0.550 OA
ATOM     14  O   UNL     1      20.566  10.650  49.468  1.00  0.00    -0.550 OA
ENDBRANCH  11  12
ENDBRANCH  10  11
ENDBRANCH   9  10
ENDBRANCH   8   9
ENDBRANCH   1   8
TORSDOF 9
ENDMDL
MODEL 9
REMARK VINA RESULT:    -4.207      2.830      5.991
REMARK INTER + INTRA:          -7.094
REMARK INTER:                  -6.530
REMARK INTRA:                  -0.564
REMARK UNBOUND:                -0.673
REMARK SMILES O=C([O-])CCCCCCCCC(=O)[O-]
REMARK SMILES IDX 7 1 6 2 5 3 4 4 2 5 1 6 3 7 8 8 9 9 10 10 11 11 12 12 13 13
REMARK SMILES IDX 14 14
REMARK H PARENT
REMARK Flexibility Score: inf
ROOT
ATOM      1  C   UNL     1      17.447   9.612  49.655  1.00  0.00     0.000 C 
ENDROOT
BRANCH   1   2
ATOM      2  C   UNL     1      18.905   9.120  49.546  1.00  0.00     0.000 C 
BRANCH   2   3
ATOM      3  C   UNL     1      19.239   7.888  50.406  1.00  0.00     0.006 C 
BRANCH   3   4
ATOM      4  C   UNL     1      20.148   8.221  51.596  1.00  0.00     0.053 C 
BRANCH   4   5
ATOM      5  C   UNL     1      19.334   8.419  52.835  1.00  0.00     0.041 C 
ATOM      6  O   UNL     1      19.878   8.840  53.890  1.00  0.00    -0.550 OA
ATOM      7  O   UNL     1      17.984   8.091  52.841  1.00  0.00    -0.550 OA
ENDBRANCH   4   5
ENDBRANCH   3   4
ENDBRANCH   2   3
ENDBRANCH   1   2
BRANCH   1   8
ATOM      8  C   UNL     1      16.621   9.502  48.358  1.00  0.00     0.000 C 
BRANCH   8   9
ATOM      9  C   UNL     1      16.594   8.101  47.722  1.00  0.00     0.000 C 
BRANCH   9  10
ATOM     10  C   UNL     1      15.175   7.650  47.334  1.00  0.00     0.006 C 
BRANCH  10  11
ATOM     11  C   UNL     1      14.430   7.010  48.512  1.00  0.00     0.053 C 
BRANCH  11  12
ATOM     12  C   UNL     1      15.351   6.210  49.381  1.00  0.00     0.041 C 
ATOM     13  O   UNL     1      15.746   6.672  50.483  1.00  0.00    -0.550 OA
ATOM     14  O   UNL     1      15.745   4.936  48.987  1.00  0.00    -0.550 OA
ENDBRANCH  11  12
ENDBRANCH  10  11
ENDBRANCH   9  10
ENDBRANCH   8   9
ENDBRANCH   1   8
TORSDOF 9
ENDMDL
