MODEL 1
REMARK VINA RESULT:    -4.081      0.000      0.000
REMARK INTER + INTRA:          -4.854
REMARK INTER:                  -4.797
REMARK INTRA:                  -0.057
REMARK UNBOUND:                -0.057
REMARK SMILES CCCCC(=O)[O-]
REMARK SMILES IDX 4 1 5 2 6 3 7 4 3 5 2 6 1 7
REMARK H PARENT
REMARK Flexibility Score: inf
ROOT
ATOM      1  C   UNL     1      12.270 -18.196 -27.745  1.00  0.00     0.053 C 
ENDROOT
BRANCH   1   2
ATOM      2  C   UNL     1      11.314 -19.060 -28.503  1.00  0.00     0.041 C 
ATOM      3  O   UNL     1      10.197 -18.606 -28.862  1.00  0.00    -0.550 OA
ATOM      4  O   UNL     1      11.676 -20.355 -28.857  1.00  0.00    -0.550 OA
ENDBRANCH   1   2
BRANCH   1   5
ATOM      5  C   UNL     1      12.886 -18.975 -26.576  1.00  0.00     0.006 C 
BRANCH   5   6
ATOM      6  C   UNL     1      12.034 -18.898 -25.301  1.00  0.00    -0.003 C 
ATOM      7  C   UNL     1      12.791 -18.291 -24.120  1.00  0.00     0.004 C 
ENDBRANCH   5   6
ENDBRANCH   1   5
TORSDOF 3
ENDMDL
MODEL 2
REMARK VINA RESULT:    -4.027      1.387      1.816
REMARK INTER + INTRA:          -4.790
REMARK INTER:                  -4.744
REMARK INTRA:                  -0.045
REMARK UNBOUND:                -0.057
REMARK SMILES CCCCC(=O)[O-]
REMARK SMILES IDX 4 1 5 2 6 3 7 4 3 5 2 6 1 7
REMARK H PARENT
REMARK Flexibility Score: inf
ROOT
ATOM      1  C   UNL     1      12.492 -20.753 -27.189  1.00  0.00     0.053 C 
ENDROOT
BRANCH   1   2
ATOM      2  C   UNL     1      11.888 -20.480 -28.529  1.00  0.00     0.041 C 
ATOM      3  O   UNL     1      11.431 -21.426 -29.223  1.00  0.00    -0.550 OA
ATOM      4  O   UNL     1      11.787 -19.174 -28.994  1.00  0.00    -0.550 OA
ENDBRANCH   1   2
BRANCH   1   5
ATOM      5  C   UNL     1      11.899 -19.812 -26.132  1.00  0.00     0.006 C 
BRANCH   5   6
ATOM      6  C   UNL     1      12.903 -18.753 -25.654  1.00  0.00    -0.003 C 
ATOM      7  C   UNL     1      12.658 -18.315 -24.211  1.00  0.00     0.004 C 
ENDBRANCH   5   6
ENDBRANCH   1   5
TORSDOF 3
ENDMDL
MODEL 3
REMARK VINA RESULT:    -3.953      4.533      5.097
REMARK INTER + INTRA:          -4.704
REMARK INTER:                  -4.605
REMARK INTRA:                  -0.099
REMARK UNBOUND:                -0.057
REMARK SMILES CCCCC(=O)[O-]
REMARK SMILES IDX 4 1 5 2 6 3 7 4 3 5 2 6 1 7
REMARK H PARENT
REMARK Flexibility Score: inf
ROOT
ATOM      1  C   UNL     1       9.072 -17.078 -29.479  1.00  0.00     0.053 C 
ENDROOT
BRANCH   1   2
ATOM      2  C   UNL     1       8.287 -16.649 -30.677  1.00  0.00     0.041 C 
ATOM      3  O   UNL     1       8.476 -17.205 -31.790  1.00  0.00    -0.550 OA
ATOM      4  O   UNL     1       7.313 -15.666 -30.555  1.00  0.00    -0.550 OA
ENDBRANCH   1   2
BRANCH   1   5
ATOM      5  C   UNL     1       8.168 -17.813 -28.481  1.00  0.00     0.006 C 
BRANCH   5   6
ATOM      6  C   UNL     1       8.203 -17.185 -27.080  1.00  0.00    -0.003 C 
ATOM      7  C   UNL     1       7.540 -15.809 -27.033  1.00  0.00     0.004 C 
ENDBRANCH   5   6
ENDBRANCH   1   5
TORSDOF 3
ENDMDL
MODEL 4
REMARK VINA RESULT:    -3.914      1.300      1.376
REMARK INTER + INTRA:          -4.657
REMARK INTER:                  -4.610
REMARK INTRA:                  -0.047
REMARK UNBOUND:                -0.057
REMARK SMILES CCCCC(=O)[O-]
REMARK SMILES IDX 4 1 5 2 6 3 7 4 3 5 2 6 1 7
REMARK H PARENT
REMARK Flexibility Score: inf
ROOT
ATOM      1  C   UNL     1      10.622 -18.107 -27.001  1.00  0.00     0.053 C 
ENDROOT
BRANCH   1   2
ATOM      2  C   UNL     1      10.519 -18.222 -28.488  1.00  0.00     0.041 C 
ATOM      3  O   UNL     1       9.391 -18.309 -29.040  1.00  0.00    -0.550 OA
ATOM      4  O   UNL     1      11.667 -18.184 -29.271  1.00  0.00    -0.550 OA
ENDBRANCH   1   2
BRANCH   1   5
ATOM      5  C   UNL     1      11.457 -19.261 -26.431  1.00  0.00     0.006 C 
BRANCH   5   6
ATOM      6  C   UNL     1      12.751 -18.777 -25.760  1.00  0.00    -0.003 C 
ATOM      7  C   UNL     1      12.530 -18.302 -24.324  1.00  0.00     0.004 C 
ENDBRANCH   5   6
ENDBRANCH   1   5
TORSDOF 3
ENDMDL
MODEL 5
REMARK VINA RESULT:    -3.896      3.983      4.897
REMARK INTER + INTRA:          -4.636
REMARK INTER:                  -4.528
REMARK INTRA:                  -0.108
REMARK UNBOUND:                -0.057
REMARK SMILES CCCCC(=O)[O-]
REMARK SMILES IDX 4 1 5 2 6 3 7 4 3 5 2 6 1 7
REMARK H PARENT
REMARK Flexibility Score: inf
ROOT
ATOM      1  C   UNL     1       9.078 -17.216 -27.303  1.00  0.00     0.053 C 
ENDROOT
BRANCH   1   2
ATOM      2  C   UNL     1       9.222 -17.885 -28.633  1.00  0.00     0.041 C 
ATOM      3  O   UNL     1      10.194 -18.654 -28.854  1.00  0.00    -0.550 OA
ATOM      4  O   UNL     1       8.256 -17.697 -29.615  1.00  0.00    -0.550 OA
ENDBRANCH   1   2
BRANCH   1   5
ATOM      5  C   UNL     1       7.623 -16.788 -27.073  1.00  0.00     0.006 C 
BRANCH   5   6
ATOM      6  C   UNL     1       7.477 -15.271 -26.883  1.00  0.00    -0.003 C 
ATOM      7  C   UNL     1       7.169 -14.539 -28.189  1.00  0.00     0.004 C 
ENDBRANCH   5   6
ENDBRANCH   1   5
TORSDOF 3
ENDMDL
MODEL 6
REMARK VINA RESULT:    -3.840      1.428      1.750
REMARK INTER + INTRA:          -4.571
REMARK INTER:                  -4.495
REMARK INTRA:                  -0.076
REMARK UNBOUND:                -0.057
REMARK SMILES CCCCC(=O)[O-]
REMARK SMILES IDX 4 1 5 2 6 3 7 4 3 5 2 6 1 7
REMARK H PARENT
REMARK Flexibility Score: inf
ROOT
ATOM      1  C   UNL     1      11.441 -18.872 -27.918  1.00  0.00     0.053 C 
ENDROOT
BRANCH   1   2
ATOM      2  C   UNL     1      10.168 -18.096 -28.042  1.00  0.00     0.041 C 
ATOM      3  O   UNL     1       9.759 -17.393 -27.081  1.00  0.00    -0.550 OA
ATOM      4  O   UNL     1       9.457 -18.110 -29.235  1.00  0.00    -0.550 OA
ENDBRANCH   1   2
BRANCH   1   5
ATOM      5  C   UNL     1      11.599 -19.418 -26.493  1.00  0.00     0.006 C 
BRANCH   5   6
ATOM      6  C   UNL     1      12.839 -18.858 -25.781  1.00  0.00    -0.003 C 
ATOM      7  C   UNL     1      12.524 -18.317 -24.386  1.00  0.00     0.004 C 
ENDBRANCH   5   6
ENDBRANCH   1   5
TORSDOF 3
ENDMDL
MODEL 7
REMARK VINA RESULT:    -3.741      1.584      2.361
REMARK INTER + INTRA:          -4.453
REMARK INTER:                  -4.349
REMARK INTRA:                  -0.104
REMARK UNBOUND:                -0.057
REMARK SMILES CCCCC(=O)[O-]
REMARK SMILES IDX 4 1 5 2 6 3 7 4 3 5 2 6 1 7
REMARK H PARENT
REMARK Flexibility Score: inf
ROOT
ATOM      1  C   UNL     1      12.101 -18.209 -28.040  1.00  0.00     0.053 C 
ENDROOT
BRANCH   1   2
ATOM      2  C   UNL     1      10.613 -18.060 -28.014  1.00  0.00     0.041 C 
ATOM      3  O   UNL     1       9.909 -18.576 -28.921  1.00  0.00    -0.550 OA
ATOM      4  O   UNL     1       9.999 -17.392 -26.962  1.00  0.00    -0.550 OA
ENDBRANCH   1   2
BRANCH   1   5
ATOM      5  C   UNL     1      12.603 -18.802 -26.717  1.00  0.00     0.006 C 
BRANCH   5   6
ATOM      6  C   UNL     1      11.996 -20.182 -26.421  1.00  0.00    -0.003 C 
ATOM      7  C   UNL     1      12.632 -21.297 -27.249  1.00  0.00     0.004 C 
ENDBRANCH   5   6
ENDBRANCH   1   5
TORSDOF 3
ENDMDL
MODEL 8
REMARK VINA RESULT:    -3.738      3.213      3.841
REMARK INTER + INTRA:          -4.451
REMARK INTER:                  -4.432
REMARK INTRA:                  -0.019
REMARK UNBOUND:                -0.057
REMARK SMILES CCCCC(=O)[O-]
REMARK SMILES IDX 4 1 5 2 6 3 7 4 3 5 2 6 1 7
REMARK H PARENT
REMARK Flexibility Score: inf
ROOT
ATOM      1  C   UNL     1      12.855 -19.231 -26.210  1.00  0.00     0.053 C 
ENDROOT
BRANCH   1   2
ATOM      2  C   UNL     1      12.266 -18.449 -25.080  1.00  0.00     0.041 C 
ATOM      3  O   UNL     1      11.042 -18.155 -25.084  1.00  0.00    -0.550 OA
ATOM      4  O   UNL     1      13.057 -18.087 -23.997  1.00  0.00    -0.550 OA
ENDBRANCH   1   2
BRANCH   1   5
ATOM      5  C   UNL     1      11.885 -20.328 -26.667  1.00  0.00     0.006 C 
BRANCH   5   6
ATOM      6  C   UNL     1      12.609 -21.602 -27.127  1.00  0.00    -0.003 C 
ATOM      7  C   UNL     1      12.076 -22.863 -26.448  1.00  0.00     0.004 C 
ENDBRANCH   5   6
ENDBRANCH   1   5
TORSDOF 3
ENDMDL
MODEL 9
REMARK VINA RESULT:    -3.681      1.569      1.898
REMARK INTER + INTRA:          -4.383
REMARK INTER:                  -4.349
REMARK INTRA:                  -0.035
REMARK UNBOUND:                -0.057
REMARK SMILES CCCCC(=O)[O-]
REMARK SMILES IDX 4 1 5 2 6 3 7 4 3 5 2 6 1 7
REMARK H PARENT
REMARK Flexibility Score: inf
ROOT
ATOM      1  C   UNL     1      12.006 -19.734 -27.783  1.00  0.00     0.053 C 
ENDROOT
BRANCH   1   2
ATOM      2  C   UNL     1      12.114 -21.115 -28.348  1.00  0.00     0.041 C 
ATOM      3  O   UNL     1      11.301 -21.505 -29.227  1.00  0.00    -0.550 OA
ATOM      4  O   UNL     1      13.142 -21.955 -27.940  1.00  0.00    -0.550 OA
ENDBRANCH   1   2
BRANCH   1   5
ATOM      5  C   UNL     1      11.987 -19.783 -26.250  1.00  0.00     0.006 C 
BRANCH   5   6
ATOM      6  C   UNL     1      12.932 -18.752 -25.615  1.00  0.00    -0.003 C 
ATOM      7  C   UNL     1      12.511 -18.358 -24.200  1.00  0.00     0.004 C 
ENDBRANCH   5   6
ENDBRANCH   1   5
TORSDOF 3
ENDMDL
