MODEL 1
REMARK VINA RESULT:    -4.837      0.000      0.000
REMARK INTER + INTRA:          -5.872
REMARK INTER:                  -5.826
REMARK INTRA:                  -0.046
REMARK UNBOUND:                -0.046
REMARK SMILES O=c1c(O)c(-c2ccc(O)c(O)c2)oc2cc(O)cc(O)c12
REMARK SMILES IDX 5 1 3 2 2 3 1 4 22 5 20 6 19 7 17 8 16 9 15 10 14 11 6 12
REMARK SMILES IDX 7 13 8 14 9 15 13 16 11 17 10 18 12 20 4 22 21 24 18 26
REMARK H PARENT 10 19 12 21 4 23 21 25 18 27
REMARK Flexibility Score: inf
ROOT
ATOM      1  C   UNL     1       0.869   8.487 -17.788  1.00  0.00     0.180 A 
ATOM      2  C   UNL     1       0.993   9.613 -16.949  1.00  0.00     0.208 A 
ATOM      3  C   UNL     1       0.889   9.439 -15.561  1.00  0.00     0.238 A 
ATOM      4  O   UNL     1       1.009  10.439 -14.801  1.00  0.00    -0.285 OA
ATOM      5  C   UNL     1       0.644   8.154 -15.035  1.00  0.00     0.111 A 
ATOM      6  C   UNL     1       0.522   7.895 -13.648  1.00  0.00     0.134 A 
ATOM      7  C   UNL     1       0.268   6.589 -13.204  1.00  0.00     0.093 A 
ATOM      8  C   UNL     1       0.134   5.538 -14.119  1.00  0.00     0.123 A 
ATOM      9  C   UNL     1       0.255   5.789 -15.488  1.00  0.00     0.094 A 
ATOM     10  C   UNL     1       0.509   7.084 -15.950  1.00  0.00     0.146 A 
ATOM     11  O   UNL     1       0.623   7.292 -17.256  1.00  0.00    -0.452 OA
ENDROOT
BRANCH   1  12
ATOM     12  C   UNL     1       0.985   8.585 -19.260  1.00  0.00     0.025 A 
ATOM     13  C   UNL     1       0.134   9.451 -19.963  1.00  0.00     0.016 A 
ATOM     14  C   UNL     1       0.212   9.545 -21.356  1.00  0.00     0.051 A 
ATOM     15  C   UNL     1       1.131   8.762 -22.065  1.00  0.00     0.157 A 
ATOM     16  C   UNL     1       1.893   7.786 -19.978  1.00  0.00     0.062 A 
ATOM     17  C   UNL     1       1.972   7.876 -21.373  1.00  0.00     0.158 A 
BRANCH  15  18
ATOM     18  O   UNL     1       1.209   8.860 -23.455  1.00  0.00    -0.504 OA
ATOM     19  H   UNL     1       1.489   8.072 -24.027  1.00  0.00     0.293 HD
ENDBRANCH  15  18
BRANCH  17  20
ATOM     20  O   UNL     1       2.888   7.073 -22.052  1.00  0.00    -0.504 OA
ATOM     21  H   UNL     1       3.711   6.694 -21.599  1.00  0.00     0.293 HD
ENDBRANCH  17  20
ENDBRANCH   1  12
BRANCH   2  22
ATOM     22  O   UNL     1       1.186  10.883 -17.499  1.00  0.00    -0.502 OA
ATOM     23  H   UNL     1       0.467  11.358 -18.031  1.00  0.00     0.293 HD
ENDBRANCH   2  22
BRANCH   6  24
ATOM     24  O   UNL     1       0.649   8.922 -12.712  1.00  0.00    -0.507 OA
ATOM     25  H   UNL     1      -0.152   9.292 -12.214  1.00  0.00     0.293 HD
ENDBRANCH   6  24
BRANCH   8  26
ATOM     26  O   UNL     1      -0.119   4.241 -13.679  1.00  0.00    -0.508 OA
ATOM     27  H   UNL     1      -0.942   3.731 -13.979  1.00  0.00     0.293 HD
ENDBRANCH   8  26
TORSDOF 6
ENDMDL
MODEL 2
REMARK VINA RESULT:    -4.538      3.250      6.218
REMARK INTER + INTRA:          -5.513
REMARK INTER:                  -5.951
REMARK INTRA:                   0.438
REMARK UNBOUND:                -0.046
REMARK SMILES O=c1c(O)c(-c2ccc(O)c(O)c2)oc2cc(O)cc(O)c12
REMARK SMILES IDX 5 1 3 2 2 3 1 4 22 5 20 6 19 7 17 8 16 9 15 10 14 11 6 12
REMARK SMILES IDX 7 13 8 14 9 15 13 16 11 17 10 18 12 20 4 22 21 24 18 26
REMARK H PARENT 10 19 12 21 4 23 21 25 18 27
REMARK Flexibility Score: inf
ROOT
ATOM      1  C   UNL     1       0.396   5.990 -12.783  1.00  0.00     0.180 A 
ATOM      2  C   UNL     1       0.131   4.740 -12.190  1.00  0.00     0.208 A 
ATOM      3  C   UNL     1       0.159   4.634 -10.791  1.00  0.00     0.238 A 
ATOM      4  O   UNL     1      -0.086   3.521 -10.249  1.00  0.00    -0.285 OA
ATOM      5  C   UNL     1       0.468   5.767 -10.011  1.00  0.00     0.111 A 
ATOM      6  C   UNL     1       0.519   5.743  -8.596  1.00  0.00     0.134 A 
ATOM      7  C   UNL     1       0.844   6.912  -7.892  1.00  0.00     0.093 A 
ATOM      8  C   UNL     1       1.116   8.103  -8.575  1.00  0.00     0.123 A 
ATOM      9  C   UNL     1       1.065   8.132  -9.970  1.00  0.00     0.094 A 
ATOM     10  C   UNL     1       0.743   6.977 -10.690  1.00  0.00     0.146 A 
ATOM     11  O   UNL     1       0.697   7.034 -12.015  1.00  0.00    -0.452 OA
ENDROOT
BRANCH   1  12
ATOM     12  C   UNL     1       0.367   6.188 -14.249  1.00  0.00     0.025 A 
ATOM     13  C   UNL     1       0.314   7.490 -14.770  1.00  0.00     0.016 A 
ATOM     14  C   UNL     1       0.265   7.699 -16.151  1.00  0.00     0.051 A 
ATOM     15  C   UNL     1       0.252   6.610 -17.030  1.00  0.00     0.157 A 
ATOM     16  C   UNL     1       0.332   5.096 -15.135  1.00  0.00     0.062 A 
ATOM     17  C   UNL     1       0.281   5.302 -16.519  1.00  0.00     0.158 A 
BRANCH  15  18
ATOM     18  O   UNL     1       0.206   6.822 -18.408  1.00  0.00    -0.504 OA
ATOM     19  H   UNL     1      -0.193   6.136 -19.038  1.00  0.00     0.293 HD
ENDBRANCH  15  18
BRANCH  17  20
ATOM     20  O   UNL     1       0.254   4.196 -17.368  1.00  0.00    -0.504 OA
ATOM     21  H   UNL     1       0.753   4.182 -18.249  1.00  0.00     0.293 HD
ENDBRANCH  17  20
ENDBRANCH   1  12
BRANCH   2  22
ATOM     22  O   UNL     1      -0.123   3.622 -12.988  1.00  0.00    -0.502 OA
ATOM     23  H   UNL     1      -0.159   3.674 -13.999  1.00  0.00     0.293 HD
ENDBRANCH   2  22
BRANCH   6  24
ATOM     24  O   UNL     1       0.254   4.570  -7.888  1.00  0.00    -0.507 OA
ATOM     25  H   UNL     1       0.465   3.656  -8.272  1.00  0.00     0.293 HD
ENDBRANCH   6  24
BRANCH   8  26
ATOM     26  O   UNL     1       1.439   9.264  -7.876  1.00  0.00    -0.508 OA
ATOM     27  H   UNL     1       1.044  10.162  -8.130  1.00  0.00     0.293 HD
ENDBRANCH   8  26
TORSDOF 6
ENDMDL
MODEL 3
REMARK VINA RESULT:    -4.108      2.559      4.601
REMARK INTER + INTRA:          -4.994
REMARK INTER:                  -5.515
REMARK INTRA:                   0.521
REMARK UNBOUND:                -0.046
REMARK SMILES O=c1c(O)c(-c2ccc(O)c(O)c2)oc2cc(O)cc(O)c12
REMARK SMILES IDX 5 1 3 2 2 3 1 4 22 5 20 6 19 7 17 8 16 9 15 10 14 11 6 12
REMARK SMILES IDX 7 13 8 14 9 15 13 16 11 17 10 18 12 20 4 22 21 24 18 26
REMARK H PARENT 10 19 12 21 4 23 21 25 18 27
REMARK Flexibility Score: inf
ROOT
ATOM      1  C   UNL     1       0.238   7.338 -13.445  1.00  0.00     0.180 A 
ATOM      2  C   UNL     1       0.205   8.468 -12.604  1.00  0.00     0.208 A 
ATOM      3  C   UNL     1       0.147   8.279 -11.216  1.00  0.00     0.238 A 
ATOM      4  O   UNL     1       0.127   9.284 -10.453  1.00  0.00    -0.285 OA
ATOM      5  C   UNL     1       0.103   6.970 -10.691  1.00  0.00     0.111 A 
ATOM      6  C   UNL     1       0.041   6.694  -9.304  1.00  0.00     0.134 A 
ATOM      7  C   UNL     1      -0.010   5.363  -8.862  1.00  0.00     0.093 A 
ATOM      8  C   UNL     1       0.002   4.306  -9.779  1.00  0.00     0.123 A 
ATOM      9  C   UNL     1       0.064   4.575 -11.148  1.00  0.00     0.094 A 
ATOM     10  C   UNL     1       0.116   5.894 -11.608  1.00  0.00     0.146 A 
ATOM     11  O   UNL     1       0.180   6.119 -12.915  1.00  0.00    -0.452 OA
ENDROOT
BRANCH   1  12
ATOM     12  C   UNL     1       0.318   7.456 -14.918  1.00  0.00     0.025 A 
ATOM     13  C   UNL     1       0.543   8.713 -15.500  1.00  0.00     0.016 A 
ATOM     14  C   UNL     1       0.602   8.851 -16.889  1.00  0.00     0.051 A 
ATOM     15  C   UNL     1       0.421   7.736 -17.718  1.00  0.00     0.157 A 
ATOM     16  C   UNL     1       0.116   6.343 -15.754  1.00  0.00     0.062 A 
ATOM     17  C   UNL     1       0.172   6.478 -17.146  1.00  0.00     0.158 A 
BRANCH  15  18
ATOM     18  O   UNL     1       0.483   7.876 -19.104  1.00  0.00    -0.504 OA
ATOM     19  H   UNL     1      -0.355   7.963 -19.667  1.00  0.00     0.293 HD
ENDBRANCH  15  18
BRANCH  17  20
ATOM     20  O   UNL     1      -0.027   5.351 -17.944  1.00  0.00    -0.504 OA
ATOM     21  H   UNL     1      -0.487   5.404 -18.845  1.00  0.00     0.293 HD
ENDBRANCH  17  20
ENDBRANCH   1  12
BRANCH   2  22
ATOM     22  O   UNL     1       0.199   9.754 -13.152  1.00  0.00    -0.502 OA
ATOM     23  H   UNL     1      -0.637  10.326 -13.183  1.00  0.00     0.293 HD
ENDBRANCH   2  22
BRANCH   6  24
ATOM     24  O   UNL     1       0.026   7.727  -8.366  1.00  0.00    -0.507 OA
ATOM     25  H   UNL     1       0.156   8.694  -8.637  1.00  0.00     0.293 HD
ENDBRANCH   6  24
BRANCH   8  26
ATOM     26  O   UNL     1      -0.049   2.985  -9.340  1.00  0.00    -0.508 OA
ATOM     27  H   UNL     1       0.650   2.610  -8.709  1.00  0.00     0.293 HD
ENDBRANCH   8  26
TORSDOF 6
ENDMDL
MODEL 4
REMARK VINA RESULT:    -3.875      1.217      6.762
REMARK INTER + INTRA:          -4.713
REMARK INTER:                  -4.874
REMARK INTRA:                   0.160
REMARK UNBOUND:                -0.046
REMARK SMILES O=c1c(O)c(-c2ccc(O)c(O)c2)oc2cc(O)cc(O)c12
REMARK SMILES IDX 5 1 3 2 2 3 1 4 22 5 20 6 19 7 17 8 16 9 15 10 14 11 6 12
REMARK SMILES IDX 7 13 8 14 9 15 13 16 11 17 10 18 12 20 4 22 21 24 18 26
REMARK H PARENT 10 19 12 21 4 23 21 25 18 27
REMARK Flexibility Score: inf
ROOT
ATOM      1  C   UNL     1       0.833   8.001 -17.312  1.00  0.00     0.180 A 
ATOM      2  C   UNL     1       0.477   9.339 -17.572  1.00  0.00     0.208 A 
ATOM      3  C   UNL     1       0.704   9.864 -18.853  1.00  0.00     0.238 A 
ATOM      4  O   UNL     1       0.379  11.057 -19.100  1.00  0.00    -0.285 OA
ATOM      5  C   UNL     1       1.297   9.055 -19.844  1.00  0.00     0.111 A 
ATOM      6  C   UNL     1       1.562   9.509 -21.159  1.00  0.00     0.134 A 
ATOM      7  C   UNL     1       2.166   8.645 -22.085  1.00  0.00     0.093 A 
ATOM      8  C   UNL     1       2.507   7.337 -21.722  1.00  0.00     0.123 A 
ATOM      9  C   UNL     1       2.247   6.885 -20.427  1.00  0.00     0.094 A 
ATOM     10  C   UNL     1       1.646   7.730 -19.490  1.00  0.00     0.146 A 
ATOM     11  O   UNL     1       1.405   7.272 -18.267  1.00  0.00    -0.452 OA
ENDROOT
BRANCH   1  12
ATOM     12  C   UNL     1       0.609   7.369 -15.992  1.00  0.00     0.025 A 
ATOM     13  C   UNL     1       0.121   6.055 -15.931  1.00  0.00     0.016 A 
ATOM     14  C   UNL     1      -0.118   5.445 -14.696  1.00  0.00     0.051 A 
ATOM     15  C   UNL     1       0.112   6.147 -13.506  1.00  0.00     0.157 A 
ATOM     16  C   UNL     1       0.819   8.077 -14.796  1.00  0.00     0.062 A 
ATOM     17  C   UNL     1       0.579   7.470 -13.557  1.00  0.00     0.158 A 
BRANCH  15  18
ATOM     18  O   UNL     1      -0.125   5.535 -12.275  1.00  0.00    -0.504 OA
ATOM     19  H   UNL     1       0.083   6.004 -11.401  1.00  0.00     0.293 HD
ENDBRANCH  15  18
BRANCH  17  20
ATOM     20  O   UNL     1       0.804   8.201 -12.391  1.00  0.00    -0.504 OA
ATOM     21  H   UNL     1       0.122   8.246 -11.643  1.00  0.00     0.293 HD
ENDBRANCH  17  20
ENDBRANCH   1  12
BRANCH   2  22
ATOM     22  O   UNL     1      -0.064  10.134 -16.559  1.00  0.00    -0.502 OA
ATOM     23  H   UNL     1      -0.273  11.116 -16.693  1.00  0.00     0.293 HD
ENDBRANCH   2  22
BRANCH   6  24
ATOM     24  O   UNL     1       1.234  10.808 -21.549  1.00  0.00    -0.507 OA
ATOM     25  H   UNL     1       1.052  11.044 -22.518  1.00  0.00     0.293 HD
ENDBRANCH   6  24
BRANCH   8  26
ATOM     26  O   UNL     1       3.106   6.479 -22.641  1.00  0.00    -0.508 OA
ATOM     27  H   UNL     1       2.562   5.809 -23.173  1.00  0.00     0.293 HD
ENDBRANCH   8  26
TORSDOF 6
ENDMDL
MODEL 5
REMARK VINA RESULT:    -3.748      2.594      5.314
REMARK INTER + INTRA:          -4.560
REMARK INTER:                  -4.961
REMARK INTRA:                   0.401
REMARK UNBOUND:                -0.046
REMARK SMILES O=c1c(O)c(-c2ccc(O)c(O)c2)oc2cc(O)cc(O)c12
REMARK SMILES IDX 5 1 3 2 2 3 1 4 22 5 20 6 19 7 17 8 16 9 15 10 14 11 6 12
REMARK SMILES IDX 7 13 8 14 9 15 13 16 11 17 10 18 12 20 4 22 21 24 18 26
REMARK H PARENT 10 19 12 21 4 23 21 25 18 27
REMARK Flexibility Score: inf
ROOT
ATOM      1  C   UNL     1       0.625   7.106 -13.747  1.00  0.00     0.180 A 
ATOM      2  C   UNL     1       0.486   5.705 -13.703  1.00  0.00     0.208 A 
ATOM      3  C   UNL     1       0.483   5.062 -12.456  1.00  0.00     0.238 A 
ATOM      4  O   UNL     1       0.348   3.809 -12.405  1.00  0.00    -0.285 OA
ATOM      5  C   UNL     1       0.638   5.823 -11.279  1.00  0.00     0.111 A 
ATOM      6  C   UNL     1       0.649   5.251  -9.983  1.00  0.00     0.134 A 
ATOM      7  C   UNL     1       0.818   6.076  -8.861  1.00  0.00     0.093 A 
ATOM      8  C   UNL     1       0.975   7.459  -9.009  1.00  0.00     0.123 A 
ATOM      9  C   UNL     1       0.963   8.027 -10.285  1.00  0.00     0.094 A 
ATOM     10  C   UNL     1       0.795   7.222 -11.416  1.00  0.00     0.146 A 
ATOM     11  O   UNL     1       0.783   7.789 -12.616  1.00  0.00    -0.452 OA
ENDROOT
BRANCH   1  12
ATOM     12  C   UNL     1       0.619   7.858 -15.022  1.00  0.00     0.025 A 
ATOM     13  C   UNL     1       0.026   7.286 -16.157  1.00  0.00     0.016 A 
ATOM     14  C   UNL     1       0.026   7.969 -17.377  1.00  0.00     0.051 A 
ATOM     15  C   UNL     1       0.634   9.226 -17.481  1.00  0.00     0.157 A 
ATOM     16  C   UNL     1       1.246   9.112 -15.136  1.00  0.00     0.062 A 
ATOM     17  C   UNL     1       1.250   9.797 -16.356  1.00  0.00     0.158 A 
BRANCH  15  18
ATOM     18  O   UNL     1       0.630   9.907 -18.699  1.00  0.00    -0.504 OA
ATOM     19  H   UNL     1      -0.103   9.766 -19.384  1.00  0.00     0.293 HD
ENDBRANCH  15  18
BRANCH  17  20
ATOM     20  O   UNL     1       1.876  11.041 -16.431  1.00  0.00    -0.504 OA
ATOM     21  H   UNL     1       2.050  11.504 -17.315  1.00  0.00     0.293 HD
ENDBRANCH  17  20
ENDBRANCH   1  12
BRANCH   2  22
ATOM     22  O   UNL     1       0.384   4.969 -14.887  1.00  0.00    -0.502 OA
ATOM     23  H   UNL     1       0.726   5.319 -15.774  1.00  0.00     0.293 HD
ENDBRANCH   2  22
BRANCH   6  24
ATOM     24  O   UNL     1       0.496   3.876  -9.804  1.00  0.00    -0.507 OA
ATOM     25  H   UNL     1       0.126   3.488  -8.944  1.00  0.00     0.293 HD
ENDBRANCH   6  24
BRANCH   8  26
ATOM     26  O   UNL     1       1.143   8.278  -7.895  1.00  0.00    -0.508 OA
ATOM     27  H   UNL     1       1.259   7.891  -6.966  1.00  0.00     0.293 HD
ENDBRANCH   8  26
TORSDOF 6
ENDMDL
MODEL 6
REMARK VINA RESULT:    -3.536      2.041      7.340
REMARK INTER + INTRA:          -4.305
REMARK INTER:                  -4.618
REMARK INTRA:                   0.313
REMARK UNBOUND:                -0.046
REMARK SMILES O=c1c(O)c(-c2ccc(O)c(O)c2)oc2cc(O)cc(O)c12
REMARK SMILES IDX 5 1 3 2 2 3 1 4 22 5 20 6 19 7 17 8 16 9 15 10 14 11 6 12
REMARK SMILES IDX 7 13 8 14 9 15 13 16 11 17 10 18 12 20 4 22 21 24 18 26
REMARK H PARENT 10 19 12 21 4 23 21 25 18 27
REMARK Flexibility Score: inf
ROOT
ATOM      1  C   UNL     1       0.450   6.975 -13.981  1.00  0.00     0.180 A 
ATOM      2  C   UNL     1       0.328   8.340 -13.657  1.00  0.00     0.208 A 
ATOM      3  C   UNL     1       0.343   9.286 -14.693  1.00  0.00     0.238 A 
ATOM      4  O   UNL     1       0.225  10.511 -14.415  1.00  0.00    -0.285 OA
ATOM      5  C   UNL     1       0.498   8.858 -16.027  1.00  0.00     0.111 A 
ATOM      6  C   UNL     1       0.527   9.748 -17.129  1.00  0.00     0.134 A 
ATOM      7  C   UNL     1       0.695   9.243 -18.427  1.00  0.00     0.093 A 
ATOM      8  C   UNL     1       0.833   7.867 -18.644  1.00  0.00     0.123 A 
ATOM      9  C   UNL     1       0.804   6.986 -17.562  1.00  0.00     0.094 A 
ATOM     10  C   UNL     1       0.637   7.470 -16.260  1.00  0.00     0.146 A 
ATOM     11  O   UNL     1       0.608   6.609 -15.250  1.00  0.00    -0.452 OA
ENDROOT
BRANCH   1  12
ATOM     12  C   UNL     1       0.423   5.916 -12.947  1.00  0.00     0.025 A 
ATOM     13  C   UNL     1      -0.071   4.644 -13.274  1.00  0.00     0.016 A 
ATOM     14  C   UNL     1      -0.125   3.635 -12.309  1.00  0.00     0.051 A 
ATOM     15  C   UNL     1       0.301   3.887 -10.999  1.00  0.00     0.157 A 
ATOM     16  C   UNL     1       0.831   6.171 -11.625  1.00  0.00     0.062 A 
ATOM     17  C   UNL     1       0.776   5.163 -10.656  1.00  0.00     0.158 A 
BRANCH  15  18
ATOM     18  O   UNL     1       0.249   2.878 -10.038  1.00  0.00    -0.504 OA
ATOM     19  H   UNL     1      -0.312   2.971  -9.200  1.00  0.00     0.293 HD
ENDBRANCH  15  18
BRANCH  17  20
ATOM     20  O   UNL     1       1.194   5.451  -9.357  1.00  0.00    -0.504 OA
ATOM     21  H   UNL     1       1.740   4.797  -8.810  1.00  0.00     0.293 HD
ENDBRANCH  17  20
ENDBRANCH   1  12
BRANCH   2  22
ATOM     22  O   UNL     1       0.226   8.742 -12.323  1.00  0.00    -0.502 OA
ATOM     23  H   UNL     1       1.034   8.825 -11.718  1.00  0.00     0.293 HD
ENDBRANCH   2  22
BRANCH   6  24
ATOM     24  O   UNL     1       0.393  11.125 -16.943  1.00  0.00    -0.507 OA
ATOM     25  H   UNL     1       1.058  11.655 -16.392  1.00  0.00     0.293 HD
ENDBRANCH   6  24
BRANCH   8  26
ATOM     26  O   UNL     1       1.000   7.366 -19.933  1.00  0.00    -0.508 OA
ATOM     27  H   UNL     1       1.509   6.506 -20.105  1.00  0.00     0.293 HD
ENDBRANCH   8  26
TORSDOF 6
ENDMDL
MODEL 7
REMARK VINA RESULT:    -2.584      1.971      3.396
REMARK INTER + INTRA:          -3.158
REMARK INTER:                  -3.533
REMARK INTRA:                   0.375
REMARK UNBOUND:                -0.046
REMARK SMILES O=c1c(O)c(-c2ccc(O)c(O)c2)oc2cc(O)cc(O)c12
REMARK SMILES IDX 5 1 3 2 2 3 1 4 22 5 20 6 19 7 17 8 16 9 15 10 14 11 6 12
REMARK SMILES IDX 7 13 8 14 9 15 13 16 11 17 10 18 12 20 4 22 21 24 18 26
REMARK H PARENT 10 19 12 21 4 23 21 25 18 27
REMARK Flexibility Score: inf
ROOT
ATOM      1  C   UNL     1       0.274   8.146 -14.727  1.00  0.00     0.180 A 
ATOM      2  C   UNL     1       0.192   9.196 -13.792  1.00  0.00     0.208 A 
ATOM      3  C   UNL     1       0.088   8.884 -12.428  1.00  0.00     0.238 A 
ATOM      4  O   UNL     1       0.024   9.817 -11.581  1.00  0.00    -0.285 OA
ATOM      5  C   UNL     1       0.048   7.534 -12.023  1.00  0.00     0.111 A 
ATOM      6  C   UNL     1      -0.059   7.134 -10.668  1.00  0.00     0.134 A 
ATOM      7  C   UNL     1      -0.103   5.769 -10.347  1.00  0.00     0.093 A 
ATOM      8  C   UNL     1      -0.040   4.798 -11.353  1.00  0.00     0.123 A 
ATOM      9  C   UNL     1       0.067   5.187 -12.690  1.00  0.00     0.094 A 
ATOM     10  C   UNL     1       0.112   6.543 -13.030  1.00  0.00     0.146 A 
ATOM     11  O   UNL     1       0.219   6.884 -14.309  1.00  0.00    -0.452 OA
ENDROOT
BRANCH   1  12
ATOM     12  C   UNL     1       0.405   8.394 -16.180  1.00  0.00     0.025 A 
ATOM     13  C   UNL     1       0.166   7.347 -17.084  1.00  0.00     0.016 A 
ATOM     14  C   UNL     1       0.304   7.554 -18.459  1.00  0.00     0.051 A 
ATOM     15  C   UNL     1       0.698   8.805 -18.950  1.00  0.00     0.157 A 
ATOM     16  C   UNL     1       0.820   9.644 -16.676  1.00  0.00     0.062 A 
ATOM     17  C   UNL     1       0.961   9.852 -18.052  1.00  0.00     0.158 A 
BRANCH  15  18
ATOM     18  O   UNL     1       0.832   9.009 -20.323  1.00  0.00    -0.504 OA
ATOM     19  H   UNL     1       0.059   9.340 -20.888  1.00  0.00     0.293 HD
ENDBRANCH  15  18
BRANCH  17  20
ATOM     20  O   UNL     1       1.369  11.106 -18.508  1.00  0.00    -0.504 OA
ATOM     21  H   UNL     1       1.873  11.756 -17.918  1.00  0.00     0.293 HD
ENDBRANCH  17  20
ENDBRANCH   1  12
BRANCH   2  22
ATOM     22  O   UNL     1       0.184  10.525 -14.224  1.00  0.00    -0.502 OA
ATOM     23  H   UNL     1       0.107  10.777 -15.202  1.00  0.00     0.293 HD
ENDBRANCH   2  22
BRANCH   6  24
ATOM     24  O   UNL     1      -0.125   8.080  -9.644  1.00  0.00    -0.507 OA
ATOM     25  H   UNL     1      -0.995   8.535  -9.394  1.00  0.00     0.293 HD
ENDBRANCH   6  24
BRANCH   8  26
ATOM     26  O   UNL     1      -0.084   3.442 -11.035  1.00  0.00    -0.508 OA
ATOM     27  H   UNL     1       0.685   2.821 -11.259  1.00  0.00     0.293 HD
ENDBRANCH   8  26
TORSDOF 6
ENDMDL
