MODEL 1
REMARK VINA RESULT:    -5.517      0.000      0.000
REMARK INTER + INTRA:          -9.904
REMARK INTER:                  -8.259
REMARK INTRA:                  -1.645
REMARK UNBOUND:                -1.645
REMARK SMILES COC(=O)C1=CO[C@H](O[C@@H]2O[C@@H](CO)[C@@H](O)[C@H](O)[C@H]2O)[C@H]2C(CO)=CC[C@H]12
REMARK SMILES IDX 9 1 8 2 5 3 6 4 27 5 7 6 21 7 26 8 22 9 25 10 3 11 4 12 2 13
REMARK SMILES IDX 1 14 23 15 24 16 10 18 19 19 11 20 17 21 12 22 15 23 20 24
REMARK SMILES IDX 18 26 13 28 14 29 16 31
REMARK H PARENT 24 17 20 25 18 27 14 30 16 32
REMARK Flexibility Score: inf
ROOT
ATOM      1  O   UNL     1     -25.243   5.982  13.544  1.00  0.00    -0.310 OA
ENDROOT
BRANCH   1   2
ATOM      2  C   UNL     1     -23.923   6.214  13.057  1.00  0.00     0.316 C 
ATOM      3  C   UNL     1     -21.175   5.407  12.478  1.00  0.00     0.076 C 
ATOM      4  C   UNL     1     -21.623   5.460  13.752  1.00  0.00     0.202 C 
ATOM      5  C   UNL     1     -22.099   5.956  11.416  1.00  0.00     0.047 C 
ATOM      6  O   UNL     1     -22.944   5.872  14.055  1.00  0.00    -0.471 OA
ATOM      7  C   UNL     1     -23.533   5.536  11.726  1.00  0.00     0.094 C 
ATOM      8  C   UNL     1     -21.944   5.563   9.948  1.00  0.00     0.037 C 
ATOM      9  C   UNL     1     -24.216   5.879  10.439  1.00  0.00    -0.039 C 
ATOM     10  C   UNL     1     -23.332   5.811   9.438  1.00  0.00    -0.024 C 
BRANCH   3  11
ATOM     11  C   UNL     1     -19.775   5.022  12.189  1.00  0.00     0.337 C 
ATOM     12  O   UNL     1     -18.894   5.910  12.031  1.00  0.00    -0.246 OA
BRANCH  11  13
ATOM     13  O   UNL     1     -19.428   3.668  12.112  1.00  0.00    -0.466 OA
ATOM     14  C   UNL     1     -18.178   3.223  11.600  1.00  0.00     0.282 C 
ENDBRANCH  11  13
ENDBRANCH   3  11
BRANCH   9  15
ATOM     15  C   UNL     1     -25.687   6.122  10.235  1.00  0.00     0.187 C 
BRANCH  15  16
ATOM     16  O   UNL     1     -26.357   4.911  10.022  1.00  0.00    -0.392 OA
ATOM     17  H   UNL     1     -26.923   4.754  10.824  1.00  0.00     0.211 HD
ENDBRANCH  15  16
ENDBRANCH   9  15
ENDBRANCH   1   2
BRANCH   1  18
ATOM     18  C   UNL     1     -25.623   4.622  13.750  1.00  0.00     0.286 C 
ATOM     19  C   UNL     1     -25.951   4.270  15.228  1.00  0.00     0.202 C 
ATOM     20  O   UNL     1     -26.734   4.316  12.920  1.00  0.00    -0.341 OA
ATOM     21  C   UNL     1     -27.237   4.983  15.689  1.00  0.00     0.179 C 
ATOM     22  C   UNL     1     -27.867   5.105  13.248  1.00  0.00     0.178 C 
ATOM     23  C   UNL     1     -28.372   4.774  14.671  1.00  0.00     0.177 C 
BRANCH  19  24
ATOM     24  O   UNL     1     -26.132   2.881  15.346  1.00  0.00    -0.385 OA
ATOM     25  H   UNL     1     -25.837   2.627  16.261  1.00  0.00     0.211 HD
ENDBRANCH  19  24
BRANCH  21  26
ATOM     26  O   UNL     1     -27.003   6.360  15.846  1.00  0.00    -0.387 OA
ATOM     27  H   UNL     1     -26.615   6.486  16.751  1.00  0.00     0.211 HD
ENDBRANCH  21  26
BRANCH  22  28
ATOM     28  C   UNL     1     -28.955   4.861  12.189  1.00  0.00     0.191 C 
BRANCH  28  29
ATOM     29  O   UNL     1     -28.702   3.688  11.462  1.00  0.00    -0.394 OA
ATOM     30  H   UNL     1     -29.268   3.730  10.648  1.00  0.00     0.210 HD
ENDBRANCH  28  29
ENDBRANCH  22  28
BRANCH  23  31
ATOM     31  O   UNL     1     -28.826   3.443  14.721  1.00  0.00    -0.387 OA
ATOM     32  H   UNL     1     -28.977   3.157  13.783  1.00  0.00     0.211 HD
ENDBRANCH  23  31
ENDBRANCH   1  18
TORSDOF 11
ENDMDL
MODEL 2
REMARK VINA RESULT:    -5.427      3.523      4.788
REMARK INTER + INTRA:          -9.769
REMARK INTER:                  -8.339
REMARK INTRA:                  -1.430
REMARK UNBOUND:                -1.645
REMARK SMILES COC(=O)C1=CO[C@H](O[C@@H]2O[C@@H](CO)[C@@H](O)[C@H](O)[C@H]2O)[C@H]2C(CO)=CC[C@H]12
REMARK SMILES IDX 9 1 8 2 5 3 6 4 27 5 7 6 21 7 26 8 22 9 25 10 3 11 4 12 2 13
REMARK SMILES IDX 1 14 23 15 24 16 10 18 19 19 11 20 17 21 12 22 15 23 20 24
REMARK SMILES IDX 18 26 13 28 14 29 16 31
REMARK H PARENT 24 17 20 25 18 27 14 30 16 32
REMARK Flexibility Score: inf
ROOT
ATOM      1  O   UNL     1     -24.834   8.284  11.652  1.00  0.00    -0.310 OA
ENDROOT
BRANCH   1   2
ATOM      2  C   UNL     1     -23.453   7.935  11.719  1.00  0.00     0.316 C 
ATOM      3  C   UNL     1     -21.143   6.651  12.964  1.00  0.00     0.076 C 
ATOM      4  C   UNL     1     -21.786   7.663  13.587  1.00  0.00     0.202 C 
ATOM      5  C   UNL     1     -21.564   6.359  11.543  1.00  0.00     0.047 C 
ATOM      6  O   UNL     1     -22.892   8.314  12.989  1.00  0.00    -0.471 OA
ATOM      7  C   UNL     1     -23.082   6.464  11.432  1.00  0.00     0.094 C 
ATOM      8  C   UNL     1     -21.273   5.008  10.890  1.00  0.00     0.037 C 
ATOM      9  C   UNL     1     -23.315   5.841  10.091  1.00  0.00    -0.039 C 
ATOM     10  C   UNL     1     -22.337   4.967   9.835  1.00  0.00    -0.024 C 
BRANCH   3  11
ATOM     11  C   UNL     1     -19.957   6.018  13.586  1.00  0.00     0.337 C 
ATOM     12  O   UNL     1     -20.092   4.991  14.304  1.00  0.00    -0.246 OA
BRANCH  11  13
ATOM     13  O   UNL     1     -18.683   6.550  13.354  1.00  0.00    -0.466 OA
ATOM     14  C   UNL     1     -17.904   6.210  12.214  1.00  0.00     0.282 C 
ENDBRANCH  11  13
ENDBRANCH   3  11
BRANCH   9  15
ATOM     15  C   UNL     1     -24.518   6.028   9.207  1.00  0.00     0.187 C 
BRANCH  15  16
ATOM     16  O   UNL     1     -25.691   5.728   9.909  1.00  0.00    -0.392 OA
ATOM     17  H   UNL     1     -25.910   6.530  10.454  1.00  0.00     0.211 HD
ENDBRANCH  15  16
ENDBRANCH   9  15
ENDBRANCH   1   2
BRANCH   1  18
ATOM     18  C   UNL     1     -25.153   9.530  11.034  1.00  0.00     0.286 C 
ATOM     19  C   UNL     1     -26.162   9.418   9.858  1.00  0.00     0.202 C 
ATOM     20  O   UNL     1     -25.652  10.425  12.018  1.00  0.00    -0.341 OA
ATOM     21  C   UNL     1     -27.556   9.004  10.369  1.00  0.00     0.179 C 
ATOM     22  C   UNL     1     -26.853   9.945  12.603  1.00  0.00     0.178 C 
ATOM     23  C   UNL     1     -27.988   9.886  11.554  1.00  0.00     0.177 C 
BRANCH  19  24
ATOM     24  O   UNL     1     -26.264  10.662   9.212  1.00  0.00    -0.385 OA
ATOM     25  H   UNL     1     -25.560  11.248   9.598  1.00  0.00     0.211 HD
ENDBRANCH  19  24
BRANCH  21  26
ATOM     26  O   UNL     1     -27.549   7.658  10.772  1.00  0.00    -0.387 OA
ATOM     27  H   UNL     1     -27.213   7.127  10.003  1.00  0.00     0.211 HD
ENDBRANCH  21  26
BRANCH  22  28
ATOM     28  C   UNL     1     -27.221  10.859  13.784  1.00  0.00     0.191 C 
BRANCH  28  29
ATOM     29  O   UNL     1     -26.222  11.816  14.015  1.00  0.00    -0.394 OA
ATOM     30  H   UNL     1     -26.583  12.686  13.703  1.00  0.00     0.210 HD
ENDBRANCH  28  29
ENDBRANCH  22  28
BRANCH  23  31
ATOM     31  O   UNL     1     -28.292  11.184  11.103  1.00  0.00    -0.387 OA
ATOM     32  H   UNL     1     -28.143  11.795  11.870  1.00  0.00     0.211 HD
ENDBRANCH  23  31
ENDBRANCH   1  18
TORSDOF 11
ENDMDL
MODEL 3
REMARK VINA RESULT:    -5.389      2.425      6.892
REMARK INTER + INTRA:          -9.713
REMARK INTER:                  -8.265
REMARK INTRA:                  -1.448
REMARK UNBOUND:                -1.645
REMARK SMILES COC(=O)C1=CO[C@H](O[C@@H]2O[C@@H](CO)[C@@H](O)[C@H](O)[C@H]2O)[C@H]2C(CO)=CC[C@H]12
REMARK SMILES IDX 9 1 8 2 5 3 6 4 27 5 7 6 21 7 26 8 22 9 25 10 3 11 4 12 2 13
REMARK SMILES IDX 1 14 23 15 24 16 10 18 19 19 11 20 17 21 12 22 15 23 20 24
REMARK SMILES IDX 18 26 13 28 14 29 16 31
REMARK H PARENT 24 17 20 25 18 27 14 30 16 32
REMARK Flexibility Score: inf
ROOT
ATOM      1  O   UNL     1     -23.536   6.574  12.518  1.00  0.00    -0.310 OA
ENDROOT
BRANCH   1   2
ATOM      2  C   UNL     1     -24.864   6.859  12.083  1.00  0.00     0.316 C 
ATOM      3  C   UNL     1     -26.866   7.486  10.050  1.00  0.00     0.076 C 
ATOM      4  C   UNL     1     -25.864   8.352  10.319  1.00  0.00     0.202 C 
ATOM      5  C   UNL     1     -26.991   6.294  10.969  1.00  0.00     0.047 C 
ATOM      6  O   UNL     1     -24.899   8.078  11.317  1.00  0.00    -0.471 OA
ATOM      7  C   UNL     1     -25.601   5.756  11.293  1.00  0.00     0.094 C 
ATOM      8  C   UNL     1     -27.746   5.036  10.542  1.00  0.00     0.037 C 
ATOM      9  C   UNL     1     -25.941   4.437  11.915  1.00  0.00    -0.039 C 
ATOM     10  C   UNL     1     -27.107   4.006  11.424  1.00  0.00    -0.024 C 
BRANCH   3  11
ATOM     11  C   UNL     1     -27.895   7.816   9.036  1.00  0.00     0.337 C 
ATOM     12  O   UNL     1     -29.044   8.185   9.398  1.00  0.00    -0.246 OA
BRANCH  11  13
ATOM     13  O   UNL     1     -27.579   7.739   7.675  1.00  0.00    -0.466 OA
ATOM     14  C   UNL     1     -27.338   8.890   6.876  1.00  0.00     0.282 C 
ENDBRANCH  11  13
ENDBRANCH   3  11
BRANCH   9  15
ATOM     15  C   UNL     1     -25.072   3.623  12.835  1.00  0.00     0.187 C 
BRANCH  15  16
ATOM     16  O   UNL     1     -24.933   4.267  14.071  1.00  0.00    -0.392 OA
ATOM     17  H   UNL     1     -25.580   3.836  14.690  1.00  0.00     0.211 HD
ENDBRANCH  15  16
ENDBRANCH   9  15
ENDBRANCH   1   2
BRANCH   1  18
ATOM     18  C   UNL     1     -22.545   6.425  11.502  1.00  0.00     0.286 C 
ATOM     19  C   UNL     1     -21.343   7.400  11.637  1.00  0.00     0.202 C 
ATOM     20  O   UNL     1     -22.081   5.082  11.494  1.00  0.00    -0.341 OA
ATOM     21  C   UNL     1     -20.504   7.067  12.886  1.00  0.00     0.179 C 
ATOM     22  C   UNL     1     -21.457   4.735  12.721  1.00  0.00     0.178 C 
ATOM     23  C   UNL     1     -20.170   5.565  12.935  1.00  0.00     0.177 C 
BRANCH  19  24
ATOM     24  O   UNL     1     -20.527   7.294  10.498  1.00  0.00    -0.385 OA
ATOM     25  H   UNL     1     -19.720   6.780  10.767  1.00  0.00     0.211 HD
ENDBRANCH  19  24
BRANCH  21  26
ATOM     26  O   UNL     1     -21.200   7.424  14.053  1.00  0.00    -0.387 OA
ATOM     27  H   UNL     1     -21.210   6.624  14.641  1.00  0.00     0.211 HD
ENDBRANCH  21  26
BRANCH  22  28
ATOM     28  C   UNL     1     -21.164   3.226  12.711  1.00  0.00     0.191 C 
BRANCH  28  29
ATOM     29  O   UNL     1     -20.002   2.929  13.438  1.00  0.00    -0.394 OA
ATOM     30  H   UNL     1     -20.171   2.072  13.908  1.00  0.00     0.210 HD
ENDBRANCH  28  29
ENDBRANCH  22  28
BRANCH  23  31
ATOM     31  O   UNL     1     -19.226   5.249  11.941  1.00  0.00    -0.387 OA
ATOM     32  H   UNL     1     -19.734   5.093  11.103  1.00  0.00     0.211 HD
ENDBRANCH  23  31
ENDBRANCH   1  18
TORSDOF 11
ENDMDL
MODEL 4
REMARK VINA RESULT:    -5.325      2.437      3.485
REMARK INTER + INTRA:          -9.617
REMARK INTER:                  -8.161
REMARK INTRA:                  -1.456
REMARK UNBOUND:                -1.645
REMARK SMILES COC(=O)C1=CO[C@H](O[C@@H]2O[C@@H](CO)[C@@H](O)[C@H](O)[C@H]2O)[C@H]2C(CO)=CC[C@H]12
REMARK SMILES IDX 9 1 8 2 5 3 6 4 27 5 7 6 21 7 26 8 22 9 25 10 3 11 4 12 2 13
REMARK SMILES IDX 1 14 23 15 24 16 10 18 19 19 11 20 17 21 12 22 15 23 20 24
REMARK SMILES IDX 18 26 13 28 14 29 16 31
REMARK H PARENT 24 17 20 25 18 27 14 30 16 32
REMARK Flexibility Score: inf
ROOT
ATOM      1  O   UNL     1     -24.816   8.553  11.654  1.00  0.00    -0.310 OA
ENDROOT
BRANCH   1   2
ATOM      2  C   UNL     1     -23.450   8.164  11.531  1.00  0.00     0.316 C 
ATOM      3  C   UNL     1     -21.024   6.826  12.457  1.00  0.00     0.076 C 
ATOM      4  C   UNL     1     -21.544   7.864  13.149  1.00  0.00     0.202 C 
ATOM      5  C   UNL     1     -21.650   6.530  11.114  1.00  0.00     0.047 C 
ATOM      6  O   UNL     1     -22.705   8.541  12.703  1.00  0.00    -0.471 OA
ATOM      7  C   UNL     1     -23.164   6.680  11.217  1.00  0.00     0.094 C 
ATOM      8  C   UNL     1     -21.492   5.164  10.448  1.00  0.00     0.037 C 
ATOM      9  C   UNL     1     -23.603   6.049   9.932  1.00  0.00    -0.039 C 
ATOM     10  C   UNL     1     -22.696   5.143   9.554  1.00  0.00    -0.024 C 
BRANCH   3  11
ATOM     11  C   UNL     1     -19.780   6.164  12.915  1.00  0.00     0.337 C 
ATOM     12  O   UNL     1     -18.657   6.645  12.605  1.00  0.00    -0.246 OA
BRANCH  11  13
ATOM     13  O   UNL     1     -19.857   5.016  13.712  1.00  0.00    -0.466 OA
ATOM     14  C   UNL     1     -19.001   4.797  14.827  1.00  0.00     0.282 C 
ENDBRANCH  11  13
ENDBRANCH   3  11
BRANCH   9  15
ATOM     15  C   UNL     1     -24.913   6.262   9.224  1.00  0.00     0.187 C 
BRANCH  15  16
ATOM     16  O   UNL     1     -25.973   6.227  10.138  1.00  0.00    -0.392 OA
ATOM     17  H   UNL     1     -26.702   5.705   9.708  1.00  0.00     0.211 HD
ENDBRANCH  15  16
ENDBRANCH   9  15
ENDBRANCH   1   2
BRANCH   1  18
ATOM     18  C   UNL     1     -25.232   9.045  12.927  1.00  0.00     0.286 C 
ATOM     19  C   UNL     1     -26.586   9.808  12.903  1.00  0.00     0.202 C 
ATOM     20  O   UNL     1     -25.301   7.965  13.847  1.00  0.00    -0.341 OA
ATOM     21  C   UNL     1     -27.751   8.849  12.589  1.00  0.00     0.179 C 
ATOM     22  C   UNL     1     -26.264   7.000  13.452  1.00  0.00     0.178 C 
ATOM     23  C   UNL     1     -27.688   7.602  13.489  1.00  0.00     0.177 C 
BRANCH  19  24
ATOM     24  O   UNL     1     -26.809  10.401  14.158  1.00  0.00    -0.385 OA
ATOM     25  H   UNL     1     -27.773  10.637  14.200  1.00  0.00     0.211 HD
ENDBRANCH  19  24
BRANCH  21  26
ATOM     26  O   UNL     1     -27.708   8.451  11.242  1.00  0.00    -0.387 OA
ATOM     27  H   UNL     1     -28.152   7.565  11.188  1.00  0.00     0.211 HD
ENDBRANCH  21  26
BRANCH  22  28
ATOM     28  C   UNL     1     -26.141   5.779  14.379  1.00  0.00     0.191 C 
BRANCH  28  29
ATOM     29  O   UNL     1     -25.838   6.167  15.692  1.00  0.00    -0.394 OA
ATOM     30  H   UNL     1     -26.259   5.496  16.291  1.00  0.00     0.210 HD
ENDBRANCH  28  29
ENDBRANCH  22  28
BRANCH  23  31
ATOM     31  O   UNL     1     -28.031   7.943  14.810  1.00  0.00    -0.387 OA
ATOM     32  H   UNL     1     -27.734   7.191  15.385  1.00  0.00     0.211 HD
ENDBRANCH  23  31
ENDBRANCH   1  18
TORSDOF 11
ENDMDL
MODEL 5
REMARK VINA RESULT:    -5.295      1.833      6.545
REMARK INTER + INTRA:          -9.572
REMARK INTER:                  -8.415
REMARK INTRA:                  -1.156
REMARK UNBOUND:                -1.645
REMARK SMILES COC(=O)C1=CO[C@H](O[C@@H]2O[C@@H](CO)[C@@H](O)[C@H](O)[C@H]2O)[C@H]2C(CO)=CC[C@H]12
REMARK SMILES IDX 9 1 8 2 5 3 6 4 27 5 7 6 21 7 26 8 22 9 25 10 3 11 4 12 2 13
REMARK SMILES IDX 1 14 23 15 24 16 10 18 19 19 11 20 17 21 12 22 15 23 20 24
REMARK SMILES IDX 18 26 13 28 14 29 16 31
REMARK H PARENT 24 17 20 25 18 27 14 30 16 32
REMARK Flexibility Score: inf
ROOT
ATOM      1  O   UNL     1     -21.831   4.011  12.395  1.00  0.00    -0.310 OA
ENDROOT
BRANCH   1   2
ATOM      2  C   UNL     1     -23.238   3.922  12.182  1.00  0.00     0.316 C 
ATOM      3  C   UNL     1     -26.012   4.669  12.717  1.00  0.00     0.076 C 
ATOM      4  C   UNL     1     -25.265   4.067  13.669  1.00  0.00     0.202 C 
ATOM      5  C   UNL     1     -25.400   4.758  11.338  1.00  0.00     0.047 C 
ATOM      6  O   UNL     1     -23.927   3.675  13.422  1.00  0.00    -0.471 OA
ATOM      7  C   UNL     1     -23.920   5.106  11.463  1.00  0.00     0.094 C 
ATOM      8  C   UNL     1     -25.898   5.776  10.313  1.00  0.00     0.037 C 
ATOM      9  C   UNL     1     -23.589   5.462  10.047  1.00  0.00    -0.039 C 
ATOM     10  C   UNL     1     -24.689   5.912   9.437  1.00  0.00    -0.024 C 
BRANCH   3  11
ATOM     11  C   UNL     1     -27.425   5.024  12.981  1.00  0.00     0.337 C 
ATOM     12  O   UNL     1     -27.703   6.040  13.674  1.00  0.00    -0.246 OA
BRANCH  11  13
ATOM     13  O   UNL     1     -28.452   4.241  12.441  1.00  0.00    -0.466 OA
ATOM     14  C   UNL     1     -29.354   4.730  11.456  1.00  0.00     0.282 C 
ENDBRANCH  11  13
ENDBRANCH   3  11
BRANCH   9  15
ATOM     15  C   UNL     1     -22.223   5.467   9.413  1.00  0.00     0.187 C 
BRANCH  15  16
ATOM     16  O   UNL     1     -21.611   6.714   9.585  1.00  0.00    -0.392 OA
ATOM     17  H   UNL     1     -20.686   6.536   9.900  1.00  0.00     0.211 HD
ENDBRANCH  15  16
ENDBRANCH   9  15
ENDBRANCH   1   2
BRANCH   1  18
ATOM     18  C   UNL     1     -21.403   4.423  13.693  1.00  0.00     0.286 C 
ATOM     19  C   UNL     1     -19.895   4.175  13.974  1.00  0.00     0.202 C 
ATOM     20  O   UNL     1     -21.709   5.799  13.872  1.00  0.00    -0.341 OA
ATOM     21  C   UNL     1     -19.016   5.087  13.096  1.00  0.00     0.179 C 
ATOM     22  C   UNL     1     -21.018   6.616  12.940  1.00  0.00     0.178 C 
ATOM     23  C   UNL     1     -19.492   6.549  13.179  1.00  0.00     0.177 C 
BRANCH  19  24
ATOM     24  O   UNL     1     -19.622   4.444  15.326  1.00  0.00    -0.385 OA
ATOM     25  H   UNL     1     -19.191   5.339  15.362  1.00  0.00     0.211 HD
ENDBRANCH  19  24
BRANCH  21  26
ATOM     26  O   UNL     1     -19.055   4.663  11.757  1.00  0.00    -0.387 OA
ATOM     27  H   UNL     1     -18.956   5.474  11.193  1.00  0.00     0.211 HD
ENDBRANCH  21  26
BRANCH  22  28
ATOM     28  C   UNL     1     -21.548   8.055  13.065  1.00  0.00     0.191 C 
BRANCH  28  29
ATOM     29  O   UNL     1     -21.871   8.363  14.395  1.00  0.00    -0.394 OA
ATOM     30  H   UNL     1     -21.152   7.978  14.960  1.00  0.00     0.210 HD
ENDBRANCH  28  29
ENDBRANCH  22  28
BRANCH  23  31
ATOM     31  O   UNL     1     -19.179   7.086  14.441  1.00  0.00    -0.387 OA
ATOM     32  H   UNL     1     -19.138   6.323  15.074  1.00  0.00     0.211 HD
ENDBRANCH  23  31
ENDBRANCH   1  18
TORSDOF 11
ENDMDL
MODEL 6
REMARK VINA RESULT:    -5.280      2.971      6.781
REMARK INTER + INTRA:          -9.549
REMARK INTER:                  -8.243
REMARK INTRA:                  -1.306
REMARK UNBOUND:                -1.645
REMARK SMILES COC(=O)C1=CO[C@H](O[C@@H]2O[C@@H](CO)[C@@H](O)[C@H](O)[C@H]2O)[C@H]2C(CO)=CC[C@H]12
REMARK SMILES IDX 9 1 8 2 5 3 6 4 27 5 7 6 21 7 26 8 22 9 25 10 3 11 4 12 2 13
REMARK SMILES IDX 1 14 23 15 24 16 10 18 19 19 11 20 17 21 12 22 15 23 20 24
REMARK SMILES IDX 18 26 13 28 14 29 16 31
REMARK H PARENT 24 17 20 25 18 27 14 30 16 32
REMARK Flexibility Score: inf
ROOT
ATOM      1  O   UNL     1     -21.839   6.658  10.813  1.00  0.00    -0.310 OA
ENDROOT
BRANCH   1   2
ATOM      2  C   UNL     1     -23.090   7.132  10.319  1.00  0.00     0.316 C 
ATOM      3  C   UNL     1     -25.993   7.003  10.012  1.00  0.00     0.076 C 
ATOM      4  C   UNL     1     -25.203   6.029   9.507  1.00  0.00     0.202 C 
ATOM      5  C   UNL     1     -25.290   8.221  10.565  1.00  0.00     0.047 C 
ATOM      6  O   UNL     1     -23.794   6.086   9.624  1.00  0.00    -0.471 OA
ATOM      7  C   UNL     1     -24.050   7.783  11.338  1.00  0.00     0.094 C 
ATOM      8  C   UNL     1     -25.984   9.161  11.549  1.00  0.00     0.037 C 
ATOM      9  C   UNL     1     -23.696   9.050  12.054  1.00  0.00    -0.039 C 
ATOM     10  C   UNL     1     -24.803   9.776  12.237  1.00  0.00    -0.024 C 
BRANCH   3  11
ATOM     11  C   UNL     1     -27.462   6.949   9.835  1.00  0.00     0.337 C 
ATOM     12  O   UNL     1     -28.154   6.154  10.526  1.00  0.00    -0.246 OA
BRANCH  11  13
ATOM     13  O   UNL     1     -28.083   7.799   8.911  1.00  0.00    -0.466 OA
ATOM     14  C   UNL     1     -27.539   8.061   7.623  1.00  0.00     0.282 C 
ENDBRANCH  11  13
ENDBRANCH   3  11
BRANCH   9  15
ATOM     15  C   UNL     1     -22.353   9.419  12.623  1.00  0.00     0.187 C 
BRANCH  15  16
ATOM     16  O   UNL     1     -22.449   9.627  14.004  1.00  0.00    -0.392 OA
ATOM     17  H   UNL     1     -21.528   9.551  14.368  1.00  0.00     0.211 HD
ENDBRANCH  15  16
ENDBRANCH   9  15
ENDBRANCH   1   2
BRANCH   1  18
ATOM     18  C   UNL     1     -21.776   5.283  11.189  1.00  0.00     0.286 C 
ATOM     19  C   UNL     1     -20.339   4.692  11.201  1.00  0.00     0.202 C 
ATOM     20  O   UNL     1     -22.378   5.119  12.465  1.00  0.00    -0.341 OA
ATOM     21  C   UNL     1     -19.496   5.321  12.329  1.00  0.00     0.179 C 
ATOM     22  C   UNL     1     -21.687   5.845  13.470  1.00  0.00     0.178 C 
ATOM     23  C   UNL     1     -20.259   5.284  13.665  1.00  0.00     0.177 C 
BRANCH  19  24
ATOM     24  O   UNL     1     -20.408   3.303  11.405  1.00  0.00    -0.385 OA
ATOM     25  H   UNL     1     -19.909   2.876  10.659  1.00  0.00     0.211 HD
ENDBRANCH  19  24
BRANCH  21  26
ATOM     26  O   UNL     1     -19.176   6.653  12.016  1.00  0.00    -0.387 OA
ATOM     27  H   UNL     1     -19.712   6.899  11.218  1.00  0.00     0.211 HD
ENDBRANCH  21  26
BRANCH  22  28
ATOM     28  C   UNL     1     -22.505   5.779  14.770  1.00  0.00     0.191 C 
BRANCH  28  29
ATOM     29  O   UNL     1     -22.967   7.050  15.144  1.00  0.00    -0.394 OA
ATOM     30  H   UNL     1     -23.299   6.969  16.076  1.00  0.00     0.210 HD
ENDBRANCH  28  29
ENDBRANCH  22  28
BRANCH  23  31
ATOM     31  O   UNL     1     -20.325   3.963  14.146  1.00  0.00    -0.387 OA
ATOM     32  H   UNL     1     -20.767   3.424  13.441  1.00  0.00     0.211 HD
ENDBRANCH  23  31
ENDBRANCH   1  18
TORSDOF 11
ENDMDL
MODEL 7
REMARK VINA RESULT:    -5.264      2.624      4.172
REMARK INTER + INTRA:          -9.525
REMARK INTER:                  -8.321
REMARK INTRA:                  -1.204
REMARK UNBOUND:                -1.645
REMARK SMILES COC(=O)C1=CO[C@H](O[C@@H]2O[C@@H](CO)[C@@H](O)[C@H](O)[C@H]2O)[C@H]2C(CO)=CC[C@H]12
REMARK SMILES IDX 9 1 8 2 5 3 6 4 27 5 7 6 21 7 26 8 22 9 25 10 3 11 4 12 2 13
REMARK SMILES IDX 1 14 23 15 24 16 10 18 19 19 11 20 17 21 12 22 15 23 20 24
REMARK SMILES IDX 18 26 13 28 14 29 16 31
REMARK H PARENT 24 17 20 25 18 27 14 30 16 32
REMARK Flexibility Score: inf
ROOT
ATOM      1  O   UNL     1     -23.860   7.352  11.461  1.00  0.00    -0.310 OA
ENDROOT
BRANCH   1   2
ATOM      2  C   UNL     1     -22.677   6.573  11.297  1.00  0.00     0.316 C 
ATOM      3  C   UNL     1     -19.951   5.788  11.998  1.00  0.00     0.076 C 
ATOM      4  C   UNL     1     -20.212   7.030  11.534  1.00  0.00     0.202 C 
ATOM      5  C   UNL     1     -21.094   4.800  11.955  1.00  0.00     0.047 C 
ATOM      6  O   UNL     1     -21.521   7.422  11.166  1.00  0.00    -0.471 OA
ATOM      7  C   UNL     1     -22.385   5.500  12.368  1.00  0.00     0.094 C 
ATOM      8  C   UNL     1     -21.096   3.549  12.833  1.00  0.00     0.037 C 
ATOM      9  C   UNL     1     -23.293   4.328  12.575  1.00  0.00    -0.039 C 
ATOM     10  C   UNL     1     -22.565   3.260  12.914  1.00  0.00    -0.024 C 
BRANCH   3  11
ATOM     11  C   UNL     1     -18.566   5.383  12.329  1.00  0.00     0.337 C 
ATOM     12  O   UNL     1     -18.035   4.403  11.741  1.00  0.00    -0.246 OA
BRANCH  11  13
ATOM     13  O   UNL     1     -17.839   6.107  13.282  1.00  0.00    -0.466 OA
ATOM     14  C   UNL     1     -16.805   7.018  12.930  1.00  0.00     0.282 C 
ENDBRANCH  11  13
ENDBRANCH   3  11
BRANCH   9  15
ATOM     15  C   UNL     1     -24.798   4.339  12.559  1.00  0.00     0.187 C 
BRANCH  15  16
ATOM     16  O   UNL     1     -25.270   4.580  11.263  1.00  0.00    -0.392 OA
ATOM     17  H   UNL     1     -25.641   5.502  11.262  1.00  0.00     0.211 HD
ENDBRANCH  15  16
ENDBRANCH   9  15
ENDBRANCH   1   2
BRANCH   1  18
ATOM     18  C   UNL     1     -23.884   8.261  12.561  1.00  0.00     0.286 C 
ATOM     19  C   UNL     1     -24.271   9.716  12.177  1.00  0.00     0.202 C 
ATOM     20  O   UNL     1     -24.773   7.769  13.554  1.00  0.00    -0.341 OA
ATOM     21  C   UNL     1     -25.745   9.792  11.729  1.00  0.00     0.179 C 
ATOM     22  C   UNL     1     -26.105   7.684  13.071  1.00  0.00     0.178 C 
ATOM     23  C   UNL     1     -26.661   9.090  12.748  1.00  0.00     0.177 C 
BRANCH  19  24
ATOM     24  O   UNL     1     -24.089  10.556  13.289  1.00  0.00    -0.385 OA
ATOM     25  H   UNL     1     -24.991  10.737  13.666  1.00  0.00     0.211 HD
ENDBRANCH  19  24
BRANCH  21  26
ATOM     26  O   UNL     1     -25.905   9.190  10.470  1.00  0.00    -0.387 OA
ATOM     27  H   UNL     1     -25.025   8.806  10.219  1.00  0.00     0.211 HD
ENDBRANCH  21  26
BRANCH  22  28
ATOM     28  C   UNL     1     -26.962   6.964  14.125  1.00  0.00     0.191 C 
BRANCH  28  29
ATOM     29  O   UNL     1     -26.177   6.512  15.196  1.00  0.00    -0.394 OA
ATOM     30  H   UNL     1     -26.795   6.357  15.957  1.00  0.00     0.210 HD
ENDBRANCH  28  29
ENDBRANCH  22  28
BRANCH  23  31
ATOM     31  O   UNL     1     -26.746   9.854  13.926  1.00  0.00    -0.387 OA
ATOM     32  H   UNL     1     -27.081   9.248  14.636  1.00  0.00     0.211 HD
ENDBRANCH  23  31
ENDBRANCH   1  18
TORSDOF 11
ENDMDL
MODEL 8
REMARK VINA RESULT:    -5.264      3.436      7.169
REMARK INTER + INTRA:          -9.525
REMARK INTER:                  -8.349
REMARK INTRA:                  -1.176
REMARK UNBOUND:                -1.645
REMARK SMILES COC(=O)C1=CO[C@H](O[C@@H]2O[C@@H](CO)[C@@H](O)[C@H](O)[C@H]2O)[C@H]2C(CO)=CC[C@H]12
REMARK SMILES IDX 9 1 8 2 5 3 6 4 27 5 7 6 21 7 26 8 22 9 25 10 3 11 4 12 2 13
REMARK SMILES IDX 1 14 23 15 24 16 10 18 19 19 11 20 17 21 12 22 15 23 20 24
REMARK SMILES IDX 18 26 13 28 14 29 16 31
REMARK H PARENT 24 17 20 25 18 27 14 30 16 32
REMARK Flexibility Score: inf
ROOT
ATOM      1  O   UNL     1     -21.611   7.021  12.192  1.00  0.00    -0.310 OA
ENDROOT
BRANCH   1   2
ATOM      2  C   UNL     1     -23.029   7.106  12.315  1.00  0.00     0.316 C 
ATOM      3  C   UNL     1     -25.567   8.553  12.311  1.00  0.00     0.076 C 
ATOM      4  C   UNL     1     -24.624   8.820  13.242  1.00  0.00     0.202 C 
ATOM      5  C   UNL     1     -25.311   7.364  11.415  1.00  0.00     0.047 C 
ATOM      6  O   UNL     1     -23.398   8.113  13.276  1.00  0.00    -0.471 OA
ATOM      7  C   UNL     1     -23.837   7.335  11.020  1.00  0.00     0.094 C 
ATOM      8  C   UNL     1     -26.021   7.216  10.070  1.00  0.00     0.037 C 
ATOM      9  C   UNL     1     -23.856   6.325   9.916  1.00  0.00    -0.039 C 
ATOM     10  C   UNL     1     -25.061   6.326   9.338  1.00  0.00    -0.024 C 
BRANCH   3  11
ATOM     11  C   UNL     1     -26.862   9.270  12.326  1.00  0.00     0.337 C 
ATOM     12  O   UNL     1     -27.940   8.627  12.436  1.00  0.00    -0.246 OA
BRANCH  11  13
ATOM     13  O   UNL     1     -26.885  10.668  12.239  1.00  0.00    -0.466 OA
ATOM     14  C   UNL     1     -27.299  11.497  13.317  1.00  0.00     0.282 C 
ENDBRANCH  11  13
ENDBRANCH   3  11
BRANCH   9  15
ATOM     15  C   UNL     1     -22.689   5.524   9.406  1.00  0.00     0.187 C 
BRANCH  15  16
ATOM     16  O   UNL     1     -21.498   6.242   9.565  1.00  0.00    -0.392 OA
ATOM     17  H   UNL     1     -21.211   6.114  10.508  1.00  0.00     0.211 HD
ENDBRANCH  15  16
ENDBRANCH   9  15
ENDBRANCH   1   2
BRANCH   1  18
ATOM     18  C   UNL     1     -20.880   6.700  13.376  1.00  0.00     0.286 C 
ATOM     19  C   UNL     1     -21.141   5.267  13.915  1.00  0.00     0.202 C 
ATOM     20  O   UNL     1     -19.493   6.882  13.133  1.00  0.00    -0.341 OA
ATOM     21  C   UNL     1     -20.574   4.206  12.951  1.00  0.00     0.179 C 
ATOM     22  C   UNL     1     -19.019   6.011  12.118  1.00  0.00     0.178 C 
ATOM     23  C   UNL     1     -19.119   4.536  12.571  1.00  0.00     0.177 C 
BRANCH  19  24
ATOM     24  O   UNL     1     -20.521   5.121  15.169  1.00  0.00    -0.385 OA
ATOM     25  H   UNL     1     -20.040   5.971  15.354  1.00  0.00     0.211 HD
ENDBRANCH  19  24
BRANCH  21  26
ATOM     26  O   UNL     1     -21.354   4.138  11.785  1.00  0.00    -0.387 OA
ATOM     27  H   UNL     1     -21.118   3.289  11.328  1.00  0.00     0.211 HD
ENDBRANCH  21  26
BRANCH  22  28
ATOM     28  C   UNL     1     -17.571   6.402  11.776  1.00  0.00     0.191 C 
BRANCH  28  29
ATOM     29  O   UNL     1     -16.894   6.881  12.906  1.00  0.00    -0.394 OA
ATOM     30  H   UNL     1     -16.635   6.086  13.442  1.00  0.00     0.210 HD
ENDBRANCH  28  29
ENDBRANCH  22  28
BRANCH  23  31
ATOM     31  O   UNL     1     -18.271   4.314  13.671  1.00  0.00    -0.387 OA
ATOM     32  H   UNL     1     -18.315   5.129  14.235  1.00  0.00     0.211 HD
ENDBRANCH  23  31
ENDBRANCH   1  18
TORSDOF 11
ENDMDL
MODEL 9
REMARK VINA RESULT:    -5.260      2.677      6.936
REMARK INTER + INTRA:          -9.519
REMARK INTER:                  -8.656
REMARK INTRA:                  -0.863
REMARK UNBOUND:                -1.645
REMARK SMILES COC(=O)C1=CO[C@H](O[C@@H]2O[C@@H](CO)[C@@H](O)[C@H](O)[C@H]2O)[C@H]2C(CO)=CC[C@H]12
REMARK SMILES IDX 9 1 8 2 5 3 6 4 27 5 7 6 21 7 26 8 22 9 25 10 3 11 4 12 2 13
REMARK SMILES IDX 1 14 23 15 24 16 10 18 19 19 11 20 17 21 12 22 15 23 20 24
REMARK SMILES IDX 18 26 13 28 14 29 16 31
REMARK H PARENT 24 17 20 25 18 27 14 30 16 32
REMARK Flexibility Score: inf
ROOT
ATOM      1  O   UNL     1     -21.470   6.968  11.760  1.00  0.00    -0.310 OA
ENDROOT
BRANCH   1   2
ATOM      2  C   UNL     1     -22.726   7.056  11.090  1.00  0.00     0.316 C 
ATOM      3  C   UNL     1     -25.538   6.360  10.715  1.00  0.00     0.076 C 
ATOM      4  C   UNL     1     -24.573   5.424  10.574  1.00  0.00     0.202 C 
ATOM      5  C   UNL     1     -25.073   7.786  10.888  1.00  0.00     0.047 C 
ATOM      6  O   UNL     1     -23.203   5.747  10.728  1.00  0.00    -0.471 OA
ATOM      7  C   UNL     1     -23.859   7.815  11.812  1.00  0.00     0.094 C 
ATOM      8  C   UNL     1     -25.984   8.851  11.498  1.00  0.00     0.037 C 
ATOM      9  C   UNL     1     -23.760   9.279  12.110  1.00  0.00    -0.039 C 
ATOM     10  C   UNL     1     -24.973   9.832  12.009  1.00  0.00    -0.024 C 
BRANCH   3  11
ATOM     11  C   UNL     1     -26.961   6.011  10.500  1.00  0.00     0.337 C 
ATOM     12  O   UNL     1     -27.686   6.734   9.765  1.00  0.00    -0.246 OA
BRANCH  11  13
ATOM     13  O   UNL     1     -27.494   4.862  11.099  1.00  0.00    -0.466 OA
ATOM     14  C   UNL     1     -28.863   4.753  11.467  1.00  0.00     0.282 C 
ENDBRANCH  11  13
ENDBRANCH   3  11
BRANCH   9  15
ATOM     15  C   UNL     1     -22.543  10.021  12.592  1.00  0.00     0.187 C 
BRANCH  15  16
ATOM     16  O   UNL     1     -22.568  10.146  13.986  1.00  0.00    -0.392 OA
ATOM     17  H   UNL     1     -23.496  10.404  14.232  1.00  0.00     0.211 HD
ENDBRANCH  15  16
ENDBRANCH   9  15
ENDBRANCH   1   2
BRANCH   1  18
ATOM     18  C   UNL     1     -21.505   6.902  13.186  1.00  0.00     0.286 C 
ATOM     19  C   UNL     1     -22.054   5.562  13.748  1.00  0.00     0.202 C 
ATOM     20  O   UNL     1     -20.202   7.145  13.697  1.00  0.00    -0.341 OA
ATOM     21  C   UNL     1     -21.084   4.402  13.447  1.00  0.00     0.179 C 
ATOM     22  C   UNL     1     -19.278   6.157  13.270  1.00  0.00     0.178 C 
ATOM     23  C   UNL     1     -19.647   4.774  13.854  1.00  0.00     0.177 C 
BRANCH  19  24
ATOM     24  O   UNL     1     -22.215   5.673  15.140  1.00  0.00    -0.385 OA
ATOM     25  H   UNL     1     -22.996   5.110  15.387  1.00  0.00     0.211 HD
ENDBRANCH  19  24
BRANCH  21  26
ATOM     26  O   UNL     1     -21.111   4.085  12.079  1.00  0.00    -0.387 OA
ATOM     27  H   UNL     1     -20.816   3.141  11.996  1.00  0.00     0.211 HD
ENDBRANCH  21  26
BRANCH  22  28
ATOM     28  C   UNL     1     -17.866   6.593  13.694  1.00  0.00     0.191 C 
BRANCH  28  29
ATOM     29  O   UNL     1     -17.858   7.078  15.010  1.00  0.00    -0.394 OA
ATOM     30  H   UNL     1     -17.441   7.979  14.979  1.00  0.00     0.210 HD
ENDBRANCH  28  29
ENDBRANCH  22  28
BRANCH  23  31
ATOM     31  O   UNL     1     -19.535   4.800  15.257  1.00  0.00    -0.387 OA
ATOM     32  H   UNL     1     -18.735   5.348  15.469  1.00  0.00     0.211 HD
ENDBRANCH  23  31
ENDBRANCH   1  18
TORSDOF 11
ENDMDL
