MODEL 1
REMARK VINA RESULT:   140.353      0.000      0.000
REMARK INTER + INTRA:         152.278
REMARK INTER:                 152.660
REMARK INTRA:                  -0.382
REMARK UNBOUND:                -0.382
REMARK SMILES C=C(C)[C@@H]1CC[C@@]2(C)CC[C@]3(C)[C@@H](CC[C@H]4[C@@]5(C)CC[C@H](O)C(C)(C)[C@@H]5CC[C@]43C)[C@@H]12
REMARK SMILES IDX 4 1 5 2 6 3 7 4 31 5 13 6 14 7 15 8 16 9 17 10 19 11 20 12
REMARK SMILES IDX 21 13 23 14 26 15 27 16 28 17 29 18 11 19 10 20 9 21 12 22
REMARK SMILES IDX 30 23 24 24 25 25 18 26 8 27 2 28 3 29 1 30 22 31
REMARK H PARENT 22 32
REMARK Flexibility Score: inf
ROOT
ATOM      1  C   UNL     1     -31.889  22.550 -13.720  1.00  0.00     0.018 C 
ATOM      2  C   UNL     1     -31.923  21.356 -14.674  1.00  0.00     0.009 C 
ATOM      3  C   UNL     1     -30.493  20.875 -14.867  1.00  0.00     0.008 C 
ATOM      4  C   UNL     1     -29.524  21.980 -14.365  1.00  0.00    -0.029 C 
ATOM      5  C   UNL     1     -30.431  23.076 -13.719  1.00  0.00     0.006 C 
ATOM      6  C   UNL     1     -30.283  24.514 -14.353  1.00  0.00    -0.000 C 
ATOM      7  C   UNL     1     -31.052  24.710 -15.689  1.00  0.00     0.005 C 
ATOM      8  C   UNL     1     -30.279  25.336 -16.854  1.00  0.00     0.005 C 
ATOM      9  C   UNL     1     -29.346  26.551 -16.538  1.00  0.00     0.002 C 
ATOM     10  C   UNL     1     -29.943  27.991 -16.901  1.00  0.00    -0.026 C 
ATOM     11  C   UNL     1     -30.486  28.062 -18.378  1.00  0.00     0.010 C 
ATOM     12  C   UNL     1     -31.276  29.348 -18.691  1.00  0.00     0.033 C 
ATOM     13  C   UNL     1     -32.429  29.566 -17.688  1.00  0.00     0.120 C 
ATOM     14  C   UNL     1     -31.968  29.576 -16.191  1.00  0.00    -0.006 C 
ATOM     15  C   UNL     1     -31.117  28.273 -15.915  1.00  0.00     0.003 C 
ATOM     16  C   UNL     1     -30.760  28.021 -14.419  1.00  0.00     0.005 C 
ATOM     17  C   UNL     1     -29.336  27.519 -14.105  1.00  0.00     0.008 C 
ATOM     18  C   UNL     1     -28.683  26.446 -15.078  1.00  0.00    -0.024 C 
ATOM     19  C   UNL     1     -28.787  24.963 -14.429  1.00  0.00    -0.024 C 
ATOM     20  C   UNL     1     -27.969  23.893 -15.262  1.00  0.00     0.008 C 
ATOM     21  C   UNL     1     -28.681  22.540 -15.542  1.00  0.00     0.007 C 
ATOM     22  C   UNL     1     -28.219  24.980 -12.948  1.00  0.00     0.012 C 
ATOM     23  C   UNL     1     -27.153  26.800 -15.228  1.00  0.00     0.012 C 
ATOM     24  C   UNL     1     -33.252  29.532 -15.314  1.00  0.00     0.014 C 
ATOM     25  C   UNL     1     -31.214  30.892 -15.851  1.00  0.00     0.014 C 
ATOM     26  C   UNL     1     -28.796  29.052 -16.829  1.00  0.00     0.012 C 
ATOM     27  C   UNL     1     -28.557  21.346 -13.331  1.00  0.00     0.011 C 
ENDROOT
BRANCH   1  28
ATOM     28  C   UNL     1     -32.387  22.211 -12.310  1.00  0.00    -0.077 C 
ATOM     29  C   UNL     1     -32.848  23.275 -11.346  1.00  0.00     0.039 C 
ATOM     30  C   UNL     1     -32.491  20.928 -11.935  1.00  0.00     0.008 C 
ENDBRANCH   1  28
BRANCH  13  31
ATOM     31  O   UNL     1     -33.166  30.721 -18.011  1.00  0.00    -0.393 OA
ATOM     32  H   UNL     1     -34.068  30.637 -17.603  1.00  0.00     0.210 HD
ENDBRANCH  13  31
TORSDOF 2
ENDMDL
MODEL 2
REMARK VINA RESULT:   142.791     10.333     14.214
REMARK INTER + INTRA:         154.930
REMARK INTER:                 155.416
REMARK INTRA:                  -0.486
REMARK UNBOUND:                -0.382
REMARK SMILES C=C(C)[C@@H]1CC[C@@]2(C)CC[C@]3(C)[C@@H](CC[C@H]4[C@@]5(C)CC[C@H](O)C(C)(C)[C@@H]5CC[C@]43C)[C@@H]12
REMARK SMILES IDX 4 1 5 2 6 3 7 4 31 5 13 6 14 7 15 8 16 9 17 10 19 11 20 12
REMARK SMILES IDX 21 13 23 14 26 15 27 16 28 17 29 18 11 19 10 20 9 21 12 22
REMARK SMILES IDX 30 23 24 24 25 25 18 26 8 27 2 28 3 29 1 30 22 31
REMARK H PARENT 22 32
REMARK Flexibility Score: inf
ROOT
ATOM      1  C   UNL     1     -44.663  28.311 -19.330  1.00  0.00     0.018 C 
ATOM      2  C   UNL     1     -44.878  29.114 -18.048  1.00  0.00     0.009 C 
ATOM      3  C   UNL     1     -45.149  30.558 -18.444  1.00  0.00     0.008 C 
ATOM      4  C   UNL     1     -44.724  30.756 -19.924  1.00  0.00    -0.029 C 
ATOM      5  C   UNL     1     -44.335  29.336 -20.446  1.00  0.00     0.006 C 
ATOM      6  C   UNL     1     -42.859  29.214 -20.993  1.00  0.00    -0.000 C 
ATOM      7  C   UNL     1     -41.773  29.071 -19.891  1.00  0.00     0.005 C 
ATOM      8  C   UNL     1     -40.549  29.986 -19.994  1.00  0.00     0.005 C 
ATOM      9  C   UNL     1     -39.915  30.193 -21.409  1.00  0.00     0.002 C 
ATOM     10  C   UNL     1     -38.596  29.337 -21.705  1.00  0.00    -0.026 C 
ATOM     11  C   UNL     1     -37.513  29.486 -20.571  1.00  0.00     0.010 C 
ATOM     12  C   UNL     1     -36.334  28.503 -20.701  1.00  0.00     0.033 C 
ATOM     13  C   UNL     1     -36.819  27.040 -20.784  1.00  0.00     0.120 C 
ATOM     14  C   UNL     1     -37.853  26.784 -21.932  1.00  0.00    -0.006 C 
ATOM     15  C   UNL     1     -39.022  27.841 -21.805  1.00  0.00     0.003 C 
ATOM     16  C   UNL     1     -40.243  27.592 -22.741  1.00  0.00     0.005 C 
ATOM     17  C   UNL     1     -40.876  28.823 -23.422  1.00  0.00     0.008 C 
ATOM     18  C   UNL     1     -41.015  30.162 -22.580  1.00  0.00    -0.024 C 
ATOM     19  C   UNL     1     -42.535  30.330 -22.040  1.00  0.00    -0.024 C 
ATOM     20  C   UNL     1     -42.774  31.747 -21.373  1.00  0.00     0.008 C 
ATOM     21  C   UNL     1     -43.541  31.757 -20.021  1.00  0.00     0.007 C 
ATOM     22  C   UNL     1     -43.558  30.168 -23.241  1.00  0.00     0.012 C 
ATOM     23  C   UNL     1     -40.710  31.372 -23.546  1.00  0.00     0.012 C 
ATOM     24  C   UNL     1     -38.439  25.359 -21.715  1.00  0.00     0.014 C 
ATOM     25  C   UNL     1     -37.156  26.797 -23.321  1.00  0.00     0.014 C 
ATOM     26  C   UNL     1     -37.914  29.881 -23.004  1.00  0.00     0.012 C 
ATOM     27  C   UNL     1     -45.929  31.347 -20.701  1.00  0.00     0.011 C 
ENDROOT
BRANCH   1  28
ATOM     28  C   UNL     1     -45.856  27.419 -19.691  1.00  0.00    -0.077 C 
ATOM     29  C   UNL     1     -47.030  27.236 -18.762  1.00  0.00     0.039 C 
ATOM     30  C   UNL     1     -45.907  26.835 -20.898  1.00  0.00     0.008 C 
ENDBRANCH   1  28
BRANCH  13  31
ATOM     31  O   UNL     1     -35.730  26.151 -20.860  1.00  0.00    -0.393 OA
ATOM     32  H   UNL     1     -35.047  26.441 -20.199  1.00  0.00     0.210 HD
ENDBRANCH  13  31
TORSDOF 2
ENDMDL
MODEL 3
REMARK VINA RESULT:   143.093     10.147     13.923
REMARK INTER + INTRA:         155.259
REMARK INTER:                 155.720
REMARK INTRA:                  -0.461
REMARK UNBOUND:                -0.382
REMARK SMILES C=C(C)[C@@H]1CC[C@@]2(C)CC[C@]3(C)[C@@H](CC[C@H]4[C@@]5(C)CC[C@H](O)C(C)(C)[C@@H]5CC[C@]43C)[C@@H]12
REMARK SMILES IDX 4 1 5 2 6 3 7 4 31 5 13 6 14 7 15 8 16 9 17 10 19 11 20 12
REMARK SMILES IDX 21 13 23 14 26 15 27 16 28 17 29 18 11 19 10 20 9 21 12 22
REMARK SMILES IDX 30 23 24 24 25 25 18 26 8 27 2 28 3 29 1 30 22 31
REMARK H PARENT 22 32
REMARK Flexibility Score: inf
ROOT
ATOM      1  C   UNL     1     -44.034  30.978 -22.424  1.00  0.00     0.018 C 
ATOM      2  C   UNL     1     -44.929  29.769 -22.696  1.00  0.00     0.009 C 
ATOM      3  C   UNL     1     -45.026  28.965 -21.409  1.00  0.00     0.008 C 
ATOM      4  C   UNL     1     -43.900  29.430 -20.445  1.00  0.00    -0.029 C 
ATOM      5  C   UNL     1     -43.223  30.652 -21.144  1.00  0.00     0.006 C 
ATOM      6  C   UNL     1     -41.675  30.490 -21.407  1.00  0.00    -0.000 C 
ATOM      7  C   UNL     1     -41.321  29.625 -22.648  1.00  0.00     0.005 C 
ATOM      8  C   UNL     1     -40.272  28.525 -22.456  1.00  0.00     0.005 C 
ATOM      9  C   UNL     1     -39.003  28.872 -21.610  1.00  0.00     0.002 C 
ATOM     10  C   UNL     1     -37.682  29.201 -22.451  1.00  0.00    -0.026 C 
ATOM     11  C   UNL     1     -37.361  28.095 -23.526  1.00  0.00     0.010 C 
ATOM     12  C   UNL     1     -36.240  28.486 -24.508  1.00  0.00     0.033 C 
ATOM     13  C   UNL     1     -36.534  29.834 -25.200  1.00  0.00     0.120 C 
ATOM     14  C   UNL     1     -36.801  31.011 -24.202  1.00  0.00    -0.006 C 
ATOM     15  C   UNL     1     -37.916  30.561 -23.176  1.00  0.00     0.003 C 
ATOM     16  C   UNL     1     -38.452  31.690 -22.245  1.00  0.00     0.005 C 
ATOM     17  C   UNL     1     -38.698  31.331 -20.765  1.00  0.00     0.008 C 
ATOM     18  C   UNL     1     -39.325  29.911 -20.428  1.00  0.00    -0.024 C 
ATOM     19  C   UNL     1     -40.909  30.059 -20.113  1.00  0.00    -0.024 C 
ATOM     20  C   UNL     1     -41.534  28.708 -19.571  1.00  0.00     0.008 C 
ATOM     21  C   UNL     1     -42.894  28.275 -20.187  1.00  0.00     0.007 C 
ATOM     22  C   UNL     1     -41.143  31.187 -19.023  1.00  0.00     0.012 C 
ATOM     23  C   UNL     1     -38.623  29.373 -19.121  1.00  0.00     0.012 C 
ATOM     24  C   UNL     1     -37.339  32.209 -25.036  1.00  0.00     0.014 C 
ATOM     25  C   UNL     1     -35.482  31.470 -23.520  1.00  0.00     0.014 C 
ATOM     26  C   UNL     1     -36.451  29.210 -21.486  1.00  0.00     0.012 C 
ATOM     27  C   UNL     1     -44.549  29.823 -19.093  1.00  0.00     0.011 C 
ENDROOT
BRANCH   1  28
ATOM     28  C   UNL     1     -44.815  32.292 -22.301  1.00  0.00    -0.077 C 
ATOM     29  C   UNL     1     -45.569  32.888 -23.462  1.00  0.00     0.039 C 
ATOM     30  C   UNL     1     -44.899  32.903 -21.110  1.00  0.00     0.008 C 
ENDBRANCH   1  28
BRANCH  13  31
ATOM     31  O   UNL     1     -35.522  30.157 -26.124  1.00  0.00    -0.393 OA
ATOM     32  H   UNL     1     -34.808  29.471 -26.054  1.00  0.00     0.210 HD
ENDBRANCH  13  31
TORSDOF 2
ENDMDL
