MODEL 1
REMARK VINA RESULT:    -3.620      0.000      0.000
REMARK INTER + INTRA:          -5.512
REMARK INTER:                  -4.889
REMARK INTRA:                  -0.623
REMARK UNBOUND:                -0.623
REMARK SMILES O=C[C@@H](O)[C@@H](O)[C@@H](O)CO
REMARK SMILES IDX 7 1 9 2 10 3 5 5 3 6 2 7 1 8 4 9 6 11 8 13
REMARK H PARENT 10 4 4 10 6 12 8 14
REMARK Flexibility Score: inf
ROOT
ATOM      1  C   UNL     1      -8.040   4.105   8.703  1.00  0.00     0.171 C 
ENDROOT
BRANCH   1   2
ATOM      2  C   UNL     1      -6.678   3.467   8.366  1.00  0.00     0.190 C 
BRANCH   2   3
ATOM      3  O   UNL     1      -5.704   4.459   8.181  1.00  0.00    -0.394 OA
ATOM      4  H   UNL     1      -5.339   4.669   9.080  1.00  0.00     0.210 HD
ENDBRANCH   2   3
ENDBRANCH   1   2
BRANCH   1   5
ATOM      5  C   UNL     1      -8.682   4.772   7.459  1.00  0.00     0.181 C 
BRANCH   5   6
ATOM      6  C   UNL     1      -8.611   6.317   7.537  1.00  0.00     0.209 C 
BRANCH   6   7
ATOM      7  C   UNL     1      -8.977   6.806   8.914  1.00  0.00     0.258 C 
ATOM      8  O   UNL     1      -8.193   7.484   9.561  1.00  0.00    -0.300 OA
ENDBRANCH   6   7
BRANCH   6   9
ATOM      9  O   UNL     1      -7.316   6.760   7.223  1.00  0.00    -0.383 OA
ATOM     10  H   UNL     1      -6.690   6.252   7.804  1.00  0.00     0.211 HD
ENDBRANCH   6   9
ENDBRANCH   5   6
BRANCH   5  11
ATOM     11  O   UNL     1      -7.998   4.334   6.309  1.00  0.00    -0.387 OA
ATOM     12  H   UNL     1      -7.816   3.365   6.424  1.00  0.00     0.211 HD
ENDBRANCH   5  11
ENDBRANCH   1   5
BRANCH   1  13
ATOM     13  O   UNL     1      -8.895   3.140   9.264  1.00  0.00    -0.388 OA
ATOM     14  H   UNL     1      -9.783   3.236   8.828  1.00  0.00     0.211 HD
ENDBRANCH   1  13
TORSDOF 8
ENDMDL
MODEL 2
REMARK VINA RESULT:    -3.318      1.121      2.186
REMARK INTER + INTRA:          -5.104
REMARK INTER:                  -4.724
REMARK INTRA:                  -0.380
REMARK UNBOUND:                -0.623
REMARK SMILES O=C[C@@H](O)[C@@H](O)[C@@H](O)CO
REMARK SMILES IDX 7 1 9 2 10 3 5 5 3 6 2 7 1 8 4 9 6 11 8 13
REMARK H PARENT 10 4 4 10 6 12 8 14
REMARK Flexibility Score: inf
ROOT
ATOM      1  C   UNL     1      -6.881   3.758   8.238  1.00  0.00     0.171 C 
ENDROOT
BRANCH   1   2
ATOM      2  C   UNL     1      -7.421   3.173   9.557  1.00  0.00     0.190 C 
BRANCH   2   3
ATOM      3  O   UNL     1      -8.817   3.049   9.503  1.00  0.00    -0.394 OA
ATOM      4  H   UNL     1      -9.124   2.887  10.434  1.00  0.00     0.210 HD
ENDBRANCH   2   3
ENDBRANCH   1   2
BRANCH   1   5
ATOM      5  C   UNL     1      -7.934   4.655   7.536  1.00  0.00     0.181 C 
BRANCH   5   6
ATOM      6  C   UNL     1      -7.498   6.140   7.514  1.00  0.00     0.209 C 
BRANCH   6   7
ATOM      7  C   UNL     1      -8.349   6.939   6.562  1.00  0.00     0.258 C 
ATOM      8  O   UNL     1      -9.013   7.882   6.964  1.00  0.00    -0.300 OA
ENDBRANCH   6   7
BRANCH   6   9
ATOM      9  O   UNL     1      -7.604   6.696   8.799  1.00  0.00    -0.383 OA
ATOM     10  H   UNL     1      -8.024   7.590   8.692  1.00  0.00     0.211 HD
ENDBRANCH   6   9
ENDBRANCH   5   6
BRANCH   5  11
ATOM     11  O   UNL     1      -8.103   4.202   6.214  1.00  0.00    -0.387 OA
ATOM     12  H   UNL     1      -7.634   4.845   5.620  1.00  0.00     0.211 HD
ENDBRANCH   5  11
ENDBRANCH   1   5
BRANCH   1  13
ATOM     13  O   UNL     1      -5.688   4.464   8.479  1.00  0.00    -0.388 OA
ATOM     14  H   UNL     1      -5.771   4.895   9.371  1.00  0.00     0.211 HD
ENDBRANCH   1  13
TORSDOF 8
ENDMDL
MODEL 3
REMARK VINA RESULT:    -3.296      1.376      3.421
REMARK INTER + INTRA:          -5.075
REMARK INTER:                  -4.346
REMARK INTRA:                  -0.729
REMARK UNBOUND:                -0.623
REMARK SMILES O=C[C@@H](O)[C@@H](O)[C@@H](O)CO
REMARK SMILES IDX 7 1 9 2 10 3 5 5 3 6 2 7 1 8 4 9 6 11 8 13
REMARK H PARENT 10 4 4 10 6 12 8 14
REMARK Flexibility Score: inf
ROOT
ATOM      1  C   UNL     1      -9.036   6.076   8.480  1.00  0.00     0.171 C 
ENDROOT
BRANCH   1   2
ATOM      2  C   UNL     1      -9.527   7.349   9.198  1.00  0.00     0.190 C 
BRANCH   2   3
ATOM      3  O   UNL     1      -8.452   8.212   9.455  1.00  0.00    -0.394 OA
ATOM      4  H   UNL     1      -7.764   8.023   8.764  1.00  0.00     0.210 HD
ENDBRANCH   2   3
ENDBRANCH   1   2
BRANCH   1   5
ATOM      5  C   UNL     1      -7.885   6.387   7.488  1.00  0.00     0.181 C 
BRANCH   5   6
ATOM      6  C   UNL     1      -7.553   5.166   6.596  1.00  0.00     0.209 C 
BRANCH   6   7
ATOM      7  C   UNL     1      -6.256   4.526   7.018  1.00  0.00     0.258 C 
ATOM      8  O   UNL     1      -6.208   3.815   8.011  1.00  0.00    -0.300 OA
ENDBRANCH   6   7
BRANCH   6   9
ATOM      9  O   UNL     1      -8.580   4.212   6.676  1.00  0.00    -0.383 OA
ATOM     10  H   UNL     1      -8.341   3.592   7.415  1.00  0.00     0.211 HD
ENDBRANCH   6   9
ENDBRANCH   5   6
BRANCH   5  11
ATOM     11  O   UNL     1      -8.273   7.465   6.670  1.00  0.00    -0.387 OA
ATOM     12  H   UNL     1      -7.555   7.600   5.998  1.00  0.00     0.211 HD
ENDBRANCH   5  11
ENDBRANCH   1   5
BRANCH   1  13
ATOM     13  O   UNL     1      -8.648   5.112   9.427  1.00  0.00    -0.388 OA
ATOM     14  H   UNL     1      -7.778   4.733   9.130  1.00  0.00     0.211 HD
ENDBRANCH   1  13
TORSDOF 8
ENDMDL
MODEL 4
REMARK VINA RESULT:    -3.258      1.243      3.544
REMARK INTER + INTRA:          -5.023
REMARK INTER:                  -4.223
REMARK INTRA:                  -0.800
REMARK UNBOUND:                -0.623
REMARK SMILES O=C[C@@H](O)[C@@H](O)[C@@H](O)CO
REMARK SMILES IDX 7 1 9 2 10 3 5 5 3 6 2 7 1 8 4 9 6 11 8 13
REMARK H PARENT 10 4 4 10 6 12 8 14
REMARK Flexibility Score: inf
ROOT
ATOM      1  C   UNL     1      -8.425   6.665   7.491  1.00  0.00     0.171 C 
ENDROOT
BRANCH   1   2
ATOM      2  C   UNL     1      -9.929   6.466   7.762  1.00  0.00     0.190 C 
BRANCH   2   3
ATOM      3  O   UNL     1     -10.125   5.828   8.996  1.00  0.00    -0.394 OA
ATOM      4  H   UNL     1     -10.390   4.893   8.793  1.00  0.00     0.210 HD
ENDBRANCH   2   3
ENDBRANCH   1   2
BRANCH   1   5
ATOM      5  C   UNL     1      -7.734   5.333   7.095  1.00  0.00     0.181 C 
BRANCH   5   6
ATOM      6  C   UNL     1      -6.973   4.707   8.289  1.00  0.00     0.209 C 
BRANCH   6   7
ATOM      7  C   UNL     1      -7.595   3.397   8.699  1.00  0.00     0.258 C 
ATOM      8  O   UNL     1      -8.629   3.376   9.348  1.00  0.00    -0.300 OA
ENDBRANCH   6   7
BRANCH   6   9
ATOM      9  O   UNL     1      -5.629   4.488   7.948  1.00  0.00    -0.383 OA
ATOM     10  H   UNL     1      -5.081   4.816   8.709  1.00  0.00     0.211 HD
ENDBRANCH   6   9
ENDBRANCH   5   6
BRANCH   5  11
ATOM     11  O   UNL     1      -8.717   4.431   6.647  1.00  0.00    -0.387 OA
ATOM     12  H   UNL     1      -8.289   3.537   6.582  1.00  0.00     0.211 HD
ENDBRANCH   5  11
ENDBRANCH   1   5
BRANCH   1  13
ATOM     13  O   UNL     1      -8.242   7.649   6.503  1.00  0.00    -0.388 OA
ATOM     14  H   UNL     1      -7.779   8.418   6.928  1.00  0.00     0.211 HD
ENDBRANCH   1  13
TORSDOF 8
ENDMDL
MODEL 5
REMARK VINA RESULT:    -3.148      1.304      3.620
REMARK INTER + INTRA:          -4.875
REMARK INTER:                  -4.128
REMARK INTRA:                  -0.748
REMARK UNBOUND:                -0.623
REMARK SMILES O=C[C@@H](O)[C@@H](O)[C@@H](O)CO
REMARK SMILES IDX 7 1 9 2 10 3 5 5 3 6 2 7 1 8 4 9 6 11 8 13
REMARK H PARENT 10 4 4 10 6 12 8 14
REMARK Flexibility Score: inf
ROOT
ATOM      1  C   UNL     1      -8.971   6.816   8.471  1.00  0.00     0.171 C 
ENDROOT
BRANCH   1   2
ATOM      2  C   UNL     1      -9.371   7.720   7.289  1.00  0.00     0.190 C 
BRANCH   2   3
ATOM      3  O   UNL     1      -8.308   7.838   6.381  1.00  0.00    -0.394 OA
ATOM      4  H   UNL     1      -8.236   8.801   6.152  1.00  0.00     0.210 HD
ENDBRANCH   2   3
ENDBRANCH   1   2
BRANCH   1   5
ATOM      5  C   UNL     1      -8.403   5.457   7.985  1.00  0.00     0.181 C 
BRANCH   5   6
ATOM      6  C   UNL     1      -6.897   5.315   8.316  1.00  0.00     0.209 C 
BRANCH   6   7
ATOM      7  C   UNL     1      -6.424   3.903   8.089  1.00  0.00     0.258 C 
ATOM      8  O   UNL     1      -6.702   3.313   7.056  1.00  0.00    -0.300 OA
ENDBRANCH   6   7
BRANCH   6   9
ATOM      9  O   UNL     1      -6.140   6.185   7.515  1.00  0.00    -0.383 OA
ATOM     10  H   UNL     1      -5.213   5.828   7.498  1.00  0.00     0.211 HD
ENDBRANCH   6   9
ENDBRANCH   5   6
BRANCH   5  11
ATOM     11  O   UNL     1      -9.115   4.419   8.616  1.00  0.00    -0.387 OA
ATOM     12  H   UNL     1      -8.450   3.840   9.073  1.00  0.00     0.211 HD
ENDBRANCH   5  11
ENDBRANCH   1   5
BRANCH   1  13
ATOM     13  O   UNL     1      -8.053   7.487   9.299  1.00  0.00    -0.388 OA
ATOM     14  H   UNL     1      -7.601   6.804   9.861  1.00  0.00     0.211 HD
ENDBRANCH   1  13
TORSDOF 8
ENDMDL
MODEL 6
REMARK VINA RESULT:    -3.125      1.317      2.350
REMARK INTER + INTRA:          -4.843
REMARK INTER:                  -4.211
REMARK INTRA:                  -0.632
REMARK UNBOUND:                -0.623
REMARK SMILES O=C[C@@H](O)[C@@H](O)[C@@H](O)CO
REMARK SMILES IDX 7 1 9 2 10 3 5 5 3 6 2 7 1 8 4 9 6 11 8 13
REMARK H PARENT 10 4 4 10 6 12 8 14
REMARK Flexibility Score: inf
ROOT
ATOM      1  C   UNL     1      -6.897   4.634   8.298  1.00  0.00     0.171 C 
ENDROOT
BRANCH   1   2
ATOM      2  C   UNL     1      -7.029   3.750   7.043  1.00  0.00     0.190 C 
BRANCH   2   3
ATOM      3  O   UNL     1      -8.089   4.194   6.239  1.00  0.00    -0.394 OA
ATOM      4  H   UNL     1      -8.443   5.017   6.666  1.00  0.00     0.210 HD
ENDBRANCH   2   3
ENDBRANCH   1   2
BRANCH   1   5
ATOM      5  C   UNL     1      -8.035   4.356   9.315  1.00  0.00     0.181 C 
BRANCH   5   6
ATOM      6  C   UNL     1      -9.084   5.495   9.325  1.00  0.00     0.209 C 
BRANCH   6   7
ATOM      7  C   UNL     1      -8.424   6.840   9.162  1.00  0.00     0.258 C 
ATOM      8  O   UNL     1      -9.026   7.769   8.647  1.00  0.00    -0.300 OA
ENDBRANCH   6   7
BRANCH   6   9
ATOM      9  O   UNL     1     -10.009   5.312   8.285  1.00  0.00    -0.383 OA
ATOM     10  H   UNL     1      -9.541   5.541   7.439  1.00  0.00     0.211 HD
ENDBRANCH   6   9
ENDBRANCH   5   6
BRANCH   5  11
ATOM     11  O   UNL     1      -8.667   3.148   8.966  1.00  0.00    -0.387 OA
ATOM     12  H   UNL     1      -9.486   3.380   8.454  1.00  0.00     0.211 HD
ENDBRANCH   5  11
ENDBRANCH   1   5
BRANCH   1  13
ATOM     13  O   UNL     1      -5.632   4.449   8.885  1.00  0.00    -0.388 OA
ATOM     14  H   UNL     1      -5.550   5.098   9.633  1.00  0.00     0.211 HD
ENDBRANCH   1  13
TORSDOF 8
ENDMDL
MODEL 7
REMARK VINA RESULT:    -3.017     23.183     23.943
REMARK INTER + INTRA:          -4.698
REMARK INTER:                  -4.051
REMARK INTRA:                  -0.648
REMARK UNBOUND:                -0.623
REMARK SMILES O=C[C@@H](O)[C@@H](O)[C@@H](O)CO
REMARK SMILES IDX 7 1 9 2 10 3 5 5 3 6 2 7 1 8 4 9 6 11 8 13
REMARK H PARENT 10 4 4 10 6 12 8 14
REMARK Flexibility Score: inf
ROOT
ATOM      1  C   UNL     1       8.148  -4.294  -7.625  1.00  0.00     0.171 C 
ENDROOT
BRANCH   1   2
ATOM      2  C   UNL     1       7.208  -5.358  -7.024  1.00  0.00     0.190 C 
BRANCH   2   3
ATOM      3  O   UNL     1       6.631  -4.887  -5.836  1.00  0.00    -0.394 OA
ATOM      4  H   UNL     1       7.201  -4.138  -5.521  1.00  0.00     0.210 HD
ENDBRANCH   2   3
ENDBRANCH   1   2
BRANCH   1   5
ATOM      5  C   UNL     1       7.406  -2.957  -7.887  1.00  0.00     0.181 C 
BRANCH   5   6
ATOM      6  C   UNL     1       8.193  -2.048  -8.862  1.00  0.00     0.209 C 
BRANCH   6   7
ATOM      7  C   UNL     1       7.590  -0.669  -8.921  1.00  0.00     0.258 C 
ATOM      8  O   UNL     1       6.564  -0.466  -9.552  1.00  0.00    -0.300 OA
ENDBRANCH   6   7
BRANCH   6   9
ATOM      9  O   UNL     1       9.533  -1.944  -8.455  1.00  0.00    -0.383 OA
ATOM     10  H   UNL     1       9.761  -0.977  -8.460  1.00  0.00     0.211 HD
ENDBRANCH   6   9
ENDBRANCH   5   6
BRANCH   5  11
ATOM     11  O   UNL     1       6.143  -3.243  -8.438  1.00  0.00    -0.387 OA
ATOM     12  H   UNL     1       5.493  -2.615  -8.027  1.00  0.00     0.211 HD
ENDBRANCH   5  11
ENDBRANCH   1   5
BRANCH   1  13
ATOM     13  O   UNL     1       9.259  -4.106  -6.782  1.00  0.00    -0.388 OA
ATOM     14  H   UNL     1      10.062  -4.432  -7.267  1.00  0.00     0.211 HD
ENDBRANCH   1  13
TORSDOF 8
ENDMDL
MODEL 8
REMARK VINA RESULT:    -2.994     23.376     24.417
REMARK INTER + INTRA:          -4.667
REMARK INTER:                  -3.930
REMARK INTRA:                  -0.737
REMARK UNBOUND:                -0.623
REMARK SMILES O=C[C@@H](O)[C@@H](O)[C@@H](O)CO
REMARK SMILES IDX 7 1 9 2 10 3 5 5 3 6 2 7 1 8 4 9 6 11 8 13
REMARK H PARENT 10 4 4 10 6 12 8 14
REMARK Flexibility Score: inf
ROOT
ATOM      1  C   UNL     1       7.591  -5.664  -6.725  1.00  0.00     0.171 C 
ENDROOT
BRANCH   1   2
ATOM      2  C   UNL     1       9.057  -5.347  -6.369  1.00  0.00     0.190 C 
BRANCH   2   3
ATOM      3  O   UNL     1       9.300  -5.612  -5.013  1.00  0.00    -0.394 OA
ATOM      4  H   UNL     1       9.396  -4.732  -4.565  1.00  0.00     0.210 HD
ENDBRANCH   2   3
ENDBRANCH   1   2
BRANCH   1   5
ATOM      5  C   UNL     1       7.371  -7.183  -6.943  1.00  0.00     0.181 C 
BRANCH   5   6
ATOM      6  C   UNL     1       6.527  -7.808  -5.805  1.00  0.00     0.209 C 
BRANCH   6   7
ATOM      7  C   UNL     1       6.277  -9.272  -6.058  1.00  0.00     0.258 C 
ATOM      8  O   UNL     1       5.503  -9.628  -6.934  1.00  0.00    -0.300 OA
ENDBRANCH   6   7
BRANCH   6   9
ATOM      9  O   UNL     1       7.188  -7.664  -4.575  1.00  0.00    -0.383 OA
ATOM     10  H   UNL     1       6.484  -7.566  -3.880  1.00  0.00     0.211 HD
ENDBRANCH   6   9
ENDBRANCH   5   6
BRANCH   5  11
ATOM     11  O   UNL     1       6.706  -7.371  -8.169  1.00  0.00    -0.387 OA
ATOM     12  H   UNL     1       7.329  -7.089  -8.889  1.00  0.00     0.211 HD
ENDBRANCH   5  11
ENDBRANCH   1   5
BRANCH   1  13
ATOM     13  O   UNL     1       6.736  -5.161  -5.727  1.00  0.00    -0.388 OA
ATOM     14  H   UNL     1       7.249  -4.491  -5.203  1.00  0.00     0.211 HD
ENDBRANCH   1  13
TORSDOF 8
ENDMDL
MODEL 9
REMARK VINA RESULT:    -2.972      1.222      3.809
REMARK INTER + INTRA:          -4.638
REMARK INTER:                  -4.080
REMARK INTRA:                  -0.558
REMARK UNBOUND:                -0.623
REMARK SMILES O=C[C@@H](O)[C@@H](O)[C@@H](O)CO
REMARK SMILES IDX 7 1 9 2 10 3 5 5 3 6 2 7 1 8 4 9 6 11 8 13
REMARK H PARENT 10 4 4 10 6 12 8 14
REMARK Flexibility Score: inf
ROOT
ATOM      1  C   UNL     1      -7.832   6.451   9.348  1.00  0.00     0.171 C 
ENDROOT
BRANCH   1   2
ATOM      2  C   UNL     1      -9.233   6.472   9.989  1.00  0.00     0.190 C 
BRANCH   2   3
ATOM      3  O   UNL     1     -10.122   7.218   9.201  1.00  0.00    -0.394 OA
ATOM      4  H   UNL     1     -10.875   6.613   8.973  1.00  0.00     0.210 HD
ENDBRANCH   2   3
ENDBRANCH   1   2
BRANCH   1   5
ATOM      5  C   UNL     1      -7.262   5.011   9.268  1.00  0.00     0.181 C 
BRANCH   5   6
ATOM      6  C   UNL     1      -8.131   4.100   8.368  1.00  0.00     0.209 C 
BRANCH   6   7
ATOM      7  C   UNL     1      -7.456   3.844   7.045  1.00  0.00     0.258 C 
ATOM      8  O   UNL     1      -7.269   4.759   6.257  1.00  0.00    -0.300 OA
ENDBRANCH   6   7
BRANCH   6   9
ATOM      9  O   UNL     1      -8.368   2.871   9.004  1.00  0.00    -0.383 OA
ATOM     10  H   UNL     1      -7.764   2.834   9.792  1.00  0.00     0.211 HD
ENDBRANCH   6   9
ENDBRANCH   5   6
BRANCH   5  11
ATOM     11  O   UNL     1      -5.957   5.071   8.744  1.00  0.00    -0.387 OA
ATOM     12  H   UNL     1      -5.327   4.970   9.505  1.00  0.00     0.211 HD
ENDBRANCH   5  11
ENDBRANCH   1   5
BRANCH   1  13
ATOM     13  O   UNL     1      -7.878   7.053   8.077  1.00  0.00    -0.388 OA
ATOM     14  H   UNL     1      -8.762   6.841   7.676  1.00  0.00     0.211 HD
ENDBRANCH   1  13
TORSDOF 8
ENDMDL
