MODEL 1
REMARK VINA RESULT:    -3.475      0.000      0.000
REMARK INTER + INTRA:          -4.331
REMARK INTER:                  -4.288
REMARK INTRA:                  -0.043
REMARK UNBOUND:                -0.043
REMARK SMILES CCCCCC(=O)[O-]
REMARK SMILES IDX 4 1 5 2 6 3 7 4 8 5 3 6 2 7 1 8
REMARK H PARENT
REMARK Flexibility Score: inf
ROOT
ATOM      1  C   UNL     1       6.989  -4.436  -7.917  1.00  0.00     0.006 C 
ENDROOT
BRANCH   1   2
ATOM      2  C   UNL     1       8.315  -5.184  -8.108  1.00  0.00     0.053 C 
BRANCH   2   3
ATOM      3  C   UNL     1       8.947  -5.537  -6.796  1.00  0.00     0.041 C 
ATOM      4  O   UNL     1       9.972  -4.922  -6.401  1.00  0.00    -0.550 OA
ATOM      5  O   UNL     1       8.422  -6.567  -6.027  1.00  0.00    -0.550 OA
ENDBRANCH   2   3
ENDBRANCH   1   2
BRANCH   1   6
ATOM      6  C   UNL     1       6.207  -4.296  -9.234  1.00  0.00     0.000 C 
BRANCH   6   7
ATOM      7  C   UNL     1       4.875  -3.551  -9.053  1.00  0.00    -0.003 C 
ATOM      8  C   UNL     1       3.785  -4.054  -9.998  1.00  0.00     0.004 C 
ENDBRANCH   6   7
ENDBRANCH   1   6
TORSDOF 4
ENDMDL
MODEL 2
REMARK VINA RESULT:    -3.440      0.185      1.160
REMARK INTER + INTRA:          -4.287
REMARK INTER:                  -4.244
REMARK INTRA:                  -0.044
REMARK UNBOUND:                -0.043
REMARK SMILES CCCCCC(=O)[O-]
REMARK SMILES IDX 4 1 5 2 6 3 7 4 8 5 3 6 2 7 1 8
REMARK H PARENT
REMARK Flexibility Score: inf
ROOT
ATOM      1  C   UNL     1       7.211  -4.398  -8.023  1.00  0.00     0.006 C 
ENDROOT
BRANCH   1   2
ATOM      2  C   UNL     1       8.281  -5.496  -8.096  1.00  0.00     0.053 C 
BRANCH   2   3
ATOM      3  C   UNL     1       8.909  -5.748  -6.759  1.00  0.00     0.041 C 
ATOM      4  O   UNL     1       8.434  -6.625  -5.991  1.00  0.00    -0.550 OA
ATOM      5  O   UNL     1       9.998  -4.990  -6.349  1.00  0.00    -0.550 OA
ENDBRANCH   2   3
ENDBRANCH   1   2
BRANCH   1   6
ATOM      6  C   UNL     1       6.287  -4.407  -9.252  1.00  0.00     0.000 C 
BRANCH   6   7
ATOM      7  C   UNL     1       4.967  -3.660  -9.003  1.00  0.00    -0.003 C 
ATOM      8  C   UNL     1       3.847  -4.113  -9.938  1.00  0.00     0.004 C 
ENDBRANCH   6   7
ENDBRANCH   1   6
TORSDOF 4
ENDMDL
MODEL 3
REMARK VINA RESULT:    -3.133      1.094      1.762
REMARK INTER + INTRA:          -3.909
REMARK INTER:                  -3.838
REMARK INTRA:                  -0.071
REMARK UNBOUND:                -0.043
REMARK SMILES CCCCCC(=O)[O-]
REMARK SMILES IDX 4 1 5 2 6 3 7 4 8 5 3 6 2 7 1 8
REMARK H PARENT
REMARK Flexibility Score: inf
ROOT
ATOM      1  C   UNL     1       8.013  -4.736  -7.717  1.00  0.00     0.006 C 
ENDROOT
BRANCH   1   2
ATOM      2  C   UNL     1       9.407  -5.289  -7.391  1.00  0.00     0.053 C 
BRANCH   2   3
ATOM      3  C   UNL     1       9.399  -6.112  -6.139  1.00  0.00     0.041 C 
ATOM      4  O   UNL     1       8.677  -7.141  -6.061  1.00  0.00    -0.550 OA
ATOM      5  O   UNL     1      10.163  -5.723  -5.047  1.00  0.00    -0.550 OA
ENDBRANCH   2   3
ENDBRANCH   1   2
BRANCH   1   6
ATOM      6  C   UNL     1       7.694  -4.815  -9.220  1.00  0.00     0.000 C 
BRANCH   6   7
ATOM      7  C   UNL     1       6.691  -3.740  -9.666  1.00  0.00    -0.003 C 
ATOM      8  C   UNL     1       5.321  -3.902  -9.009  1.00  0.00     0.004 C 
ENDBRANCH   6   7
ENDBRANCH   1   6
TORSDOF 4
ENDMDL
MODEL 4
REMARK VINA RESULT:    -3.120      4.156      6.237
REMARK INTER + INTRA:          -3.892
REMARK INTER:                  -3.657
REMARK INTRA:                  -0.235
REMARK UNBOUND:                -0.043
REMARK SMILES CCCCCC(=O)[O-]
REMARK SMILES IDX 4 1 5 2 6 3 7 4 8 5 3 6 2 7 1 8
REMARK H PARENT
REMARK Flexibility Score: inf
ROOT
ATOM      1  C   UNL     1      11.858  -6.249  -5.016  1.00  0.00     0.006 C 
ENDROOT
BRANCH   1   2
ATOM      2  C   UNL     1      10.689  -7.062  -5.587  1.00  0.00     0.053 C 
BRANCH   2   3
ATOM      3  C   UNL     1       9.566  -6.178  -6.035  1.00  0.00     0.041 C 
ATOM      4  O   UNL     1       8.376  -6.585  -5.976  1.00  0.00    -0.550 OA
ATOM      5  O   UNL     1       9.836  -4.916  -6.549  1.00  0.00    -0.550 OA
ENDBRANCH   2   3
ENDBRANCH   1   2
BRANCH   1   6
ATOM      6  C   UNL     1      11.791  -6.133  -3.483  1.00  0.00     0.000 C 
BRANCH   6   7
ATOM      7  C   UNL     1      11.258  -4.769  -3.018  1.00  0.00    -0.003 C 
ATOM      8  C   UNL     1      11.798  -3.609  -3.854  1.00  0.00     0.004 C 
ENDBRANCH   6   7
ENDBRANCH   1   6
TORSDOF 4
ENDMDL
MODEL 5
REMARK VINA RESULT:    -3.073      3.468      5.081
REMARK INTER + INTRA:          -3.834
REMARK INTER:                  -3.782
REMARK INTRA:                  -0.052
REMARK UNBOUND:                -0.043
REMARK SMILES CCCCCC(=O)[O-]
REMARK SMILES IDX 4 1 5 2 6 3 7 4 8 5 3 6 2 7 1 8
REMARK H PARENT
REMARK Flexibility Score: inf
ROOT
ATOM      1  C   UNL     1       6.372  -4.435  -8.442  1.00  0.00     0.006 C 
ENDROOT
BRANCH   1   2
ATOM      2  C   UNL     1       5.662  -4.011  -9.734  1.00  0.00     0.053 C 
BRANCH   2   3
ATOM      3  C   UNL     1       4.213  -3.714  -9.499  1.00  0.00     0.041 C 
ATOM      4  O   UNL     1       3.324  -4.443 -10.014  1.00  0.00    -0.550 OA
ATOM      5  O   UNL     1       3.843  -2.612  -8.738  1.00  0.00    -0.550 OA
ENDBRANCH   2   3
ENDBRANCH   1   2
BRANCH   1   6
ATOM      6  C   UNL     1       7.803  -4.936  -8.704  1.00  0.00     0.000 C 
BRANCH   6   7
ATOM      7  C   UNL     1       8.656  -4.974  -7.427  1.00  0.00    -0.003 C 
ATOM      8  C   UNL     1       8.462  -6.261  -6.626  1.00  0.00     0.004 C 
ENDBRANCH   6   7
ENDBRANCH   1   6
TORSDOF 4
ENDMDL
MODEL 6
REMARK VINA RESULT:    -3.003      3.433      5.885
REMARK INTER + INTRA:          -3.747
REMARK INTER:                  -3.661
REMARK INTRA:                  -0.086
REMARK UNBOUND:                -0.043
REMARK SMILES CCCCCC(=O)[O-]
REMARK SMILES IDX 4 1 5 2 6 3 7 4 8 5 3 6 2 7 1 8
REMARK H PARENT
REMARK Flexibility Score: inf
ROOT
ATOM      1  C   UNL     1      10.814  -5.555  -5.293  1.00  0.00     0.006 C 
ENDROOT
BRANCH   1   2
ATOM      2  C   UNL     1      10.203  -5.430  -6.695  1.00  0.00     0.053 C 
BRANCH   2   3
ATOM      3  C   UNL     1       8.752  -5.802  -6.702  1.00  0.00     0.041 C 
ATOM      4  O   UNL     1       8.333  -6.738  -5.970  1.00  0.00    -0.550 OA
ATOM      5  O   UNL     1       7.867  -5.138  -7.543  1.00  0.00    -0.550 OA
ENDBRANCH   2   3
ENDBRANCH   1   2
BRANCH   1   6
ATOM      6  C   UNL     1      11.704  -4.351  -4.939  1.00  0.00     0.000 C 
BRANCH   6   7
ATOM      7  C   UNL     1      11.883  -4.177  -3.423  1.00  0.00    -0.003 C 
ATOM      8  C   UNL     1      11.009  -5.132  -2.612  1.00  0.00     0.004 C 
ENDBRANCH   6   7
ENDBRANCH   1   6
TORSDOF 4
ENDMDL
MODEL 7
REMARK VINA RESULT:    -2.983      2.511      3.928
REMARK INTER + INTRA:          -3.723
REMARK INTER:                  -3.575
REMARK INTRA:                  -0.148
REMARK UNBOUND:                -0.043
REMARK SMILES CCCCCC(=O)[O-]
REMARK SMILES IDX 4 1 5 2 6 3 7 4 8 5 3 6 2 7 1 8
REMARK H PARENT
REMARK Flexibility Score: inf
ROOT
ATOM      1  C   UNL     1      10.093  -6.791  -6.053  1.00  0.00     0.006 C 
ENDROOT
BRANCH   1   2
ATOM      2  C   UNL     1      11.065  -5.606  -6.008  1.00  0.00     0.053 C 
BRANCH   2   3
ATOM      3  C   UNL     1      10.993  -4.879  -4.699  1.00  0.00     0.041 C 
ATOM      4  O   UNL     1      10.640  -5.487  -3.655  1.00  0.00    -0.550 OA
ATOM      5  O   UNL     1      11.284  -3.522  -4.641  1.00  0.00    -0.550 OA
ENDBRANCH   2   3
ENDBRANCH   1   2
BRANCH   1   6
ATOM      6  C   UNL     1       8.693  -6.375  -6.538  1.00  0.00     0.000 C 
BRANCH   6   7
ATOM      7  C   UNL     1       8.746  -5.334  -7.667  1.00  0.00    -0.003 C 
ATOM      8  C   UNL     1       7.416  -4.606  -7.860  1.00  0.00     0.004 C 
ENDBRANCH   6   7
ENDBRANCH   1   6
TORSDOF 4
ENDMDL
MODEL 8
REMARK VINA RESULT:    -2.732     13.021     14.811
REMARK INTER + INTRA:          -3.414
REMARK INTER:                  -3.231
REMARK INTRA:                  -0.183
REMARK UNBOUND:                -0.043
REMARK SMILES CCCCCC(=O)[O-]
REMARK SMILES IDX 4 1 5 2 6 3 7 4 8 5 3 6 2 7 1 8
REMARK H PARENT
REMARK Flexibility Score: inf
ROOT
ATOM      1  C   UNL     1      -7.657  -4.089  -4.834  1.00  0.00     0.006 C 
ENDROOT
BRANCH   1   2
ATOM      2  C   UNL     1      -8.123  -3.676  -6.236  1.00  0.00     0.053 C 
BRANCH   2   3
ATOM      3  C   UNL     1      -7.477  -2.400  -6.682  1.00  0.00     0.041 C 
ATOM      4  O   UNL     1      -7.806  -1.305  -6.155  1.00  0.00    -0.550 OA
ATOM      5  O   UNL     1      -6.534  -2.418  -7.702  1.00  0.00    -0.550 OA
ENDBRANCH   2   3
ENDBRANCH   1   2
BRANCH   1   6
ATOM      6  C   UNL     1      -6.277  -4.768  -4.858  1.00  0.00     0.000 C 
BRANCH   6   7
ATOM      7  C   UNL     1      -6.166  -5.838  -5.955  1.00  0.00    -0.003 C 
ATOM      8  C   UNL     1      -4.717  -6.174  -6.306  1.00  0.00     0.004 C 
ENDBRANCH   6   7
ENDBRANCH   1   6
TORSDOF 4
ENDMDL
MODEL 9
REMARK VINA RESULT:    -2.653      2.707      4.588
REMARK INTER + INTRA:          -3.316
REMARK INTER:                  -3.177
REMARK INTRA:                  -0.139
REMARK UNBOUND:                -0.043
REMARK SMILES CCCCCC(=O)[O-]
REMARK SMILES IDX 4 1 5 2 6 3 7 4 8 5 3 6 2 7 1 8
REMARK H PARENT
REMARK Flexibility Score: inf
ROOT
ATOM      1  C   UNL     1       8.663  -5.290  -7.676  1.00  0.00     0.006 C 
ENDROOT
BRANCH   1   2
ATOM      2  C   UNL     1       7.270  -4.649  -7.637  1.00  0.00     0.053 C 
BRANCH   2   3
ATOM      3  C   UNL     1       6.740  -4.389  -9.014  1.00  0.00     0.041 C 
ATOM      4  O   UNL     1       5.556  -3.990  -9.174  1.00  0.00    -0.550 OA
ATOM      5  O   UNL     1       7.543  -4.621 -10.123  1.00  0.00    -0.550 OA
ENDBRANCH   2   3
ENDBRANCH   1   2
BRANCH   1   6
ATOM      6  C   UNL     1       8.891  -6.254  -6.499  1.00  0.00     0.000 C 
BRANCH   6   7
ATOM      7  C   UNL     1       9.202  -7.685  -6.960  1.00  0.00    -0.003 C 
ATOM      8  C   UNL     1       8.980  -7.883  -8.460  1.00  0.00     0.004 C 
ENDBRANCH   6   7
ENDBRANCH   1   6
TORSDOF 4
ENDMDL
