MODEL 1
REMARK VINA RESULT:    -4.211      0.000      0.000
REMARK INTER + INTRA:          -4.966
REMARK INTER:                  -4.950
REMARK INTRA:                  -0.016
REMARK UNBOUND:                -0.016
REMARK SMILES CCCCC(=O)[O-]
REMARK SMILES IDX 4 1 5 2 6 3 7 4 3 5 2 6 1 7
REMARK H PARENT
REMARK Flexibility Score: inf
ROOT
ATOM      1  C   UNL     1      77.950  21.148  30.678  1.00  0.00     0.053 C 
ENDROOT
BRANCH   1   2
ATOM      2  C   UNL     1      77.585  21.457  29.259  1.00  0.00     0.041 C 
ATOM      3  O   UNL     1      77.790  22.607  28.787  1.00  0.00    -0.550 OA
ATOM      4  O   UNL     1      77.050  20.466  28.446  1.00  0.00    -0.550 OA
ENDBRANCH   1   2
BRANCH   1   5
ATOM      5  C   UNL     1      76.733  20.697  31.495  1.00  0.00     0.006 C 
BRANCH   5   6
ATOM      6  C   UNL     1      76.948  20.873  33.005  1.00  0.00    -0.003 C 
ATOM      7  C   UNL     1      75.826  20.213  33.802  1.00  0.00     0.004 C 
ENDBRANCH   5   6
ENDBRANCH   1   5
TORSDOF 3
ENDMDL
MODEL 2
REMARK VINA RESULT:    -3.673      1.174      2.019
REMARK INTER + INTRA:          -4.333
REMARK INTER:                  -4.307
REMARK INTRA:                  -0.026
REMARK UNBOUND:                -0.016
REMARK SMILES CCCCC(=O)[O-]
REMARK SMILES IDX 4 1 5 2 6 3 7 4 3 5 2 6 1 7
REMARK H PARENT
REMARK Flexibility Score: inf
ROOT
ATOM      1  C   UNL     1      77.391  20.633  28.820  1.00  0.00     0.053 C 
ENDROOT
BRANCH   1   2
ATOM      2  C   UNL     1      77.612  21.733  27.828  1.00  0.00     0.041 C 
ATOM      3  O   UNL     1      77.417  21.528  26.601  1.00  0.00    -0.550 OA
ATOM      4  O   UNL     1      78.002  22.994  28.261  1.00  0.00    -0.550 OA
ENDBRANCH   1   2
BRANCH   1   5
ATOM      5  C   UNL     1      77.664  21.097  30.256  1.00  0.00     0.006 C 
BRANCH   5   6
ATOM      6  C   UNL     1      76.665  20.501  31.259  1.00  0.00    -0.003 C 
ATOM      7  C   UNL     1      77.019  20.897  32.690  1.00  0.00     0.004 C 
ENDBRANCH   5   6
ENDBRANCH   1   5
TORSDOF 3
ENDMDL
MODEL 3
REMARK VINA RESULT:    -3.575      2.943      4.381
REMARK INTER + INTRA:          -4.218
REMARK INTER:                  -4.177
REMARK INTRA:                  -0.040
REMARK UNBOUND:                -0.016
REMARK SMILES CCCCC(=O)[O-]
REMARK SMILES IDX 4 1 5 2 6 3 7 4 3 5 2 6 1 7
REMARK H PARENT
REMARK Flexibility Score: inf
ROOT
ATOM      1  C   UNL     1      76.874  20.804  32.275  1.00  0.00     0.053 C 
ENDROOT
BRANCH   1   2
ATOM      2  C   UNL     1      75.816  19.992  32.958  1.00  0.00     0.041 C 
ATOM      3  O   UNL     1      75.227  19.068  32.337  1.00  0.00    -0.550 OA
ATOM      4  O   UNL     1      75.505  20.233  34.290  1.00  0.00    -0.550 OA
ENDBRANCH   1   2
BRANCH   1   5
ATOM      5  C   UNL     1      77.075  20.368  30.819  1.00  0.00     0.006 C 
BRANCH   5   6
ATOM      6  C   UNL     1      76.840  21.519  29.829  1.00  0.00    -0.003 C 
ATOM      7  C   UNL     1      77.416  21.189  28.454  1.00  0.00     0.004 C 
ENDBRANCH   5   6
ENDBRANCH   1   5
TORSDOF 3
ENDMDL
MODEL 4
REMARK VINA RESULT:    -3.535     12.899     13.820
REMARK INTER + INTRA:          -4.171
REMARK INTER:                  -4.130
REMARK INTRA:                  -0.041
REMARK UNBOUND:                -0.016
REMARK SMILES CCCCC(=O)[O-]
REMARK SMILES IDX 4 1 5 2 6 3 7 4 3 5 2 6 1 7
REMARK H PARENT
REMARK Flexibility Score: inf
ROOT
ATOM      1  C   UNL     1      70.445  10.251  33.086  1.00  0.00     0.053 C 
ENDROOT
BRANCH   1   2
ATOM      2  C   UNL     1      71.165   9.081  33.683  1.00  0.00     0.041 C 
ATOM      3  O   UNL     1      72.280   9.243  34.245  1.00  0.00    -0.550 OA
ATOM      4  O   UNL     1      70.588   7.818  33.650  1.00  0.00    -0.550 OA
ENDBRANCH   1   2
BRANCH   1   5
ATOM      5  C   UNL     1      68.927  10.146  33.278  1.00  0.00     0.006 C 
BRANCH   5   6
ATOM      6  C   UNL     1      68.150  10.930  32.211  1.00  0.00    -0.003 C 
ATOM      7  C   UNL     1      69.087  11.792  31.369  1.00  0.00     0.004 C 
ENDBRANCH   5   6
ENDBRANCH   1   5
TORSDOF 3
ENDMDL
MODEL 5
REMARK VINA RESULT:    -3.430     12.523     13.777
REMARK INTER + INTRA:          -4.048
REMARK INTER:                  -4.007
REMARK INTRA:                  -0.041
REMARK UNBOUND:                -0.016
REMARK SMILES CCCCC(=O)[O-]
REMARK SMILES IDX 4 1 5 2 6 3 7 4 3 5 2 6 1 7
REMARK H PARENT
REMARK Flexibility Score: inf
ROOT
ATOM      1  C   UNL     1      65.284  17.062  35.266  1.00  0.00     0.053 C 
ENDROOT
BRANCH   1   2
ATOM      2  C   UNL     1      64.078  17.064  36.154  1.00  0.00     0.041 C 
ATOM      3  O   UNL     1      63.513  15.979  36.457  1.00  0.00    -0.550 OA
ATOM      4  O   UNL     1      63.597  18.258  36.675  1.00  0.00    -0.550 OA
ENDBRANCH   1   2
BRANCH   1   5
ATOM      5  C   UNL     1      66.285  18.155  35.663  1.00  0.00     0.006 C 
BRANCH   5   6
ATOM      6  C   UNL     1      67.260  18.492  34.525  1.00  0.00    -0.003 C 
ATOM      7  C   UNL     1      66.885  17.754  33.243  1.00  0.00     0.004 C 
ENDBRANCH   5   6
ENDBRANCH   1   5
TORSDOF 3
ENDMDL
MODEL 6
REMARK VINA RESULT:    -3.385     12.824     14.021
REMARK INTER + INTRA:          -3.994
REMARK INTER:                  -3.976
REMARK INTRA:                  -0.018
REMARK UNBOUND:                -0.016
REMARK SMILES CCCCC(=O)[O-]
REMARK SMILES IDX 4 1 5 2 6 3 7 4 3 5 2 6 1 7
REMARK H PARENT
REMARK Flexibility Score: inf
ROOT
ATOM      1  C   UNL     1      68.644  10.563  32.921  1.00  0.00     0.053 C 
ENDROOT
BRANCH   1   2
ATOM      2  C   UNL     1      69.588  11.258  31.989  1.00  0.00     0.041 C 
ATOM      3  O   UNL     1      69.145  12.027  31.096  1.00  0.00    -0.550 OA
ATOM      4  O   UNL     1      70.959  11.082  32.128  1.00  0.00    -0.550 OA
ENDBRANCH   1   2
BRANCH   1   5
ATOM      5  C   UNL     1      69.198   9.214  33.395  1.00  0.00     0.006 C 
BRANCH   5   6
ATOM      6  C   UNL     1      68.090   8.175  33.619  1.00  0.00    -0.003 C 
ATOM      7  C   UNL     1      68.421   6.858  32.922  1.00  0.00     0.004 C 
ENDBRANCH   5   6
ENDBRANCH   1   5
TORSDOF 3
ENDMDL
MODEL 7
REMARK VINA RESULT:    -3.316     14.375     15.413
REMARK INTER + INTRA:          -3.913
REMARK INTER:                  -3.819
REMARK INTRA:                  -0.094
REMARK UNBOUND:                -0.016
REMARK SMILES CCCCC(=O)[O-]
REMARK SMILES IDX 4 1 5 2 6 3 7 4 3 5 2 6 1 7
REMARK H PARENT
REMARK Flexibility Score: inf
ROOT
ATOM      1  C   UNL     1      63.808  18.762  37.401  1.00  0.00     0.053 C 
ENDROOT
BRANCH   1   2
ATOM      2  C   UNL     1      64.665  17.646  36.889  1.00  0.00     0.041 C 
ATOM      3  O   UNL     1      65.620  17.210  37.584  1.00  0.00    -0.550 OA
ATOM      4  O   UNL     1      64.390  17.066  35.657  1.00  0.00    -0.550 OA
ENDBRANCH   1   2
BRANCH   1   5
ATOM      5  C   UNL     1      62.794  18.270  38.442  1.00  0.00     0.006 C 
BRANCH   5   6
ATOM      6  C   UNL     1      62.997  18.935  39.811  1.00  0.00    -0.003 C 
ATOM      7  C   UNL     1      63.700  17.990  40.783  1.00  0.00     0.004 C 
ENDBRANCH   5   6
ENDBRANCH   1   5
TORSDOF 3
ENDMDL
MODEL 8
REMARK VINA RESULT:    -3.311     12.043     12.890
REMARK INTER + INTRA:          -3.908
REMARK INTER:                  -3.862
REMARK INTRA:                  -0.046
REMARK UNBOUND:                -0.016
REMARK SMILES CCCCC(=O)[O-]
REMARK SMILES IDX 4 1 5 2 6 3 7 4 3 5 2 6 1 7
REMARK H PARENT
REMARK Flexibility Score: inf
ROOT
ATOM      1  C   UNL     1      70.446  11.072  32.203  1.00  0.00     0.053 C 
ENDROOT
BRANCH   1   2
ATOM      2  C   UNL     1      69.180  11.606  31.608  1.00  0.00     0.041 C 
ATOM      3  O   UNL     1      68.101  10.970  31.737  1.00  0.00    -0.550 OA
ATOM      4  O   UNL     1      69.184  12.824  30.939  1.00  0.00    -0.550 OA
ENDBRANCH   1   2
BRANCH   1   5
ATOM      5  C   UNL     1      70.168  10.029  33.292  1.00  0.00     0.006 C 
BRANCH   5   6
ATOM      6  C   UNL     1      71.371   9.104  33.532  1.00  0.00    -0.003 C 
ATOM      7  C   UNL     1      72.376   9.200  32.388  1.00  0.00     0.004 C 
ENDBRANCH   5   6
ENDBRANCH   1   5
TORSDOF 3
ENDMDL
MODEL 9
REMARK VINA RESULT:    -3.225     13.721     15.010
REMARK INTER + INTRA:          -3.806
REMARK INTER:                  -3.748
REMARK INTRA:                  -0.059
REMARK UNBOUND:                -0.016
REMARK SMILES CCCCC(=O)[O-]
REMARK SMILES IDX 4 1 5 2 6 3 7 4 3 5 2 6 1 7
REMARK H PARENT
REMARK Flexibility Score: inf
ROOT
ATOM      1  C   UNL     1      69.732   9.130  33.311  1.00  0.00     0.053 C 
ENDROOT
BRANCH   1   2
ATOM      2  C   UNL     1      69.640   7.637  33.398  1.00  0.00     0.041 C 
ATOM      3  O   UNL     1      68.591   7.044  33.032  1.00  0.00    -0.550 OA
ATOM      4  O   UNL     1      70.725   6.898  33.852  1.00  0.00    -0.550 OA
ENDBRANCH   1   2
BRANCH   1   5
ATOM      5  C   UNL     1      68.346   9.786  33.296  1.00  0.00     0.006 C 
BRANCH   5   6
ATOM      6  C   UNL     1      68.250  10.918  32.262  1.00  0.00    -0.003 C 
ATOM      7  C   UNL     1      69.635  11.353  31.792  1.00  0.00     0.004 C 
ENDBRANCH   5   6
ENDBRANCH   1   5
TORSDOF 3
ENDMDL
