MODEL 1
REMARK VINA RESULT:    -3.598      0.000      0.000
REMARK INTER + INTRA:         -12.503
REMARK INTER:                  -9.066
REMARK INTRA:                  -3.437
REMARK UNBOUND:                -3.437
REMARK SMILES CCCCCCCCCCCCCCCCCCCCCCCCCCCC(=O)[O-]
REMARK SMILES IDX 15 1 16 2 17 3 18 4 19 5 20 6 21 7 22 8 23 9 24 10 25 11
REMARK SMILES IDX 26 12 27 13 28 14 29 15 30 16 14 17 13 18 12 19 11 20 10 21
REMARK SMILES IDX 9 22 8 23 7 24 6 25 5 26 4 27 3 28 2 29 1 30
REMARK H PARENT
REMARK Flexibility Score: inf
ROOT
ATOM      1  C   UNL     1      51.187  46.992  15.415  1.00  0.00     0.000 C 
ENDROOT
BRANCH   1   2
ATOM      2  C   UNL     1      50.718  45.987  14.347  1.00  0.00     0.000 C 
BRANCH   2   3
ATOM      3  C   UNL     1      49.593  45.068  14.850  1.00  0.00     0.000 C 
BRANCH   3   4
ATOM      4  C   UNL     1      48.426  45.850  15.480  1.00  0.00     0.000 C 
BRANCH   4   5
ATOM      5  C   UNL     1      47.294  44.930  15.967  1.00  0.00     0.000 C 
BRANCH   5   6
ATOM      6  C   UNL     1      46.848  43.921  14.894  1.00  0.00     0.000 C 
BRANCH   6   7
ATOM      7  C   UNL     1      45.517  43.235  15.248  1.00  0.00     0.000 C 
BRANCH   7   8
ATOM      8  C   UNL     1      45.622  41.701  15.233  1.00  0.00     0.000 C 
BRANCH   8   9
ATOM      9  C   UNL     1      45.984  41.111  16.609  1.00  0.00     0.000 C 
BRANCH   9  10
ATOM     10  C   UNL     1      47.418  40.565  16.735  1.00  0.00     0.000 C 
BRANCH  10  11
ATOM     11  C   UNL     1      48.287  41.382  17.707  1.00  0.00     0.000 C 
BRANCH  11  12
ATOM     12  C   UNL     1      49.423  42.145  17.002  1.00  0.00     0.006 C 
BRANCH  12  13
ATOM     13  C   UNL     1      50.821  41.869  17.585  1.00  0.00     0.053 C 
BRANCH  13  14
ATOM     14  C   UNL     1      51.902  41.939  16.550  1.00  0.00     0.041 C 
ATOM     15  O   UNL     1      52.381  40.881  16.062  1.00  0.00    -0.550 OA
ATOM     16  O   UNL     1      52.403  43.170  16.143  1.00  0.00    -0.550 OA
ENDBRANCH  13  14
ENDBRANCH  12  13
ENDBRANCH  11  12
ENDBRANCH  10  11
ENDBRANCH   9  10
ENDBRANCH   8   9
ENDBRANCH   7   8
ENDBRANCH   6   7
ENDBRANCH   5   6
ENDBRANCH   4   5
ENDBRANCH   3   4
ENDBRANCH   2   3
ENDBRANCH   1   2
BRANCH   1  17
ATOM     17  C   UNL     1      50.943  48.452  14.996  1.00  0.00     0.000 C 
BRANCH  17  18
ATOM     18  C   UNL     1      50.093  48.563  13.719  1.00  0.00     0.000 C 
BRANCH  18  19
ATOM     19  C   UNL     1      50.049  49.993  13.149  1.00  0.00     0.000 C 
BRANCH  19  20
ATOM     20  C   UNL     1      50.524  50.133  11.690  1.00  0.00     0.000 C 
BRANCH  20  21
ATOM     21  C   UNL     1      51.949  49.599  11.470  1.00  0.00     0.000 C 
BRANCH  21  22
ATOM     22  C   UNL     1      53.018  50.410  12.227  1.00  0.00    -0.000 C 
BRANCH  22  23
ATOM     23  C   UNL     1      54.109  49.571  12.924  1.00  0.00    -0.000 C 
BRANCH  23  24
ATOM     24  C   UNL     1      53.827  48.057  12.992  1.00  0.00    -0.000 C 
BRANCH  24  25
ATOM     25  C   UNL     1      54.898  47.227  13.726  1.00  0.00    -0.000 C 
BRANCH  25  26
ATOM     26  C   UNL     1      55.126  47.619  15.198  1.00  0.00    -0.000 C 
BRANCH  26  27
ATOM     27  C   UNL     1      56.576  47.395  15.657  1.00  0.00    -0.000 C 
BRANCH  27  28
ATOM     28  C   UNL     1      57.260  46.317  14.807  1.00  0.00    -0.000 C 
BRANCH  28  29
ATOM     29  C   UNL     1      57.623  45.095  15.659  1.00  0.00    -0.003 C 
ATOM     30  C   UNL     1      56.582  43.989  15.509  1.00  0.00     0.004 C 
ENDBRANCH  28  29
ENDBRANCH  27  28
ENDBRANCH  26  27
ENDBRANCH  25  26
ENDBRANCH  24  25
ENDBRANCH  23  24
ENDBRANCH  22  23
ENDBRANCH  21  22
ENDBRANCH  20  21
ENDBRANCH  19  20
ENDBRANCH  18  19
ENDBRANCH  17  18
ENDBRANCH   1  17
TORSDOF 26
ENDMDL
MODEL 2
REMARK VINA RESULT:    -3.591      6.730     12.418
REMARK INTER + INTRA:         -12.486
REMARK INTER:                  -8.727
REMARK INTRA:                  -3.759
REMARK UNBOUND:                -3.437
REMARK SMILES CCCCCCCCCCCCCCCCCCCCCCCCCCCC(=O)[O-]
REMARK SMILES IDX 15 1 16 2 17 3 18 4 19 5 20 6 21 7 22 8 23 9 24 10 25 11
REMARK SMILES IDX 26 12 27 13 28 14 29 15 30 16 14 17 13 18 12 19 11 20 10 21
REMARK SMILES IDX 9 22 8 23 7 24 6 25 5 26 4 27 3 28 2 29 1 30
REMARK H PARENT
REMARK Flexibility Score: inf
ROOT
ATOM      1  C   UNL     1      64.793  44.565  15.239  1.00  0.00     0.000 C 
ENDROOT
BRANCH   1   2
ATOM      2  C   UNL     1      64.360  45.797  16.053  1.00  0.00     0.000 C 
BRANCH   2   3
ATOM      3  C   UNL     1      64.761  45.701  17.534  1.00  0.00     0.000 C 
BRANCH   3   4
ATOM      4  C   UNL     1      63.550  45.530  18.467  1.00  0.00     0.000 C 
BRANCH   4   5
ATOM      5  C   UNL     1      62.213  45.786  17.752  1.00  0.00     0.000 C 
BRANCH   5   6
ATOM      6  C   UNL     1      61.324  44.531  17.690  1.00  0.00     0.000 C 
BRANCH   6   7
ATOM      7  C   UNL     1      59.959  44.808  17.038  1.00  0.00     0.000 C 
BRANCH   7   8
ATOM      8  C   UNL     1      58.789  44.629  18.021  1.00  0.00     0.000 C 
BRANCH   8   9
ATOM      9  C   UNL     1      57.617  43.833  17.420  1.00  0.00     0.000 C 
BRANCH   9  10
ATOM     10  C   UNL     1      57.631  43.694  15.886  1.00  0.00     0.000 C 
BRANCH  10  11
ATOM     11  C   UNL     1      56.623  44.625  15.190  1.00  0.00     0.000 C 
BRANCH  11  12
ATOM     12  C   UNL     1      56.898  46.116  15.457  1.00  0.00     0.006 C 
BRANCH  12  13
ATOM     13  C   UNL     1      57.283  46.918  14.201  1.00  0.00     0.053 C 
BRANCH  13  14
ATOM     14  C   UNL     1      56.584  48.241  14.124  1.00  0.00     0.041 C 
ATOM     15  O   UNL     1      57.022  49.146  13.366  1.00  0.00    -0.550 OA
ATOM     16  O   UNL     1      55.465  48.487  14.911  1.00  0.00    -0.550 OA
ENDBRANCH  13  14
ENDBRANCH  12  13
ENDBRANCH  11  12
ENDBRANCH  10  11
ENDBRANCH   9  10
ENDBRANCH   8   9
ENDBRANCH   7   8
ENDBRANCH   6   7
ENDBRANCH   5   6
ENDBRANCH   4   5
ENDBRANCH   3   4
ENDBRANCH   2   3
ENDBRANCH   1   2
BRANCH   1  17
ATOM     17  C   UNL     1      63.611  43.642  14.896  1.00  0.00     0.000 C 
BRANCH  17  18
ATOM     18  C   UNL     1      63.889  42.172  15.256  1.00  0.00     0.000 C 
BRANCH  18  19
ATOM     19  C   UNL     1      64.178  41.965  16.754  1.00  0.00     0.000 C 
BRANCH  19  20
ATOM     20  C   UNL     1      63.850  40.562  17.298  1.00  0.00     0.000 C 
BRANCH  20  21
ATOM     21  C   UNL     1      63.558  40.557  18.808  1.00  0.00     0.000 C 
BRANCH  21  22
ATOM     22  C   UNL     1      63.836  41.917  19.478  1.00  0.00    -0.000 C 
BRANCH  22  23
ATOM     23  C   UNL     1      62.679  42.481  20.327  1.00  0.00    -0.000 C 
BRANCH  23  24
ATOM     24  C   UNL     1      61.455  41.554  20.463  1.00  0.00    -0.000 C 
BRANCH  24  25
ATOM     25  C   UNL     1      60.102  42.280  20.606  1.00  0.00    -0.000 C 
BRANCH  25  26
ATOM     26  C   UNL     1      59.402  42.086  21.964  1.00  0.00    -0.000 C 
BRANCH  26  27
ATOM     27  C   UNL     1      57.933  41.659  21.821  1.00  0.00    -0.000 C 
BRANCH  27  28
ATOM     28  C   UNL     1      57.476  41.742  20.360  1.00  0.00    -0.000 C 
BRANCH  28  29
ATOM     29  C   UNL     1      56.913  40.397  19.884  1.00  0.00    -0.003 C 
ATOM     30  C   UNL     1      56.399  40.491  18.450  1.00  0.00     0.004 C 
ENDBRANCH  28  29
ENDBRANCH  27  28
ENDBRANCH  26  27
ENDBRANCH  25  26
ENDBRANCH  24  25
ENDBRANCH  23  24
ENDBRANCH  22  23
ENDBRANCH  21  22
ENDBRANCH  20  21
ENDBRANCH  19  20
ENDBRANCH  18  19
ENDBRANCH  17  18
ENDBRANCH   1  17
TORSDOF 26
ENDMDL
MODEL 3
REMARK VINA RESULT:    -3.557      3.224      5.198
REMARK INTER + INTRA:         -12.401
REMARK INTER:                  -8.519
REMARK INTRA:                  -3.882
REMARK UNBOUND:                -3.437
REMARK SMILES CCCCCCCCCCCCCCCCCCCCCCCCCCCC(=O)[O-]
REMARK SMILES IDX 15 1 16 2 17 3 18 4 19 5 20 6 21 7 22 8 23 9 24 10 25 11
REMARK SMILES IDX 26 12 27 13 28 14 29 15 30 16 14 17 13 18 12 19 11 20 10 21
REMARK SMILES IDX 9 22 8 23 7 24 6 25 5 26 4 27 3 28 2 29 1 30
REMARK H PARENT
REMARK Flexibility Score: inf
ROOT
ATOM      1  C   UNL     1      49.535  44.225  16.634  1.00  0.00     0.000 C 
ENDROOT
BRANCH   1   2
ATOM      2  C   UNL     1      48.748  43.122  15.902  1.00  0.00     0.000 C 
BRANCH   2   3
ATOM      3  C   UNL     1      47.904  43.668  14.739  1.00  0.00     0.000 C 
BRANCH   3   4
ATOM      4  C   UNL     1      46.632  42.839  14.489  1.00  0.00     0.000 C 
BRANCH   4   5
ATOM      5  C   UNL     1      46.749  41.403  15.024  1.00  0.00     0.000 C 
BRANCH   5   6
ATOM      6  C   UNL     1      45.607  41.035  15.989  1.00  0.00     0.000 C 
BRANCH   6   7
ATOM      7  C   UNL     1      45.834  41.587  17.406  1.00  0.00     0.000 C 
BRANCH   7   8
ATOM      8  C   UNL     1      44.980  42.833  17.697  1.00  0.00     0.000 C 
BRANCH   8   9
ATOM      9  C   UNL     1      45.825  44.100  17.925  1.00  0.00     0.000 C 
BRANCH   9  10
ATOM     10  C   UNL     1      45.341  45.358  17.179  1.00  0.00     0.000 C 
BRANCH  10  11
ATOM     11  C   UNL     1      46.487  46.322  16.825  1.00  0.00     0.000 C 
BRANCH  11  12
ATOM     12  C   UNL     1      46.888  47.235  17.998  1.00  0.00     0.006 C 
BRANCH  12  13
ATOM     13  C   UNL     1      45.752  48.143  18.504  1.00  0.00     0.053 C 
BRANCH  13  14
ATOM     14  C   UNL     1      46.235  49.195  19.455  1.00  0.00     0.041 C 
ATOM     15  O   UNL     1      46.812  48.865  20.524  1.00  0.00    -0.550 OA
ATOM     16  O   UNL     1      46.024  50.540  19.176  1.00  0.00    -0.550 OA
ENDBRANCH  13  14
ENDBRANCH  12  13
ENDBRANCH  11  12
ENDBRANCH  10  11
ENDBRANCH   9  10
ENDBRANCH   8   9
ENDBRANCH   7   8
ENDBRANCH   6   7
ENDBRANCH   5   6
ENDBRANCH   4   5
ENDBRANCH   3   4
ENDBRANCH   2   3
ENDBRANCH   1   2
BRANCH   1  17
ATOM     17  C   UNL     1      51.028  44.226  16.264  1.00  0.00     0.000 C 
BRANCH  17  18
ATOM     18  C   UNL     1      51.483  45.567  15.661  1.00  0.00     0.000 C 
BRANCH  18  19
ATOM     19  C   UNL     1      50.611  46.019  14.475  1.00  0.00     0.000 C 
BRANCH  19  20
ATOM     20  C   UNL     1      49.625  47.161  14.783  1.00  0.00     0.000 C 
BRANCH  20  21
ATOM     21  C   UNL     1      50.218  48.554  14.513  1.00  0.00     0.000 C 
BRANCH  21  22
ATOM     22  C   UNL     1      49.498  49.304  13.376  1.00  0.00    -0.000 C 
BRANCH  22  23
ATOM     23  C   UNL     1      50.413  50.137  12.455  1.00  0.00    -0.000 C 
BRANCH  23  24
ATOM     24  C   UNL     1      51.506  49.336  11.720  1.00  0.00    -0.000 C 
BRANCH  24  25
ATOM     25  C   UNL     1      52.735  50.159  11.286  1.00  0.00    -0.000 C 
BRANCH  25  26
ATOM     26  C   UNL     1      53.478  50.869  12.433  1.00  0.00    -0.000 C 
BRANCH  26  27
ATOM     27  C   UNL     1      54.751  50.125  12.868  1.00  0.00    -0.000 C 
BRANCH  27  28
ATOM     28  C   UNL     1      54.687  49.752  14.354  1.00  0.00    -0.000 C 
BRANCH  28  29
ATOM     29  C   UNL     1      53.759  48.552  14.579  1.00  0.00    -0.003 C 
ATOM     30  C   UNL     1      54.159  47.372  13.699  1.00  0.00     0.004 C 
ENDBRANCH  28  29
ENDBRANCH  27  28
ENDBRANCH  26  27
ENDBRANCH  25  26
ENDBRANCH  24  25
ENDBRANCH  23  24
ENDBRANCH  22  23
ENDBRANCH  21  22
ENDBRANCH  20  21
ENDBRANCH  19  20
ENDBRANCH  18  19
ENDBRANCH  17  18
ENDBRANCH   1  17
TORSDOF 26
ENDMDL
MODEL 4
REMARK VINA RESULT:    -3.553      1.797      3.470
REMARK INTER + INTRA:         -12.392
REMARK INTER:                  -7.164
REMARK INTRA:                  -5.228
REMARK UNBOUND:                -3.437
REMARK SMILES CCCCCCCCCCCCCCCCCCCCCCCCCCCC(=O)[O-]
REMARK SMILES IDX 15 1 16 2 17 3 18 4 19 5 20 6 21 7 22 8 23 9 24 10 25 11
REMARK SMILES IDX 26 12 27 13 28 14 29 15 30 16 14 17 13 18 12 19 11 20 10 21
REMARK SMILES IDX 9 22 8 23 7 24 6 25 5 26 4 27 3 28 2 29 1 30
REMARK H PARENT
REMARK Flexibility Score: inf
ROOT
ATOM      1  C   UNL     1      48.959  44.278  14.848  1.00  0.00     0.000 C 
ENDROOT
BRANCH   1   2
ATOM      2  C   UNL     1      47.869  43.272  15.259  1.00  0.00     0.000 C 
BRANCH   2   3
ATOM      3  C   UNL     1      46.460  43.719  14.836  1.00  0.00     0.000 C 
BRANCH   3   4
ATOM      4  C   UNL     1      45.396  43.418  15.906  1.00  0.00     0.000 C 
BRANCH   4   5
ATOM      5  C   UNL     1      46.013  43.007  17.253  1.00  0.00     0.000 C 
BRANCH   5   6
ATOM      6  C   UNL     1      45.831  44.082  18.340  1.00  0.00     0.000 C 
BRANCH   6   7
ATOM      7  C   UNL     1      47.069  44.221  19.243  1.00  0.00     0.000 C 
BRANCH   7   8
ATOM      8  C   UNL     1      48.211  44.995  18.562  1.00  0.00     0.000 C 
BRANCH   8   9
ATOM      9  C   UNL     1      49.590  44.350  18.786  1.00  0.00     0.000 C 
BRANCH   9  10
ATOM     10  C   UNL     1      50.782  45.116  18.182  1.00  0.00     0.000 C 
BRANCH  10  11
ATOM     11  C   UNL     1      52.014  44.224  17.951  1.00  0.00     0.000 C 
BRANCH  11  12
ATOM     12  C   UNL     1      51.980  43.491  16.598  1.00  0.00     0.006 C 
BRANCH  12  13
ATOM     13  C   UNL     1      51.503  42.029  16.687  1.00  0.00     0.053 C 
BRANCH  13  14
ATOM     14  C   UNL     1      52.626  41.047  16.540  1.00  0.00     0.041 C 
ATOM     15  O   UNL     1      52.512  40.070  15.754  1.00  0.00    -0.550 OA
ATOM     16  O   UNL     1      53.786  41.193  17.291  1.00  0.00    -0.550 OA
ENDBRANCH  13  14
ENDBRANCH  12  13
ENDBRANCH  11  12
ENDBRANCH  10  11
ENDBRANCH   9  10
ENDBRANCH   8   9
ENDBRANCH   7   8
ENDBRANCH   6   7
ENDBRANCH   5   6
ENDBRANCH   4   5
ENDBRANCH   3   4
ENDBRANCH   2   3
ENDBRANCH   1   2
BRANCH   1  17
ATOM     17  C   UNL     1      48.573  45.731  15.174  1.00  0.00     0.000 C 
BRANCH  17  18
ATOM     18  C   UNL     1      49.742  46.710  14.968  1.00  0.00     0.000 C 
BRANCH  18  19
ATOM     19  C   UNL     1      50.924  46.084  14.205  1.00  0.00     0.000 C 
BRANCH  19  20
ATOM     20  C   UNL     1      51.619  47.014  13.194  1.00  0.00     0.000 C 
BRANCH  20  21
ATOM     21  C   UNL     1      51.126  48.468  13.279  1.00  0.00     0.000 C 
BRANCH  21  22
ATOM     22  C   UNL     1      52.209  49.493  12.893  1.00  0.00    -0.000 C 
BRANCH  22  23
ATOM     23  C   UNL     1      53.599  48.898  12.588  1.00  0.00    -0.000 C 
BRANCH  23  24
ATOM     24  C   UNL     1      54.754  49.465  13.436  1.00  0.00    -0.000 C 
BRANCH  24  25
ATOM     25  C   UNL     1      55.601  48.408  14.172  1.00  0.00    -0.000 C 
BRANCH  25  26
ATOM     26  C   UNL     1      55.141  46.953  13.970  1.00  0.00    -0.000 C 
BRANCH  26  27
ATOM     27  C   UNL     1      54.643  46.299  15.268  1.00  0.00    -0.000 C 
BRANCH  27  28
ATOM     28  C   UNL     1      55.025  47.144  16.490  1.00  0.00    -0.000 C 
BRANCH  28  29
ATOM     29  C   UNL     1      53.798  47.433  17.362  1.00  0.00    -0.003 C 
ATOM     30  C   UNL     1      52.752  48.235  16.593  1.00  0.00     0.004 C 
ENDBRANCH  28  29
ENDBRANCH  27  28
ENDBRANCH  26  27
ENDBRANCH  25  26
ENDBRANCH  24  25
ENDBRANCH  23  24
ENDBRANCH  22  23
ENDBRANCH  21  22
ENDBRANCH  20  21
ENDBRANCH  19  20
ENDBRANCH  18  19
ENDBRANCH  17  18
ENDBRANCH   1  17
TORSDOF 26
ENDMDL
MODEL 5
REMARK VINA RESULT:    -3.553      2.125      3.527
REMARK INTER + INTRA:         -12.391
REMARK INTER:                  -7.818
REMARK INTRA:                  -4.573
REMARK UNBOUND:                -3.437
REMARK SMILES CCCCCCCCCCCCCCCCCCCCCCCCCCCC(=O)[O-]
REMARK SMILES IDX 15 1 16 2 17 3 18 4 19 5 20 6 21 7 22 8 23 9 24 10 25 11
REMARK SMILES IDX 26 12 27 13 28 14 29 15 30 16 14 17 13 18 12 19 11 20 10 21
REMARK SMILES IDX 9 22 8 23 7 24 6 25 5 26 4 27 3 28 2 29 1 30
REMARK H PARENT
REMARK Flexibility Score: inf
ROOT
ATOM      1  C   UNL     1      51.658  45.163  16.633  1.00  0.00     0.000 C 
ENDROOT
BRANCH   1   2
ATOM      2  C   UNL     1      50.969  45.529  17.959  1.00  0.00     0.000 C 
BRANCH   2   3
ATOM      3  C   UNL     1      49.614  44.824  18.138  1.00  0.00     0.000 C 
BRANCH   3   4
ATOM      4  C   UNL     1      48.500  45.785  18.587  1.00  0.00     0.000 C 
BRANCH   4   5
ATOM      5  C   UNL     1      48.291  46.948  17.603  1.00  0.00     0.000 C 
BRANCH   5   6
ATOM      6  C   UNL     1      47.504  46.528  16.349  1.00  0.00     0.000 C 
BRANCH   6   7
ATOM      7  C   UNL     1      46.089  46.026  16.683  1.00  0.00     0.000 C 
BRANCH   7   8
ATOM      8  C   UNL     1      45.734  44.726  15.940  1.00  0.00     0.000 C 
BRANCH   8   9
ATOM      9  C   UNL     1      46.831  44.278  14.957  1.00  0.00     0.000 C 
BRANCH   9  10
ATOM     10  C   UNL     1      46.775  42.797  14.538  1.00  0.00     0.000 C 
BRANCH  10  11
ATOM     11  C   UNL     1      45.568  42.050  15.131  1.00  0.00     0.000 C 
BRANCH  11  12
ATOM     12  C   UNL     1      45.890  40.593  15.510  1.00  0.00     0.006 C 
BRANCH  12  13
ATOM     13  C   UNL     1      46.255  40.396  16.992  1.00  0.00     0.053 C 
BRANCH  13  14
ATOM     14  C   UNL     1      47.735  40.370  17.223  1.00  0.00     0.041 C 
ATOM     15  O   UNL     1      48.374  41.448  17.354  1.00  0.00    -0.550 OA
ATOM     16  O   UNL     1      48.416  39.160  17.266  1.00  0.00    -0.550 OA
ENDBRANCH  13  14
ENDBRANCH  12  13
ENDBRANCH  11  12
ENDBRANCH  10  11
ENDBRANCH   9  10
ENDBRANCH   8   9
ENDBRANCH   7   8
ENDBRANCH   6   7
ENDBRANCH   5   6
ENDBRANCH   4   5
ENDBRANCH   3   4
ENDBRANCH   2   3
ENDBRANCH   1   2
BRANCH   1  17
ATOM     17  C   UNL     1      50.707  44.460  15.650  1.00  0.00     0.000 C 
BRANCH  17  18
ATOM     18  C   UNL     1      50.340  45.348  14.449  1.00  0.00     0.000 C 
BRANCH  18  19
ATOM     19  C   UNL     1      51.396  46.430  14.156  1.00  0.00     0.000 C 
BRANCH  19  20
ATOM     20  C   UNL     1      50.834  47.823  13.818  1.00  0.00     0.000 C 
BRANCH  20  21
ATOM     21  C   UNL     1      50.345  48.589  15.058  1.00  0.00     0.000 C 
BRANCH  21  22
ATOM     22  C   UNL     1      51.450  49.440  15.713  1.00  0.00    -0.000 C 
BRANCH  22  23
ATOM     23  C   UNL     1      52.018  48.877  17.033  1.00  0.00    -0.000 C 
BRANCH  23  24
ATOM     24  C   UNL     1      53.555  48.885  17.139  1.00  0.00    -0.000 C 
BRANCH  24  25
ATOM     25  C   UNL     1      54.269  47.783  16.330  1.00  0.00    -0.000 C 
BRANCH  25  26
ATOM     26  C   UNL     1      54.762  48.217  14.938  1.00  0.00    -0.000 C 
BRANCH  26  27
ATOM     27  C   UNL     1      55.173  47.028  14.054  1.00  0.00    -0.000 C 
BRANCH  27  28
ATOM     28  C   UNL     1      56.698  46.872  14.019  1.00  0.00    -0.000 C 
BRANCH  28  29
ATOM     29  C   UNL     1      57.158  45.763  14.972  1.00  0.00    -0.003 C 
ATOM     30  C   UNL     1      57.787  46.347  16.234  1.00  0.00     0.004 C 
ENDBRANCH  28  29
ENDBRANCH  27  28
ENDBRANCH  26  27
ENDBRANCH  25  26
ENDBRANCH  24  25
ENDBRANCH  23  24
ENDBRANCH  22  23
ENDBRANCH  21  22
ENDBRANCH  20  21
ENDBRANCH  19  20
ENDBRANCH  18  19
ENDBRANCH  17  18
ENDBRANCH   1  17
TORSDOF 26
ENDMDL
MODEL 6
REMARK VINA RESULT:    -3.526      4.223      6.401
REMARK INTER + INTRA:         -12.323
REMARK INTER:                  -7.050
REMARK INTRA:                  -5.273
REMARK UNBOUND:                -3.437
REMARK SMILES CCCCCCCCCCCCCCCCCCCCCCCCCCCC(=O)[O-]
REMARK SMILES IDX 15 1 16 2 17 3 18 4 19 5 20 6 21 7 22 8 23 9 24 10 25 11
REMARK SMILES IDX 26 12 27 13 28 14 29 15 30 16 14 17 13 18 12 19 11 20 10 21
REMARK SMILES IDX 9 22 8 23 7 24 6 25 5 26 4 27 3 28 2 29 1 30
REMARK H PARENT
REMARK Flexibility Score: inf
ROOT
ATOM      1  C   UNL     1      52.361  49.816  16.332  1.00  0.00     0.000 C 
ENDROOT
BRANCH   1   2
ATOM      2  C   UNL     1      52.251  50.302  17.788  1.00  0.00     0.000 C 
BRANCH   2   3
ATOM      3  C   UNL     1      51.364  49.390  18.653  1.00  0.00     0.000 C 
BRANCH   3   4
ATOM      4  C   UNL     1      51.125  48.013  18.010  1.00  0.00     0.000 C 
BRANCH   4   5
ATOM      5  C   UNL     1      52.117  46.949  18.507  1.00  0.00     0.000 C 
BRANCH   5   6
ATOM      6  C   UNL     1      52.779  46.172  17.355  1.00  0.00     0.000 C 
BRANCH   6   7
ATOM      7  C   UNL     1      51.766  45.724  16.288  1.00  0.00     0.000 C 
BRANCH   7   8
ATOM      8  C   UNL     1      52.128  46.233  14.882  1.00  0.00     0.000 C 
BRANCH   8   9
ATOM      9  C   UNL     1      50.893  46.482  13.997  1.00  0.00     0.000 C 
BRANCH   9  10
ATOM     10  C   UNL     1      49.857  47.466  14.573  1.00  0.00     0.000 C 
BRANCH  10  11
ATOM     11  C   UNL     1      49.757  48.771  13.765  1.00  0.00     0.000 C 
BRANCH  11  12
ATOM     12  C   UNL     1      50.937  48.970  12.796  1.00  0.00     0.006 C 
BRANCH  12  13
ATOM     13  C   UNL     1      50.949  50.341  12.094  1.00  0.00     0.053 C 
BRANCH  13  14
ATOM     14  C   UNL     1      51.120  50.227  10.610  1.00  0.00     0.041 C 
ATOM     15  O   UNL     1      51.863  49.333  10.126  1.00  0.00    -0.550 OA
ATOM     16  O   UNL     1      50.484  51.125   9.762  1.00  0.00    -0.550 OA
ENDBRANCH  13  14
ENDBRANCH  12  13
ENDBRANCH  11  12
ENDBRANCH  10  11
ENDBRANCH   9  10
ENDBRANCH   8   9
ENDBRANCH   7   8
ENDBRANCH   6   7
ENDBRANCH   5   6
ENDBRANCH   4   5
ENDBRANCH   3   4
ENDBRANCH   2   3
ENDBRANCH   1   2
BRANCH   1  17
ATOM     17  C   UNL     1      53.820  49.609  15.890  1.00  0.00     0.000 C 
BRANCH  17  18
ATOM     18  C   UNL     1      54.095  50.180  14.488  1.00  0.00     0.000 C 
BRANCH  18  19
ATOM     19  C   UNL     1      55.582  50.503  14.251  1.00  0.00     0.000 C 
BRANCH  19  20
ATOM     20  C   UNL     1      56.519  50.183  15.431  1.00  0.00     0.000 C 
BRANCH  20  21
ATOM     21  C   UNL     1      57.572  49.116  15.087  1.00  0.00     0.000 C 
BRANCH  21  22
ATOM     22  C   UNL     1      57.516  48.669  13.614  1.00  0.00    -0.000 C 
BRANCH  22  23
ATOM     23  C   UNL     1      57.178  47.180  13.391  1.00  0.00    -0.000 C 
BRANCH  23  24
ATOM     24  C   UNL     1      55.794  46.740  13.905  1.00  0.00    -0.000 C 
BRANCH  24  25
ATOM     25  C   UNL     1      55.822  45.675  15.019  1.00  0.00    -0.000 C 
BRANCH  25  26
ATOM     26  C   UNL     1      57.214  45.095  15.327  1.00  0.00    -0.000 C 
BRANCH  26  27
ATOM     27  C   UNL     1      57.536  45.084  16.830  1.00  0.00    -0.000 C 
BRANCH  27  28
ATOM     28  C   UNL     1      58.279  46.360  17.242  1.00  0.00    -0.000 C 
BRANCH  28  29
ATOM     29  C   UNL     1      57.586  47.040  18.429  1.00  0.00    -0.003 C 
ATOM     30  C   UNL     1      56.169  47.474  18.065  1.00  0.00     0.004 C 
ENDBRANCH  28  29
ENDBRANCH  27  28
ENDBRANCH  26  27
ENDBRANCH  25  26
ENDBRANCH  24  25
ENDBRANCH  23  24
ENDBRANCH  22  23
ENDBRANCH  21  22
ENDBRANCH  20  21
ENDBRANCH  19  20
ENDBRANCH  18  19
ENDBRANCH  17  18
ENDBRANCH   1  17
TORSDOF 26
ENDMDL
MODEL 7
REMARK VINA RESULT:    -3.510      9.910     14.014
REMARK INTER + INTRA:         -12.281
REMARK INTER:                  -7.063
REMARK INTRA:                  -5.219
REMARK UNBOUND:                -3.437
REMARK SMILES CCCCCCCCCCCCCCCCCCCCCCCCCCCC(=O)[O-]
REMARK SMILES IDX 15 1 16 2 17 3 18 4 19 5 20 6 21 7 22 8 23 9 24 10 25 11
REMARK SMILES IDX 26 12 27 13 28 14 29 15 30 16 14 17 13 18 12 19 11 20 10 21
REMARK SMILES IDX 9 22 8 23 7 24 6 25 5 26 4 27 3 28 2 29 1 30
REMARK H PARENT
REMARK Flexibility Score: inf
ROOT
ATOM      1  C   UNL     1      60.805  32.301  15.990  1.00  0.00     0.000 C 
ENDROOT
BRANCH   1   2
ATOM      2  C   UNL     1      59.375  32.820  16.226  1.00  0.00     0.000 C 
BRANCH   2   3
ATOM      3  C   UNL     1      59.243  34.331  15.977  1.00  0.00     0.000 C 
BRANCH   3   4
ATOM      4  C   UNL     1      58.008  34.940  16.664  1.00  0.00     0.000 C 
BRANCH   4   5
ATOM      5  C   UNL     1      57.357  33.976  17.669  1.00  0.00     0.000 C 
BRANCH   5   6
ATOM      6  C   UNL     1      56.133  33.249  17.085  1.00  0.00     0.000 C 
BRANCH   6   7
ATOM      7  C   UNL     1      54.803  33.869  17.549  1.00  0.00     0.000 C 
BRANCH   7   8
ATOM      8  C   UNL     1      54.262  34.911  16.555  1.00  0.00     0.000 C 
BRANCH   8   9
ATOM      9  C   UNL     1      54.386  36.356  17.073  1.00  0.00     0.000 C 
BRANCH   9  10
ATOM     10  C   UNL     1      55.241  37.297  16.203  1.00  0.00     0.000 C 
BRANCH  10  11
ATOM     11  C   UNL     1      56.177  38.193  17.032  1.00  0.00     0.000 C 
BRANCH  11  12
ATOM     12  C   UNL     1      55.949  38.059  18.549  1.00  0.00     0.006 C 
BRANCH  12  13
ATOM     13  C   UNL     1      57.088  37.338  19.293  1.00  0.00     0.053 C 
BRANCH  13  14
ATOM     14  C   UNL     1      57.192  37.753  20.729  1.00  0.00     0.041 C 
ATOM     15  O   UNL     1      57.228  38.974  21.034  1.00  0.00    -0.550 OA
ATOM     16  O   UNL     1      57.278  36.793  21.731  1.00  0.00    -0.550 OA
ENDBRANCH  13  14
ENDBRANCH  12  13
ENDBRANCH  11  12
ENDBRANCH  10  11
ENDBRANCH   9  10
ENDBRANCH   8   9
ENDBRANCH   7   8
ENDBRANCH   6   7
ENDBRANCH   5   6
ENDBRANCH   4   5
ENDBRANCH   3   4
ENDBRANCH   2   3
ENDBRANCH   1   2
BRANCH   1  17
ATOM     17  C   UNL     1      61.863  33.409  16.133  1.00  0.00     0.000 C 
BRANCH  17  18
ATOM     18  C   UNL     1      62.857  33.426  14.959  1.00  0.00     0.000 C 
BRANCH  18  19
ATOM     19  C   UNL     1      62.176  33.242  13.591  1.00  0.00     0.000 C 
BRANCH  19  20
ATOM     20  C   UNL     1      61.647  34.534  12.941  1.00  0.00     0.000 C 
BRANCH  20  21
ATOM     21  C   UNL     1      60.228  34.379  12.367  1.00  0.00     0.000 C 
BRANCH  21  22
ATOM     22  C   UNL     1      59.809  32.908  12.190  1.00  0.00    -0.000 C 
BRANCH  22  23
ATOM     23  C   UNL     1      58.641  32.669  11.211  1.00  0.00    -0.000 C 
BRANCH  23  24
ATOM     24  C   UNL     1      57.306  32.272  11.870  1.00  0.00    -0.000 C 
BRANCH  24  25
ATOM     25  C   UNL     1      57.120  32.771  13.316  1.00  0.00    -0.000 C 
BRANCH  25  26
ATOM     26  C   UNL     1      56.098  33.911  13.483  1.00  0.00    -0.000 C 
BRANCH  26  27
ATOM     27  C   UNL     1      56.686  35.292  13.151  1.00  0.00    -0.000 C 
BRANCH  27  28
ATOM     28  C   UNL     1      55.598  36.243  12.639  1.00  0.00    -0.000 C 
BRANCH  28  29
ATOM     29  C   UNL     1      54.199  35.687  12.933  1.00  0.00    -0.003 C 
ATOM     30  C   UNL     1      53.226  36.805  13.296  1.00  0.00     0.004 C 
ENDBRANCH  28  29
ENDBRANCH  27  28
ENDBRANCH  26  27
ENDBRANCH  25  26
ENDBRANCH  24  25
ENDBRANCH  23  24
ENDBRANCH  22  23
ENDBRANCH  21  22
ENDBRANCH  20  21
ENDBRANCH  19  20
ENDBRANCH  18  19
ENDBRANCH  17  18
ENDBRANCH   1  17
TORSDOF 26
ENDMDL
MODEL 8
REMARK VINA RESULT:    -3.466      9.047     12.811
REMARK INTER + INTRA:         -12.172
REMARK INTER:                  -6.778
REMARK INTRA:                  -5.394
REMARK UNBOUND:                -3.437
REMARK SMILES CCCCCCCCCCCCCCCCCCCCCCCCCCCC(=O)[O-]
REMARK SMILES IDX 15 1 16 2 17 3 18 4 19 5 20 6 21 7 22 8 23 9 24 10 25 11
REMARK SMILES IDX 26 12 27 13 28 14 29 15 30 16 14 17 13 18 12 19 11 20 10 21
REMARK SMILES IDX 9 22 8 23 7 24 6 25 5 26 4 27 3 28 2 29 1 30
REMARK H PARENT
REMARK Flexibility Score: inf
ROOT
ATOM      1  C   UNL     1      64.682  42.091  15.624  1.00  0.00     0.000 C 
ENDROOT
BRANCH   1   2
ATOM      2  C   UNL     1      63.738  43.108  14.957  1.00  0.00     0.000 C 
BRANCH   2   3
ATOM      3  C   UNL     1      64.113  44.564  15.279  1.00  0.00     0.000 C 
BRANCH   3   4
ATOM      4  C   UNL     1      63.382  45.104  16.521  1.00  0.00     0.000 C 
BRANCH   4   5
ATOM      5  C   UNL     1      62.055  44.375  16.788  1.00  0.00     0.000 C 
BRANCH   5   6
ATOM      6  C   UNL     1      61.351  44.873  18.063  1.00  0.00     0.000 C 
BRANCH   6   7
ATOM      7  C   UNL     1      60.013  45.569  17.762  1.00  0.00     0.000 C 
BRANCH   7   8
ATOM      8  C   UNL     1      59.111  44.736  16.834  1.00  0.00     0.000 C 
BRANCH   8   9
ATOM      9  C   UNL     1      57.943  44.063  17.577  1.00  0.00     0.000 C 
BRANCH   9  10
ATOM     10  C   UNL     1      58.055  44.056  19.113  1.00  0.00     0.000 C 
BRANCH  10  11
ATOM     11  C   UNL     1      58.238  42.643  19.694  1.00  0.00     0.000 C 
BRANCH  11  12
ATOM     12  C   UNL     1      59.570  42.470  20.447  1.00  0.00     0.006 C 
BRANCH  12  13
ATOM     13  C   UNL     1      59.594  41.272  21.413  1.00  0.00     0.053 C 
BRANCH  13  14
ATOM     14  C   UNL     1      60.039  41.653  22.793  1.00  0.00     0.041 C 
ATOM     15  O   UNL     1      59.188  41.847  23.700  1.00  0.00    -0.550 OA
ATOM     16  O   UNL     1      61.390  41.822  23.071  1.00  0.00    -0.550 OA
ENDBRANCH  13  14
ENDBRANCH  12  13
ENDBRANCH  11  12
ENDBRANCH  10  11
ENDBRANCH   9  10
ENDBRANCH   8   9
ENDBRANCH   7   8
ENDBRANCH   6   7
ENDBRANCH   5   6
ENDBRANCH   4   5
ENDBRANCH   3   4
ENDBRANCH   2   3
ENDBRANCH   1   2
BRANCH   1  17
ATOM     17  C   UNL     1      63.966  40.783  16.000  1.00  0.00     0.000 C 
BRANCH  17  18
ATOM     18  C   UNL     1      64.021  40.495  17.510  1.00  0.00     0.000 C 
BRANCH  18  19
ATOM     19  C   UNL     1      64.118  41.774  18.362  1.00  0.00     0.000 C 
BRANCH  19  20
ATOM     20  C   UNL     1      63.094  41.879  19.508  1.00  0.00     0.000 C 
BRANCH  20  21
ATOM     21  C   UNL     1      63.439  42.983  20.521  1.00  0.00     0.000 C 
BRANCH  21  22
ATOM     22  C   UNL     1      64.402  44.042  19.951  1.00  0.00    -0.000 C 
BRANCH  22  23
ATOM     23  C   UNL     1      64.215  45.469  20.506  1.00  0.00    -0.000 C 
BRANCH  23  24
ATOM     24  C   UNL     1      64.751  46.598  19.604  1.00  0.00    -0.000 C 
BRANCH  24  25
ATOM     25  C   UNL     1      63.679  47.569  19.072  1.00  0.00    -0.000 C 
BRANCH  25  26
ATOM     26  C   UNL     1      62.887  48.321  20.157  1.00  0.00    -0.000 C 
BRANCH  26  27
ATOM     27  C   UNL     1      61.374  48.063  20.078  1.00  0.00    -0.000 C 
BRANCH  27  28
ATOM     28  C   UNL     1      60.806  47.697  21.455  1.00  0.00    -0.000 C 
BRANCH  28  29
ATOM     29  C   UNL     1      60.120  46.327  21.418  1.00  0.00    -0.003 C 
ATOM     30  C   UNL     1      60.963  45.269  22.126  1.00  0.00     0.004 C 
ENDBRANCH  28  29
ENDBRANCH  27  28
ENDBRANCH  26  27
ENDBRANCH  25  26
ENDBRANCH  24  25
ENDBRANCH  23  24
ENDBRANCH  22  23
ENDBRANCH  21  22
ENDBRANCH  20  21
ENDBRANCH  19  20
ENDBRANCH  18  19
ENDBRANCH  17  18
ENDBRANCH   1  17
TORSDOF 26
ENDMDL
MODEL 9
REMARK VINA RESULT:    -3.449      9.658     14.123
REMARK INTER + INTRA:         -12.130
REMARK INTER:                  -6.850
REMARK INTRA:                  -5.280
REMARK UNBOUND:                -3.437
REMARK SMILES CCCCCCCCCCCCCCCCCCCCCCCCCCCC(=O)[O-]
REMARK SMILES IDX 15 1 16 2 17 3 18 4 19 5 20 6 21 7 22 8 23 9 24 10 25 11
REMARK SMILES IDX 26 12 27 13 28 14 29 15 30 16 14 17 13 18 12 19 11 20 10 21
REMARK SMILES IDX 9 22 8 23 7 24 6 25 5 26 4 27 3 28 2 29 1 30
REMARK H PARENT
REMARK Flexibility Score: inf
ROOT
ATOM      1  C   UNL     1      60.239  32.643  12.103  1.00  0.00     0.000 C 
ENDROOT
BRANCH   1   2
ATOM      2  C   UNL     1      58.818  32.138  11.794  1.00  0.00     0.000 C 
BRANCH   2   3
ATOM      3  C   UNL     1      57.770  33.263  11.823  1.00  0.00     0.000 C 
BRANCH   3   4
ATOM      4  C   UNL     1      56.491  32.864  12.580  1.00  0.00     0.000 C 
BRANCH   4   5
ATOM      5  C   UNL     1      55.576  34.065  12.868  1.00  0.00     0.000 C 
BRANCH   5   6
ATOM      6  C   UNL     1      56.252  35.413  12.558  1.00  0.00     0.000 C 
BRANCH   6   7
ATOM      7  C   UNL     1      55.288  36.602  12.707  1.00  0.00     0.000 C 
BRANCH   7   8
ATOM      8  C   UNL     1      54.910  36.875  14.173  1.00  0.00     0.000 C 
BRANCH   8   9
ATOM      9  C   UNL     1      53.396  37.062  14.378  1.00  0.00     0.000 C 
BRANCH   9  10
ATOM     10  C   UNL     1      52.910  36.953  15.835  1.00  0.00     0.000 C 
BRANCH  10  11
ATOM     11  C   UNL     1      54.065  36.905  16.851  1.00  0.00     0.000 C 
BRANCH  11  12
ATOM     12  C   UNL     1      54.155  38.175  17.718  1.00  0.00     0.006 C 
BRANCH  12  13
ATOM     13  C   UNL     1      55.561  38.798  17.773  1.00  0.00     0.053 C 
BRANCH  13  14
ATOM     14  C   UNL     1      55.526  40.292  17.884  1.00  0.00     0.041 C 
ATOM     15  O   UNL     1      54.453  40.917  17.670  1.00  0.00    -0.550 OA
ATOM     16  O   UNL     1      56.681  40.999  18.196  1.00  0.00    -0.550 OA
ENDBRANCH  13  14
ENDBRANCH  12  13
ENDBRANCH  11  12
ENDBRANCH  10  11
ENDBRANCH   9  10
ENDBRANCH   8   9
ENDBRANCH   7   8
ENDBRANCH   6   7
ENDBRANCH   5   6
ENDBRANCH   4   5
ENDBRANCH   3   4
ENDBRANCH   2   3
ENDBRANCH   1   2
BRANCH   1  17
ATOM     17  C   UNL     1      60.302  34.173  12.242  1.00  0.00     0.000 C 
BRANCH  17  18
ATOM     18  C   UNL     1      61.245  34.622  13.372  1.00  0.00     0.000 C 
BRANCH  18  19
ATOM     19  C   UNL     1      62.475  33.708  13.527  1.00  0.00     0.000 C 
BRANCH  19  20
ATOM     20  C   UNL     1      62.927  33.456  14.977  1.00  0.00     0.000 C 
BRANCH  20  21
ATOM     21  C   UNL     1      62.750  31.992  15.414  1.00  0.00     0.000 C 
BRANCH  21  22
ATOM     22  C   UNL     1      61.458  31.756  16.219  1.00  0.00    -0.000 C 
BRANCH  22  23
ATOM     23  C   UNL     1      60.322  31.053  15.448  1.00  0.00    -0.000 C 
BRANCH  23  24
ATOM     24  C   UNL     1      58.977  31.805  15.434  1.00  0.00    -0.000 C 
BRANCH  24  25
ATOM     25  C   UNL     1      58.973  33.146  16.195  1.00  0.00    -0.000 C 
BRANCH  25  26
ATOM     26  C   UNL     1      58.324  34.319  15.438  1.00  0.00    -0.000 C 
BRANCH  26  27
ATOM     27  C   UNL     1      57.217  35.011  16.248  1.00  0.00    -0.000 C 
BRANCH  27  28
ATOM     28  C   UNL     1      56.461  34.001  17.119  1.00  0.00    -0.000 C 
BRANCH  28  29
ATOM     29  C   UNL     1      55.190  33.511  16.415  1.00  0.00    -0.003 C 
ATOM     30  C   UNL     1      55.297  32.034  16.046  1.00  0.00     0.004 C 
ENDBRANCH  28  29
ENDBRANCH  27  28
ENDBRANCH  26  27
ENDBRANCH  25  26
ENDBRANCH  24  25
ENDBRANCH  23  24
ENDBRANCH  22  23
ENDBRANCH  21  22
ENDBRANCH  20  21
ENDBRANCH  19  20
ENDBRANCH  18  19
ENDBRANCH  17  18
ENDBRANCH   1  17
TORSDOF 26
ENDMDL
