MODEL 1
REMARK VINA RESULT:    -3.990      0.000      0.000
REMARK INTER + INTRA:          -6.439
REMARK INTER:                  -5.623
REMARK INTRA:                  -0.816
REMARK UNBOUND:                -0.816
REMARK SMILES CCCCCCCCC(=O)[O-]
REMARK SMILES IDX 6 1 7 2 8 3 9 4 10 5 11 6 5 7 4 8 3 9 2 10 1 11
REMARK H PARENT
REMARK Flexibility Score: inf
ROOT
ATOM      1  C   UNL     1       8.602  -2.902  49.369  1.00  0.00     0.000 C 
ENDROOT
BRANCH   1   2
ATOM      2  C   UNL     1       7.548  -3.999  49.153  1.00  0.00     0.006 C 
BRANCH   2   3
ATOM      3  C   UNL     1       6.431  -3.961  50.204  1.00  0.00     0.053 C 
BRANCH   3   4
ATOM      4  C   UNL     1       5.402  -2.938  49.835  1.00  0.00     0.041 C 
ATOM      5  O   UNL     1       4.469  -3.235  49.044  1.00  0.00    -0.550 OA
ATOM      6  O   UNL     1       5.503  -1.643  50.327  1.00  0.00    -0.550 OA
ENDBRANCH   3   4
ENDBRANCH   2   3
ENDBRANCH   1   2
BRANCH   1   7
ATOM      7  C   UNL     1       9.186  -2.376  48.047  1.00  0.00     0.000 C 
BRANCH   7   8
ATOM      8  C   UNL     1       8.102  -2.087  46.996  1.00  0.00    -0.000 C 
BRANCH   8   9
ATOM      9  C   UNL     1       7.363  -0.765  47.252  1.00  0.00    -0.000 C 
BRANCH   9  10
ATOM     10  C   UNL     1       5.918  -0.837  46.744  1.00  0.00    -0.003 C 
ATOM     11  C   UNL     1       5.669  -2.130  45.973  1.00  0.00     0.004 C 
ENDBRANCH   9  10
ENDBRANCH   8   9
ENDBRANCH   7   8
ENDBRANCH   1   7
TORSDOF 7
ENDMDL
MODEL 2
REMARK VINA RESULT:    -3.980      1.992      2.513
REMARK INTER + INTRA:          -6.426
REMARK INTER:                  -5.734
REMARK INTRA:                  -0.692
REMARK UNBOUND:                -0.816
REMARK SMILES CCCCCCCCC(=O)[O-]
REMARK SMILES IDX 6 1 7 2 8 3 9 4 10 5 11 6 5 7 4 8 3 9 2 10 1 11
REMARK H PARENT
REMARK Flexibility Score: inf
ROOT
ATOM      1  C   UNL     1       9.688  -3.857  48.484  1.00  0.00     0.000 C 
ENDROOT
BRANCH   1   2
ATOM      2  C   UNL     1       8.605  -4.870  48.885  1.00  0.00     0.006 C 
BRANCH   2   3
ATOM      3  C   UNL     1       7.854  -5.445  47.677  1.00  0.00     0.053 C 
BRANCH   3   4
ATOM      4  C   UNL     1       6.409  -5.058  47.728  1.00  0.00     0.041 C 
ATOM      5  O   UNL     1       5.871  -4.491  46.741  1.00  0.00    -0.550 OA
ATOM      6  O   UNL     1       5.671  -5.279  48.883  1.00  0.00    -0.550 OA
ENDBRANCH   3   4
ENDBRANCH   2   3
ENDBRANCH   1   2
BRANCH   1   7
ATOM      7  C   UNL     1       9.321  -2.415  48.873  1.00  0.00     0.000 C 
BRANCH   7   8
ATOM      8  C   UNL     1       7.985  -2.329  49.627  1.00  0.00    -0.000 C 
BRANCH   8   9
ATOM      9  C   UNL     1       6.914  -1.545  48.851  1.00  0.00    -0.000 C 
BRANCH   9  10
ATOM     10  C   UNL     1       7.379  -1.255  47.419  1.00  0.00    -0.003 C 
ATOM     11  C   UNL     1       6.658  -0.041  46.841  1.00  0.00     0.004 C 
ENDBRANCH   9  10
ENDBRANCH   8   9
ENDBRANCH   7   8
ENDBRANCH   1   7
TORSDOF 7
ENDMDL
MODEL 3
REMARK VINA RESULT:    -3.970      1.703      3.629
REMARK INTER + INTRA:          -6.410
REMARK INTER:                  -5.721
REMARK INTRA:                  -0.690
REMARK UNBOUND:                -0.816
REMARK SMILES CCCCCCCCC(=O)[O-]
REMARK SMILES IDX 6 1 7 2 8 3 9 4 10 5 11 6 5 7 4 8 3 9 2 10 1 11
REMARK H PARENT
REMARK Flexibility Score: inf
ROOT
ATOM      1  C   UNL     1       8.135  -2.154  47.051  1.00  0.00     0.000 C 
ENDROOT
BRANCH   1   2
ATOM      2  C   UNL     1       7.320  -0.869  46.836  1.00  0.00     0.006 C 
BRANCH   2   3
ATOM      3  C   UNL     1       5.825  -1.062  47.121  1.00  0.00     0.053 C 
BRANCH   3   4
ATOM      4  C   UNL     1       5.241  -2.074  46.185  1.00  0.00     0.041 C 
ATOM      5  O   UNL     1       5.100  -3.269  46.553  1.00  0.00    -0.550 OA
ATOM      6  O   UNL     1       4.900  -1.708  44.889  1.00  0.00    -0.550 OA
ENDBRANCH   3   4
ENDBRANCH   2   3
ENDBRANCH   1   2
BRANCH   1   7
ATOM      7  C   UNL     1       8.957  -2.121  48.351  1.00  0.00     0.000 C 
BRANCH   7   8
ATOM      8  C   UNL     1       8.282  -2.894  49.496  1.00  0.00    -0.000 C 
BRANCH   8   9
ATOM      9  C   UNL     1       7.405  -1.997  50.382  1.00  0.00    -0.000 C 
BRANCH   9  10
ATOM     10  C   UNL     1       5.989  -2.572  50.513  1.00  0.00    -0.003 C 
ATOM     11  C   UNL     1       5.904  -3.970  49.910  1.00  0.00     0.004 C 
ENDBRANCH   9  10
ENDBRANCH   8   9
ENDBRANCH   7   8
ENDBRANCH   1   7
TORSDOF 7
ENDMDL
MODEL 4
REMARK VINA RESULT:    -3.952      2.132      4.140
REMARK INTER + INTRA:          -6.386
REMARK INTER:                  -5.721
REMARK INTRA:                  -0.665
REMARK UNBOUND:                -0.816
REMARK SMILES CCCCCCCCC(=O)[O-]
REMARK SMILES IDX 6 1 7 2 8 3 9 4 10 5 11 6 5 7 4 8 3 9 2 10 1 11
REMARK H PARENT
REMARK Flexibility Score: inf
ROOT
ATOM      1  C   UNL     1       5.447  -2.186  48.675  1.00  0.00     0.000 C 
ENDROOT
BRANCH   1   2
ATOM      2  C   UNL     1       5.849  -1.141  47.622  1.00  0.00     0.006 C 
BRANCH   2   3
ATOM      3  C   UNL     1       6.403  -1.775  46.340  1.00  0.00     0.053 C 
BRANCH   3   4
ATOM      4  C   UNL     1       5.305  -2.435  45.567  1.00  0.00     0.041 C 
ATOM      5  O   UNL     1       5.054  -3.656  45.740  1.00  0.00    -0.550 OA
ATOM      6  O   UNL     1       4.590  -1.712  44.620  1.00  0.00    -0.550 OA
ENDBRANCH   3   4
ENDBRANCH   2   3
ENDBRANCH   1   2
BRANCH   1   7
ATOM      7  C   UNL     1       6.099  -1.925  50.044  1.00  0.00     0.000 C 
BRANCH   7   8
ATOM      8  C   UNL     1       7.586  -2.312  50.073  1.00  0.00    -0.000 C 
BRANCH   8   9
ATOM      9  C   UNL     1       7.845  -3.719  49.512  1.00  0.00    -0.000 C 
BRANCH   9  10
ATOM     10  C   UNL     1       9.068  -3.722  48.586  1.00  0.00    -0.003 C 
ATOM     11  C   UNL     1       9.651  -2.320  48.437  1.00  0.00     0.004 C 
ENDBRANCH   9  10
ENDBRANCH   8   9
ENDBRANCH   7   8
ENDBRANCH   1   7
TORSDOF 7
ENDMDL
MODEL 5
REMARK VINA RESULT:    -3.942      2.198      3.858
REMARK INTER + INTRA:          -6.372
REMARK INTER:                  -5.620
REMARK INTRA:                  -0.752
REMARK UNBOUND:                -0.816
REMARK SMILES CCCCCCCCC(=O)[O-]
REMARK SMILES IDX 6 1 7 2 8 3 9 4 10 5 11 6 5 7 4 8 3 9 2 10 1 11
REMARK H PARENT
REMARK Flexibility Score: inf
ROOT
ATOM      1  C   UNL     1       7.832  -1.991  49.357  1.00  0.00     0.000 C 
ENDROOT
BRANCH   1   2
ATOM      2  C   UNL     1       6.407  -2.039  48.784  1.00  0.00     0.006 C 
BRANCH   2   3
ATOM      3  C   UNL     1       6.377  -2.433  47.301  1.00  0.00     0.053 C 
BRANCH   3   4
ATOM      4  C   UNL     1       5.931  -1.276  46.463  1.00  0.00     0.041 C 
ATOM      5  O   UNL     1       5.199  -1.469  45.457  1.00  0.00    -0.550 OA
ATOM      6  O   UNL     1       6.363   0.009  46.764  1.00  0.00    -0.550 OA
ENDBRANCH   3   4
ENDBRANCH   2   3
ENDBRANCH   1   2
BRANCH   1   7
ATOM      7  C   UNL     1       8.897  -2.402  48.325  1.00  0.00     0.000 C 
BRANCH   7   8
ATOM      8  C   UNL     1       9.667  -3.665  48.741  1.00  0.00    -0.000 C 
BRANCH   8   9
ATOM      9  C   UNL     1       8.935  -4.960  48.357  1.00  0.00    -0.000 C 
BRANCH   9  10
ATOM     10  C   UNL     1       8.572  -5.775  49.605  1.00  0.00    -0.003 C 
ATOM     11  C   UNL     1       7.089  -5.645  49.937  1.00  0.00     0.004 C 
ENDBRANCH   9  10
ENDBRANCH   8   9
ENDBRANCH   7   8
ENDBRANCH   1   7
TORSDOF 7
ENDMDL
MODEL 6
REMARK VINA RESULT:    -3.926      1.841      3.589
REMARK INTER + INTRA:          -6.349
REMARK INTER:                  -5.535
REMARK INTRA:                  -0.814
REMARK UNBOUND:                -0.816
REMARK SMILES CCCCCCCCC(=O)[O-]
REMARK SMILES IDX 6 1 7 2 8 3 9 4 10 5 11 6 5 7 4 8 3 9 2 10 1 11
REMARK H PARENT
REMARK Flexibility Score: inf
ROOT
ATOM      1  C   UNL     1       9.235  -3.036  48.911  1.00  0.00     0.000 C 
ENDROOT
BRANCH   1   2
ATOM      2  C   UNL     1       8.762  -2.465  47.565  1.00  0.00     0.006 C 
BRANCH   2   3
ATOM      3  C   UNL     1       7.918  -1.194  47.725  1.00  0.00     0.053 C 
BRANCH   3   4
ATOM      4  C   UNL     1       6.760  -1.214  46.777  1.00  0.00     0.041 C 
ATOM      5  O   UNL     1       6.402  -2.293  46.237  1.00  0.00    -0.550 OA
ATOM      6  O   UNL     1       6.107  -0.031  46.452  1.00  0.00    -0.550 OA
ENDBRANCH   3   4
ENDBRANCH   2   3
ENDBRANCH   1   2
BRANCH   1   7
ATOM      7  C   UNL     1       8.718  -4.464  49.160  1.00  0.00     0.000 C 
BRANCH   7   8
ATOM      8  C   UNL     1       7.209  -4.600  48.904  1.00  0.00    -0.000 C 
BRANCH   8   9
ATOM      9  C   UNL     1       6.363  -4.240  50.136  1.00  0.00    -0.000 C 
BRANCH   9  10
ATOM     10  C   UNL     1       5.421  -3.069  49.831  1.00  0.00    -0.003 C 
ATOM     11  C   UNL     1       5.850  -1.808  50.574  1.00  0.00     0.004 C 
ENDBRANCH   9  10
ENDBRANCH   8   9
ENDBRANCH   7   8
ENDBRANCH   1   7
TORSDOF 7
ENDMDL
MODEL 7
REMARK VINA RESULT:    -3.907      2.106      3.913
REMARK INTER + INTRA:          -6.322
REMARK INTER:                  -5.612
REMARK INTRA:                  -0.711
REMARK UNBOUND:                -0.816
REMARK SMILES CCCCCCCCC(=O)[O-]
REMARK SMILES IDX 6 1 7 2 8 3 9 4 10 5 11 6 5 7 4 8 3 9 2 10 1 11
REMARK H PARENT
REMARK Flexibility Score: inf
ROOT
ATOM      1  C   UNL     1       5.733  -4.106  48.168  1.00  0.00     0.000 C 
ENDROOT
BRANCH   1   2
ATOM      2  C   UNL     1       4.976  -2.780  47.995  1.00  0.00     0.006 C 
BRANCH   2   3
ATOM      3  C   UNL     1       5.883  -1.554  48.163  1.00  0.00     0.053 C 
BRANCH   3   4
ATOM      4  C   UNL     1       6.030  -0.831  46.861  1.00  0.00     0.041 C 
ATOM      5  O   UNL     1       6.621   0.279  46.817  1.00  0.00    -0.550 OA
ATOM      6  O   UNL     1       5.472  -1.361  45.705  1.00  0.00    -0.550 OA
ENDBRANCH   3   4
ENDBRANCH   2   3
ENDBRANCH   1   2
BRANCH   1   7
ATOM      7  C   UNL     1       6.503  -4.177  49.497  1.00  0.00     0.000 C 
BRANCH   7   8
ATOM      8  C   UNL     1       8.003  -4.447  49.297  1.00  0.00    -0.000 C 
BRANCH   8   9
ATOM      9  C   UNL     1       8.443  -4.298  47.832  1.00  0.00    -0.000 C 
BRANCH   9  10
ATOM     10  C   UNL     1       9.303  -3.042  47.643  1.00  0.00    -0.003 C 
ATOM     11  C   UNL     1       9.769  -2.486  48.985  1.00  0.00     0.004 C 
ENDBRANCH   9  10
ENDBRANCH   8   9
ENDBRANCH   7   8
ENDBRANCH   1   7
TORSDOF 7
ENDMDL
MODEL 8
REMARK VINA RESULT:    -3.891      2.215      3.484
REMARK INTER + INTRA:          -6.299
REMARK INTER:                  -5.470
REMARK INTRA:                  -0.829
REMARK UNBOUND:                -0.816
REMARK SMILES CCCCCCCCC(=O)[O-]
REMARK SMILES IDX 6 1 7 2 8 3 9 4 10 5 11 6 5 7 4 8 3 9 2 10 1 11
REMARK H PARENT
REMARK Flexibility Score: inf
ROOT
ATOM      1  C   UNL     1       8.027  -2.081  46.823  1.00  0.00     0.000 C 
ENDROOT
BRANCH   1   2
ATOM      2  C   UNL     1       9.252  -2.708  47.507  1.00  0.00     0.006 C 
BRANCH   2   3
ATOM      3  C   UNL     1       8.933  -3.263  48.901  1.00  0.00     0.053 C 
BRANCH   3   4
ATOM      4  C   UNL     1       8.681  -4.737  48.831  1.00  0.00     0.041 C 
ATOM      5  O   UNL     1       9.034  -5.392  47.816  1.00  0.00    -0.550 OA
ATOM      6  O   UNL     1       8.012  -5.377  49.866  1.00  0.00    -0.550 OA
ENDBRANCH   3   4
ENDBRANCH   2   3
ENDBRANCH   1   2
BRANCH   1   7
ATOM      7  C   UNL     1       7.429  -0.919  47.634  1.00  0.00     0.000 C 
BRANCH   7   8
ATOM      8  C   UNL     1       5.965  -1.168  48.032  1.00  0.00    -0.000 C 
BRANCH   8   9
ATOM      9  C   UNL     1       5.456  -2.549  47.591  1.00  0.00    -0.000 C 
BRANCH   9  10
ATOM     10  C   UNL     1       5.077  -3.406  48.805  1.00  0.00    -0.003 C 
ATOM     11  C   UNL     1       5.323  -2.655  50.110  1.00  0.00     0.004 C 
ENDBRANCH   9  10
ENDBRANCH   8   9
ENDBRANCH   7   8
ENDBRANCH   1   7
TORSDOF 7
ENDMDL
MODEL 9
REMARK VINA RESULT:    -3.862      1.116      3.251
REMARK INTER + INTRA:          -6.258
REMARK INTER:                  -5.626
REMARK INTRA:                  -0.632
REMARK UNBOUND:                -0.816
REMARK SMILES CCCCCCCCC(=O)[O-]
REMARK SMILES IDX 6 1 7 2 8 3 9 4 10 5 11 6 5 7 4 8 3 9 2 10 1 11
REMARK H PARENT
REMARK Flexibility Score: inf
ROOT
ATOM      1  C   UNL     1       7.290  -0.674  47.040  1.00  0.00     0.000 C 
ENDROOT
BRANCH   1   2
ATOM      2  C   UNL     1       5.870  -0.875  47.593  1.00  0.00     0.006 C 
BRANCH   2   3
ATOM      3  C   UNL     1       5.395  -2.330  47.490  1.00  0.00     0.053 C 
BRANCH   3   4
ATOM      4  C   UNL     1       5.107  -2.883  48.851  1.00  0.00     0.041 C 
ATOM      5  O   UNL     1       5.579  -2.323  49.874  1.00  0.00    -0.550 OA
ATOM      6  O   UNL     1       4.359  -4.046  48.984  1.00  0.00    -0.550 OA
ENDBRANCH   3   4
ENDBRANCH   2   3
ENDBRANCH   1   2
BRANCH   1   7
ATOM      7  C   UNL     1       8.122  -1.968  47.065  1.00  0.00     0.000 C 
BRANCH   7   8
ATOM      8  C   UNL     1       8.991  -2.086  48.328  1.00  0.00    -0.000 C 
BRANCH   8   9
ATOM      9  C   UNL     1       9.595  -3.489  48.504  1.00  0.00    -0.000 C 
BRANCH   9  10
ATOM     10  C   UNL     1       8.539  -4.480  49.008  1.00  0.00    -0.003 C 
ATOM     11  C   UNL     1       8.163  -5.484  47.922  1.00  0.00     0.004 C 
ENDBRANCH   9  10
ENDBRANCH   8   9
ENDBRANCH   7   8
ENDBRANCH   1   7
TORSDOF 7
ENDMDL
