MODEL 1
REMARK VINA RESULT:    -1.633      0.000      0.000
REMARK INTER + INTRA:           1.487
REMARK INTER:                  -2.493
REMARK INTRA:                   3.980
REMARK UNBOUND:                 3.980
REMARK SMILES CC1=CCC[C@@H](C)C(=O)C[C@H](C(C)C)C(=O)C1
REMARK SMILES IDX 8 1 9 2 6 3 7 4 5 5 4 6 3 7 2 8 1 9 10 11 11 12 15 13 16 14
REMARK SMILES IDX 17 15 12 17 13 18 14 19
REMARK H PARENT
REMARK Flexibility Score: 70.00
ROOT
ATOM      1  C   UNL     1      79.988  16.526   2.241  1.00  0.00     0.136 C 
ATOM      2  O   UNL     1      80.777  17.461   2.258  1.00  0.00    -0.299 OA
ENDROOT
BRANCH   1   3
ATOM      3  C   UNL     1      78.528  16.815   2.584  1.00  0.00     0.053 C 
ATOM      4  C   UNL     1      77.983  17.992   1.752  1.00  0.00     0.016 C 
BRANCH   3   5
ATOM      5  C   UNL     1      78.206  17.001   4.087  1.00  0.00     0.015 C 
BRANCH   5   6
ATOM      6  C   UNL     1      79.429  17.288   4.988  1.00  0.00     0.028 C 
BRANCH   6   7
ATOM      7  C   UNL     1      79.500  16.303   6.128  1.00  0.00    -0.028 C 
ATOM      8  C   UNL     1      79.831  14.996   6.019  1.00  0.00    -0.070 CG0
ATOM      9  C   UNL     1      79.855  14.179   7.288  1.00  0.00     0.039 C 
ATOM     10  G   UNL     1      80.300  14.357   4.722  1.00  0.00     0.000 G0
ENDBRANCH   6   7
ENDBRANCH   5   6
ENDBRANCH   3   5
ENDBRANCH   1   3
BRANCH   1  11
ATOM     11  C   UNL     1      80.511  15.183   1.759  1.00  0.00     0.087 C 
BRANCH  11  12
ATOM     12  C   UNL     1      79.569  14.014   2.152  1.00  0.00     0.066 C 
BRANCH  12  13
ATOM     13  C   UNL     1      79.279  14.049   3.650  1.00  0.00     0.140 C 
ATOM     14  O   UNL     1      78.124  13.875   4.011  1.00  0.00    -0.299 OA
BRANCH  13  15
ATOM     15  C   UNL     1      80.319  14.321   4.724  1.00  0.00     0.106 CG0
ATOM     16  G   UNL     1      79.800  15.010   5.977  1.00  0.00     0.000 G0
ENDBRANCH  13  15
ENDBRANCH  12  13
BRANCH  12  17
ATOM     17  C   UNL     1      78.272  13.915   1.285  1.00  0.00    -0.006 C 
ATOM     18  C   UNL     1      78.489  14.552  -0.101  1.00  0.00     0.008 C 
ATOM     19  C   UNL     1      77.059  14.589   1.948  1.00  0.00     0.008 C 
ENDBRANCH  12  17
ENDBRANCH  11  12
ENDBRANCH   1  11
TORSDOF 1
ENDMDL
MODEL 2
REMARK VINA RESULT:    -0.713      2.089      4.865
REMARK INTER + INTRA:           2.892
REMARK INTER:                   0.230
REMARK INTRA:                   2.662
REMARK UNBOUND:                 3.980
REMARK SMILES CC1=CCC[C@@H](C)C(=O)C[C@H](C(C)C)C(=O)C1
REMARK SMILES IDX 8 1 9 2 6 3 7 4 5 5 4 6 3 7 2 8 1 9 10 11 11 12 15 13 16 14
REMARK SMILES IDX 17 15 12 17 13 18 14 19
REMARK H PARENT
REMARK Flexibility Score: 70.00
ROOT
ATOM      1  C   UNL     1      79.817  14.571   3.688  1.00  0.00     0.136 C 
ATOM      2  O   UNL     1      79.392  14.041   4.705  1.00  0.00    -0.299 OA
ENDROOT
BRANCH   1   3
ATOM      3  C   UNL     1      79.554  13.875   2.354  1.00  0.00     0.053 C 
ATOM      4  C   UNL     1      80.807  13.894   1.459  1.00  0.00     0.016 C 
BRANCH   3   5
ATOM      5  C   UNL     1      78.306  14.354   1.572  1.00  0.00     0.015 C 
BRANCH   5   6
ATOM      6  C   UNL     1      78.603  15.005   0.202  1.00  0.00     0.028 C 
BRANCH   6   7
ATOM      7  C   UNL     1      79.324  16.318   0.375  1.00  0.00    -0.028 C 
ATOM      8  C   UNL     1      78.943  17.323   1.197  1.00  0.00    -0.070 CG0
ATOM      9  C   UNL     1      79.812  18.555   1.235  1.00  0.00     0.039 C 
ATOM     10  G   UNL     1      77.775  17.214   2.165  1.00  0.00     0.000 G0
ENDBRANCH   6   7
ENDBRANCH   5   6
ENDBRANCH   3   5
ENDBRANCH   1   3
BRANCH   1  11
ATOM     11  C   UNL     1      80.461  15.940   3.833  1.00  0.00     0.087 C 
BRANCH  11  12
ATOM     12  C   UNL     1      79.440  17.024   4.268  1.00  0.00     0.066 C 
BRANCH  12  13
ATOM     13  C   UNL     1      78.099  16.795   3.576  1.00  0.00     0.140 C 
ATOM     14  O   UNL     1      77.234  16.195   4.195  1.00  0.00    -0.299 OA
BRANCH  13  15
ATOM     15  C   UNL     1      77.775  17.230   2.156  1.00  0.00     0.106 CG0
ATOM     16  G   UNL     1      78.966  17.331   1.215  1.00  0.00     0.000 G0
ENDBRANCH  13  15
ENDBRANCH  12  13
BRANCH  12  17
ATOM     17  C   UNL     1      79.303  17.193   5.816  1.00  0.00    -0.006 C 
ATOM     18  C   UNL     1      79.777  18.590   6.258  1.00  0.00     0.008 C 
ATOM     19  C   UNL     1      80.096  16.135   6.603  1.00  0.00     0.008 C 
ENDBRANCH  12  17
ENDBRANCH  11  12
ENDBRANCH   1  11
TORSDOF 1
ENDMDL
MODEL 3
REMARK VINA RESULT:     1.243      2.147      4.237
REMARK INTER + INTRA:           5.877
REMARK INTER:                   3.342
REMARK INTRA:                   2.536
REMARK UNBOUND:                 3.980
REMARK SMILES CC1=CCC[C@@H](C)C(=O)C[C@H](C(C)C)C(=O)C1
REMARK SMILES IDX 8 1 9 2 6 3 7 4 5 5 4 6 3 7 2 8 1 9 10 11 11 12 15 13 16 14
REMARK SMILES IDX 17 15 12 17 13 18 14 19
REMARK H PARENT
REMARK Flexibility Score: 70.00
ROOT
ATOM      1  C   UNL     1      77.266  15.010   2.379  1.00  0.00     0.136 C 
ATOM      2  O   UNL     1      76.588  14.026   2.121  1.00  0.00    -0.299 OA
ENDROOT
BRANCH   1   3
ATOM      3  C   UNL     1      77.530  16.013   1.259  1.00  0.00     0.053 C 
ATOM      4  C   UNL     1      77.280  15.382  -0.125  1.00  0.00     0.016 C 
BRANCH   3   5
ATOM      5  C   UNL     1      78.900  16.734   1.300  1.00  0.00     0.015 C 
BRANCH   5   6
ATOM      6  C   UNL     1      78.840  18.265   1.096  1.00  0.00     0.028 C 
BRANCH   6   7
ATOM      7  C   UNL     1      79.994  18.945   1.788  1.00  0.00    -0.028 C 
ATOM      8  C   UNL     1      80.841  18.360   2.666  1.00  0.00    -0.070 CG0
ATOM      9  C   UNL     1      81.944  19.215   3.241  1.00  0.00     0.039 C 
ATOM     10  G   UNL     1      80.814  16.875   2.991  1.00  0.00     0.000 G0
ENDBRANCH   6   7
ENDBRANCH   5   6
ENDBRANCH   3   5
ENDBRANCH   1   3
BRANCH   1  11
ATOM     11  C   UNL     1      77.679  15.209   3.828  1.00  0.00     0.087 C 
BRANCH  11  12
ATOM     12  C   UNL     1      79.205  15.023   4.032  1.00  0.00     0.066 C 
BRANCH  12  13
ATOM     13  C   UNL     1      79.904  16.379   4.063  1.00  0.00     0.140 C 
ATOM     14  O   UNL     1      79.652  17.130   4.994  1.00  0.00    -0.299 OA
BRANCH  13  15
ATOM     15  C   UNL     1      80.866  16.879   2.997  1.00  0.00     0.106 CG0
ATOM     16  G   UNL     1      80.794  18.368   2.697  1.00  0.00     0.000 G0
ENDBRANCH  13  15
ENDBRANCH  12  13
BRANCH  12  17
ATOM     17  C   UNL     1      79.585  14.117   5.249  1.00  0.00    -0.006 C 
ATOM     18  C   UNL     1      78.371  13.902   6.172  1.00  0.00     0.008 C 
ATOM     19  C   UNL     1      80.739  14.696   6.085  1.00  0.00     0.008 C 
ENDBRANCH  12  17
ENDBRANCH  11  12
ENDBRANCH   1  11
TORSDOF 1
ENDMDL
