MODEL 1
REMARK VINA RESULT:    -2.269      0.000      0.000
REMARK INTER + INTRA:          -2.924
REMARK INTER:                  -2.800
REMARK INTRA:                  -0.124
REMARK UNBOUND:                -0.124
REMARK SMILES CCCCCC(=O)[O-]
REMARK SMILES IDX 4 1 5 2 6 3 7 4 8 5 3 6 2 7 1 8
REMARK H PARENT
REMARK Flexibility Score: inf
ROOT
ATOM      1  C   UNL     1      -7.953  -5.310  19.289  1.00  0.00     0.006 C 
ENDROOT
BRANCH   1   2
ATOM      2  C   UNL     1      -6.942  -4.900  20.372  1.00  0.00     0.053 C 
BRANCH   2   3
ATOM      3  C   UNL     1      -6.533  -3.465  20.244  1.00  0.00     0.041 C 
ATOM      4  O   UNL     1      -6.211  -2.995  19.121  1.00  0.00    -0.550 OA
ATOM      5  O   UNL     1      -6.474  -2.655  21.371  1.00  0.00    -0.550 OA
ENDBRANCH   2   3
ENDBRANCH   1   2
BRANCH   1   6
ATOM      6  C   UNL     1      -9.045  -6.279  19.779  1.00  0.00     0.000 C 
BRANCH   6   7
ATOM      7  C   UNL     1      -9.118  -6.368  21.310  1.00  0.00    -0.003 C 
ATOM      8  C   UNL     1      -9.124  -7.820  21.777  1.00  0.00     0.004 C 
ENDBRANCH   6   7
ENDBRANCH   1   6
TORSDOF 4
ENDMDL
MODEL 2
REMARK VINA RESULT:    -2.263      1.828      2.566
REMARK INTER + INTRA:          -2.916
REMARK INTER:                  -2.841
REMARK INTRA:                  -0.075
REMARK UNBOUND:                -0.124
REMARK SMILES CCCCCC(=O)[O-]
REMARK SMILES IDX 4 1 5 2 6 3 7 4 8 5 3 6 2 7 1 8
REMARK H PARENT
REMARK Flexibility Score: inf
ROOT
ATOM      1  C   UNL     1      -9.118  -6.795  21.115  1.00  0.00     0.006 C 
ENDROOT
BRANCH   1   2
ATOM      2  C   UNL     1      -7.926  -5.826  21.146  1.00  0.00     0.053 C 
BRANCH   2   3
ATOM      3  C   UNL     1      -7.703  -5.166  19.820  1.00  0.00     0.041 C 
ATOM      4  O   UNL     1      -8.258  -5.620  18.785  1.00  0.00    -0.550 OA
ATOM      5  O   UNL     1      -6.854  -4.071  19.721  1.00  0.00    -0.550 OA
ENDBRANCH   2   3
ENDBRANCH   1   2
BRANCH   1   6
ATOM      6  C   UNL     1      -8.957  -8.025  22.027  1.00  0.00     0.000 C 
BRANCH   6   7
ATOM      7  C   UNL     1      -9.125  -7.688  23.516  1.00  0.00    -0.003 C 
ATOM      8  C   UNL     1      -8.729  -8.869  24.395  1.00  0.00     0.004 C 
ENDBRANCH   6   7
ENDBRANCH   1   6
TORSDOF 4
ENDMDL
MODEL 3
REMARK VINA RESULT:    -1.934      3.955      5.436
REMARK INTER + INTRA:          -2.511
REMARK INTER:                  -2.463
REMARK INTRA:                  -0.048
REMARK UNBOUND:                -0.124
REMARK SMILES CCCCCC(=O)[O-]
REMARK SMILES IDX 4 1 5 2 6 3 7 4 8 5 3 6 2 7 1 8
REMARK H PARENT
REMARK Flexibility Score: inf
ROOT
ATOM      1  C   UNL     1      -9.125  -7.080  22.433  1.00  0.00     0.006 C 
ENDROOT
BRANCH   1   2
ATOM      2  C   UNL     1      -8.735  -8.487  22.914  1.00  0.00     0.053 C 
BRANCH   2   3
ATOM      3  C   UNL     1      -8.727  -8.588  24.408  1.00  0.00     0.041 C 
ATOM      4  O   UNL     1      -9.018  -7.585  25.113  1.00  0.00    -0.550 OA
ATOM      5  O   UNL     1      -8.365  -9.780  25.023  1.00  0.00    -0.550 OA
ENDBRANCH   2   3
ENDBRANCH   1   2
BRANCH   1   6
ATOM      6  C   UNL     1      -8.891  -6.838  20.930  1.00  0.00     0.000 C 
BRANCH   6   7
ATOM      7  C   UNL     1      -7.971  -5.640  20.657  1.00  0.00    -0.003 C 
ATOM      8  C   UNL     1      -7.984  -5.262  19.179  1.00  0.00     0.004 C 
ENDBRANCH   6   7
ENDBRANCH   1   6
TORSDOF 4
ENDMDL
MODEL 4
REMARK VINA RESULT:    -1.817      2.599      4.243
REMARK INTER + INTRA:          -2.366
REMARK INTER:                  -2.253
REMARK INTRA:                  -0.113
REMARK UNBOUND:                -0.124
REMARK SMILES CCCCCC(=O)[O-]
REMARK SMILES IDX 4 1 5 2 6 3 7 4 8 5 3 6 2 7 1 8
REMARK H PARENT
REMARK Flexibility Score: inf
ROOT
ATOM      1  C   UNL     1      -7.239  -4.376  19.369  1.00  0.00     0.006 C 
ENDROOT
BRANCH   1   2
ATOM      2  C   UNL     1      -7.326  -5.259  20.624  1.00  0.00     0.053 C 
BRANCH   2   3
ATOM      3  C   UNL     1      -8.501  -6.188  20.579  1.00  0.00     0.041 C 
ATOM      4  O   UNL     1      -9.118  -6.376  19.497  1.00  0.00    -0.550 OA
ATOM      5  O   UNL     1      -8.935  -6.819  21.737  1.00  0.00    -0.550 OA
ENDBRANCH   2   3
ENDBRANCH   1   2
BRANCH   1   6
ATOM      6  C   UNL     1      -6.506  -3.040  19.586  1.00  0.00     0.000 C 
BRANCH   6   7
ATOM      7  C   UNL     1      -6.163  -2.782  21.060  1.00  0.00    -0.003 C 
ATOM      8  C   UNL     1      -6.516  -1.354  21.465  1.00  0.00     0.004 C 
ENDBRANCH   6   7
ENDBRANCH   1   6
TORSDOF 4
ENDMDL
MODEL 5
REMARK VINA RESULT:    -1.802      3.862      5.283
REMARK INTER + INTRA:          -2.348
REMARK INTER:                  -2.302
REMARK INTRA:                  -0.046
REMARK UNBOUND:                -0.124
REMARK SMILES CCCCCC(=O)[O-]
REMARK SMILES IDX 4 1 5 2 6 3 7 4 8 5 3 6 2 7 1 8
REMARK H PARENT
REMARK Flexibility Score: inf
ROOT
ATOM      1  C   UNL     1      -8.969  -6.804  22.368  1.00  0.00     0.006 C 
ENDROOT
BRANCH   1   2
ATOM      2  C   UNL     1      -9.125  -8.288  22.736  1.00  0.00     0.053 C 
BRANCH   2   3
ATOM      3  C   UNL     1      -8.767  -8.554  24.165  1.00  0.00     0.041 C 
ATOM      4  O   UNL     1      -8.325  -9.682  24.509  1.00  0.00    -0.550 OA
ATOM      5  O   UNL     1      -8.953  -7.567  25.125  1.00  0.00    -0.550 OA
ENDBRANCH   2   3
ENDBRANCH   1   2
BRANCH   1   6
ATOM      6  C   UNL     1      -9.028  -6.517  20.856  1.00  0.00     0.000 C 
BRANCH   6   7
ATOM      7  C   UNL     1      -7.943  -5.535  20.393  1.00  0.00    -0.003 C 
ATOM      8  C   UNL     1      -7.934  -5.401  18.873  1.00  0.00     0.004 C 
ENDBRANCH   6   7
ENDBRANCH   1   6
TORSDOF 4
ENDMDL
MODEL 6
REMARK VINA RESULT:    -1.592      1.143      1.519
REMARK INTER + INTRA:          -2.088
REMARK INTER:                  -1.989
REMARK INTRA:                  -0.099
REMARK UNBOUND:                -0.124
REMARK SMILES CCCCCC(=O)[O-]
REMARK SMILES IDX 4 1 5 2 6 3 7 4 8 5 3 6 2 7 1 8
REMARK H PARENT
REMARK Flexibility Score: inf
ROOT
ATOM      1  C   UNL     1      -7.165  -5.007  19.892  1.00  0.00     0.006 C 
ENDROOT
BRANCH   1   2
ATOM      2  C   UNL     1      -6.874  -3.520  19.628  1.00  0.00     0.053 C 
BRANCH   2   3
ATOM      3  C   UNL     1      -6.333  -2.829  20.842  1.00  0.00     0.041 C 
ATOM      4  O   UNL     1      -5.751  -3.492  21.741  1.00  0.00    -0.550 OA
ATOM      5  O   UNL     1      -6.502  -1.459  20.996  1.00  0.00    -0.550 OA
ENDBRANCH   2   3
ENDBRANCH   1   2
BRANCH   1   6
ATOM      6  C   UNL     1      -8.377  -5.560  19.120  1.00  0.00     0.000 C 
BRANCH   6   7
ATOM      7  C   UNL     1      -9.125  -6.656  19.893  1.00  0.00    -0.003 C 
ATOM      8  C   UNL     1      -8.782  -6.613  21.379  1.00  0.00     0.004 C 
ENDBRANCH   6   7
ENDBRANCH   1   6
TORSDOF 4
ENDMDL
MODEL 7
REMARK VINA RESULT:    -1.571      3.267      4.715
REMARK INTER + INTRA:          -2.062
REMARK INTER:                  -1.994
REMARK INTRA:                  -0.068
REMARK UNBOUND:                -0.124
REMARK SMILES CCCCCC(=O)[O-]
REMARK SMILES IDX 4 1 5 2 6 3 7 4 8 5 3 6 2 7 1 8
REMARK H PARENT
REMARK Flexibility Score: inf
ROOT
ATOM      1  C   UNL     1      -8.112  -5.933  21.001  1.00  0.00     0.006 C 
ENDROOT
BRANCH   1   2
ATOM      2  C   UNL     1      -9.108  -7.097  21.130  1.00  0.00     0.053 C 
BRANCH   2   3
ATOM      3  C   UNL     1      -8.907  -7.872  22.396  1.00  0.00     0.041 C 
ATOM      4  O   UNL     1      -9.125  -7.330  23.512  1.00  0.00    -0.550 OA
ATOM      5  O   UNL     1      -8.446  -9.181  22.345  1.00  0.00    -0.550 OA
ENDBRANCH   2   3
ENDBRANCH   1   2
BRANCH   1   6
ATOM      6  C   UNL     1      -7.694  -5.617  19.554  1.00  0.00     0.000 C 
BRANCH   6   7
ATOM      7  C   UNL     1      -7.352  -4.134  19.344  1.00  0.00    -0.003 C 
ATOM      8  C   UNL     1      -6.483  -3.604  20.480  1.00  0.00     0.004 C 
ENDBRANCH   6   7
ENDBRANCH   1   6
TORSDOF 4
ENDMDL
