MODEL 1
REMARK VINA RESULT:    -6.754      0.000      0.000
REMARK INTER + INTRA:          -7.680
REMARK INTER:                  -7.544
REMARK INTRA:                  -0.136
REMARK UNBOUND:                -0.136
REMARK SMILES CC1(C)CC[C@]2(CO)CC=C3[C@]4(C)CC[C@H]5C(C)(C)[C@@H](O)CC[C@]5(C)[C@H]4CC[C@@]3(C)[C@H]2C1
REMARK SMILES IDX 1 1 2 2 4 3 5 4 6 5 9 6 10 7 11 8 12 9 14 10 15 11 16 12
REMARK SMILES IDX 17 13 20 14 22 15 23 16 24 17 26 18 27 19 28 20 29 21 31 22
REMARK SMILES IDX 32 23 30 24 25 25 18 26 19 27 13 28 3 29 7 30 8 31 21 33
REMARK H PARENT 8 32 21 34
REMARK Flexibility Score: inf
ROOT
ATOM      1  C   UNL     1     121.280 115.314 117.179  1.00  0.00     0.011 C 
ATOM      2  C   UNL     1     120.788 115.288 118.675  1.00  0.00    -0.035 C 
ATOM      3  C   UNL     1     119.686 114.194 118.825  1.00  0.00     0.007 C 
ATOM      4  C   UNL     1     118.307 114.649 118.231  1.00  0.00     0.010 C 
ATOM      5  C   UNL     1     117.894 115.960 118.972  1.00  0.00     0.001 C 
ATOM      6  C   UNL     1     116.510 116.547 118.557  1.00  0.00     0.037 C 
ATOM      7  C   UNL     1     116.259 117.857 119.281  1.00  0.00    -0.026 C 
ATOM      8  C   UNL     1     117.363 118.646 119.608  1.00  0.00    -0.062 C 
ATOM      9  C   UNL     1     117.487 119.427 120.877  1.00  0.00    -0.008 C 
ATOM     10  C   UNL     1     116.145 119.393 121.712  1.00  0.00     0.012 C 
ATOM     11  C   UNL     1     116.004 120.534 122.661  1.00  0.00     0.006 C 
ATOM     12  C   UNL     1     116.151 121.835 121.834  1.00  0.00     0.003 C 
ATOM     13  C   UNL     1     115.414 123.195 122.231  1.00  0.00    -0.006 C 
ATOM     14  C   UNL     1     115.232 123.847 120.650  1.00  0.00     0.120 C 
ATOM     15  C   UNL     1     116.450 124.036 119.730  1.00  0.00     0.033 C 
ATOM     16  C   UNL     1     117.722 123.450 120.469  1.00  0.00     0.010 C 
ATOM     17  C   UNL     1     117.576 122.059 121.282  1.00  0.00    -0.025 C 
ATOM     18  C   UNL     1     117.807 120.840 120.310  1.00  0.00     0.005 C 
ATOM     19  C   UNL     1     119.177 120.873 119.546  1.00  0.00     0.006 C 
ATOM     20  C   UNL     1     119.686 119.505 119.088  1.00  0.00     0.012 C 
ATOM     21  C   UNL     1     118.525 118.551 118.663  1.00  0.00    -0.008 C 
ATOM     22  C   UNL     1     118.953 117.055 118.505  1.00  0.00     0.008 C 
ATOM     23  C   UNL     1     120.366 116.710 119.087  1.00  0.00     0.011 C 
ATOM     24  C   UNL     1     118.081 119.148 117.240  1.00  0.00     0.016 C 
ATOM     25  C   UNL     1     118.587 122.195 122.516  1.00  0.00     0.012 C 
ATOM     26  C   UNL     1     116.201 124.165 123.360  1.00  0.00     0.014 C 
ATOM     27  C   UNL     1     114.018 122.794 122.753  1.00  0.00     0.014 C 
ATOM     28  C   UNL     1     118.640 118.994 121.868  1.00  0.00     0.016 C 
ATOM     29  C   UNL     1     121.962 114.895 119.587  1.00  0.00     0.011 C 
ENDROOT
BRANCH   5  30
ATOM     30  C   UNL     1     117.808 115.644 120.494  1.00  0.00     0.163 C 
BRANCH  30  31
ATOM     31  O   UNL     1     116.816 114.734 120.821  1.00  0.00    -0.396 OA
ATOM     32  H   UNL     1     117.092 113.933 120.380  1.00  0.00     0.210 HD
ENDBRANCH  30  31
ENDBRANCH   5  30
BRANCH  14  33
ATOM     33  O   UNL     1     114.323 124.921 120.449  1.00  0.00    -0.393 OA
ATOM     34  H   UNL     1     114.502 125.205 119.491  1.00  0.00     0.210 HD
ENDBRANCH  14  33
TORSDOF 3
ENDMDL
MODEL 2
REMARK VINA RESULT:    -6.449      3.923      8.070
REMARK INTER + INTRA:          -7.339
REMARK INTER:                  -7.205
REMARK INTRA:                  -0.134
REMARK UNBOUND:                -0.136
REMARK SMILES CC1(C)CC[C@]2(CO)CC=C3[C@]4(C)CC[C@H]5C(C)(C)[C@@H](O)CC[C@]5(C)[C@H]4CC[C@@]3(C)[C@H]2C1
REMARK SMILES IDX 1 1 2 2 4 3 5 4 6 5 9 6 10 7 11 8 12 9 14 10 15 11 16 12
REMARK SMILES IDX 17 13 20 14 22 15 23 16 24 17 26 18 27 19 28 20 29 21 31 22
REMARK SMILES IDX 32 23 30 24 25 25 18 26 19 27 13 28 3 29 7 30 8 31 21 33
REMARK H PARENT 8 32 21 34
REMARK Flexibility Score: inf
ROOT
ATOM      1  C   UNL     1     113.272 123.041 120.489  1.00  0.00     0.011 C 
ATOM      2  C   UNL     1     114.439 123.746 121.278  1.00  0.00    -0.035 C 
ATOM      3  C   UNL     1     115.512 124.239 120.259  1.00  0.00     0.007 C 
ATOM      4  C   UNL     1     116.400 123.066 119.712  1.00  0.00     0.010 C 
ATOM      5  C   UNL     1     117.074 122.385 120.944  1.00  0.00     0.001 C 
ATOM      6  C   UNL     1     118.051 121.217 120.604  1.00  0.00     0.037 C 
ATOM      7  C   UNL     1     118.576 120.584 121.879  1.00  0.00    -0.026 C 
ATOM      8  C   UNL     1     117.748 120.591 123.002  1.00  0.00    -0.062 C 
ATOM      9  C   UNL     1     118.236 120.796 124.401  1.00  0.00    -0.008 C 
ATOM     10  C   UNL     1     119.816 120.821 124.465  1.00  0.00     0.012 C 
ATOM     11  C   UNL     1     120.364 120.481 125.810  1.00  0.00     0.006 C 
ATOM     12  C   UNL     1     119.779 119.103 126.205  1.00  0.00     0.003 C 
ATOM     13  C   UNL     1     120.564 118.070 127.136  1.00  0.00    -0.006 C 
ATOM     14  C   UNL     1     119.917 116.614 126.488  1.00  0.00     0.120 C 
ATOM     15  C   UNL     1     118.397 116.383 126.432  1.00  0.00     0.033 C 
ATOM     16  C   UNL     1     117.679 117.696 126.947  1.00  0.00     0.010 C 
ATOM     17  C   UNL     1     118.259 119.133 126.482  1.00  0.00    -0.025 C 
ATOM     18  C   UNL     1     117.626 119.548 125.099  1.00  0.00     0.005 C 
ATOM     19  C   UNL     1     116.057 119.576 125.091  1.00  0.00     0.006 C 
ATOM     20  C   UNL     1     115.440 120.498 124.037  1.00  0.00     0.012 C 
ATOM     21  C   UNL     1     116.275 120.533 122.718  1.00  0.00    -0.008 C 
ATOM     22  C   UNL     1     115.883 121.693 121.744  1.00  0.00     0.008 C 
ATOM     23  C   UNL     1     114.955 122.790 122.369  1.00  0.00     0.011 C 
ATOM     24  C   UNL     1     115.937 119.115 122.046  1.00  0.00     0.016 C 
ATOM     25  C   UNL     1     117.984 120.109 127.721  1.00  0.00     0.012 C 
ATOM     26  C   UNL     1     120.400 118.294 128.797  1.00  0.00     0.014 C 
ATOM     27  C   UNL     1     122.049 118.163 126.729  1.00  0.00     0.014 C 
ATOM     28  C   UNL     1     117.740 122.100 125.143  1.00  0.00     0.016 C 
ATOM     29  C   UNL     1     113.884 124.983 122.004  1.00  0.00     0.011 C 
ENDROOT
BRANCH   5  30
ATOM     30  C   UNL     1     117.912 123.464 121.691  1.00  0.00     0.163 C 
BRANCH  30  31
ATOM     31  O   UNL     1     118.944 123.993 120.934  1.00  0.00    -0.396 OA
ATOM     32  H   UNL     1     119.061 123.353 120.234  1.00  0.00     0.210 HD
ENDBRANCH  30  31
ENDBRANCH   5  30
BRANCH  14  33
ATOM     33  O   UNL     1     120.567 115.384 126.778  1.00  0.00    -0.393 OA
ATOM     34  H   UNL     1     120.214 115.142 127.698  1.00  0.00     0.210 HD
ENDBRANCH  14  33
TORSDOF 3
ENDMDL
MODEL 3
REMARK VINA RESULT:    -6.169      2.003      8.240
REMARK INTER + INTRA:          -7.027
REMARK INTER:                  -6.893
REMARK INTRA:                  -0.134
REMARK UNBOUND:                -0.136
REMARK SMILES CC1(C)CC[C@]2(CO)CC=C3[C@]4(C)CC[C@H]5C(C)(C)[C@@H](O)CC[C@]5(C)[C@H]4CC[C@@]3(C)[C@H]2C1
REMARK SMILES IDX 1 1 2 2 4 3 5 4 6 5 9 6 10 7 11 8 12 9 14 10 15 11 16 12
REMARK SMILES IDX 17 13 20 14 22 15 23 16 24 17 26 18 27 19 28 20 29 21 31 22
REMARK SMILES IDX 32 23 30 24 25 25 18 26 19 27 13 28 3 29 7 30 8 31 21 33
REMARK H PARENT 8 32 21 34
REMARK Flexibility Score: inf
ROOT
ATOM      1  C   UNL     1     114.912 125.501 125.498  1.00  0.00     0.011 C 
ATOM      2  C   UNL     1     115.677 125.721 124.139  1.00  0.00    -0.035 C 
ATOM      3  C   UNL     1     114.637 126.022 123.017  1.00  0.00     0.007 C 
ATOM      4  C   UNL     1     113.878 124.731 122.545  1.00  0.00     0.010 C 
ATOM      5  C   UNL     1     114.955 123.717 122.047  1.00  0.00     0.001 C 
ATOM      6  C   UNL     1     114.392 122.378 121.480  1.00  0.00     0.037 C 
ATOM      7  C   UNL     1     115.531 121.446 121.108  1.00  0.00    -0.026 C 
ATOM      8  C   UNL     1     116.714 121.534 121.843  1.00  0.00    -0.062 C 
ATOM      9  C   UNL     1     118.080 121.389 121.251  1.00  0.00    -0.008 C 
ATOM     10  C   UNL     1     118.011 120.946 119.735  1.00  0.00     0.012 C 
ATOM     11  C   UNL     1     119.252 120.277 119.251  1.00  0.00     0.006 C 
ATOM     12  C   UNL     1     119.526 119.085 120.201  1.00  0.00     0.003 C 
ATOM     13  C   UNL     1     120.254 117.749 119.717  1.00  0.00    -0.006 C 
ATOM     14  C   UNL     1     119.492 116.648 120.797  1.00  0.00     0.120 C 
ATOM     15  C   UNL     1     119.539 116.876 122.318  1.00  0.00     0.033 C 
ATOM     16  C   UNL     1     120.269 118.254 122.588  1.00  0.00     0.010 C 
ATOM     17  C   UNL     1     119.934 119.513 121.629  1.00  0.00    -0.025 C 
ATOM     18  C   UNL     1     118.672 120.285 122.173  1.00  0.00     0.005 C 
ATOM     19  C   UNL     1     118.802 120.765 123.661  1.00  0.00     0.006 C 
ATOM     20  C   UNL     1     117.925 121.965 124.023  1.00  0.00     0.012 C 
ATOM     21  C   UNL     1     116.553 121.944 123.277  1.00  0.00    -0.008 C 
ATOM     22  C   UNL     1     115.765 123.294 123.352  1.00  0.00     0.008 C 
ATOM     23  C   UNL     1     116.596 124.512 123.881  1.00  0.00     0.011 C 
ATOM     24  C   UNL     1     115.746 120.794 124.053  1.00  0.00     0.016 C 
ATOM     25  C   UNL     1     121.302 120.342 121.542  1.00  0.00     0.012 C 
ATOM     26  C   UNL     1     121.938 117.773 119.730  1.00  0.00     0.014 C 
ATOM     27  C   UNL     1     119.735 117.465 118.292  1.00  0.00     0.014 C 
ATOM     28  C   UNL     1     119.015 122.662 121.302  1.00  0.00     0.016 C 
ATOM     29  C   UNL     1     116.593 126.949 124.266  1.00  0.00     0.011 C 
ENDROOT
BRANCH   5  30
ATOM     30  C   UNL     1     115.752 124.391 120.892  1.00  0.00     0.163 C 
BRANCH  30  31
ATOM     31  O   UNL     1     115.003 124.608 119.747  1.00  0.00    -0.396 OA
ATOM     32  H   UNL     1     114.166 124.192 119.945  1.00  0.00     0.210 HD
ENDBRANCH  30  31
ENDBRANCH   5  30
BRANCH  14  33
ATOM     33  O   UNL     1     119.573 115.255 120.531  1.00  0.00    -0.393 OA
ATOM     34  H   UNL     1     120.498 115.145 120.128  1.00  0.00     0.210 HD
ENDBRANCH  14  33
TORSDOF 3
ENDMDL
MODEL 4
REMARK VINA RESULT:    -6.152      3.453      4.623
REMARK INTER + INTRA:          -7.008
REMARK INTER:                  -6.871
REMARK INTRA:                  -0.137
REMARK UNBOUND:                -0.136
REMARK SMILES CC1(C)CC[C@]2(CO)CC=C3[C@]4(C)CC[C@H]5C(C)(C)[C@@H](O)CC[C@]5(C)[C@H]4CC[C@@]3(C)[C@H]2C1
REMARK SMILES IDX 1 1 2 2 4 3 5 4 6 5 9 6 10 7 11 8 12 9 14 10 15 11 16 12
REMARK SMILES IDX 17 13 20 14 22 15 23 16 24 17 26 18 27 19 28 20 29 21 31 22
REMARK SMILES IDX 32 23 30 24 25 25 18 26 19 27 13 28 3 29 7 30 8 31 21 33
REMARK H PARENT 8 32 21 34
REMARK Flexibility Score: inf
ROOT
ATOM      1  C   UNL     1     124.704 120.613 119.764  1.00  0.00     0.011 C 
ATOM      2  C   UNL     1     124.291 120.884 121.259  1.00  0.00    -0.035 C 
ATOM      3  C   UNL     1     124.363 119.544 122.054  1.00  0.00     0.007 C 
ATOM      4  C   UNL     1     123.149 118.599 121.742  1.00  0.00     0.010 C 
ATOM      5  C   UNL     1     121.848 119.386 122.094  1.00  0.00     0.001 C 
ATOM      6  C   UNL     1     120.520 118.590 121.903  1.00  0.00     0.037 C 
ATOM      7  C   UNL     1     119.328 119.483 122.195  1.00  0.00    -0.026 C 
ATOM      8  C   UNL     1     119.452 120.847 121.932  1.00  0.00    -0.062 C 
ATOM      9  C   UNL     1     118.864 121.922 122.790  1.00  0.00    -0.008 C 
ATOM     10  C   UNL     1     117.938 121.320 123.921  1.00  0.00     0.012 C 
ATOM     11  C   UNL     1     116.929 122.284 124.443  1.00  0.00     0.006 C 
ATOM     12  C   UNL     1     116.117 122.795 123.228  1.00  0.00     0.003 C 
ATOM     13  C   UNL     1     114.588 123.241 123.341  1.00  0.00    -0.006 C 
ATOM     14  C   UNL     1     114.093 122.829 121.746  1.00  0.00     0.120 C 
ATOM     15  C   UNL     1     114.826 123.400 120.520  1.00  0.00     0.033 C 
ATOM     16  C   UNL     1     116.055 124.254 121.035  1.00  0.00     0.010 C 
ATOM     17  C   UNL     1     116.936 123.686 122.267  1.00  0.00    -0.025 C 
ATOM     18  C   UNL     1     118.065 122.728 121.726  1.00  0.00     0.005 C 
ATOM     19  C   UNL     1     119.004 123.380 120.651  1.00  0.00     0.006 C 
ATOM     20  C   UNL     1     120.393 122.746 120.548  1.00  0.00     0.012 C 
ATOM     21  C   UNL     1     120.361 121.204 120.792  1.00  0.00    -0.008 C 
ATOM     22  C   UNL     1     121.769 120.564 121.024  1.00  0.00     0.008 C 
ATOM     23  C   UNL     1     122.924 121.592 121.280  1.00  0.00     0.011 C 
ATOM     24  C   UNL     1     119.722 120.643 119.430  1.00  0.00     0.016 C 
ATOM     25  C   UNL     1     117.420 124.988 123.064  1.00  0.00     0.012 C 
ATOM     26  C   UNL     1     114.309 124.829 123.829  1.00  0.00     0.014 C 
ATOM     27  C   UNL     1     113.921 122.256 124.324  1.00  0.00     0.014 C 
ATOM     28  C   UNL     1     119.882 122.890 123.514  1.00  0.00     0.016 C 
ATOM     29  C   UNL     1     125.299 121.857 121.894  1.00  0.00     0.011 C 
ENDROOT
BRANCH   5  30
ATOM     30  C   UNL     1     121.918 119.783 123.598  1.00  0.00     0.163 C 
BRANCH  30  31
ATOM     31  O   UNL     1     121.908 118.701 124.463  1.00  0.00    -0.396 OA
ATOM     32  H   UNL     1     121.101 118.819 124.961  1.00  0.00     0.210 HD
ENDBRANCH  30  31
ENDBRANCH   5  30
BRANCH  14  33
ATOM     33  O   UNL     1     112.704 122.736 121.459  1.00  0.00    -0.393 OA
ATOM     34  H   UNL     1     112.615 123.217 120.569  1.00  0.00     0.210 HD
ENDBRANCH  14  33
TORSDOF 3
ENDMDL
MODEL 5
REMARK VINA RESULT:    -6.146      4.434      7.153
REMARK INTER + INTRA:          -7.000
REMARK INTER:                  -6.864
REMARK INTRA:                  -0.136
REMARK UNBOUND:                -0.136
REMARK SMILES CC1(C)CC[C@]2(CO)CC=C3[C@]4(C)CC[C@H]5C(C)(C)[C@@H](O)CC[C@]5(C)[C@H]4CC[C@@]3(C)[C@H]2C1
REMARK SMILES IDX 1 1 2 2 4 3 5 4 6 5 9 6 10 7 11 8 12 9 14 10 15 11 16 12
REMARK SMILES IDX 17 13 20 14 22 15 23 16 24 17 26 18 27 19 28 20 29 21 31 22
REMARK SMILES IDX 32 23 30 24 25 25 18 26 19 27 13 28 3 29 7 30 8 31 21 33
REMARK H PARENT 8 32 21 34
REMARK Flexibility Score: inf
ROOT
ATOM      1  C   UNL     1     124.892 120.137 112.216  1.00  0.00     0.011 C 
ATOM      2  C   UNL     1     125.080 120.601 113.709  1.00  0.00    -0.035 C 
ATOM      3  C   UNL     1     126.361 119.927 114.289  1.00  0.00     0.007 C 
ATOM      4  C   UNL     1     126.134 118.414 114.639  1.00  0.00     0.010 C 
ATOM      5  C   UNL     1     124.958 118.348 115.663  1.00  0.00     0.001 C 
ATOM      6  C   UNL     1     124.611 116.918 116.182  1.00  0.00     0.037 C 
ATOM      7  C   UNL     1     123.405 116.973 117.102  1.00  0.00    -0.026 C 
ATOM      8  C   UNL     1     122.447 117.960 116.866  1.00  0.00    -0.062 C 
ATOM      9  C   UNL     1     121.720 118.695 117.946  1.00  0.00    -0.008 C 
ATOM     10  C   UNL     1     122.037 118.093 119.373  1.00  0.00     0.012 C 
ATOM     11  C   UNL     1     120.988 118.386 120.391  1.00  0.00     0.006 C 
ATOM     12  C   UNL     1     119.643 117.873 119.820  1.00  0.00     0.003 C 
ATOM     13  C   UNL     1     118.461 117.341 120.752  1.00  0.00    -0.006 C 
ATOM     14  C   UNL     1     117.775 116.206 119.655  1.00  0.00     0.120 C 
ATOM     15  C   UNL     1     117.324 116.642 118.250  1.00  0.00     0.033 C 
ATOM     16  C   UNL     1     117.706 118.166 118.060  1.00  0.00     0.010 C 
ATOM     17  C   UNL     1     119.138 118.683 118.605  1.00  0.00    -0.025 C 
ATOM     18  C   UNL     1     120.246 118.458 117.507  1.00  0.00     0.005 C 
ATOM     19  C   UNL     1     119.928 119.125 116.123  1.00  0.00     0.006 C 
ATOM     20  C   UNL     1     121.157 119.439 115.268  1.00  0.00     0.012 C 
ATOM     21  C   UNL     1     122.283 118.369 115.432  1.00  0.00    -0.008 C 
ATOM     22  C   UNL     1     123.668 118.805 114.849  1.00  0.00     0.008 C 
ATOM     23  C   UNL     1     123.779 120.325 114.486  1.00  0.00     0.011 C 
ATOM     24  C   UNL     1     121.708 117.120 114.603  1.00  0.00     0.016 C 
ATOM     25  C   UNL     1     118.882 120.194 119.069  1.00  0.00     0.012 C 
ATOM     26  C   UNL     1     117.420 118.510 121.374  1.00  0.00     0.014 C 
ATOM     27  C   UNL     1     119.132 116.558 121.900  1.00  0.00     0.014 C 
ATOM     28  C   UNL     1     121.985 120.250 118.050  1.00  0.00     0.016 C 
ATOM     29  C   UNL     1     125.298 122.123 113.743  1.00  0.00     0.011 C 
ENDROOT
BRANCH   5  30
ATOM     30  C   UNL     1     125.359 119.190 116.910  1.00  0.00     0.163 C 
BRANCH  30  31
ATOM     31  O   UNL     1     126.452 118.689 117.597  1.00  0.00    -0.396 OA
ATOM     32  H   UNL     1     126.601 117.836 117.190  1.00  0.00     0.210 HD
ENDBRANCH  30  31
ENDBRANCH   5  30
BRANCH  14  33
ATOM     33  O   UNL     1     116.875 115.226 120.153  1.00  0.00    -0.393 OA
ATOM     34  H   UNL     1     116.809 114.558 119.391  1.00  0.00     0.210 HD
ENDBRANCH  14  33
TORSDOF 3
ENDMDL
MODEL 6
REMARK VINA RESULT:    -5.963      4.026      6.027
REMARK INTER + INTRA:          -6.796
REMARK INTER:                  -6.689
REMARK INTRA:                  -0.107
REMARK UNBOUND:                -0.136
REMARK SMILES CC1(C)CC[C@]2(CO)CC=C3[C@]4(C)CC[C@H]5C(C)(C)[C@@H](O)CC[C@]5(C)[C@H]4CC[C@@]3(C)[C@H]2C1
REMARK SMILES IDX 1 1 2 2 4 3 5 4 6 5 9 6 10 7 11 8 12 9 14 10 15 11 16 12
REMARK SMILES IDX 17 13 20 14 22 15 23 16 24 17 26 18 27 19 28 20 29 21 31 22
REMARK SMILES IDX 32 23 30 24 25 25 18 26 19 27 13 28 3 29 7 30 8 31 21 33
REMARK H PARENT 8 32 21 34
REMARK Flexibility Score: inf
ROOT
ATOM      1  C   UNL     1     126.182 116.373 113.344  1.00  0.00     0.011 C 
ATOM      2  C   UNL     1     124.774 115.796 113.750  1.00  0.00    -0.035 C 
ATOM      3  C   UNL     1     123.821 115.875 112.518  1.00  0.00     0.007 C 
ATOM      4  C   UNL     1     123.305 117.334 112.255  1.00  0.00     0.010 C 
ATOM      5  C   UNL     1     122.578 117.808 113.552  1.00  0.00     0.001 C 
ATOM      6  C   UNL     1     121.940 119.229 113.473  1.00  0.00     0.037 C 
ATOM      7  C   UNL     1     121.338 119.609 114.813  1.00  0.00    -0.026 C 
ATOM      8  C   UNL     1     121.934 119.097 115.966  1.00  0.00    -0.062 C 
ATOM      9  C   UNL     1     121.173 118.655 117.176  1.00  0.00    -0.008 C 
ATOM     10  C   UNL     1     119.636 119.008 117.055  1.00  0.00     0.012 C 
ATOM     11  C   UNL     1     118.941 119.103 118.371  1.00  0.00     0.006 C 
ATOM     12  C   UNL     1     119.718 120.135 119.223  1.00  0.00     0.003 C 
ATOM     13  C   UNL     1     119.010 121.043 120.330  1.00  0.00    -0.006 C 
ATOM     14  C   UNL     1     120.048 122.412 120.225  1.00  0.00     0.120 C 
ATOM     15  C   UNL     1     121.568 122.264 120.409  1.00  0.00     0.033 C 
ATOM     16  C   UNL     1     121.897 120.725 120.581  1.00  0.00     0.010 C 
ATOM     17  C   UNL     1     121.125 119.656 119.645  1.00  0.00    -0.025 C 
ATOM     18  C   UNL     1     121.894 119.479 118.280  1.00  0.00     0.005 C 
ATOM     19  C   UNL     1     123.400 119.066 118.438  1.00  0.00     0.006 C 
ATOM     20  C   UNL     1     123.990 118.335 117.229  1.00  0.00     0.012 C 
ATOM     21  C   UNL     1     123.413 118.861 115.877  1.00  0.00    -0.008 C 
ATOM     22  C   UNL     1     123.725 117.943 114.649  1.00  0.00     0.008 C 
ATOM     23  C   UNL     1     124.281 116.524 115.014  1.00  0.00     0.011 C 
ATOM     24  C   UNL     1     124.150 120.276 115.705  1.00  0.00     0.016 C 
ATOM     25  C   UNL     1     120.968 118.348 120.556  1.00  0.00     0.012 C 
ATOM     26  C   UNL     1     118.827 120.352 121.855  1.00  0.00     0.014 C 
ATOM     27  C   UNL     1     117.634 121.435 119.753  1.00  0.00     0.014 C 
ATOM     28  C   UNL     1     121.251 117.120 117.542  1.00  0.00     0.016 C 
ATOM     29  C   UNL     1     124.924 114.312 114.128  1.00  0.00     0.011 C 
ENDROOT
BRANCH   5  30
ATOM     30  C   UNL     1     121.416 116.813 113.843  1.00  0.00     0.163 C 
BRANCH  30  31
ATOM     31  O   UNL     1     120.342 116.938 112.978  1.00  0.00    -0.396 OA
ATOM     32  H   UNL     1     119.841 117.664 113.346  1.00  0.00     0.210 HD
ENDBRANCH  30  31
ENDBRANCH   5  30
BRANCH  14  33
ATOM     33  O   UNL     1     119.625 123.641 120.797  1.00  0.00    -0.393 OA
ATOM     34  H   UNL     1     120.172 124.335 120.298  1.00  0.00     0.210 HD
ENDBRANCH  14  33
TORSDOF 3
ENDMDL
MODEL 7
REMARK VINA RESULT:    -5.954      3.116      4.865
REMARK INTER + INTRA:          -6.786
REMARK INTER:                  -6.650
REMARK INTRA:                  -0.136
REMARK UNBOUND:                -0.136
REMARK SMILES CC1(C)CC[C@]2(CO)CC=C3[C@]4(C)CC[C@H]5C(C)(C)[C@@H](O)CC[C@]5(C)[C@H]4CC[C@@]3(C)[C@H]2C1
REMARK SMILES IDX 1 1 2 2 4 3 5 4 6 5 9 6 10 7 11 8 12 9 14 10 15 11 16 12
REMARK SMILES IDX 17 13 20 14 22 15 23 16 24 17 26 18 27 19 28 20 29 21 31 22
REMARK SMILES IDX 32 23 30 24 25 25 18 26 19 27 13 28 3 29 7 30 8 31 21 33
REMARK H PARENT 8 32 21 34
REMARK Flexibility Score: inf
ROOT
ATOM      1  C   UNL     1     123.096 117.681 119.133  1.00  0.00     0.011 C 
ATOM      2  C   UNL     1     123.068 119.246 119.301  1.00  0.00    -0.035 C 
ATOM      3  C   UNL     1     124.105 119.655 120.392  1.00  0.00     0.007 C 
ATOM      4  C   UNL     1     123.596 119.349 121.844  1.00  0.00     0.010 C 
ATOM      5  C   UNL     1     122.253 120.121 122.036  1.00  0.00     0.001 C 
ATOM      6  C   UNL     1     121.608 119.988 123.450  1.00  0.00     0.037 C 
ATOM      7  C   UNL     1     120.274 120.709 123.487  1.00  0.00    -0.026 C 
ATOM      8  C   UNL     1     119.533 120.775 122.307  1.00  0.00    -0.062 C 
ATOM      9  C   UNL     1     118.733 121.967 121.885  1.00  0.00    -0.008 C 
ATOM     10  C   UNL     1     118.686 123.065 123.023  1.00  0.00     0.012 C 
ATOM     11  C   UNL     1     117.521 123.988 122.913  1.00  0.00     0.006 C 
ATOM     12  C   UNL     1     116.246 123.111 122.887  1.00  0.00     0.003 C 
ATOM     13  C   UNL     1     114.845 123.613 123.466  1.00  0.00    -0.006 C 
ATOM     14  C   UNL     1     114.216 122.086 123.948  1.00  0.00     0.120 C 
ATOM     15  C   UNL     1     114.104 120.926 122.943  1.00  0.00     0.033 C 
ATOM     16  C   UNL     1     114.735 121.400 121.571  1.00  0.00     0.010 C 
ATOM     17  C   UNL     1     116.101 122.266 121.601  1.00  0.00    -0.025 C 
ATOM     18  C   UNL     1     117.349 121.304 121.632  1.00  0.00     0.005 C 
ATOM     19  C   UNL     1     117.396 120.270 120.453  1.00  0.00     0.006 C 
ATOM     20  C   UNL     1     118.796 119.757 120.110  1.00  0.00     0.012 C 
ATOM     21  C   UNL     1     119.701 119.611 121.374  1.00  0.00    -0.008 C 
ATOM     22  C   UNL     1     121.219 119.412 121.053  1.00  0.00     0.008 C 
ATOM     23  C   UNL     1     121.619 119.696 119.565  1.00  0.00     0.011 C 
ATOM     24  C   UNL     1     119.112 118.296 122.081  1.00  0.00     0.016 C 
ATOM     25  C   UNL     1     115.989 123.258 120.349  1.00  0.00     0.012 C 
ATOM     26  C   UNL     1     113.891 124.524 122.418  1.00  0.00     0.014 C 
ATOM     27  C   UNL     1     115.167 124.426 124.737  1.00  0.00     0.014 C 
ATOM     28  C   UNL     1     119.201 122.707 120.570  1.00  0.00     0.016 C 
ATOM     29  C   UNL     1     123.498 119.905 117.979  1.00  0.00     0.011 C 
ENDROOT
BRANCH   5  30
ATOM     30  C   UNL     1     122.534 121.636 121.814  1.00  0.00     0.163 C 
BRANCH  30  31
ATOM     31  O   UNL     1     123.409 122.184 122.738  1.00  0.00    -0.396 OA
ATOM     32  H   UNL     1     124.250 121.788 122.514  1.00  0.00     0.210 HD
ENDBRANCH  30  31
ENDBRANCH   5  30
BRANCH  14  33
ATOM     33  O   UNL     1     113.104 122.048 124.832  1.00  0.00    -0.393 OA
ATOM     34  H   UNL     1     112.615 122.915 124.634  1.00  0.00     0.210 HD
ENDBRANCH  14  33
TORSDOF 3
ENDMDL
MODEL 8
REMARK VINA RESULT:    -5.857      7.169     10.058
REMARK INTER + INTRA:          -6.677
REMARK INTER:                  -6.552
REMARK INTRA:                  -0.126
REMARK UNBOUND:                -0.136
REMARK SMILES CC1(C)CC[C@]2(CO)CC=C3[C@]4(C)CC[C@H]5C(C)(C)[C@@H](O)CC[C@]5(C)[C@H]4CC[C@@]3(C)[C@H]2C1
REMARK SMILES IDX 1 1 2 2 4 3 5 4 6 5 9 6 10 7 11 8 12 9 14 10 15 11 16 12
REMARK SMILES IDX 17 13 20 14 22 15 23 16 24 17 26 18 27 19 28 20 29 21 31 22
REMARK SMILES IDX 32 23 30 24 25 25 18 26 19 27 13 28 3 29 7 30 8 31 21 33
REMARK H PARENT 8 32 21 34
REMARK Flexibility Score: inf
ROOT
ATOM      1  C   UNL     1     125.639 115.548 122.391  1.00  0.00     0.011 C 
ATOM      2  C   UNL     1     126.767 116.256 121.550  1.00  0.00    -0.035 C 
ATOM      3  C   UNL     1     127.173 117.582 122.265  1.00  0.00     0.007 C 
ATOM      4  C   UNL     1     126.110 118.719 122.062  1.00  0.00     0.010 C 
ATOM      5  C   UNL     1     125.958 118.940 120.524  1.00  0.00     0.001 C 
ATOM      6  C   UNL     1     124.976 120.080 120.112  1.00  0.00     0.037 C 
ATOM      7  C   UNL     1     124.849 120.143 118.601  1.00  0.00    -0.026 C 
ATOM      8  C   UNL     1     124.993 118.955 117.883  1.00  0.00    -0.062 C 
ATOM      9  C   UNL     1     125.678 118.856 116.557  1.00  0.00    -0.008 C 
ATOM     10  C   UNL     1     126.054 120.284 115.991  1.00  0.00     0.012 C 
ATOM     11  C   UNL     1     126.225 120.313 114.511  1.00  0.00     0.006 C 
ATOM     12  C   UNL     1     124.920 119.758 113.890  1.00  0.00     0.003 C 
ATOM     13  C   UNL     1     124.379 120.228 112.463  1.00  0.00    -0.006 C 
ATOM     14  C   UNL     1     122.697 120.018 112.757  1.00  0.00     0.120 C 
ATOM     15  C   UNL     1     122.142 118.662 113.227  1.00  0.00     0.033 C 
ATOM     16  C   UNL     1     123.363 117.679 113.449  1.00  0.00     0.010 C 
ATOM     17  C   UNL     1     124.702 118.251 114.153  1.00  0.00    -0.025 C 
ATOM     18  C   UNL     1     124.573 118.150 115.720  1.00  0.00     0.005 C 
ATOM     19  C   UNL     1     124.264 116.706 116.251  1.00  0.00     0.006 C 
ATOM     20  C   UNL     1     124.703 116.448 117.694  1.00  0.00     0.012 C 
ATOM     21  C   UNL     1     124.547 117.712 118.597  1.00  0.00    -0.008 C 
ATOM     22  C   UNL     1     125.279 117.607 119.975  1.00  0.00     0.008 C 
ATOM     23  C   UNL     1     126.284 116.411 120.096  1.00  0.00     0.011 C 
ATOM     24  C   UNL     1     122.960 117.792 118.823  1.00  0.00     0.016 C 
ATOM     25  C   UNL     1     125.904 117.435 113.477  1.00  0.00     0.012 C 
ATOM     26  C   UNL     1     125.015 119.427 111.125  1.00  0.00     0.014 C 
ATOM     27  C   UNL     1     124.668 121.741 112.367  1.00  0.00     0.014 C 
ATOM     28  C   UNL     1     127.000 117.992 116.503  1.00  0.00     0.016 C 
ATOM     29  C   UNL     1     128.009 115.351 121.506  1.00  0.00     0.011 C 
ENDROOT
BRANCH   5  30
ATOM     30  C   UNL     1     127.354 119.325 119.953  1.00  0.00     0.163 C 
BRANCH  30  31
ATOM     31  O   UNL     1     127.883 120.482 120.501  1.00  0.00    -0.396 OA
ATOM     32  H   UNL     1     128.193 120.203 121.361  1.00  0.00     0.210 HD
ENDBRANCH  30  31
ENDBRANCH   5  30
BRANCH  14  33
ATOM     33  O   UNL     1     121.763 120.625 111.875  1.00  0.00    -0.393 OA
ATOM     34  H   UNL     1     121.356 121.367 112.436  1.00  0.00     0.210 HD
ENDBRANCH  14  33
TORSDOF 3
ENDMDL
MODEL 9
REMARK VINA RESULT:    -5.851      3.216      7.864
REMARK INTER + INTRA:          -6.671
REMARK INTER:                  -6.540
REMARK INTRA:                  -0.131
REMARK UNBOUND:                -0.136
REMARK SMILES CC1(C)CC[C@]2(CO)CC=C3[C@]4(C)CC[C@H]5C(C)(C)[C@@H](O)CC[C@]5(C)[C@H]4CC[C@@]3(C)[C@H]2C1
REMARK SMILES IDX 1 1 2 2 4 3 5 4 6 5 9 6 10 7 11 8 12 9 14 10 15 11 16 12
REMARK SMILES IDX 17 13 20 14 22 15 23 16 24 17 26 18 27 19 28 20 29 21 31 22
REMARK SMILES IDX 32 23 30 24 25 25 18 26 19 27 13 28 3 29 7 30 8 31 21 33
REMARK H PARENT 8 32 21 34
REMARK Flexibility Score: inf
ROOT
ATOM      1  C   UNL     1     113.266 121.796 121.569  1.00  0.00     0.011 C 
ATOM      2  C   UNL     1     114.345 122.187 122.647  1.00  0.00    -0.035 C 
ATOM      3  C   UNL     1     114.436 123.742 122.729  1.00  0.00     0.007 C 
ATOM      4  C   UNL     1     115.219 124.359 121.517  1.00  0.00     0.010 C 
ATOM      5  C   UNL     1     116.642 123.717 121.511  1.00  0.00     0.001 C 
ATOM      6  C   UNL     1     117.603 124.245 120.401  1.00  0.00     0.037 C 
ATOM      7  C   UNL     1     118.919 123.491 120.445  1.00  0.00    -0.026 C 
ATOM      8  C   UNL     1     118.899 122.165 120.877  1.00  0.00    -0.062 C 
ATOM      9  C   UNL     1     119.966 121.542 121.720  1.00  0.00    -0.008 C 
ATOM     10  C   UNL     1     121.199 122.515 121.906  1.00  0.00     0.012 C 
ATOM     11  C   UNL     1     122.469 121.811 122.244  1.00  0.00     0.006 C 
ATOM     12  C   UNL     1     122.712 120.756 121.138  1.00  0.00     0.003 C 
ATOM     13  C   UNL     1     124.176 120.296 120.696  1.00  0.00    -0.006 C 
ATOM     14  C   UNL     1     123.830 119.920 119.053  1.00  0.00     0.120 C 
ATOM     15  C   UNL     1     122.718 118.919 118.691  1.00  0.00     0.033 C 
ATOM     16  C   UNL     1     122.000 118.475 120.029  1.00  0.00     0.010 C 
ATOM     17  C   UNL     1     121.694 119.594 121.157  1.00  0.00    -0.025 C 
ATOM     18  C   UNL     1     120.311 120.292 120.862  1.00  0.00     0.005 C 
ATOM     19  C   UNL     1     119.100 119.301 120.748  1.00  0.00     0.006 C 
ATOM     20  C   UNL     1     117.736 119.924 121.053  1.00  0.00     0.012 C 
ATOM     21  C   UNL     1     117.640 121.407 120.573  1.00  0.00    -0.008 C 
ATOM     22  C   UNL     1     116.408 122.185 121.144  1.00  0.00     0.008 C 
ATOM     23  C   UNL     1     115.664 121.464 122.320  1.00  0.00     0.011 C 
ATOM     24  C   UNL     1     117.503 121.256 118.981  1.00  0.00     0.016 C 
ATOM     25  C   UNL     1     121.826 118.820 122.553  1.00  0.00     0.012 C 
ATOM     26  C   UNL     1     124.883 119.075 121.615  1.00  0.00     0.014 C 
ATOM     27  C   UNL     1     125.056 121.564 120.726  1.00  0.00     0.014 C 
ATOM     28  C   UNL     1     119.544 121.075 123.170  1.00  0.00     0.016 C 
ATOM     29  C   UNL     1     113.892 121.675 124.025  1.00  0.00     0.011 C 
ENDROOT
BRANCH   5  30
ATOM     30  C   UNL     1     117.319 124.036 122.877  1.00  0.00     0.163 C 
BRANCH  30  31
ATOM     31  O   UNL     1     117.619 125.376 123.052  1.00  0.00    -0.396 OA
ATOM     32  H   UNL     1     116.847 125.724 123.496  1.00  0.00     0.210 HD
ENDBRANCH  30  31
ENDBRANCH   5  30
BRANCH  14  33
ATOM     33  O   UNL     1     124.907 119.773 118.139  1.00  0.00    -0.393 OA
ATOM     34  H   UNL     1     125.012 118.766 118.057  1.00  0.00     0.210 HD
ENDBRANCH  14  33
TORSDOF 3
ENDMDL
