MODEL 1
REMARK VINA RESULT:    -2.629      0.000      0.000
REMARK INTER + INTRA:          -3.489
REMARK INTER:                  -3.243
REMARK INTRA:                  -0.245
REMARK UNBOUND:                -0.245
REMARK SMILES CCCCCC(C)=O
REMARK SMILES IDX 4 1 3 2 2 3 1 4 5 5 6 6 8 7 7 8
REMARK H PARENT
REMARK Flexibility Score: inf
ROOT
ATOM      1  C   UNL     1      -8.179  21.522  12.744  1.00  0.00     0.008 C 
ENDROOT
BRANCH   1   2
ATOM      2  C   UNL     1      -8.805  20.260  13.366  1.00  0.00     0.000 C 
BRANCH   2   3
ATOM      3  C   UNL     1     -10.170  19.910  12.757  1.00  0.00    -0.003 C 
ATOM      4  C   UNL     1     -10.276  20.414  11.320  1.00  0.00     0.004 C 
ENDBRANCH   2   3
ENDBRANCH   1   2
BRANCH   1   5
ATOM      5  C   UNL     1      -6.692  21.387  12.373  1.00  0.00     0.075 C 
BRANCH   5   6
ATOM      6  C   UNL     1      -6.326  22.212  11.168  1.00  0.00     0.129 C 
ATOM      7  O   UNL     1      -5.284  22.850  11.161  1.00  0.00    -0.300 OA
ATOM      8  C   UNL     1      -7.215  22.227   9.961  1.00  0.00     0.087 C 
ENDBRANCH   5   6
ENDBRANCH   1   5
TORSDOF 4
ENDMDL
MODEL 2
REMARK VINA RESULT:    -2.567      2.493      5.076
REMARK INTER + INTRA:          -3.413
REMARK INTER:                  -3.225
REMARK INTRA:                  -0.188
REMARK UNBOUND:                -0.245
REMARK SMILES CCCCCC(C)=O
REMARK SMILES IDX 4 1 3 2 2 3 1 4 5 5 6 6 8 7 7 8
REMARK H PARENT
REMARK Flexibility Score: inf
ROOT
ATOM      1  C   UNL     1      -5.750  23.489  10.349  1.00  0.00     0.008 C 
ENDROOT
BRANCH   1   2
ATOM      2  C   UNL     1      -4.392  23.619  11.061  1.00  0.00     0.000 C 
BRANCH   2   3
ATOM      3  C   UNL     1      -3.243  23.953  10.099  1.00  0.00    -0.003 C 
ATOM      4  C   UNL     1      -3.722  23.951   8.650  1.00  0.00     0.004 C 
ENDBRANCH   2   3
ENDBRANCH   1   2
BRANCH   1   5
ATOM      5  C   UNL     1      -6.457  22.137  10.549  1.00  0.00     0.075 C 
BRANCH   5   6
ATOM      6  C   UNL     1      -6.703  21.830  12.002  1.00  0.00     0.129 C 
ATOM      7  O   UNL     1      -6.240  20.812  12.495  1.00  0.00    -0.300 OA
ATOM      8  C   UNL     1      -7.481  22.782  12.858  1.00  0.00     0.087 C 
ENDBRANCH   5   6
ENDBRANCH   1   5
TORSDOF 4
ENDMDL
MODEL 3
REMARK VINA RESULT:    -2.560      1.965      2.901
REMARK INTER + INTRA:          -3.403
REMARK INTER:                  -3.185
REMARK INTRA:                  -0.218
REMARK UNBOUND:                -0.245
REMARK SMILES CCCCCC(C)=O
REMARK SMILES IDX 4 1 3 2 2 3 1 4 5 5 6 6 8 7 7 8
REMARK H PARENT
REMARK Flexibility Score: inf
ROOT
ATOM      1  C   UNL     1      -8.666  20.623  13.574  1.00  0.00     0.008 C 
ENDROOT
BRANCH   1   2
ATOM      2  C   UNL     1      -9.160  21.309  14.861  1.00  0.00     0.000 C 
BRANCH   2   3
ATOM      3  C   UNL     1      -9.056  22.839  14.798  1.00  0.00    -0.003 C 
ATOM      4  C   UNL     1      -8.027  23.362  15.797  1.00  0.00     0.004 C 
ENDBRANCH   2   3
ENDBRANCH   1   2
BRANCH   1   5
ATOM      5  C   UNL     1      -8.315  21.583  12.425  1.00  0.00     0.075 C 
BRANCH   5   6
ATOM      6  C   UNL     1      -6.844  21.582  12.107  1.00  0.00     0.129 C 
ATOM      7  O   UNL     1      -6.136  20.671  12.508  1.00  0.00    -0.300 OA
ATOM      8  C   UNL     1      -6.247  22.673  11.270  1.00  0.00     0.087 C 
ENDBRANCH   5   6
ENDBRANCH   1   5
TORSDOF 4
ENDMDL
MODEL 4
REMARK VINA RESULT:    -2.537      2.493      3.781
REMARK INTER + INTRA:          -3.375
REMARK INTER:                  -3.260
REMARK INTRA:                  -0.115
REMARK UNBOUND:                -0.245
REMARK SMILES CCCCCC(C)=O
REMARK SMILES IDX 4 1 3 2 2 3 1 4 5 5 6 6 8 7 7 8
REMARK H PARENT
REMARK Flexibility Score: inf
ROOT
ATOM      1  C   UNL     1      -5.591  23.316  11.116  1.00  0.00     0.008 C 
ENDROOT
BRANCH   1   2
ATOM      2  C   UNL     1      -6.544  22.111  11.019  1.00  0.00     0.000 C 
BRANCH   2   3
ATOM      3  C   UNL     1      -6.639  21.319  12.330  1.00  0.00    -0.003 C 
ATOM      4  C   UNL     1      -8.093  21.125  12.751  1.00  0.00     0.004 C 
ENDBRANCH   2   3
ENDBRANCH   1   2
BRANCH   1   5
ATOM      5  C   UNL     1      -4.821  23.636   9.823  1.00  0.00     0.075 C 
BRANCH   5   6
ATOM      6  C   UNL     1      -3.395  24.036  10.090  1.00  0.00     0.129 C 
ATOM      7  O   UNL     1      -2.709  24.482   9.183  1.00  0.00    -0.300 OA
ATOM      8  C   UNL     1      -2.821  23.925  11.470  1.00  0.00     0.087 C 
ENDBRANCH   5   6
ENDBRANCH   1   5
TORSDOF 4
ENDMDL
MODEL 5
REMARK VINA RESULT:    -2.518      1.959      3.125
REMARK INTER + INTRA:          -3.352
REMARK INTER:                  -3.218
REMARK INTRA:                  -0.134
REMARK UNBOUND:                -0.245
REMARK SMILES CCCCCC(C)=O
REMARK SMILES IDX 4 1 3 2 2 3 1 4 5 5 6 6 8 7 7 8
REMARK H PARENT
REMARK Flexibility Score: inf
ROOT
ATOM      1  C   UNL     1      -6.490  22.230  10.131  1.00  0.00     0.008 C 
ENDROOT
BRANCH   1   2
ATOM      2  C   UNL     1      -7.537  22.184  11.258  1.00  0.00     0.000 C 
BRANCH   2   3
ATOM      3  C   UNL     1      -7.077  21.355  12.466  1.00  0.00    -0.003 C 
ATOM      4  C   UNL     1      -8.266  20.714  13.177  1.00  0.00     0.004 C 
ENDBRANCH   2   3
ENDBRANCH   1   2
BRANCH   1   5
ATOM      5  C   UNL     1      -5.845  23.609   9.905  1.00  0.00     0.075 C 
BRANCH   5   6
ATOM      6  C   UNL     1      -4.387  23.627  10.279  1.00  0.00     0.129 C 
ATOM      7  O   UNL     1      -4.035  23.216  11.374  1.00  0.00    -0.300 OA
ATOM      8  C   UNL     1      -3.359  24.113   9.302  1.00  0.00     0.087 C 
ENDBRANCH   5   6
ENDBRANCH   1   5
TORSDOF 4
ENDMDL
MODEL 6
REMARK VINA RESULT:    -2.490      2.703      4.422
REMARK INTER + INTRA:          -3.318
REMARK INTER:                  -3.175
REMARK INTRA:                  -0.143
REMARK UNBOUND:                -0.245
REMARK SMILES CCCCCC(C)=O
REMARK SMILES IDX 4 1 3 2 2 3 1 4 5 5 6 6 8 7 7 8
REMARK H PARENT
REMARK Flexibility Score: inf
ROOT
ATOM      1  C   UNL     1      -8.239  21.410  12.514  1.00  0.00     0.008 C 
ENDROOT
BRANCH   1   2
ATOM      2  C   UNL     1      -6.715  21.423  12.299  1.00  0.00     0.000 C 
BRANCH   2   3
ATOM      3  C   UNL     1      -6.258  22.530  11.338  1.00  0.00    -0.003 C 
ATOM      4  C   UNL     1      -6.650  22.204   9.899  1.00  0.00     0.004 C 
ENDBRANCH   2   3
ENDBRANCH   1   2
BRANCH   1   5
ATOM      5  C   UNL     1      -8.727  20.453  13.615  1.00  0.00     0.075 C 
BRANCH   5   6
ATOM      6  C   UNL     1      -9.300  21.186  14.798  1.00  0.00     0.129 C 
ATOM      7  O   UNL     1     -10.213  20.687  15.439  1.00  0.00    -0.300 OA
ATOM      8  C   UNL     1      -8.734  22.508  15.218  1.00  0.00     0.087 C 
ENDBRANCH   5   6
ENDBRANCH   1   5
TORSDOF 4
ENDMDL
MODEL 7
REMARK VINA RESULT:    -2.466      3.324      4.368
REMARK INTER + INTRA:          -3.288
REMARK INTER:                  -3.028
REMARK INTRA:                  -0.260
REMARK UNBOUND:                -0.245
REMARK SMILES CCCCCC(C)=O
REMARK SMILES IDX 4 1 3 2 2 3 1 4 5 5 6 6 8 7 7 8
REMARK H PARENT
REMARK Flexibility Score: inf
ROOT
ATOM      1  C   UNL     1      -5.479  23.782  10.621  1.00  0.00     0.008 C 
ENDROOT
BRANCH   1   2
ATOM      2  C   UNL     1      -6.252  22.451  10.645  1.00  0.00     0.000 C 
BRANCH   2   3
ATOM      3  C   UNL     1      -7.278  22.337   9.509  1.00  0.00    -0.003 C 
ATOM      4  C   UNL     1      -6.586  22.162   8.160  1.00  0.00     0.004 C 
ENDBRANCH   2   3
ENDBRANCH   1   2
BRANCH   1   5
ATOM      5  C   UNL     1      -3.993  23.672  11.006  1.00  0.00     0.075 C 
BRANCH   5   6
ATOM      6  C   UNL     1      -3.084  24.234   9.947  1.00  0.00     0.129 C 
ATOM      7  O   UNL     1      -2.071  24.834  10.271  1.00  0.00    -0.300 OA
ATOM      8  C   UNL     1      -3.395  24.032   8.495  1.00  0.00     0.087 C 
ENDBRANCH   5   6
ENDBRANCH   1   5
TORSDOF 4
ENDMDL
MODEL 8
REMARK VINA RESULT:    -2.442      2.317      4.100
REMARK INTER + INTRA:          -3.258
REMARK INTER:                  -3.094
REMARK INTRA:                  -0.165
REMARK UNBOUND:                -0.245
REMARK SMILES CCCCCC(C)=O
REMARK SMILES IDX 4 1 3 2 2 3 1 4 5 5 6 6 8 7 7 8
REMARK H PARENT
REMARK Flexibility Score: inf
ROOT
ATOM      1  C   UNL     1      -6.308  22.797  11.818  1.00  0.00     0.008 C 
ENDROOT
BRANCH   1   2
ATOM      2  C   UNL     1      -5.904  22.986  10.345  1.00  0.00     0.000 C 
BRANCH   2   3
ATOM      3  C   UNL     1      -6.817  22.226   9.373  1.00  0.00    -0.003 C 
ATOM      4  C   UNL     1      -6.341  22.385   7.932  1.00  0.00     0.004 C 
ENDBRANCH   2   3
ENDBRANCH   1   2
BRANCH   1   5
ATOM      5  C   UNL     1      -6.679  21.355  12.206  1.00  0.00     0.075 C 
BRANCH   5   6
ATOM      6  C   UNL     1      -7.831  21.300  13.172  1.00  0.00     0.129 C 
ATOM      7  O   UNL     1      -8.306  20.221  13.491  1.00  0.00    -0.300 OA
ATOM      8  C   UNL     1      -8.376  22.559  13.776  1.00  0.00     0.087 C 
ENDBRANCH   5   6
ENDBRANCH   1   5
TORSDOF 4
ENDMDL
MODEL 9
REMARK VINA RESULT:    -2.393      2.455      4.120
REMARK INTER + INTRA:          -3.197
REMARK INTER:                  -2.959
REMARK INTRA:                  -0.238
REMARK UNBOUND:                -0.245
REMARK SMILES CCCCCC(C)=O
REMARK SMILES IDX 4 1 3 2 2 3 1 4 5 5 6 6 8 7 7 8
REMARK H PARENT
REMARK Flexibility Score: inf
ROOT
ATOM      1  C   UNL     1      -8.116  21.539  13.054  1.00  0.00     0.008 C 
ENDROOT
BRANCH   1   2
ATOM      2  C   UNL     1      -6.716  21.382  12.435  1.00  0.00     0.000 C 
BRANCH   2   3
ATOM      3  C   UNL     1      -6.372  22.505  11.447  1.00  0.00    -0.003 C 
ATOM      4  C   UNL     1      -6.754  22.118  10.020  1.00  0.00     0.004 C 
ENDBRANCH   2   3
ENDBRANCH   1   2
BRANCH   1   5
ATOM      5  C   UNL     1      -8.882  20.220  13.259  1.00  0.00     0.075 C 
BRANCH   5   6
ATOM      6  C   UNL     1     -10.214  20.218  12.558  1.00  0.00     0.129 C 
ATOM      7  O   UNL     1     -11.239  20.040  13.200  1.00  0.00    -0.300 OA
ATOM      8  C   UNL     1     -10.295  20.468  11.082  1.00  0.00     0.087 C 
ENDBRANCH   5   6
ENDBRANCH   1   5
TORSDOF 4
ENDMDL
