MODEL 1
REMARK VINA RESULT:     2.317      0.000      0.000
REMARK INTER + INTRA:           3.317
REMARK INTER:                   3.943
REMARK INTRA:                  -0.626
REMARK UNBOUND:                -0.626
REMARK SMILES CCCCCCCCCCCCCC(=O)[O-]
REMARK SMILES IDX 8 1 9 2 10 3 11 4 12 5 13 6 14 7 15 8 16 9 7 10 6 11 5 12
REMARK SMILES IDX 4 13 3 14 2 15 1 16
REMARK H PARENT
REMARK Flexibility Score: inf
ROOT
ATOM      1  C   UNL     1     -20.228   5.012 -19.923  1.00  0.00     0.000 C 
ENDROOT
BRANCH   1   2
ATOM      2  C   UNL     1     -20.383   4.008 -18.767  1.00  0.00     0.000 C 
BRANCH   2   3
ATOM      3  C   UNL     1     -19.244   2.976 -18.636  1.00  0.00     0.000 C 
BRANCH   3   4
ATOM      4  C   UNL     1     -18.022   3.237 -19.535  1.00  0.00     0.000 C 
BRANCH   4   5
ATOM      5  C   UNL     1     -16.930   4.060 -18.833  1.00  0.00     0.006 C 
BRANCH   5   6
ATOM      6  C   UNL     1     -15.616   4.070 -19.625  1.00  0.00     0.053 C 
BRANCH   6   7
ATOM      7  C   UNL     1     -14.478   4.591 -18.802  1.00  0.00     0.041 C 
ATOM      8  O   UNL     1     -14.042   5.757 -18.989  1.00  0.00    -0.550 OA
ATOM      9  O   UNL     1     -13.875   3.775 -17.854  1.00  0.00    -0.550 OA
ENDBRANCH   6   7
ENDBRANCH   5   6
ENDBRANCH   4   5
ENDBRANCH   3   4
ENDBRANCH   2   3
ENDBRANCH   1   2
BRANCH   1  10
ATOM     10  C   UNL     1     -20.343   6.473 -19.464  1.00  0.00     0.000 C 
BRANCH  10  11
ATOM     11  C   UNL     1     -21.707   6.736 -18.809  1.00  0.00    -0.000 C 
BRANCH  11  12
ATOM     12  C   UNL     1     -22.257   8.136 -19.125  1.00  0.00    -0.000 C 
BRANCH  12  13
ATOM     13  C   UNL     1     -23.474   8.503 -18.262  1.00  0.00    -0.000 C 
BRANCH  13  14
ATOM     14  C   UNL     1     -23.335   9.923 -17.693  1.00  0.00    -0.000 C 
BRANCH  14  15
ATOM     15  C   UNL     1     -23.188   9.935 -16.164  1.00  0.00    -0.003 C 
ATOM     16  C   UNL     1     -21.824   9.426 -15.697  1.00  0.00     0.004 C 
ENDBRANCH  14  15
ENDBRANCH  13  14
ENDBRANCH  12  13
ENDBRANCH  11  12
ENDBRANCH  10  11
ENDBRANCH   1  10
TORSDOF 12
ENDMDL
MODEL 2
REMARK VINA RESULT:     3.178      3.421      7.591
REMARK INTER + INTRA:           4.781
REMARK INTER:                   5.202
REMARK INTRA:                  -0.421
REMARK UNBOUND:                -0.626
REMARK SMILES CCCCCCCCCCCCCC(=O)[O-]
REMARK SMILES IDX 8 1 9 2 10 3 11 4 12 5 13 6 14 7 15 8 16 9 7 10 6 11 5 12
REMARK SMILES IDX 4 13 3 14 2 15 1 16
REMARK H PARENT
REMARK Flexibility Score: inf
ROOT
ATOM      1  C   UNL     1     -20.369   4.726 -19.860  1.00  0.00     0.000 C 
ENDROOT
BRANCH   1   2
ATOM      2  C   UNL     1     -20.435   6.216 -19.484  1.00  0.00     0.000 C 
BRANCH   2   3
ATOM      3  C   UNL     1     -21.743   6.663 -18.801  1.00  0.00     0.000 C 
BRANCH   3   4
ATOM      4  C   UNL     1     -21.743   8.108 -18.272  1.00  0.00     0.000 C 
BRANCH   4   5
ATOM      5  C   UNL     1     -23.151   8.724 -18.217  1.00  0.00     0.006 C 
BRANCH   5   6
ATOM      6  C   UNL     1     -23.318   9.677 -17.026  1.00  0.00     0.053 C 
BRANCH   6   7
ATOM      7  C   UNL     1     -22.198   9.533 -16.042  1.00  0.00     0.041 C 
ATOM      8  O   UNL     1     -22.232   8.625 -15.171  1.00  0.00    -0.550 OA
ATOM      9  O   UNL     1     -21.135  10.427 -16.064  1.00  0.00    -0.550 OA
ENDBRANCH   6   7
ENDBRANCH   5   6
ENDBRANCH   4   5
ENDBRANCH   3   4
ENDBRANCH   2   3
ENDBRANCH   1   2
BRANCH   1  10
ATOM     10  C   UNL     1     -20.941   3.808 -18.769  1.00  0.00     0.000 C 
BRANCH  10  11
ATOM     11  C   UNL     1     -19.823   3.006 -18.086  1.00  0.00    -0.000 C 
BRANCH  11  12
ATOM     12  C   UNL     1     -18.550   2.917 -18.941  1.00  0.00    -0.000 C 
BRANCH  12  13
ATOM     13  C   UNL     1     -17.298   3.398 -18.190  1.00  0.00    -0.000 C 
BRANCH  13  14
ATOM     14  C   UNL     1     -16.242   3.931 -19.170  1.00  0.00    -0.000 C 
BRANCH  14  15
ATOM     15  C   UNL     1     -14.831   3.956 -18.562  1.00  0.00    -0.003 C 
ATOM     16  C   UNL     1     -14.104   5.278 -18.809  1.00  0.00     0.004 C 
ENDBRANCH  14  15
ENDBRANCH  13  14
ENDBRANCH  12  13
ENDBRANCH  11  12
ENDBRANCH  10  11
ENDBRANCH   1  10
TORSDOF 12
ENDMDL
