MODEL 1
REMARK VINA RESULT:    -5.795      0.000      0.000
REMARK INTER + INTRA:          -7.081
REMARK INTER:                  -6.812
REMARK INTRA:                  -0.269
REMARK UNBOUND:                -0.269
REMARK SMILES O=c1cc(-c2ccc(O)c(O)c2)oc2cc(O)cc(O)c12
REMARK SMILES IDX 4 1 3 2 2 3 1 4 21 5 19 6 18 7 16 8 15 9 14 10 13 11 5 12
REMARK SMILES IDX 6 13 7 14 8 15 12 16 10 17 9 18 11 20 20 22 17 24
REMARK H PARENT 9 19 11 21 20 23 17 25
REMARK Flexibility Score: inf
ROOT
ATOM      1  C   UNL     1      18.908  22.102  15.292  1.00  0.00     0.138 A 
ATOM      2  C   UNL     1      17.600  21.619  15.436  1.00  0.00     0.100 A 
ATOM      3  C   UNL     1      17.165  21.166  16.682  1.00  0.00     0.197 A 
ATOM      4  O   UNL     1      16.005  20.687  16.766  1.00  0.00    -0.289 OA
ATOM      5  C   UNL     1      18.034  21.230  17.797  1.00  0.00     0.107 A 
ATOM      6  C   UNL     1      17.689  20.828  19.123  1.00  0.00     0.134 A 
ATOM      7  C   UNL     1      18.666  20.846  20.127  1.00  0.00     0.093 A 
ATOM      8  C   UNL     1      19.959  21.306  19.866  1.00  0.00     0.123 A 
ATOM      9  C   UNL     1      20.292  21.747  18.588  1.00  0.00     0.094 A 
ATOM     10  C   UNL     1      19.350  21.709  17.557  1.00  0.00     0.146 A 
ATOM     11  O   UNL     1      19.715  22.123  16.348  1.00  0.00    -0.456 OA
ENDROOT
BRANCH   1  12
ATOM     12  C   UNL     1      19.422  22.600  13.991  1.00  0.00     0.021 A 
ATOM     13  C   UNL     1      19.756  21.722  12.942  1.00  0.00     0.016 A 
ATOM     14  C   UNL     1      20.248  22.220  11.732  1.00  0.00     0.051 A 
ATOM     15  C   UNL     1      20.421  23.598  11.551  1.00  0.00     0.157 A 
ATOM     16  C   UNL     1      19.612  23.982  13.805  1.00  0.00     0.062 A 
ATOM     17  C   UNL     1      20.104  24.480  12.591  1.00  0.00     0.158 A 
BRANCH  15  18
ATOM     18  O   UNL     1      20.909  24.097  10.345  1.00  0.00    -0.504 OA
ATOM     19  H   UNL     1      20.461  24.874   9.873  1.00  0.00     0.293 HD
ENDBRANCH  15  18
BRANCH  17  20
ATOM     20  O   UNL     1      20.280  25.851  12.410  1.00  0.00    -0.504 OA
ATOM     21  H   UNL     1      21.202  26.268  12.391  1.00  0.00     0.293 HD
ENDBRANCH  17  20
ENDBRANCH   1  12
BRANCH   6  22
ATOM     22  O   UNL     1      16.406  20.428  19.512  1.00  0.00    -0.507 OA
ATOM     23  H   UNL     1      15.546  20.820  19.163  1.00  0.00     0.293 HD
ENDBRANCH   6  22
BRANCH   8  24
ATOM     24  O   UNL     1      20.920  21.334  20.873  1.00  0.00    -0.508 OA
ATOM     25  H   UNL     1      21.054  22.153  21.456  1.00  0.00     0.293 HD
ENDBRANCH   8  24
TORSDOF 5
ENDMDL
MODEL 2
REMARK VINA RESULT:    -5.349      1.390      7.123
REMARK INTER + INTRA:          -6.556
REMARK INTER:                  -6.293
REMARK INTRA:                  -0.262
REMARK UNBOUND:                -0.269
REMARK SMILES O=c1cc(-c2ccc(O)c(O)c2)oc2cc(O)cc(O)c12
REMARK SMILES IDX 4 1 3 2 2 3 1 4 21 5 19 6 18 7 16 8 15 9 14 10 13 11 5 12
REMARK SMILES IDX 6 13 7 14 8 15 12 16 10 17 9 18 11 20 20 22 17 24
REMARK H PARENT 9 19 11 21 20 23 17 25
REMARK Flexibility Score: inf
ROOT
ATOM      1  C   UNL     1      19.573  21.672  15.952  1.00  0.00     0.138 A 
ATOM      2  C   UNL     1      19.997  20.609  15.143  1.00  0.00     0.100 A 
ATOM      3  C   UNL     1      20.314  20.845  13.803  1.00  0.00     0.197 A 
ATOM      4  O   UNL     1      20.638  19.861  13.090  1.00  0.00    -0.289 OA
ATOM      5  C   UNL     1      20.240  22.159  13.284  1.00  0.00     0.107 A 
ATOM      6  C   UNL     1      20.572  22.524  11.944  1.00  0.00     0.134 A 
ATOM      7  C   UNL     1      20.364  23.842  11.516  1.00  0.00     0.093 A 
ATOM      8  C   UNL     1      19.892  24.820  12.396  1.00  0.00     0.123 A 
ATOM      9  C   UNL     1      19.614  24.484  13.718  1.00  0.00     0.094 A 
ATOM     10  C   UNL     1      19.777  23.171  14.166  1.00  0.00     0.146 A 
ATOM     11  O   UNL     1      19.482  22.891  15.431  1.00  0.00    -0.456 OA
ENDROOT
BRANCH   1  12
ATOM     12  C   UNL     1      19.227  21.478  17.383  1.00  0.00     0.021 A 
ATOM     13  C   UNL     1      20.166  21.692  18.409  1.00  0.00     0.016 A 
ATOM     14  C   UNL     1      19.813  21.490  19.746  1.00  0.00     0.051 A 
ATOM     15  C   UNL     1      18.521  21.067  20.081  1.00  0.00     0.157 A 
ATOM     16  C   UNL     1      17.934  21.039  17.727  1.00  0.00     0.062 A 
ATOM     17  C   UNL     1      17.581  20.839  19.069  1.00  0.00     0.158 A 
BRANCH  15  18
ATOM     18  O   UNL     1      18.166  20.867  21.413  1.00  0.00    -0.504 OA
ATOM     19  H   UNL     1      17.656  20.043  21.708  1.00  0.00     0.293 HD
ENDBRANCH  15  18
BRANCH  17  20
ATOM     20  O   UNL     1      16.296  20.413  19.403  1.00  0.00    -0.504 OA
ATOM     21  H   UNL     1      15.474  20.832  18.986  1.00  0.00     0.293 HD
ENDBRANCH  17  20
ENDBRANCH   1  12
BRANCH   6  22
ATOM     22  O   UNL     1      21.125  21.647  11.006  1.00  0.00    -0.507 OA
ATOM     23  H   UNL     1      22.000  21.787  10.526  1.00  0.00     0.293 HD
ENDBRANCH   6  22
BRANCH   8  24
ATOM     24  O   UNL     1      19.703  26.131  11.966  1.00  0.00    -0.508 OA
ATOM     25  H   UNL     1      20.482  26.769  11.851  1.00  0.00     0.293 HD
ENDBRANCH   8  24
TORSDOF 5
ENDMDL
MODEL 3
REMARK VINA RESULT:    -5.223      1.580      7.391
REMARK INTER + INTRA:          -6.408
REMARK INTER:                  -6.120
REMARK INTRA:                  -0.288
REMARK UNBOUND:                -0.269
REMARK SMILES O=c1cc(-c2ccc(O)c(O)c2)oc2cc(O)cc(O)c12
REMARK SMILES IDX 4 1 3 2 2 3 1 4 21 5 19 6 18 7 16 8 15 9 14 10 13 11 5 12
REMARK SMILES IDX 6 13 7 14 8 15 12 16 10 17 9 18 11 20 20 22 17 24
REMARK H PARENT 9 19 11 21 20 23 17 25
REMARK Flexibility Score: inf
ROOT
ATOM      1  C   UNL     1      18.942  22.087  14.808  1.00  0.00     0.138 A 
ATOM      2  C   UNL     1      19.551  23.342  14.674  1.00  0.00     0.100 A 
ATOM      3  C   UNL     1      20.128  23.702  13.455  1.00  0.00     0.197 A 
ATOM      4  O   UNL     1      20.715  24.812  13.383  1.00  0.00    -0.289 OA
ATOM      5  C   UNL     1      20.061  22.815  12.355  1.00  0.00     0.107 A 
ATOM      6  C   UNL     1      20.583  23.088  11.055  1.00  0.00     0.134 A 
ATOM      7  C   UNL     1      20.546  22.091  10.071  1.00  0.00     0.093 A 
ATOM      8  C   UNL     1      19.952  20.852  10.324  1.00  0.00     0.123 A 
ATOM      9  C   UNL     1      19.396  20.593  11.574  1.00  0.00     0.094 A 
ATOM     10  C   UNL     1      19.449  21.554  12.586  1.00  0.00     0.146 A 
ATOM     11  O   UNL     1      18.921  21.259  13.769  1.00  0.00    -0.456 OA
ENDROOT
BRANCH   1  12
ATOM     12  C   UNL     1      18.312  21.653  16.081  1.00  0.00     0.021 A 
ATOM     13  C   UNL     1      18.991  21.736  17.311  1.00  0.00     0.016 A 
ATOM     14  C   UNL     1      18.375  21.309  18.491  1.00  0.00     0.051 A 
ATOM     15  C   UNL     1      17.076  20.788  18.462  1.00  0.00     0.157 A 
ATOM     16  C   UNL     1      17.011  21.115  16.060  1.00  0.00     0.062 A 
ATOM     17  C   UNL     1      16.393  20.689  17.244  1.00  0.00     0.158 A 
BRANCH  15  18
ATOM     18  O   UNL     1      16.459  20.365  19.637  1.00  0.00    -0.504 OA
ATOM     19  H   UNL     1      16.910  19.712  20.268  1.00  0.00     0.293 HD
ENDBRANCH  15  18
BRANCH  17  20
ATOM     20  O   UNL     1      15.102  20.167  17.217  1.00  0.00    -0.504 OA
ATOM     21  H   UNL     1      14.311  20.689  17.575  1.00  0.00     0.293 HD
ENDBRANCH  17  20
ENDBRANCH   1  12
BRANCH   6  22
ATOM     22  O   UNL     1      21.125  24.320  10.671  1.00  0.00    -0.507 OA
ATOM     23  H   UNL     1      20.819  24.867   9.882  1.00  0.00     0.293 HD
ENDBRANCH   6  22
BRANCH   8  24
ATOM     24  O   UNL     1      19.906  19.872   9.335  1.00  0.00    -0.508 OA
ATOM     25  H   UNL     1      19.665  18.912   9.551  1.00  0.00     0.293 HD
ENDBRANCH   8  24
TORSDOF 5
ENDMDL
MODEL 4
REMARK VINA RESULT:    -5.220      8.923     11.240
REMARK INTER + INTRA:          -6.405
REMARK INTER:                  -6.114
REMARK INTRA:                  -0.291
REMARK UNBOUND:                -0.269
REMARK SMILES O=c1cc(-c2ccc(O)c(O)c2)oc2cc(O)cc(O)c12
REMARK SMILES IDX 4 1 3 2 2 3 1 4 21 5 19 6 18 7 16 8 15 9 14 10 13 11 5 12
REMARK SMILES IDX 6 13 7 14 8 15 12 16 10 17 9 18 11 20 20 22 17 24
REMARK H PARENT 9 19 11 21 20 23 17 25
REMARK Flexibility Score: inf
ROOT
ATOM      1  C   UNL     1      16.485  19.153   6.388  1.00  0.00     0.138 A 
ATOM      2  C   UNL     1      17.000  19.450   7.658  1.00  0.00     0.100 A 
ATOM      3  C   UNL     1      17.464  18.416   8.473  1.00  0.00     0.197 A 
ATOM      4  O   UNL     1      17.868  18.709   9.627  1.00  0.00    -0.289 OA
ATOM      5  C   UNL     1      17.446  17.083   7.998  1.00  0.00     0.107 A 
ATOM      6  C   UNL     1      17.925  15.953   8.727  1.00  0.00     0.134 A 
ATOM      7  C   UNL     1      17.763  14.668   8.192  1.00  0.00     0.093 A 
ATOM      8  C   UNL     1      17.194  14.478   6.931  1.00  0.00     0.123 A 
ATOM      9  C   UNL     1      16.769  15.578   6.191  1.00  0.00     0.094 A 
ATOM     10  C   UNL     1      16.884  16.869   6.711  1.00  0.00     0.146 A 
ATOM     11  O   UNL     1      16.450  17.890   5.978  1.00  0.00    -0.456 OA
ENDROOT
BRANCH   1  12
ATOM     12  C   UNL     1      15.980  20.214   5.479  1.00  0.00     0.021 A 
ATOM     13  C   UNL     1      16.702  21.400   5.252  1.00  0.00     0.016 A 
ATOM     14  C   UNL     1      16.196  22.385   4.399  1.00  0.00     0.051 A 
ATOM     15  C   UNL     1      14.960  22.206   3.766  1.00  0.00     0.157 A 
ATOM     16  C   UNL     1      14.733  20.047   4.849  1.00  0.00     0.062 A 
ATOM     17  C   UNL     1      14.227  21.035   3.993  1.00  0.00     0.158 A 
BRANCH  15  18
ATOM     18  O   UNL     1      14.454  23.185   2.914  1.00  0.00    -0.504 OA
ATOM     19  H   UNL     1      13.911  22.944   2.092  1.00  0.00     0.293 HD
ENDBRANCH  15  18
BRANCH  17  20
ATOM     20  O   UNL     1      12.995  20.860   3.364  1.00  0.00    -0.504 OA
ATOM     21  H   UNL     1      12.329  20.169   3.688  1.00  0.00     0.293 HD
ENDBRANCH  17  20
ENDBRANCH   1  12
BRANCH   6  22
ATOM     22  O   UNL     1      18.582  16.035   9.959  1.00  0.00    -0.507 OA
ATOM     23  H   UNL     1      18.359  16.689  10.692  1.00  0.00     0.293 HD
ENDBRANCH   6  22
BRANCH   8  24
ATOM     24  O   UNL     1      17.051  13.198   6.401  1.00  0.00    -0.508 OA
ATOM     25  H   UNL     1      17.533  12.917   5.555  1.00  0.00     0.293 HD
ENDBRANCH   8  24
TORSDOF 5
ENDMDL
MODEL 5
REMARK VINA RESULT:    -5.175      1.177      2.625
REMARK INTER + INTRA:          -6.352
REMARK INTER:                  -6.085
REMARK INTRA:                  -0.268
REMARK UNBOUND:                -0.269
REMARK SMILES O=c1cc(-c2ccc(O)c(O)c2)oc2cc(O)cc(O)c12
REMARK SMILES IDX 4 1 3 2 2 3 1 4 21 5 19 6 18 7 16 8 15 9 14 10 13 11 5 12
REMARK SMILES IDX 6 13 7 14 8 15 12 16 10 17 9 18 11 20 20 22 17 24
REMARK H PARENT 9 19 11 21 20 23 17 25
REMARK Flexibility Score: inf
ROOT
ATOM      1  C   UNL     1      19.579  22.508  15.136  1.00  0.00     0.138 A 
ATOM      2  C   UNL     1      20.377  23.001  16.178  1.00  0.00     0.100 A 
ATOM      3  C   UNL     1      20.086  22.646  17.496  1.00  0.00     0.197 A 
ATOM      4  O   UNL     1      20.786  23.148  18.412  1.00  0.00    -0.289 OA
ATOM      5  C   UNL     1      19.013  21.764  17.768  1.00  0.00     0.107 A 
ATOM      6  C   UNL     1      18.645  21.306  19.069  1.00  0.00     0.134 A 
ATOM      7  C   UNL     1      17.501  20.511  19.223  1.00  0.00     0.093 A 
ATOM      8  C   UNL     1      16.747  20.112  18.118  1.00  0.00     0.123 A 
ATOM      9  C   UNL     1      17.126  20.512  16.839  1.00  0.00     0.094 A 
ATOM     10  C   UNL     1      18.241  21.333  16.656  1.00  0.00     0.146 A 
ATOM     11  O   UNL     1      18.558  21.707  15.420  1.00  0.00    -0.456 OA
ENDROOT
BRANCH   1  12
ATOM     12  C   UNL     1      19.844  22.851  13.715  1.00  0.00     0.021 A 
ATOM     13  C   UNL     1      20.069  21.859  12.743  1.00  0.00     0.016 A 
ATOM     14  C   UNL     1      20.327  22.213  11.416  1.00  0.00     0.051 A 
ATOM     15  C   UNL     1      20.372  23.561  11.039  1.00  0.00     0.157 A 
ATOM     16  C   UNL     1      19.905  24.204  13.331  1.00  0.00     0.062 A 
ATOM     17  C   UNL     1      20.162  24.558  11.999  1.00  0.00     0.158 A 
BRANCH  15  18
ATOM     18  O   UNL     1      20.627  23.917   9.717  1.00  0.00    -0.504 OA
ATOM     19  H   UNL     1      21.363  23.473   9.180  1.00  0.00     0.293 HD
ENDBRANCH  15  18
BRANCH  17  20
ATOM     20  O   UNL     1      20.211  25.899  11.623  1.00  0.00    -0.504 OA
ATOM     21  H   UNL     1      19.949  26.639  12.264  1.00  0.00     0.293 HD
ENDBRANCH  17  20
ENDBRANCH   1  12
BRANCH   6  22
ATOM     22  O   UNL     1      19.374  21.578  20.231  1.00  0.00    -0.507 OA
ATOM     23  H   UNL     1      19.850  20.890  20.792  1.00  0.00     0.293 HD
ENDBRANCH   6  22
BRANCH   8  24
ATOM     24  O   UNL     1      15.620  19.310  18.279  1.00  0.00    -0.508 OA
ATOM     25  H   UNL     1      15.581  18.367  17.908  1.00  0.00     0.293 HD
ENDBRANCH   8  24
TORSDOF 5
ENDMDL
MODEL 6
REMARK VINA RESULT:    -5.011     15.760     17.780
REMARK INTER + INTRA:          -6.159
REMARK INTER:                  -5.892
REMARK INTRA:                  -0.267
REMARK UNBOUND:                -0.269
REMARK SMILES O=c1cc(-c2ccc(O)c(O)c2)oc2cc(O)cc(O)c12
REMARK SMILES IDX 4 1 3 2 2 3 1 4 21 5 19 6 18 7 16 8 15 9 14 10 13 11 5 12
REMARK SMILES IDX 6 13 7 14 8 15 12 16 10 17 9 18 11 20 20 22 17 24
REMARK H PARENT 9 19 11 21 20 23 17 25
REMARK Flexibility Score: inf
ROOT
ATOM      1  C   UNL     1      10.223  14.256   3.110  1.00  0.00     0.138 A 
ATOM      2  C   UNL     1      10.039  12.915   2.745  1.00  0.00     0.100 A 
ATOM      3  C   UNL     1      11.149  12.079   2.610  1.00  0.00     0.197 A 
ATOM      4  O   UNL     1      10.956  10.897   2.227  1.00  0.00    -0.289 OA
ATOM      5  C   UNL     1      12.445  12.581   2.876  1.00  0.00     0.107 A 
ATOM      6  C   UNL     1      13.647  11.813   2.803  1.00  0.00     0.134 A 
ATOM      7  C   UNL     1      14.883  12.445   2.993  1.00  0.00     0.093 A 
ATOM      8  C   UNL     1      14.956  13.803   3.309  1.00  0.00     0.123 A 
ATOM      9  C   UNL     1      13.788  14.550   3.431  1.00  0.00     0.094 A 
ATOM     10  C   UNL     1      12.542  13.957   3.214  1.00  0.00     0.146 A 
ATOM     11  O   UNL     1      11.453  14.711   3.323  1.00  0.00    -0.456 OA
ENDROOT
BRANCH   1  12
ATOM     12  C   UNL     1       9.078  15.189   3.271  1.00  0.00     0.021 A 
ATOM     13  C   UNL     1       8.374  15.696   2.163  1.00  0.00     0.016 A 
ATOM     14  C   UNL     1       7.307  16.581   2.346  1.00  0.00     0.051 A 
ATOM     15  C   UNL     1       6.931  16.978   3.635  1.00  0.00     0.157 A 
ATOM     16  C   UNL     1       8.702  15.604   4.562  1.00  0.00     0.062 A 
ATOM     17  C   UNL     1       7.631  16.490   4.745  1.00  0.00     0.158 A 
BRANCH  15  18
ATOM     18  O   UNL     1       5.867  17.858   3.821  1.00  0.00    -0.504 OA
ATOM     19  H   UNL     1       5.784  18.711   3.279  1.00  0.00     0.293 HD
ENDBRANCH  15  18
BRANCH  17  20
ATOM     20  O   UNL     1       7.258  16.890   6.027  1.00  0.00    -0.504 OA
ATOM     21  H   UNL     1       6.286  17.020   6.279  1.00  0.00     0.293 HD
ENDBRANCH  17  20
ENDBRANCH   1  12
BRANCH   6  22
ATOM     22  O   UNL     1      13.683  10.434   2.573  1.00  0.00    -0.507 OA
ATOM     23  H   UNL     1      13.872   9.999   1.684  1.00  0.00     0.293 HD
ENDBRANCH   6  22
BRANCH   8  24
ATOM     24  O   UNL     1      16.189  14.419   3.511  1.00  0.00    -0.508 OA
ATOM     25  H   UNL     1      16.257  15.385   3.813  1.00  0.00     0.293 HD
ENDBRANCH   8  24
TORSDOF 5
ENDMDL
MODEL 7
REMARK VINA RESULT:    -4.999     10.139     12.104
REMARK INTER + INTRA:          -6.144
REMARK INTER:                  -5.854
REMARK INTRA:                  -0.291
REMARK UNBOUND:                -0.269
REMARK SMILES O=c1cc(-c2ccc(O)c(O)c2)oc2cc(O)cc(O)c12
REMARK SMILES IDX 4 1 3 2 2 3 1 4 21 5 19 6 18 7 16 8 15 9 14 10 13 11 5 12
REMARK SMILES IDX 6 13 7 14 8 15 12 16 10 17 9 18 11 20 20 22 17 24
REMARK H PARENT 9 19 11 21 20 23 17 25
REMARK Flexibility Score: inf
ROOT
ATOM      1  C   UNL     1      15.488  18.628   5.005  1.00  0.00     0.138 A 
ATOM      2  C   UNL     1      14.934  17.494   4.394  1.00  0.00     0.100 A 
ATOM      3  C   UNL     1      15.206  16.227   4.915  1.00  0.00     0.197 A 
ATOM      4  O   UNL     1      14.739  15.227   4.312  1.00  0.00    -0.289 OA
ATOM      5  C   UNL     1      16.007  16.100   6.074  1.00  0.00     0.107 A 
ATOM      6  C   UNL     1      16.323  14.864   6.714  1.00  0.00     0.134 A 
ATOM      7  C   UNL     1      17.209  14.855   7.800  1.00  0.00     0.093 A 
ATOM      8  C   UNL     1      17.743  16.043   8.304  1.00  0.00     0.123 A 
ATOM      9  C   UNL     1      17.401  17.259   7.719  1.00  0.00     0.094 A 
ATOM     10  C   UNL     1      16.549  17.298   6.613  1.00  0.00     0.146 A 
ATOM     11  O   UNL     1      16.263  18.479   6.074  1.00  0.00    -0.456 OA
ENDROOT
BRANCH   1  12
ATOM     12  C   UNL     1      15.229  19.998   4.494  1.00  0.00     0.021 A 
ATOM     13  C   UNL     1      16.049  21.087   4.847  1.00  0.00     0.016 A 
ATOM     14  C   UNL     1      15.773  22.368   4.360  1.00  0.00     0.051 A 
ATOM     15  C   UNL     1      14.674  22.584   3.519  1.00  0.00     0.157 A 
ATOM     16  C   UNL     1      14.119  20.227   3.660  1.00  0.00     0.062 A 
ATOM     17  C   UNL     1      13.845  21.511   3.171  1.00  0.00     0.158 A 
BRANCH  15  18
ATOM     18  O   UNL     1      14.399  23.859   3.030  1.00  0.00    -0.504 OA
ATOM     19  H   UNL     1      14.623  24.691   3.563  1.00  0.00     0.293 HD
ENDBRANCH  15  18
BRANCH  17  20
ATOM     20  O   UNL     1      12.749  21.729   2.337  1.00  0.00    -0.504 OA
ATOM     21  H   UNL     1      11.807  21.785   2.704  1.00  0.00     0.293 HD
ENDBRANCH  17  20
ENDBRANCH   1  12
BRANCH   6  22
ATOM     22  O   UNL     1      15.783  13.628   6.343  1.00  0.00    -0.507 OA
ATOM     23  H   UNL     1      16.029  12.741   6.752  1.00  0.00     0.293 HD
ENDBRANCH   6  22
BRANCH   8  24
ATOM     24  O   UNL     1      18.610  16.025   9.394  1.00  0.00    -0.508 OA
ATOM     25  H   UNL     1      19.593  15.804   9.285  1.00  0.00     0.293 HD
ENDBRANCH   8  24
TORSDOF 5
ENDMDL
MODEL 8
REMARK VINA RESULT:    -4.673      8.097     10.701
REMARK INTER + INTRA:          -5.761
REMARK INTER:                  -5.468
REMARK INTRA:                  -0.293
REMARK UNBOUND:                -0.269
REMARK SMILES O=c1cc(-c2ccc(O)c(O)c2)oc2cc(O)cc(O)c12
REMARK SMILES IDX 4 1 3 2 2 3 1 4 21 5 19 6 18 7 16 8 15 9 14 10 13 11 5 12
REMARK SMILES IDX 6 13 7 14 8 15 12 16 10 17 9 18 11 20 20 22 17 24
REMARK H PARENT 9 19 11 21 20 23 17 25
REMARK Flexibility Score: inf
ROOT
ATOM      1  C   UNL     1      16.398  19.600   6.295  1.00  0.00     0.138 A 
ATOM      2  C   UNL     1      17.060  20.514   7.126  1.00  0.00     0.100 A 
ATOM      3  C   UNL     1      17.841  20.043   8.184  1.00  0.00     0.197 A 
ATOM      4  O   UNL     1      18.376  20.889   8.945  1.00  0.00    -0.289 OA
ATOM      5  C   UNL     1      17.986  18.651   8.387  1.00  0.00     0.107 A 
ATOM      6  C   UNL     1      18.784  18.056   9.411  1.00  0.00     0.134 A 
ATOM      7  C   UNL     1      18.772  16.664   9.574  1.00  0.00     0.093 A 
ATOM      8  C   UNL     1      18.039  15.844   8.714  1.00  0.00     0.123 A 
ATOM      9  C   UNL     1      17.298  16.411   7.681  1.00  0.00     0.094 A 
ATOM     10  C   UNL     1      17.260  17.797   7.514  1.00  0.00     0.146 A 
ATOM     11  O   UNL     1      16.526  18.297   6.525  1.00  0.00    -0.456 OA
ENDROOT
BRANCH   1  12
ATOM     12  C   UNL     1      15.557  20.044   5.154  1.00  0.00     0.021 A 
ATOM     13  C   UNL     1      14.729  19.149   4.451  1.00  0.00     0.016 A 
ATOM     14  C   UNL     1      13.958  19.595   3.374  1.00  0.00     0.051 A 
ATOM     15  C   UNL     1      14.005  20.938   2.978  1.00  0.00     0.157 A 
ATOM     16  C   UNL     1      15.609  21.389   4.740  1.00  0.00     0.062 A 
ATOM     17  C   UNL     1      14.833  21.835   3.661  1.00  0.00     0.158 A 
BRANCH  15  18
ATOM     18  O   UNL     1      13.235  21.385   1.906  1.00  0.00    -0.504 OA
ATOM     19  H   UNL     1      12.685  20.745   1.344  1.00  0.00     0.293 HD
ENDBRANCH  15  18
BRANCH  17  20
ATOM     20  O   UNL     1      14.882  23.170   3.263  1.00  0.00    -0.504 OA
ATOM     21  H   UNL     1      15.284  23.444   2.375  1.00  0.00     0.293 HD
ENDBRANCH  17  20
ENDBRANCH   1  12
BRANCH   6  22
ATOM     22  O   UNL     1      19.617  18.776  10.273  1.00  0.00    -0.507 OA
ATOM     23  H   UNL     1      20.624  18.762  10.252  1.00  0.00     0.293 HD
ENDBRANCH   6  22
BRANCH   8  24
ATOM     24  O   UNL     1      18.045  14.460   8.875  1.00  0.00    -0.508 OA
ATOM     25  H   UNL     1      17.519  14.010   9.615  1.00  0.00     0.293 HD
ENDBRANCH   8  24
TORSDOF 5
ENDMDL
MODEL 9
REMARK VINA RESULT:    -4.629      2.348      3.815
REMARK INTER + INTRA:          -5.710
REMARK INTER:                  -5.393
REMARK INTRA:                  -0.317
REMARK UNBOUND:                -0.269
REMARK SMILES O=c1cc(-c2ccc(O)c(O)c2)oc2cc(O)cc(O)c12
REMARK SMILES IDX 4 1 3 2 2 3 1 4 21 5 19 6 18 7 16 8 15 9 14 10 13 11 5 12
REMARK SMILES IDX 6 13 7 14 8 15 12 16 10 17 9 18 11 20 20 22 17 24
REMARK H PARENT 9 19 11 21 20 23 17 25
REMARK Flexibility Score: inf
ROOT
ATOM      1  C   UNL     1      19.506  21.889  13.840  1.00  0.00     0.138 A 
ATOM      2  C   UNL     1      20.312  22.961  14.249  1.00  0.00     0.100 A 
ATOM      3  C   UNL     1      20.300  23.360  15.587  1.00  0.00     0.197 A 
ATOM      4  O   UNL     1      20.991  24.360  15.912  1.00  0.00    -0.289 OA
ATOM      5  C   UNL     1      19.504  22.660  16.524  1.00  0.00     0.107 A 
ATOM      6  C   UNL     1      19.438  22.956  17.919  1.00  0.00     0.134 A 
ATOM      7  C   UNL     1      18.538  22.255  18.733  1.00  0.00     0.093 A 
ATOM      8  C   UNL     1      17.744  21.231  18.212  1.00  0.00     0.123 A 
ATOM      9  C   UNL     1      17.837  20.901  16.863  1.00  0.00     0.094 A 
ATOM     10  C   UNL     1      18.699  21.604  16.019  1.00  0.00     0.146 A 
ATOM     11  O   UNL     1      18.743  21.268  14.734  1.00  0.00    -0.456 OA
ENDROOT
BRANCH   1  12
ATOM     12  C   UNL     1      19.481  21.421  12.431  1.00  0.00     0.021 A 
ATOM     13  C   UNL     1      20.385  21.913  11.470  1.00  0.00     0.016 A 
ATOM     14  C   UNL     1      20.330  21.461  10.149  1.00  0.00     0.051 A 
ATOM     15  C   UNL     1      19.371  20.516   9.763  1.00  0.00     0.157 A 
ATOM     16  C   UNL     1      18.511  20.482  12.031  1.00  0.00     0.062 A 
ATOM     17  C   UNL     1      18.459  20.028  10.706  1.00  0.00     0.158 A 
BRANCH  15  18
ATOM     18  O   UNL     1      19.315  20.062   8.447  1.00  0.00    -0.504 OA
ATOM     19  H   UNL     1      18.659  20.450   7.780  1.00  0.00     0.293 HD
ENDBRANCH  15  18
BRANCH  17  20
ATOM     20  O   UNL     1      17.502  19.091  10.320  1.00  0.00    -0.504 OA
ATOM     21  H   UNL     1      16.909  19.241   9.513  1.00  0.00     0.293 HD
ENDBRANCH  17  20
ENDBRANCH   1  12
BRANCH   6  22
ATOM     22  O   UNL     1      20.244  23.904  18.558  1.00  0.00    -0.507 OA
ATOM     23  H   UNL     1      20.728  23.760  19.431  1.00  0.00     0.293 HD
ENDBRANCH   6  22
BRANCH   8  24
ATOM     24  O   UNL     1      16.862  20.529  19.031  1.00  0.00    -0.508 OA
ATOM     25  H   UNL     1      16.197  21.008  19.627  1.00  0.00     0.293 HD
ENDBRANCH   8  24
TORSDOF 5
ENDMDL
