MODEL 1
REMARK VINA RESULT:    40.665      0.000      0.000
REMARK INTER + INTRA:          54.685
REMARK INTER:                  54.929
REMARK INTRA:                  -0.244
REMARK UNBOUND:                -0.244
REMARK SMILES O=c1c(-c2ccc(O)cc2)coc2c([C@@H]3O[C@H](CO)[C@@H](O)[C@H](O)[C@@H]3O)c(O)ccc12
REMARK SMILES IDX 3 1 11 2 12 3 13 4 30 5 2 6 1 7 29 8 28 9 26 10 14 11 4 12
REMARK SMILES IDX 5 13 6 14 7 15 10 16 9 17 8 18 15 20 24 21 16 22 22 23 17 24
REMARK SMILES IDX 20 25 25 26 23 28 18 30 19 31 21 33 27 35
REMARK H PARENT 8 19 25 27 23 29 19 32 21 34 27 36
REMARK Flexibility Score: inf
ROOT
ATOM      1  C   UNL     1      -0.621  13.821 -25.767  1.00  0.00     0.065 A 
ATOM      2  C   UNL     1      -1.694  13.534 -24.911  1.00  0.00     0.208 A 
ATOM      3  O   UNL     1      -1.987  12.282 -24.581  1.00  0.00    -0.463 OA
ATOM      4  C   UNL     1      -1.302  11.231 -25.028  1.00  0.00     0.147 A 
ATOM      5  C   UNL     1      -0.211  11.429 -25.906  1.00  0.00     0.066 A 
ATOM      6  C   UNL     1       0.125  12.744 -26.278  1.00  0.00     0.200 A 
ATOM      7  O   UNL     1       1.076  12.954 -27.082  1.00  0.00    -0.288 OA
ATOM      8  C   UNL     1       0.497  10.320 -26.391  1.00  0.00     0.020 A 
ATOM      9  C   UNL     1       0.122   9.031 -26.021  1.00  0.00     0.047 A 
ATOM     10  C   UNL     1      -0.958   8.822 -25.154  1.00  0.00     0.125 A 
ATOM     11  C   UNL     1      -1.672   9.925 -24.628  1.00  0.00     0.069 A 
ENDROOT
BRANCH   1  12
ATOM     12  C   UNL     1      -0.308  15.230 -26.115  1.00  0.00    -0.011 A 
ATOM     13  C   UNL     1       0.987  15.740 -25.911  1.00  0.00     0.013 A 
ATOM     14  C   UNL     1       1.287  17.063 -26.246  1.00  0.00     0.047 A 
ATOM     15  C   UNL     1       0.303  17.891 -26.795  1.00  0.00     0.115 A 
ATOM     16  C   UNL     1      -1.290  16.065 -26.674  1.00  0.00     0.013 A 
ATOM     17  C   UNL     1      -0.987  17.388 -27.009  1.00  0.00     0.047 A 
BRANCH  15  18
ATOM     18  O   UNL     1       0.616  19.208 -27.124  1.00  0.00    -0.508 OA
ATOM     19  H   UNL     1      -0.094  19.857 -27.441  1.00  0.00     0.293 HD
ENDBRANCH  15  18
ENDBRANCH   1  12
BRANCH  11  20
ATOM     20  C   UNL     1      -2.869   9.735 -23.703  1.00  0.00     0.188 C 
ATOM     21  C   UNL     1      -2.418   9.709 -22.223  1.00  0.00     0.179 C 
ATOM     22  O   UNL     1      -3.838  10.749 -23.918  1.00  0.00    -0.362 OA
ATOM     23  C   UNL     1      -3.650   9.535 -21.308  1.00  0.00     0.177 C 
ATOM     24  C   UNL     1      -5.034  10.471 -23.205  1.00  0.00     0.176 C 
ATOM     25  C   UNL     1      -4.781  10.517 -21.677  1.00  0.00     0.177 C 
BRANCH  21  26
ATOM     26  O   UNL     1      -1.672  10.854 -21.883  1.00  0.00    -0.387 OA
ATOM     27  H   UNL     1      -2.282  11.635 -21.897  1.00  0.00     0.211 HD
ENDBRANCH  21  26
BRANCH  23  28
ATOM     28  O   UNL     1      -3.296   9.639 -19.951  1.00  0.00    -0.387 OA
ATOM     29  H   UNL     1      -3.823   8.967 -19.444  1.00  0.00     0.211 HD
ENDBRANCH  23  28
BRANCH  24  30
ATOM     30  C   UNL     1      -6.091  11.506 -23.615  1.00  0.00     0.191 C 
BRANCH  30  31
ATOM     31  O   UNL     1      -7.380  11.018 -23.356  1.00  0.00    -0.394 OA
ATOM     32  H   UNL     1      -7.479  10.986 -22.368  1.00  0.00     0.210 HD
ENDBRANCH  30  31
ENDBRANCH  24  30
BRANCH  25  33
ATOM     33  O   UNL     1      -5.945  10.146 -20.981  1.00  0.00    -0.388 OA
ATOM     34  H   UNL     1      -6.061   9.168 -21.103  1.00  0.00     0.211 HD
ENDBRANCH  25  33
ENDBRANCH  11  20
BRANCH  10  35
ATOM     35  O   UNL     1      -1.319   7.515 -24.825  1.00  0.00    -0.507 OA
ATOM     36  H   UNL     1      -1.969   6.982 -25.392  1.00  0.00     0.293 HD
ENDBRANCH  10  35
TORSDOF 9
ENDMDL
MODEL 2
REMARK VINA RESULT:    40.680      1.136      2.536
REMARK INTER + INTRA:          54.705
REMARK INTER:                  55.201
REMARK INTRA:                  -0.497
REMARK UNBOUND:                -0.244
REMARK SMILES O=c1c(-c2ccc(O)cc2)coc2c([C@@H]3O[C@H](CO)[C@@H](O)[C@H](O)[C@@H]3O)c(O)ccc12
REMARK SMILES IDX 3 1 11 2 12 3 13 4 30 5 2 6 1 7 29 8 28 9 26 10 14 11 4 12
REMARK SMILES IDX 5 13 6 14 7 15 10 16 9 17 8 18 15 20 24 21 16 22 22 23 17 24
REMARK SMILES IDX 20 25 25 26 23 28 18 30 19 31 21 33 27 35
REMARK H PARENT 8 19 25 27 23 29 19 32 21 34 27 36
REMARK Flexibility Score: inf
ROOT
ATOM      1  C   UNL     1      -0.680  14.450 -25.574  1.00  0.00     0.065 A 
ATOM      2  C   UNL     1      -1.649  14.453 -24.561  1.00  0.00     0.208 A 
ATOM      3  O   UNL     1      -2.235  13.325 -24.175  1.00  0.00    -0.463 OA
ATOM      4  C   UNL     1      -1.954  12.138 -24.709  1.00  0.00     0.147 A 
ATOM      5  C   UNL     1      -0.996  12.047 -25.746  1.00  0.00     0.066 A 
ATOM      6  C   UNL     1      -0.358  13.223 -26.180  1.00  0.00     0.200 A 
ATOM      7  O   UNL     1       0.482  13.181 -27.123  1.00  0.00    -0.288 OA
ATOM      8  C   UNL     1      -0.716  10.799 -26.320  1.00  0.00     0.020 A 
ATOM      9  C   UNL     1      -1.384   9.658 -25.882  1.00  0.00     0.047 A 
ATOM     10  C   UNL     1      -2.335   9.736 -24.858  1.00  0.00     0.125 A 
ATOM     11  C   UNL     1      -2.617  10.979 -24.242  1.00  0.00     0.069 A 
ENDROOT
BRANCH   1  12
ATOM     12  C   UNL     1      -0.033  15.723 -25.983  1.00  0.00    -0.011 A 
ATOM     13  C   UNL     1      -0.756  16.685 -26.710  1.00  0.00     0.013 A 
ATOM     14  C   UNL     1      -0.152  17.887 -27.088  1.00  0.00     0.047 A 
ATOM     15  C   UNL     1       1.177  18.148 -26.740  1.00  0.00     0.115 A 
ATOM     16  C   UNL     1       1.301  15.994 -25.629  1.00  0.00     0.013 A 
ATOM     17  C   UNL     1       1.902  17.198 -26.008  1.00  0.00     0.047 A 
BRANCH  15  18
ATOM     18  O   UNL     1       1.766  19.350 -27.124  1.00  0.00    -0.508 OA
ATOM     19  H   UNL     1       2.142  19.997 -26.441  1.00  0.00     0.293 HD
ENDBRANCH  15  18
ENDBRANCH   1  12
BRANCH  11  20
ATOM     20  C   UNL     1      -3.666  11.108 -23.143  1.00  0.00     0.188 C 
ATOM     21  C   UNL     1      -5.092  10.982 -23.732  1.00  0.00     0.179 C 
ATOM     22  O   UNL     1      -3.453  10.142 -22.126  1.00  0.00    -0.362 OA
ATOM     23  C   UNL     1      -6.135  11.097 -22.597  1.00  0.00     0.177 C 
ATOM     24  C   UNL     1      -4.301  10.379 -21.012  1.00  0.00     0.176 C 
ATOM     25  C   UNL     1      -5.786  10.181 -21.406  1.00  0.00     0.177 C 
BRANCH  21  26
ATOM     26  O   UNL     1      -5.251   9.793 -24.469  1.00  0.00    -0.387 OA
ATOM     27  H   UNL     1      -5.798   9.998 -25.271  1.00  0.00     0.211 HD
ENDBRANCH  21  26
BRANCH  23  28
ATOM     28  O   UNL     1      -7.435  10.855 -23.073  1.00  0.00    -0.387 OA
ATOM     29  H   UNL     1      -7.534  11.319 -23.945  1.00  0.00     0.211 HD
ENDBRANCH  23  28
BRANCH  24  30
ATOM     30  C   UNL     1      -3.900   9.412 -19.888  1.00  0.00     0.191 C 
BRANCH  30  31
ATOM     31  O   UNL     1      -2.563   9.017 -20.036  1.00  0.00    -0.394 OA
ATOM     32  H   UNL     1      -2.012   9.694 -19.562  1.00  0.00     0.210 HD
ENDBRANCH  30  31
ENDBRANCH  24  30
BRANCH  25  33
ATOM     33  O   UNL     1      -6.623  10.511 -20.325  1.00  0.00    -0.388 OA
ATOM     34  H   UNL     1      -6.228  10.101 -19.512  1.00  0.00     0.211 HD
ENDBRANCH  25  33
ENDBRANCH  11  20
BRANCH  10  35
ATOM     35  O   UNL     1      -3.002   8.576 -24.463  1.00  0.00    -0.507 OA
ATOM     36  H   UNL     1      -3.823   8.608 -23.869  1.00  0.00     0.293 HD
ENDBRANCH  10  35
TORSDOF 9
ENDMDL
MODEL 3
REMARK VINA RESULT:    43.122      1.959      3.917
REMARK INTER + INTRA:          58.003
REMARK INTER:                  57.844
REMARK INTRA:                   0.159
REMARK UNBOUND:                -0.244
REMARK SMILES O=c1c(-c2ccc(O)cc2)coc2c([C@@H]3O[C@H](CO)[C@@H](O)[C@H](O)[C@@H]3O)c(O)ccc12
REMARK SMILES IDX 3 1 11 2 12 3 13 4 30 5 2 6 1 7 29 8 28 9 26 10 14 11 4 12
REMARK SMILES IDX 5 13 6 14 7 15 10 16 9 17 8 18 15 20 24 21 16 22 22 23 17 24
REMARK SMILES IDX 20 25 25 26 23 28 18 30 19 31 21 33 27 35
REMARK H PARENT 8 19 25 27 23 29 19 32 21 34 27 36
REMARK Flexibility Score: inf
ROOT
ATOM      1  C   UNL     1      -0.901  14.417 -25.930  1.00  0.00     0.065 A 
ATOM      2  C   UNL     1      -0.189  13.209 -25.940  1.00  0.00     0.208 A 
ATOM      3  O   UNL     1      -0.792  12.059 -25.666  1.00  0.00    -0.463 OA
ATOM      4  C   UNL     1      -2.087  11.968 -25.369  1.00  0.00     0.147 A 
ATOM      5  C   UNL     1      -2.879  13.139 -25.325  1.00  0.00     0.066 A 
ATOM      6  C   UNL     1      -2.269  14.376 -25.607  1.00  0.00     0.200 A 
ATOM      7  O   UNL     1      -2.941  15.444 -25.550  1.00  0.00    -0.288 OA
ATOM      8  C   UNL     1      -4.237  13.044 -24.992  1.00  0.00     0.020 A 
ATOM      9  C   UNL     1      -4.803  11.806 -24.696  1.00  0.00     0.047 A 
ATOM     10  C   UNL     1      -4.029  10.640 -24.733  1.00  0.00     0.125 A 
ATOM     11  C   UNL     1      -2.661  10.705 -25.093  1.00  0.00     0.069 A 
ENDROOT
BRANCH   1  12
ATOM     12  C   UNL     1      -0.206  15.690 -26.247  1.00  0.00    -0.011 A 
ATOM     13  C   UNL     1      -0.913  16.760 -26.823  1.00  0.00     0.013 A 
ATOM     14  C   UNL     1      -0.263  17.963 -27.114  1.00  0.00     0.047 A 
ATOM     15  C   UNL     1       1.098  18.115 -26.829  1.00  0.00     0.115 A 
ATOM     16  C   UNL     1       1.160  15.851 -25.956  1.00  0.00     0.013 A 
ATOM     17  C   UNL     1       1.808  17.056 -26.248  1.00  0.00     0.047 A 
BRANCH  15  18
ATOM     18  O   UNL     1       1.733  19.318 -27.125  1.00  0.00    -0.508 OA
ATOM     19  H   UNL     1       1.264  20.208 -27.000  1.00  0.00     0.293 HD
ENDBRANCH  15  18
ENDBRANCH   1  12
BRANCH  11  20
ATOM     20  C   UNL     1      -1.781   9.460 -25.118  1.00  0.00     0.188 C 
ATOM     21  C   UNL     1      -0.706   9.529 -24.008  1.00  0.00     0.179 C 
ATOM     22  O   UNL     1      -2.566   8.285 -24.990  1.00  0.00    -0.362 OA
ATOM     23  C   UNL     1       0.160   8.249 -24.043  1.00  0.00     0.177 C 
ATOM     24  C   UNL     1      -1.780   7.122 -25.207  1.00  0.00     0.176 C 
ATOM     25  C   UNL     1      -0.707   6.974 -24.100  1.00  0.00     0.177 C 
BRANCH  21  26
ATOM     26  O   UNL     1      -1.277   9.738 -22.738  1.00  0.00    -0.387 OA
ATOM     27  H   UNL     1      -1.487  10.703 -22.650  1.00  0.00     0.211 HD
ENDBRANCH  21  26
BRANCH  23  28
ATOM     28  O   UNL     1       1.062   8.214 -22.966  1.00  0.00    -0.387 OA
ATOM     29  H   UNL     1       1.981   8.151 -23.337  1.00  0.00     0.211 HD
ENDBRANCH  23  28
BRANCH  24  30
ATOM     30  C   UNL     1      -2.717   5.905 -25.225  1.00  0.00     0.191 C 
BRANCH  30  31
ATOM     31  O   UNL     1      -3.639   5.981 -24.171  1.00  0.00    -0.394 OA
ATOM     32  H   UNL     1      -4.221   5.179 -24.244  1.00  0.00     0.210 HD
ENDBRANCH  30  31
ENDBRANCH  24  30
BRANCH  25  33
ATOM     33  O   UNL     1       0.126   5.875 -24.376  1.00  0.00    -0.388 OA
ATOM     34  H   UNL     1       0.342   5.444 -23.508  1.00  0.00     0.211 HD
ENDBRANCH  25  33
ENDBRANCH  11  20
BRANCH  10  35
ATOM     35  O   UNL     1      -4.624   9.422 -24.405  1.00  0.00    -0.507 OA
ATOM     36  H   UNL     1      -5.507   9.374 -23.909  1.00  0.00     0.293 HD
ENDBRANCH  10  35
TORSDOF 9
ENDMDL
MODEL 4
REMARK VINA RESULT:    43.637      1.774      7.675
REMARK INTER + INTRA:          58.699
REMARK INTER:                  57.446
REMARK INTRA:                   1.253
REMARK UNBOUND:                -0.244
REMARK SMILES O=c1c(-c2ccc(O)cc2)coc2c([C@@H]3O[C@H](CO)[C@@H](O)[C@H](O)[C@@H]3O)c(O)ccc12
REMARK SMILES IDX 3 1 11 2 12 3 13 4 30 5 2 6 1 7 29 8 28 9 26 10 14 11 4 12
REMARK SMILES IDX 5 13 6 14 7 15 10 16 9 17 8 18 15 20 24 21 16 22 22 23 17 24
REMARK SMILES IDX 20 25 25 26 23 28 18 30 19 31 21 33 27 35
REMARK H PARENT 8 19 25 27 23 29 19 32 21 34 27 36
REMARK Flexibility Score: inf
ROOT
ATOM      1  C   UNL     1      -4.048  10.966 -23.554  1.00  0.00     0.065 A 
ATOM      2  C   UNL     1      -3.742  12.209 -24.124  1.00  0.00     0.208 A 
ATOM      3  O   UNL     1      -2.650  12.371 -24.862  1.00  0.00    -0.463 OA
ATOM      4  C   UNL     1      -1.785  11.389 -25.109  1.00  0.00     0.147 A 
ATOM      5  C   UNL     1      -2.012  10.104 -24.562  1.00  0.00     0.066 A 
ATOM      6  C   UNL     1      -3.158   9.899 -23.773  1.00  0.00     0.200 A 
ATOM      7  O   UNL     1      -3.376   8.772 -23.247  1.00  0.00    -0.288 OA
ATOM      8  C   UNL     1      -1.089   9.076 -24.806  1.00  0.00     0.020 A 
ATOM      9  C   UNL     1       0.048   9.320 -25.573  1.00  0.00     0.047 A 
ATOM     10  C   UNL     1       0.284  10.588 -26.117  1.00  0.00     0.125 A 
ATOM     11  C   UNL     1      -0.645  11.636 -25.909  1.00  0.00     0.069 A 
ENDROOT
BRANCH   1  12
ATOM     12  C   UNL     1      -5.280  10.808 -22.739  1.00  0.00    -0.011 A 
ATOM     13  C   UNL     1      -6.511  10.532 -23.361  1.00  0.00     0.013 A 
ATOM     14  C   UNL     1      -7.670  10.374 -22.596  1.00  0.00     0.047 A 
ATOM     15  C   UNL     1      -7.615  10.482 -21.203  1.00  0.00     0.115 A 
ATOM     16  C   UNL     1      -5.230  10.908 -21.338  1.00  0.00     0.013 A 
ATOM     17  C   UNL     1      -6.390  10.749 -20.575  1.00  0.00     0.047 A 
BRANCH  15  18
ATOM     18  O   UNL     1      -8.777  10.323 -20.454  1.00  0.00    -0.508 OA
ATOM     19  H   UNL     1      -9.051  11.000 -19.751  1.00  0.00     0.293 HD
ENDBRANCH  15  18
ENDBRANCH   1  12
BRANCH  11  20
ATOM     20  C   UNL     1      -0.408  13.037 -26.463  1.00  0.00     0.188 C 
ATOM     21  C   UNL     1      -1.271  14.076 -25.708  1.00  0.00     0.179 C 
ATOM     22  O   UNL     1       0.967  13.379 -26.397  1.00  0.00    -0.362 OA
ATOM     23  C   UNL     1      -0.999  15.487 -26.275  1.00  0.00     0.177 C 
ATOM     24  C   UNL     1       1.223  14.595 -27.085  1.00  0.00     0.176 C 
ATOM     25  C   UNL     1       0.512  15.779 -26.383  1.00  0.00     0.177 C 
BRANCH  21  26
ATOM     26  O   UNL     1      -1.058  14.022 -24.317  1.00  0.00    -0.387 OA
ATOM     27  H   UNL     1      -0.179  13.593 -24.156  1.00  0.00     0.211 HD
ENDBRANCH  21  26
BRANCH  23  28
ATOM     28  O   UNL     1      -1.664  16.475 -25.527  1.00  0.00    -0.387 OA
ATOM     29  H   UNL     1      -2.620  16.470 -25.795  1.00  0.00     0.211 HD
ENDBRANCH  23  28
BRANCH  24  30
ATOM     30  C   UNL     1       2.742  14.815 -27.125  1.00  0.00     0.191 C 
BRANCH  30  31
ATOM     31  O   UNL     1       3.070  16.063 -26.576  1.00  0.00    -0.394 OA
ATOM     32  H   UNL     1       3.991  16.275 -26.882  1.00  0.00     0.210 HD
ENDBRANCH  30  31
ENDBRANCH  24  30
BRANCH  25  33
ATOM     33  O   UNL     1       0.691  16.960 -27.124  1.00  0.00    -0.388 OA
ATOM     34  H   UNL     1       1.654  17.021 -27.354  1.00  0.00     0.211 HD
ENDBRANCH  25  33
ENDBRANCH  11  20
BRANCH  10  35
ATOM     35  O   UNL     1       1.447  10.801 -26.858  1.00  0.00    -0.507 OA
ATOM     36  H   UNL     1       1.415  11.080 -27.832  1.00  0.00     0.293 HD
ENDBRANCH  10  35
TORSDOF 9
ENDMDL
