MODEL 1
REMARK VINA RESULT:    13.967      0.000      0.000
REMARK INTER + INTRA:          22.357
REMARK INTER:                  22.132
REMARK INTRA:                   0.225
REMARK UNBOUND:                 0.225
REMARK SMILES C[C@H]1O[C@@H](O[C@@H]2[C@@H](Oc3cc(O)c4c(c3)O[C@H](c3ccc(O)cc3)CC4=O)O[C@@H](CO)[C@@H](O)[C@H]2O)[C@@H](O)[C@H](O)[C@@H]1O
REMARK SMILES IDX 6 1 34 2 32 3 29 4 28 5 7 6 5 7 4 8 1 9 2 10 40 11 3 12
REMARK SMILES IDX 38 13 36 14 41 15 39 17 37 19 35 21 8 23 9 24 10 25 15 26
REMARK SMILES IDX 11 27 14 28 13 29 16 30 26 31 17 32 27 33 25 34 12 35 18 37
REMARK SMILES IDX 19 38 24 39 20 40 23 41 21 42 22 43 33 45 30 47 31 48
REMARK H PARENT 41 16 39 18 37 20 35 22 12 36 22 44 33 46 31 49
REMARK Flexibility Score: inf
ROOT
ATOM      1  C   UNL     1      19.543   6.932  -3.116  1.00  0.00     0.221 C 
ATOM      2  C   UNL     1      20.639   6.548  -2.061  1.00  0.00     0.181 C 
ATOM      3  C   UNL     1      22.010   6.281  -2.708  1.00  0.00     0.177 C 
ATOM      4  C   UNL     1      21.814   5.695  -4.123  1.00  0.00     0.179 C 
ATOM      5  O   UNL     1      21.298   6.689  -4.978  1.00  0.00    -0.332 OA
ATOM      6  C   UNL     1      20.011   7.165  -4.605  1.00  0.00     0.339 C 
ENDROOT
BRANCH   1   7
ATOM      7  O   UNL     1      18.274   6.276  -2.980  1.00  0.00    -0.337 OA
BRANCH   7   8
ATOM      8  C   UNL     1      18.151   5.053  -2.253  1.00  0.00     0.282 C 
ATOM      9  C   UNL     1      16.322   1.934  -2.700  1.00  0.00     0.041 C 
ATOM     10  C   UNL     1      17.085   3.014  -1.946  1.00  0.00     0.150 C 
ATOM     11  C   UNL     1      16.402   3.346  -0.591  1.00  0.00     0.174 C 
ATOM     12  O   UNL     1      17.143   4.182  -2.746  1.00  0.00    -0.344 OA
ATOM     13  C   UNL     1      16.708   4.804  -0.146  1.00  0.00     0.179 C 
ATOM     14  C   UNL     1      18.072   5.272  -0.702  1.00  0.00     0.202 C 
BRANCH  11  15
ATOM     15  O   UNL     1      16.782   2.402   0.382  1.00  0.00    -0.388 OA
ATOM     16  H   UNL     1      17.572   2.765   0.857  1.00  0.00     0.211 HD
ENDBRANCH  11  15
BRANCH  13  17
ATOM     17  O   UNL     1      16.694   4.898   1.257  1.00  0.00    -0.387 OA
ATOM     18  H   UNL     1      17.171   5.733   1.500  1.00  0.00     0.211 HD
ENDBRANCH  13  17
BRANCH  14  19
ATOM     19  O   UNL     1      18.305   6.618  -0.358  1.00  0.00    -0.385 OA
ATOM     20  H   UNL     1      18.871   7.022  -1.072  1.00  0.00     0.211 HD
ENDBRANCH  14  19
ENDBRANCH   7   8
ENDBRANCH   1   7
BRANCH   2  21
ATOM     21  O   UNL     1      20.783   7.570  -1.101  1.00  0.00    -0.387 OA
ATOM     22  H   UNL     1      20.577   8.426  -1.569  1.00  0.00     0.211 HD
ENDBRANCH   2  21
BRANCH   6  23
ATOM     23  O   UNL     1      19.952   8.571  -4.917  1.00  0.00    -0.462 OA
BRANCH  23  24
ATOM     24  C   UNL     1      20.293   9.061  -6.188  1.00  0.00     0.130 A 
ATOM     25  C   UNL     1      21.478   8.655  -6.810  1.00  0.00     0.093 A 
ATOM     26  C   UNL     1      19.477  10.001  -6.820  1.00  0.00     0.094 A 
ATOM     27  C   UNL     1      21.909   9.254  -8.002  1.00  0.00     0.133 A 
ATOM     28  C   UNL     1      19.944  10.691  -7.935  1.00  0.00     0.138 A 
ATOM     29  C   UNL     1      21.129  10.294  -8.590  1.00  0.00     0.102 A 
ATOM     30  O   UNL     1      19.263  11.835  -8.353  1.00  0.00    -0.484 OA
ATOM     31  C   UNL     1      21.475  11.030  -9.848  1.00  0.00     0.174 C 
ATOM     32  C   UNL     1      19.955  12.853  -9.063  1.00  0.00     0.211 C 
ATOM     33  O   UNL     1      22.382  10.626 -10.625  1.00  0.00    -0.294 OA
ATOM     34  C   UNL     1      20.650  12.228 -10.276  1.00  0.00     0.131 C 
BRANCH  27  35
ATOM     35  O   UNL     1      23.124   8.801  -8.531  1.00  0.00    -0.507 OA
ATOM     36  H   UNL     1      24.001   8.786  -8.041  1.00  0.00     0.293 HD
ENDBRANCH  27  35
BRANCH  32  37
ATOM     37  C   UNL     1      19.011  13.967  -9.461  1.00  0.00    -0.007 A 
ATOM     38  C   UNL     1      18.174  13.801 -10.577  1.00  0.00     0.011 A 
ATOM     39  C   UNL     1      18.967  15.182  -8.748  1.00  0.00     0.011 A 
ATOM     40  C   UNL     1      17.342  14.847 -10.998  1.00  0.00     0.046 A 
ATOM     41  C   UNL     1      18.134  16.230  -9.174  1.00  0.00     0.046 A 
ATOM     42  C   UNL     1      17.333  16.066 -10.311  1.00  0.00     0.115 A 
BRANCH  42  43
ATOM     43  O   UNL     1      16.522  17.105 -10.764  1.00  0.00    -0.508 OA
ATOM     44  H   UNL     1      16.547  17.407 -11.732  1.00  0.00     0.293 HD
ENDBRANCH  42  43
ENDBRANCH  32  37
ENDBRANCH  23  24
ENDBRANCH   6  23
BRANCH   3  45
ATOM     45  O   UNL     1      22.744   7.482  -2.765  1.00  0.00    -0.387 OA
ATOM     46  H   UNL     1      22.273   8.089  -3.391  1.00  0.00     0.211 HD
ENDBRANCH   3  45
BRANCH   4  47
ATOM     47  C   UNL     1      23.125   5.153  -4.724  1.00  0.00     0.191 C 
BRANCH  47  48
ATOM     48  O   UNL     1      22.848   4.086  -5.594  1.00  0.00    -0.394 OA
ATOM     49  H   UNL     1      23.437   3.340  -5.318  1.00  0.00     0.210 HD
ENDBRANCH  47  48
ENDBRANCH   4  47
TORSDOF 14
ENDMDL
MODEL 2
REMARK VINA RESULT:    14.301      0.790      1.649
REMARK INTER + INTRA:          22.886
REMARK INTER:                  22.661
REMARK INTRA:                   0.225
REMARK UNBOUND:                 0.225
REMARK SMILES C[C@H]1O[C@@H](O[C@@H]2[C@@H](Oc3cc(O)c4c(c3)O[C@H](c3ccc(O)cc3)CC4=O)O[C@@H](CO)[C@@H](O)[C@H]2O)[C@@H](O)[C@H](O)[C@@H]1O
REMARK SMILES IDX 6 1 34 2 32 3 29 4 28 5 7 6 5 7 4 8 1 9 2 10 40 11 3 12
REMARK SMILES IDX 38 13 36 14 41 15 39 17 37 19 35 21 8 23 9 24 10 25 15 26
REMARK SMILES IDX 11 27 14 28 13 29 16 30 26 31 17 32 27 33 25 34 12 35 18 37
REMARK SMILES IDX 19 38 24 39 20 40 23 41 21 42 22 43 33 45 30 47 31 48
REMARK H PARENT 41 16 39 18 37 20 35 22 12 36 22 44 33 46 31 49
REMARK Flexibility Score: inf
ROOT
ATOM      1  C   UNL     1      19.077   6.325  -3.405  1.00  0.00     0.221 C 
ATOM      2  C   UNL     1      19.990   6.016  -2.167  1.00  0.00     0.181 C 
ATOM      3  C   UNL     1      21.482   5.942  -2.541  1.00  0.00     0.177 C 
ATOM      4  C   UNL     1      21.632   5.409  -3.982  1.00  0.00     0.179 C 
ATOM      5  O   UNL     1      21.171   6.379  -4.894  1.00  0.00    -0.332 OA
ATOM      6  C   UNL     1      19.788   6.685  -4.767  1.00  0.00     0.339 C 
ENDROOT
BRANCH   1   7
ATOM      7  O   UNL     1      17.895   5.522  -3.537  1.00  0.00    -0.337 OA
BRANCH   7   8
ATOM      8  C   UNL     1      17.203   5.034  -2.387  1.00  0.00     0.282 C 
ATOM      9  C   UNL     1      17.379   5.631   1.202  1.00  0.00     0.041 C 
ATOM     10  C   UNL     1      17.031   4.883  -0.077  1.00  0.00     0.150 C 
ATOM     11  C   UNL     1      17.350   3.368   0.050  1.00  0.00     0.174 C 
ATOM     12  O   UNL     1      17.774   5.435  -1.150  1.00  0.00    -0.344 OA
ATOM     13  C   UNL     1      17.652   2.737  -1.339  1.00  0.00     0.179 C 
ATOM     14  C   UNL     1      16.909   3.495  -2.460  1.00  0.00     0.202 C 
BRANCH  11  15
ATOM     15  O   UNL     1      16.299   2.711   0.716  1.00  0.00    -0.388 OA
ATOM     16  H   UNL     1      15.997   1.967   0.135  1.00  0.00     0.211 HD
ENDBRANCH  11  15
BRANCH  13  17
ATOM     17  O   UNL     1      17.290   1.377  -1.344  1.00  0.00    -0.387 OA
ATOM     18  H   UNL     1      17.533   1.012  -2.234  1.00  0.00     0.211 HD
ENDBRANCH  13  17
BRANCH  14  19
ATOM     19  O   UNL     1      17.249   2.964  -3.720  1.00  0.00    -0.385 OA
ATOM     20  H   UNL     1      18.243   2.927  -3.777  1.00  0.00     0.211 HD
ENDBRANCH  14  19
ENDBRANCH   7   8
ENDBRANCH   1   7
BRANCH   2  21
ATOM     21  O   UNL     1      19.823   6.999  -1.170  1.00  0.00    -0.387 OA
ATOM     22  H   UNL     1      19.715   7.867  -1.647  1.00  0.00     0.211 HD
ENDBRANCH   2  21
BRANCH   6  23
ATOM     23  O   UNL     1      19.618   8.089  -5.046  1.00  0.00    -0.462 OA
BRANCH  23  24
ATOM     24  C   UNL     1      20.065   8.663  -6.247  1.00  0.00     0.130 A 
ATOM     25  C   UNL     1      21.319   8.330  -6.769  1.00  0.00     0.093 A 
ATOM     26  C   UNL     1      19.283   9.615  -6.903  1.00  0.00     0.094 A 
ATOM     27  C   UNL     1      21.843   9.010  -7.876  1.00  0.00     0.133 A 
ATOM     28  C   UNL     1      19.833  10.383  -7.926  1.00  0.00     0.138 A 
ATOM     29  C   UNL     1      21.089  10.060  -8.480  1.00  0.00     0.102 A 
ATOM     30  O   UNL     1      19.157  11.530  -8.345  1.00  0.00    -0.484 OA
ATOM     31  C   UNL     1      21.531  10.880  -9.654  1.00  0.00     0.174 C 
ATOM     32  C   UNL     1      19.879  12.608  -8.924  1.00  0.00     0.211 C 
ATOM     33  O   UNL     1      22.524  10.548 -10.357  1.00  0.00    -0.294 OA
ATOM     34  C   UNL     1      20.711  12.076 -10.094  1.00  0.00     0.131 C 
BRANCH  27  35
ATOM     35  O   UNL     1      23.120   8.625  -8.305  1.00  0.00    -0.507 OA
ATOM     36  H   UNL     1      23.983   8.870  -7.854  1.00  0.00     0.293 HD
ENDBRANCH  27  35
BRANCH  32  37
ATOM     37  C   UNL     1      18.941  13.716  -9.350  1.00  0.00    -0.007 A 
ATOM     38  C   UNL     1      18.048  13.497 -10.412  1.00  0.00     0.011 A 
ATOM     39  C   UNL     1      18.957  14.976  -8.719  1.00  0.00     0.011 A 
ATOM     40  C   UNL     1      17.219  14.533 -10.863  1.00  0.00     0.046 A 
ATOM     41  C   UNL     1      18.127  16.013  -9.175  1.00  0.00     0.046 A 
ATOM     42  C   UNL     1      17.268  15.794 -10.260  1.00  0.00     0.115 A 
BRANCH  42  43
ATOM     43  O   UNL     1      16.458  16.821 -10.743  1.00  0.00    -0.508 OA
ATOM     44  H   UNL     1      16.357  16.986 -11.739  1.00  0.00     0.293 HD
ENDBRANCH  42  43
ENDBRANCH  32  37
ENDBRANCH  23  24
ENDBRANCH   6  23
BRANCH   3  45
ATOM     45  O   UNL     1      22.061   7.220  -2.421  1.00  0.00    -0.387 OA
ATOM     46  H   UNL     1      22.679   7.195  -1.646  1.00  0.00     0.211 HD
ENDBRANCH   3  45
BRANCH   4  47
ATOM     47  C   UNL     1      23.090   5.052  -4.331  1.00  0.00     0.191 C 
BRANCH  47  48
ATOM     48  O   UNL     1      23.123   4.231  -5.469  1.00  0.00    -0.394 OA
ATOM     49  H   UNL     1      23.329   4.823  -6.235  1.00  0.00     0.210 HD
ENDBRANCH  47  48
ENDBRANCH   4  47
TORSDOF 14
ENDMDL
MODEL 3
REMARK VINA RESULT:    14.599      1.717     10.736
REMARK INTER + INTRA:          23.358
REMARK INTER:                  23.057
REMARK INTRA:                   0.301
REMARK UNBOUND:                 0.225
REMARK SMILES C[C@H]1O[C@@H](O[C@@H]2[C@@H](Oc3cc(O)c4c(c3)O[C@H](c3ccc(O)cc3)CC4=O)O[C@@H](CO)[C@@H](O)[C@H]2O)[C@@H](O)[C@H](O)[C@@H]1O
REMARK SMILES IDX 6 1 34 2 32 3 29 4 28 5 7 6 5 7 4 8 1 9 2 10 40 11 3 12
REMARK SMILES IDX 38 13 36 14 41 15 39 17 37 19 35 21 8 23 9 24 10 25 15 26
REMARK SMILES IDX 11 27 14 28 13 29 16 30 26 31 17 32 27 33 25 34 12 35 18 37
REMARK SMILES IDX 19 38 24 39 20 40 23 41 21 42 22 43 33 45 30 47 31 48
REMARK H PARENT 41 16 39 18 37 20 35 22 12 36 22 44 33 46 31 49
REMARK Flexibility Score: inf
ROOT
ATOM      1  C   UNL     1      19.115  11.650  -7.750  1.00  0.00     0.221 C 
ATOM      2  C   UNL     1      18.994  10.675  -8.974  1.00  0.00     0.181 C 
ATOM      3  C   UNL     1      20.316   9.945  -9.277  1.00  0.00     0.177 C 
ATOM      4  C   UNL     1      21.509  10.851  -8.905  1.00  0.00     0.179 C 
ATOM      5  O   UNL     1      21.584  10.981  -7.504  1.00  0.00    -0.332 OA
ATOM      6  C   UNL     1      20.455  11.616  -6.918  1.00  0.00     0.339 C 
ENDROOT
BRANCH   1   7
ATOM      7  O   UNL     1      18.545  12.955  -7.921  1.00  0.00    -0.337 OA
BRANCH   7   8
ATOM      8  C   UNL     1      19.131  13.904  -8.814  1.00  0.00     0.282 C 
ATOM      9  C   UNL     1      21.146  16.917  -8.453  1.00  0.00     0.041 C 
ATOM     10  C   UNL     1      20.214  15.930  -9.143  1.00  0.00     0.150 C 
ATOM     11  C   UNL     1      19.053  16.664  -9.868  1.00  0.00     0.174 C 
ATOM     12  O   UNL     1      19.682  15.045  -8.173  1.00  0.00    -0.344 OA
ATOM     13  C   UNL     1      17.794  15.757  -9.979  1.00  0.00     0.179 C 
ATOM     14  C   UNL     1      18.194  14.265 -10.019  1.00  0.00     0.202 C 
BRANCH  11  15
ATOM     15  O   UNL     1      19.488  17.125 -11.124  1.00  0.00    -0.388 OA
ATOM     16  H   UNL     1      20.295  16.605 -11.370  1.00  0.00     0.211 HD
ENDBRANCH  11  15
BRANCH  13  17
ATOM     17  O   UNL     1      17.050  16.095 -11.124  1.00  0.00    -0.387 OA
ATOM     18  H   UNL     1      17.378  16.977 -11.438  1.00  0.00     0.211 HD
ENDBRANCH  13  17
BRANCH  14  19
ATOM     19  O   UNL     1      17.045  13.451 -10.041  1.00  0.00    -0.385 OA
ATOM     20  H   UNL     1      16.635  13.475  -9.133  1.00  0.00     0.211 HD
ENDBRANCH  14  19
ENDBRANCH   7   8
ENDBRANCH   1   7
BRANCH   2  21
ATOM     21  O   UNL     1      17.989   9.712  -8.744  1.00  0.00    -0.387 OA
ATOM     22  H   UNL     1      18.181   8.953  -9.360  1.00  0.00     0.211 HD
ENDBRANCH   2  21
BRANCH   6  23
ATOM     23  O   UNL     1      20.215  10.998  -5.638  1.00  0.00    -0.462 OA
BRANCH  23  24
ATOM     24  C   UNL     1      20.753   9.742  -5.310  1.00  0.00     0.130 A 
ATOM     25  C   UNL     1      21.733   9.158  -6.120  1.00  0.00     0.093 A 
ATOM     26  C   UNL     1      20.275   9.042  -4.202  1.00  0.00     0.094 A 
ATOM     27  C   UNL     1      22.162   7.843  -5.896  1.00  0.00     0.133 A 
ATOM     28  C   UNL     1      20.598   7.698  -4.036  1.00  0.00     0.138 A 
ATOM     29  C   UNL     1      21.592   7.087  -4.829  1.00  0.00     0.102 A 
ATOM     30  O   UNL     1      19.866   6.938  -3.122  1.00  0.00    -0.484 OA
ATOM     31  C   UNL     1      21.943   5.671  -4.485  1.00  0.00     0.174 C 
ATOM     32  C   UNL     1      19.745   5.533  -3.304  1.00  0.00     0.211 C 
ATOM     33  O   UNL     1      22.954   5.101  -4.978  1.00  0.00    -0.294 OA
ATOM     34  C   UNL     1      21.145   4.927  -3.434  1.00  0.00     0.131 C 
BRANCH  27  35
ATOM     35  O   UNL     1      23.125   7.336  -6.779  1.00  0.00    -0.507 OA
ATOM     36  H   UNL     1      23.056   7.347  -7.781  1.00  0.00     0.293 HD
ENDBRANCH  27  35
BRANCH  32  37
ATOM     37  C   UNL     1      18.958   4.911  -2.170  1.00  0.00    -0.007 A 
ATOM     38  C   UNL     1      19.555   4.774  -0.906  1.00  0.00     0.011 A 
ATOM     39  C   UNL     1      17.643   4.443  -2.360  1.00  0.00     0.011 A 
ATOM     40  C   UNL     1      18.866   4.141   0.136  1.00  0.00     0.046 A 
ATOM     41  C   UNL     1      16.955   3.805  -1.313  1.00  0.00     0.046 A 
ATOM     42  C   UNL     1      17.575   3.641  -0.069  1.00  0.00     0.115 A 
BRANCH  42  43
ATOM     43  O   UNL     1      16.918   2.986   0.971  1.00  0.00    -0.508 OA
ATOM     44  H   UNL     1      16.956   3.338   1.922  1.00  0.00     0.293 HD
ENDBRANCH  42  43
ENDBRANCH  32  37
ENDBRANCH  23  24
ENDBRANCH   6  23
BRANCH   3  45
ATOM     45  O   UNL     1      20.363   8.738  -8.551  1.00  0.00    -0.387 OA
ATOM     46  H   UNL     1      19.586   8.191  -8.834  1.00  0.00     0.211 HD
ENDBRANCH   3  45
BRANCH   4  47
ATOM     47  C   UNL     1      22.851  10.304  -9.427  1.00  0.00     0.191 C 
BRANCH  47  48
ATOM     48  O   UNL     1      22.656   9.057 -10.039  1.00  0.00    -0.394 OA
ATOM     49  H   UNL     1      23.515   8.818 -10.470  1.00  0.00     0.210 HD
ENDBRANCH  47  48
ENDBRANCH   4  47
TORSDOF 14
ENDMDL
