MODEL 1
REMARK VINA RESULT:    -4.681      0.000      0.000
REMARK INTER + INTRA:          -6.023
REMARK INTER:                  -5.776
REMARK INTRA:                  -0.248
REMARK UNBOUND:                -0.248
REMARK SMILES C=CC[C@@H](C)C(=O)CC
REMARK SMILES IDX 4 1 5 2 6 3 7 4 8 5 9 6 3 7 2 8 1 9
REMARK H PARENT
REMARK Flexibility Score: inf
ROOT
ATOM      1  C   UNL     1      17.296  16.068  30.061  1.00  0.00     0.057 C 
ATOM      2  C   UNL     1      18.726  16.617  30.093  1.00  0.00     0.016 C 
ENDROOT
BRANCH   1   3
ATOM      3  C   UNL     1      17.284  14.633  30.549  1.00  0.00     0.135 C 
ATOM      4  O   UNL     1      16.391  13.878  30.190  1.00  0.00    -0.299 OA
BRANCH   3   5
ATOM      5  C   UNL     1      18.343  14.121  31.489  1.00  0.00     0.072 C 
ATOM      6  C   UNL     1      17.923  14.313  32.943  1.00  0.00     0.012 C 
ENDBRANCH   3   5
ENDBRANCH   1   3
BRANCH   1   7
ATOM      7  C   UNL     1      16.357  16.955  30.903  1.00  0.00     0.038 C 
BRANCH   7   8
ATOM      8  C   UNL     1      16.446  18.399  30.484  1.00  0.00    -0.034 C 
ATOM      9  C   UNL     1      15.594  18.932  29.604  1.00  0.00     0.004 C 
ENDBRANCH   7   8
ENDBRANCH   1   7
TORSDOF 4
ENDMDL
MODEL 2
REMARK VINA RESULT:    -4.319      1.756      4.257
REMARK INTER + INTRA:          -5.576
REMARK INTER:                  -5.451
REMARK INTRA:                  -0.125
REMARK UNBOUND:                -0.248
REMARK SMILES C=CC[C@@H](C)C(=O)CC
REMARK SMILES IDX 4 1 5 2 6 3 7 4 8 5 9 6 3 7 2 8 1 9
REMARK H PARENT
REMARK Flexibility Score: inf
ROOT
ATOM      1  C   UNL     1      16.439  16.031  31.324  1.00  0.00     0.057 C 
ATOM      2  C   UNL     1      17.131  15.977  32.690  1.00  0.00     0.016 C 
ENDROOT
BRANCH   1   3
ATOM      3  C   UNL     1      16.936  17.231  30.543  1.00  0.00     0.135 C 
ATOM      4  O   UNL     1      18.135  17.470  30.498  1.00  0.00    -0.299 OA
BRANCH   3   5
ATOM      5  C   UNL     1      15.978  18.153  29.836  1.00  0.00     0.072 C 
ATOM      6  C   UNL     1      16.000  19.546  30.458  1.00  0.00     0.012 C 
ENDBRANCH   3   5
ENDBRANCH   1   3
BRANCH   1   7
ATOM      7  C   UNL     1      16.671  14.720  30.547  1.00  0.00     0.038 C 
BRANCH   7   8
ATOM      8  C   UNL     1      17.739  13.880  31.197  1.00  0.00    -0.034 C 
ATOM      9  C   UNL     1      19.000  13.875  30.755  1.00  0.00     0.004 C 
ENDBRANCH   7   8
ENDBRANCH   1   7
TORSDOF 4
ENDMDL
MODEL 3
REMARK VINA RESULT:    -4.184      0.999      3.900
REMARK INTER + INTRA:          -5.410
REMARK INTER:                  -5.180
REMARK INTRA:                  -0.230
REMARK UNBOUND:                -0.248
REMARK SMILES C=CC[C@@H](C)C(=O)CC
REMARK SMILES IDX 4 1 5 2 6 3 7 4 8 5 9 6 3 7 2 8 1 9
REMARK H PARENT
REMARK Flexibility Score: inf
ROOT
ATOM      1  C   UNL     1      18.235  16.007  30.627  1.00  0.00     0.057 C 
ATOM      2  C   UNL     1      19.391  16.495  29.749  1.00  0.00     0.016 C 
ENDROOT
BRANCH   1   3
ATOM      3  C   UNL     1      16.957  16.724  30.242  1.00  0.00     0.135 C 
ATOM      4  O   UNL     1      16.064  16.110  29.675  1.00  0.00    -0.299 OA
BRANCH   3   5
ATOM      5  C   UNL     1      16.772  18.192  30.523  1.00  0.00     0.072 C 
ATOM      6  C   UNL     1      15.623  18.766  29.701  1.00  0.00     0.012 C 
ENDBRANCH   3   5
ENDBRANCH   1   3
BRANCH   1   7
ATOM      7  C   UNL     1      18.077  14.477  30.512  1.00  0.00     0.038 C 
BRANCH   7   8
ATOM      8  C   UNL     1      17.611  13.875  31.811  1.00  0.00    -0.034 C 
ATOM      9  C   UNL     1      17.871  14.448  32.989  1.00  0.00     0.004 C 
ENDBRANCH   7   8
ENDBRANCH   1   7
TORSDOF 4
ENDMDL
MODEL 4
REMARK VINA RESULT:    -3.405      9.567     10.524
REMARK INTER + INTRA:          -4.449
REMARK INTER:                  -4.100
REMARK INTRA:                  -0.348
REMARK UNBOUND:                -0.248
REMARK SMILES C=CC[C@@H](C)C(=O)CC
REMARK SMILES IDX 4 1 5 2 6 3 7 4 8 5 9 6 3 7 2 8 1 9
REMARK H PARENT
REMARK Flexibility Score: inf
ROOT
ATOM      1  C   UNL     1      18.659  26.128  27.689  1.00  0.00     0.057 C 
ATOM      2  C   UNL     1      18.440  27.625  27.444  1.00  0.00     0.016 C 
ENDROOT
BRANCH   1   3
ATOM      3  C   UNL     1      20.001  25.907  28.356  1.00  0.00     0.135 C 
ATOM      4  O   UNL     1      20.361  26.652  29.256  1.00  0.00    -0.299 OA
BRANCH   3   5
ATOM      5  C   UNL     1      20.917  24.795  27.915  1.00  0.00     0.072 C 
ATOM      6  C   UNL     1      20.335  24.048  26.720  1.00  0.00     0.012 C 
ENDBRANCH   3   5
ENDBRANCH   1   3
BRANCH   1   7
ATOM      7  C   UNL     1      17.509  25.545  28.534  1.00  0.00     0.038 C 
BRANCH   7   8
ATOM      8  C   UNL     1      16.327  25.183  27.674  1.00  0.00    -0.034 C 
ATOM      9  C   UNL     1      16.277  24.038  26.987  1.00  0.00     0.004 C 
ENDBRANCH   7   8
ENDBRANCH   1   7
TORSDOF 4
ENDMDL
MODEL 5
REMARK VINA RESULT:    -3.354     10.433     11.528
REMARK INTER + INTRA:          -4.386
REMARK INTER:                  -3.923
REMARK INTRA:                  -0.462
REMARK UNBOUND:                -0.248
REMARK SMILES C=CC[C@@H](C)C(=O)CC
REMARK SMILES IDX 4 1 5 2 6 3 7 4 8 5 9 6 3 7 2 8 1 9
REMARK H PARENT
REMARK Flexibility Score: inf
ROOT
ATOM      1  C   UNL     1      20.544  25.134  28.470  1.00  0.00     0.057 C 
ATOM      2  C   UNL     1      20.667  24.711  27.002  1.00  0.00     0.016 C 
ENDROOT
BRANCH   1   3
ATOM      3  C   UNL     1      21.685  26.061  28.836  1.00  0.00     0.135 C 
ATOM      4  O   UNL     1      22.834  25.747  28.555  1.00  0.00    -0.299 OA
BRANCH   3   5
ATOM      5  C   UNL     1      21.436  27.356  29.562  1.00  0.00     0.072 C 
ATOM      6  C   UNL     1      21.830  28.551  28.700  1.00  0.00     0.012 C 
ENDBRANCH   3   5
ENDBRANCH   1   3
BRANCH   1   7
ATOM      7  C   UNL     1      19.176  25.799  28.727  1.00  0.00     0.038 C 
BRANCH   7   8
ATOM      8  C   UNL     1      18.646  26.460  27.482  1.00  0.00    -0.034 C 
ATOM      9  C   UNL     1      18.320  27.755  27.454  1.00  0.00     0.004 C 
ENDBRANCH   7   8
ENDBRANCH   1   7
TORSDOF 4
ENDMDL
MODEL 6
REMARK VINA RESULT:    -3.349     10.415     11.933
REMARK INTER + INTRA:          -4.380
REMARK INTER:                  -3.933
REMARK INTRA:                  -0.447
REMARK UNBOUND:                -0.248
REMARK SMILES C=CC[C@@H](C)C(=O)CC
REMARK SMILES IDX 4 1 5 2 6 3 7 4 8 5 9 6 3 7 2 8 1 9
REMARK H PARENT
REMARK Flexibility Score: inf
ROOT
ATOM      1  C   UNL     1      21.406  26.564  29.251  1.00  0.00     0.057 C 
ATOM      2  C   UNL     1      22.733  26.827  28.532  1.00  0.00     0.016 C 
ENDROOT
BRANCH   1   3
ATOM      3  C   UNL     1      20.390  27.617  28.857  1.00  0.00     0.135 C 
ATOM      4  O   UNL     1      20.766  28.744  28.566  1.00  0.00    -0.299 OA
BRANCH   3   5
ATOM      5  C   UNL     1      18.916  27.309  28.838  1.00  0.00     0.072 C 
ATOM      6  C   UNL     1      18.326  27.543  27.451  1.00  0.00     0.012 C 
ENDBRANCH   3   5
ENDBRANCH   1   3
BRANCH   1   7
ATOM      7  C   UNL     1      20.894  25.144  28.939  1.00  0.00     0.038 C 
BRANCH   7   8
ATOM      8  C   UNL     1      21.251  24.729  27.537  1.00  0.00    -0.034 C 
ATOM      9  C   UNL     1      20.398  24.054  26.761  1.00  0.00     0.004 C 
ENDBRANCH   7   8
ENDBRANCH   1   7
TORSDOF 4
ENDMDL
MODEL 7
REMARK VINA RESULT:    -3.345      9.687     11.187
REMARK INTER + INTRA:          -4.375
REMARK INTER:                  -3.957
REMARK INTRA:                  -0.418
REMARK UNBOUND:                -0.248
REMARK SMILES C=CC[C@@H](C)C(=O)CC
REMARK SMILES IDX 4 1 5 2 6 3 7 4 8 5 9 6 3 7 2 8 1 9
REMARK H PARENT
REMARK Flexibility Score: inf
ROOT
ATOM      1  C   UNL     1      20.189  25.261  27.478  1.00  0.00     0.057 C 
ATOM      2  C   UNL     1      20.207  23.935  26.711  1.00  0.00     0.016 C 
ENDROOT
BRANCH   1   3
ATOM      3  C   UNL     1      18.760  25.648  27.804  1.00  0.00     0.135 C 
ATOM      4  O   UNL     1      17.839  24.935  27.430  1.00  0.00    -0.299 OA
BRANCH   3   5
ATOM      5  C   UNL     1      18.448  26.911  28.562  1.00  0.00     0.072 C 
ATOM      6  C   UNL     1      18.633  28.140  27.678  1.00  0.00     0.012 C 
ENDBRANCH   3   5
ENDBRANCH   1   3
BRANCH   1   7
ATOM      7  C   UNL     1      21.049  25.160  28.753  1.00  0.00     0.038 C 
BRANCH   7   8
ATOM      8  C   UNL     1      22.336  25.929  28.609  1.00  0.00    -0.034 C 
ATOM      9  C   UNL     1      22.361  27.264  28.577  1.00  0.00     0.004 C 
ENDBRANCH   7   8
ENDBRANCH   1   7
TORSDOF 4
ENDMDL
MODEL 8
REMARK VINA RESULT:    -3.304     10.324     11.999
REMARK INTER + INTRA:          -4.325
REMARK INTER:                  -3.921
REMARK INTRA:                  -0.404
REMARK UNBOUND:                -0.248
REMARK SMILES C=CC[C@@H](C)C(=O)CC
REMARK SMILES IDX 4 1 5 2 6 3 7 4 8 5 9 6 3 7 2 8 1 9
REMARK H PARENT
REMARK Flexibility Score: inf
ROOT
ATOM      1  C   UNL     1      20.273  27.299  29.417  1.00  0.00     0.057 C 
ATOM      2  C   UNL     1      19.522  28.074  28.329  1.00  0.00     0.016 C 
ENDROOT
BRANCH   1   3
ATOM      3  C   UNL     1      20.550  25.886  28.944  1.00  0.00     0.135 C 
ATOM      4  O   UNL     1      21.356  25.192  29.548  1.00  0.00    -0.299 OA
BRANCH   3   5
ATOM      5  C   UNL     1      19.869  25.325  27.724  1.00  0.00     0.072 C 
ATOM      6  C   UNL     1      20.852  24.543  26.859  1.00  0.00     0.012 C 
ENDBRANCH   3   5
ENDBRANCH   1   3
BRANCH   1   7
ATOM      7  C   UNL     1      21.575  28.030  29.799  1.00  0.00     0.038 C 
BRANCH   7   8
ATOM      8  C   UNL     1      22.250  28.617  28.588  1.00  0.00    -0.034 C 
ATOM      9  C   UNL     1      23.387  28.114  28.098  1.00  0.00     0.004 C 
ENDBRANCH   7   8
ENDBRANCH   1   7
TORSDOF 4
ENDMDL
MODEL 9
REMARK VINA RESULT:    -3.271     11.806     13.228
REMARK INTER + INTRA:          -4.283
REMARK INTER:                  -4.110
REMARK INTRA:                  -0.173
REMARK UNBOUND:                -0.248
REMARK SMILES C=CC[C@@H](C)C(=O)CC
REMARK SMILES IDX 4 1 5 2 6 3 7 4 8 5 9 6 3 7 2 8 1 9
REMARK H PARENT
REMARK Flexibility Score: inf
ROOT
ATOM      1  C   UNL     1      22.500  27.269  28.284  1.00  0.00     0.057 C 
ATOM      2  C   UNL     1      21.976  28.100  29.460  1.00  0.00     0.016 C 
ENDROOT
BRANCH   1   3
ATOM      3  C   UNL     1      23.912  27.696  27.940  1.00  0.00     0.135 C 
ATOM      4  O   UNL     1      24.188  28.012  26.791  1.00  0.00    -0.299 OA
BRANCH   3   5
ATOM      5  C   UNL     1      24.996  27.718  28.986  1.00  0.00     0.072 C 
ATOM      6  C   UNL     1      25.510  29.136  29.211  1.00  0.00     0.012 C 
ENDBRANCH   3   5
ENDBRANCH   1   3
BRANCH   1   7
ATOM      7  C   UNL     1      22.432  25.764  28.613  1.00  0.00     0.038 C 
BRANCH   7   8
ATOM      8  C   UNL     1      21.086  25.187  28.263  1.00  0.00    -0.034 C 
ATOM      9  C   UNL     1      20.910  24.403  27.196  1.00  0.00     0.004 C 
ENDBRANCH   7   8
ENDBRANCH   1   7
TORSDOF 4
ENDMDL
