MODEL 1
REMARK VINA RESULT:    -6.637      0.000      0.000
REMARK INTER + INTRA:          -9.933
REMARK INTER:                  -8.965
REMARK INTRA:                  -0.968
REMARK UNBOUND:                -0.968
REMARK SMILES O=c1c(-c2ccc(O)cc2)coc2c([C@H]3O[C@@H](CO)[C@@H](O)[C@@H](O)[C@H]3O)c(O)ccc12
REMARK SMILES IDX 3 1 11 2 12 3 13 4 30 5 2 6 1 7 29 8 28 9 26 10 14 11 4 12
REMARK SMILES IDX 5 13 6 14 7 15 10 16 9 17 8 18 15 20 24 21 16 22 22 23 17 24
REMARK SMILES IDX 20 25 25 26 23 28 18 30 19 31 21 33 27 35
REMARK H PARENT 8 19 25 27 23 29 19 32 21 34 27 36
REMARK Flexibility Score: inf
ROOT
ATOM      1  C   UNL     1     -19.942  32.030  -3.332  1.00  0.00     0.065 A 
ATOM      2  C   UNL     1     -19.968  32.281  -4.712  1.00  0.00     0.208 A 
ATOM      3  O   UNL     1     -18.955  31.929  -5.488  1.00  0.00    -0.463 OA
ATOM      4  C   UNL     1     -17.874  31.307  -5.032  1.00  0.00     0.147 A 
ATOM      5  C   UNL     1     -17.756  31.038  -3.648  1.00  0.00     0.066 A 
ATOM      6  C   UNL     1     -18.801  31.415  -2.794  1.00  0.00     0.200 A 
ATOM      7  O   UNL     1     -18.710  31.210  -1.551  1.00  0.00    -0.288 OA
ATOM      8  C   UNL     1     -16.611  30.380  -3.162  1.00  0.00     0.020 A 
ATOM      9  C   UNL     1     -15.614  29.965  -4.039  1.00  0.00     0.047 A 
ATOM     10  C   UNL     1     -15.730  30.210  -5.412  1.00  0.00     0.125 A 
ATOM     11  C   UNL     1     -16.856  30.891  -5.927  1.00  0.00     0.069 A 
ENDROOT
BRANCH   1  12
ATOM     12  C   UNL     1     -21.108  32.414  -2.485  1.00  0.00    -0.011 A 
ATOM     13  C   UNL     1     -21.323  33.761  -2.124  1.00  0.00     0.013 A 
ATOM     14  C   UNL     1     -22.439  34.120  -1.357  1.00  0.00     0.047 A 
ATOM     15  C   UNL     1     -23.352  33.141  -0.952  1.00  0.00     0.115 A 
ATOM     16  C   UNL     1     -22.033  31.441  -2.060  1.00  0.00     0.013 A 
ATOM     17  C   UNL     1     -23.143  31.803  -1.293  1.00  0.00     0.047 A 
BRANCH  15  18
ATOM     18  O   UNL     1     -24.465  33.502  -0.227  1.00  0.00    -0.508 OA
ATOM     19  H   UNL     1     -25.316  33.816  -0.677  1.00  0.00     0.293 HD
ENDBRANCH  15  18
ENDBRANCH   1  12
BRANCH  11  20
ATOM     20  C   UNL     1     -16.878  31.226  -7.416  1.00  0.00     0.188 C 
ATOM     21  C   UNL     1     -17.364  30.012  -8.263  1.00  0.00     0.179 C 
ATOM     22  O   UNL     1     -15.614  31.670  -7.888  1.00  0.00    -0.362 OA
ATOM     23  C   UNL     1     -16.873  30.104  -9.732  1.00  0.00     0.177 C 
ATOM     24  C   UNL     1     -15.728  32.324  -9.151  1.00  0.00     0.176 C 
ATOM     25  C   UNL     1     -16.709  31.582 -10.135  1.00  0.00     0.177 C 
BRANCH  21  26
ATOM     26  O   UNL     1     -17.010  28.777  -7.688  1.00  0.00    -0.387 OA
ATOM     27  H   UNL     1     -17.505  28.064  -8.172  1.00  0.00     0.211 HD
ENDBRANCH  21  26
BRANCH  23  28
ATOM     28  O   UNL     1     -15.643  29.440  -9.902  1.00  0.00    -0.387 OA
ATOM     29  H   UNL     1     -15.700  28.586  -9.411  1.00  0.00     0.211 HD
ENDBRANCH  23  28
BRANCH  24  30
ATOM     30  C   UNL     1     -14.303  32.484  -9.721  1.00  0.00     0.191 C 
BRANCH  30  31
ATOM     31  O   UNL     1     -14.234  33.586 -10.586  1.00  0.00    -0.394 OA
ATOM     32  H   UNL     1     -13.730  33.292 -11.385  1.00  0.00     0.210 HD
ENDBRANCH  30  31
ENDBRANCH  24  30
BRANCH  25  33
ATOM     33  O   UNL     1     -16.280  31.670 -11.471  1.00  0.00    -0.388 OA
ATOM     34  H   UNL     1     -16.276  30.743 -11.838  1.00  0.00     0.211 HD
ENDBRANCH  25  33
ENDBRANCH  11  20
BRANCH  10  35
ATOM     35  O   UNL     1     -14.728  29.765  -6.269  1.00  0.00    -0.507 OA
ATOM     36  H   UNL     1     -13.745  29.768  -5.992  1.00  0.00     0.293 HD
ENDBRANCH  10  35
TORSDOF 9
ENDMDL
MODEL 2
REMARK VINA RESULT:    -6.616      1.453      2.476
REMARK INTER + INTRA:          -9.905
REMARK INTER:                  -9.029
REMARK INTRA:                  -0.875
REMARK UNBOUND:                -0.968
REMARK SMILES O=c1c(-c2ccc(O)cc2)coc2c([C@H]3O[C@@H](CO)[C@@H](O)[C@@H](O)[C@H]3O)c(O)ccc12
REMARK SMILES IDX 3 1 11 2 12 3 13 4 30 5 2 6 1 7 29 8 28 9 26 10 14 11 4 12
REMARK SMILES IDX 5 13 6 14 7 15 10 16 9 17 8 18 15 20 24 21 16 22 22 23 17 24
REMARK SMILES IDX 20 25 25 26 23 28 18 30 19 31 21 33 27 35
REMARK H PARENT 8 19 25 27 23 29 19 32 21 34 27 36
REMARK Flexibility Score: inf
ROOT
ATOM      1  C   UNL     1     -19.869  31.632  -3.597  1.00  0.00     0.065 A 
ATOM      2  C   UNL     1     -20.065  31.430  -4.971  1.00  0.00     0.208 A 
ATOM      3  O   UNL     1     -19.072  31.028  -5.748  1.00  0.00    -0.463 OA
ATOM      4  C   UNL     1     -17.851  30.772  -5.294  1.00  0.00     0.147 A 
ATOM      5  C   UNL     1     -17.561  30.974  -3.923  1.00  0.00     0.066 A 
ATOM      6  C   UNL     1     -18.584  31.418  -3.074  1.00  0.00     0.200 A 
ATOM      7  O   UNL     1     -18.345  31.632  -1.853  1.00  0.00    -0.288 OA
ATOM      8  C   UNL     1     -16.269  30.705  -3.438  1.00  0.00     0.020 A 
ATOM      9  C   UNL     1     -15.287  30.210  -4.291  1.00  0.00     0.047 A 
ATOM     10  C   UNL     1     -15.569  29.988  -5.644  1.00  0.00     0.125 A 
ATOM     11  C   UNL     1     -16.850  30.274  -6.167  1.00  0.00     0.069 A 
ENDROOT
BRANCH   1  12
ATOM     12  C   UNL     1     -21.010  32.060  -2.738  1.00  0.00    -0.011 A 
ATOM     13  C   UNL     1     -21.190  33.418  -2.403  1.00  0.00     0.013 A 
ATOM     14  C   UNL     1     -22.284  33.819  -1.625  1.00  0.00     0.047 A 
ATOM     15  C   UNL     1     -23.211  32.870  -1.183  1.00  0.00     0.115 A 
ATOM     16  C   UNL     1     -21.950  31.117  -2.276  1.00  0.00     0.013 A 
ATOM     17  C   UNL     1     -23.038  31.520  -1.498  1.00  0.00     0.047 A 
BRANCH  15  18
ATOM     18  O   UNL     1     -24.302  33.271  -0.447  1.00  0.00    -0.508 OA
ATOM     19  H   UNL     1     -24.731  34.178  -0.581  1.00  0.00     0.293 HD
ENDBRANCH  15  18
ENDBRANCH   1  12
BRANCH  11  20
ATOM     20  C   UNL     1     -17.070  30.116  -7.669  1.00  0.00     0.188 C 
ATOM     21  C   UNL     1     -16.880  31.470  -8.415  1.00  0.00     0.179 C 
ATOM     22  O   UNL     1     -18.346  29.570  -7.972  1.00  0.00    -0.362 OA
ATOM     23  C   UNL     1     -17.623  31.483  -9.778  1.00  0.00     0.177 C 
ATOM     24  C   UNL     1     -18.401  29.084  -9.312  1.00  0.00     0.176 C 
ATOM     25  C   UNL     1     -17.704  30.051 -10.341  1.00  0.00     0.177 C 
BRANCH  21  26
ATOM     26  O   UNL     1     -17.249  32.576  -7.628  1.00  0.00    -0.387 OA
ATOM     27  H   UNL     1     -18.101  32.352  -7.169  1.00  0.00     0.211 HD
ENDBRANCH  21  26
BRANCH  23  28
ATOM     28  O   UNL     1     -18.926  32.000  -9.643  1.00  0.00    -0.387 OA
ATOM     29  H   UNL     1     -18.981  32.807 -10.207  1.00  0.00     0.211 HD
ENDBRANCH  23  28
BRANCH  24  30
ATOM     30  C   UNL     1     -19.883  28.809  -9.646  1.00  0.00     0.191 C 
BRANCH  30  31
ATOM     31  O   UNL     1     -20.668  29.944  -9.398  1.00  0.00    -0.394 OA
ATOM     32  H   UNL     1     -20.981  30.274 -10.277  1.00  0.00     0.210 HD
ENDBRANCH  30  31
ENDBRANCH  24  30
BRANCH  25  33
ATOM     33  O   UNL     1     -18.362  30.062 -11.583  1.00  0.00    -0.388 OA
ATOM     34  H   UNL     1     -19.256  29.644 -11.444  1.00  0.00     0.211 HD
ENDBRANCH  25  33
ENDBRANCH  11  20
BRANCH  10  35
ATOM     35  O   UNL     1     -14.574  29.473  -6.471  1.00  0.00    -0.507 OA
ATOM     36  H   UNL     1     -14.578  28.497  -6.769  1.00  0.00     0.293 HD
ENDBRANCH  10  35
TORSDOF 9
ENDMDL
MODEL 3
REMARK VINA RESULT:    -6.384      3.185      9.293
REMARK INTER + INTRA:          -9.592
REMARK INTER:                  -8.511
REMARK INTRA:                  -1.082
REMARK UNBOUND:                -0.968
REMARK SMILES O=c1c(-c2ccc(O)cc2)coc2c([C@H]3O[C@@H](CO)[C@@H](O)[C@@H](O)[C@H]3O)c(O)ccc12
REMARK SMILES IDX 3 1 11 2 12 3 13 4 30 5 2 6 1 7 29 8 28 9 26 10 14 11 4 12
REMARK SMILES IDX 5 13 6 14 7 15 10 16 9 17 8 18 15 20 24 21 16 22 22 23 17 24
REMARK SMILES IDX 20 25 25 26 23 28 18 30 19 31 21 33 27 35
REMARK H PARENT 8 19 25 27 23 29 19 32 21 34 27 36
REMARK Flexibility Score: inf
ROOT
ATOM      1  C   UNL     1     -19.430  31.691  -4.966  1.00  0.00     0.065 A 
ATOM      2  C   UNL     1     -20.196  30.520  -5.066  1.00  0.00     0.208 A 
ATOM      3  O   UNL     1     -21.291  30.358  -4.340  1.00  0.00    -0.463 OA
ATOM      4  C   UNL     1     -21.746  31.278  -3.498  1.00  0.00     0.147 A 
ATOM      5  C   UNL     1     -21.020  32.479  -3.317  1.00  0.00     0.066 A 
ATOM      6  C   UNL     1     -19.845  32.676  -4.056  1.00  0.00     0.200 A 
ATOM      7  O   UNL     1     -19.164  33.727  -3.895  1.00  0.00    -0.288 OA
ATOM      8  C   UNL     1     -21.498  33.456  -2.426  1.00  0.00     0.020 A 
ATOM      9  C   UNL     1     -22.698  33.260  -1.748  1.00  0.00     0.047 A 
ATOM     10  C   UNL     1     -23.434  32.084  -1.933  1.00  0.00     0.125 A 
ATOM     11  C   UNL     1     -22.965  31.073  -2.802  1.00  0.00     0.069 A 
ENDROOT
BRANCH   1  12
ATOM     12  C   UNL     1     -18.216  31.860  -5.815  1.00  0.00    -0.011 A 
ATOM     13  C   UNL     1     -16.928  31.856  -5.238  1.00  0.00     0.013 A 
ATOM     14  C   UNL     1     -15.790  31.979  -6.045  1.00  0.00     0.047 A 
ATOM     15  C   UNL     1     -15.925  32.099  -7.431  1.00  0.00     0.115 A 
ATOM     16  C   UNL     1     -18.333  31.991  -7.212  1.00  0.00     0.013 A 
ATOM     17  C   UNL     1     -17.195  32.117  -8.013  1.00  0.00     0.047 A 
BRANCH  15  18
ATOM     18  O   UNL     1     -14.804  32.187  -8.224  1.00  0.00    -0.508 OA
ATOM     19  H   UNL     1     -13.996  31.595  -8.072  1.00  0.00     0.293 HD
ENDBRANCH  15  18
ENDBRANCH   1  12
BRANCH  11  20
ATOM     20  C   UNL     1     -23.752  29.768  -2.884  1.00  0.00     0.188 C 
ATOM     21  C   UNL     1     -24.873  29.848  -3.961  1.00  0.00     0.179 C 
ATOM     22  O   UNL     1     -24.310  29.396  -1.631  1.00  0.00    -0.362 OA
ATOM     23  C   UNL     1     -26.006  28.822  -3.689  1.00  0.00     0.177 C 
ATOM     24  C   UNL     1     -24.710  28.027  -1.623  1.00  0.00     0.176 C 
ATOM     25  C   UNL     1     -25.432  27.595  -2.955  1.00  0.00     0.177 C 
BRANCH  21  26
ATOM     26  O   UNL     1     -25.393  31.148  -4.104  1.00  0.00    -0.387 OA
ATOM     27  H   UNL     1     -25.287  31.415  -5.056  1.00  0.00     0.211 HD
ENDBRANCH  21  26
BRANCH  23  28
ATOM     28  O   UNL     1     -27.031  29.389  -2.907  1.00  0.00    -0.387 OA
ATOM     29  H   UNL     1     -27.537  28.645  -2.503  1.00  0.00     0.211 HD
ENDBRANCH  23  28
BRANCH  24  30
ATOM     30  C   UNL     1     -25.576  27.803  -0.365  1.00  0.00     0.191 C 
BRANCH  30  31
ATOM     31  O   UNL     1     -26.600  28.758  -0.288  1.00  0.00    -0.394 OA
ATOM     32  H   UNL     1     -26.414  29.315   0.508  1.00  0.00     0.210 HD
ENDBRANCH  30  31
ENDBRANCH  24  30
BRANCH  25  33
ATOM     33  O   UNL     1     -26.452  26.656  -2.721  1.00  0.00    -0.388 OA
ATOM     34  H   UNL     1     -26.528  26.096  -3.541  1.00  0.00     0.211 HD
ENDBRANCH  25  33
ENDBRANCH  11  20
BRANCH  10  35
ATOM     35  O   UNL     1     -24.640  31.922  -1.258  1.00  0.00    -0.507 OA
ATOM     36  H   UNL     1     -24.911  32.538  -0.489  1.00  0.00     0.293 HD
ENDBRANCH  10  35
TORSDOF 9
ENDMDL
MODEL 4
REMARK VINA RESULT:    -6.355      4.449      6.775
REMARK INTER + INTRA:          -9.552
REMARK INTER:                  -8.413
REMARK INTRA:                  -1.139
REMARK UNBOUND:                -0.968
REMARK SMILES O=c1c(-c2ccc(O)cc2)coc2c([C@H]3O[C@@H](CO)[C@@H](O)[C@@H](O)[C@H]3O)c(O)ccc12
REMARK SMILES IDX 3 1 11 2 12 3 13 4 30 5 2 6 1 7 29 8 28 9 26 10 14 11 4 12
REMARK SMILES IDX 5 13 6 14 7 15 10 16 9 17 8 18 15 20 24 21 16 22 22 23 17 24
REMARK SMILES IDX 20 25 25 26 23 28 18 30 19 31 21 33 27 35
REMARK H PARENT 8 19 25 27 23 29 19 32 21 34 27 36
REMARK Flexibility Score: inf
ROOT
ATOM      1  C   UNL     1     -23.880  27.677  -2.113  1.00  0.00     0.065 A 
ATOM      2  C   UNL     1     -22.709  28.388  -1.816  1.00  0.00     0.208 A 
ATOM      3  O   UNL     1     -22.102  29.118  -2.738  1.00  0.00    -0.463 OA
ATOM      4  C   UNL     1     -22.558  29.245  -3.979  1.00  0.00     0.147 A 
ATOM      5  C   UNL     1     -23.721  28.540  -4.370  1.00  0.00     0.066 A 
ATOM      6  C   UNL     1     -24.379  27.742  -3.424  1.00  0.00     0.200 A 
ATOM      7  O   UNL     1     -25.404  27.083  -3.753  1.00  0.00    -0.288 OA
ATOM      8  C   UNL     1     -24.207  28.671  -5.684  1.00  0.00     0.020 A 
ATOM      9  C   UNL     1     -23.568  29.515  -6.587  1.00  0.00     0.047 A 
ATOM     10  C   UNL     1     -22.427  30.231  -6.205  1.00  0.00     0.125 A 
ATOM     11  C   UNL     1     -21.901  30.100  -4.900  1.00  0.00     0.069 A 
ENDROOT
BRANCH   1  12
ATOM     12  C   UNL     1     -24.559  26.883  -1.048  1.00  0.00    -0.011 A 
ATOM     13  C   UNL     1     -25.606  27.446  -0.288  1.00  0.00     0.013 A 
ATOM     14  C   UNL     1     -26.264  26.684   0.686  1.00  0.00     0.047 A 
ATOM     15  C   UNL     1     -25.889  25.355   0.904  1.00  0.00     0.115 A 
ATOM     16  C   UNL     1     -24.190  25.546  -0.808  1.00  0.00     0.013 A 
ATOM     17  C   UNL     1     -24.846  24.790   0.166  1.00  0.00     0.047 A 
BRANCH  15  18
ATOM     18  O   UNL     1     -26.559  24.599   1.839  1.00  0.00    -0.508 OA
ATOM     19  H   UNL     1     -26.242  23.675   2.104  1.00  0.00     0.293 HD
ENDBRANCH  15  18
ENDBRANCH   1  12
BRANCH  11  20
ATOM     20  C   UNL     1     -20.595  30.819  -4.572  1.00  0.00     0.188 C 
ATOM     21  C   UNL     1     -20.861  32.209  -3.922  1.00  0.00     0.179 C 
ATOM     22  O   UNL     1     -19.761  30.969  -5.713  1.00  0.00    -0.362 OA
ATOM     23  C   UNL     1     -19.653  33.167  -4.101  1.00  0.00     0.177 C 
ATOM     24  C   UNL     1     -18.422  31.290  -5.342  1.00  0.00     0.176 C 
ATOM     25  C   UNL     1     -18.349  32.351  -4.179  1.00  0.00     0.177 C 
BRANCH  21  26
ATOM     26  O   UNL     1     -22.050  32.803  -4.387  1.00  0.00    -0.387 OA
ATOM     27  H   UNL     1     -22.254  32.416  -5.279  1.00  0.00     0.211 HD
ENDBRANCH  21  26
BRANCH  23  28
ATOM     28  O   UNL     1     -19.784  33.941  -5.269  1.00  0.00    -0.387 OA
ATOM     29  H   UNL     1     -20.744  33.968  -5.498  1.00  0.00     0.211 HD
ENDBRANCH  23  28
BRANCH  24  30
ATOM     30  C   UNL     1     -17.681  31.739  -6.619  1.00  0.00     0.191 C 
BRANCH  30  31
ATOM     31  O   UNL     1     -18.375  32.775  -7.260  1.00  0.00    -0.394 OA
ATOM     32  H   UNL     1     -18.348  33.556  -6.653  1.00  0.00     0.210 HD
ENDBRANCH  30  31
ENDBRANCH  24  30
BRANCH  25  33
ATOM     33  O   UNL     1     -17.251  33.216  -4.324  1.00  0.00    -0.388 OA
ATOM     34  H   UNL     1     -16.455  32.649  -4.520  1.00  0.00     0.211 HD
ENDBRANCH  25  33
ENDBRANCH  11  20
BRANCH  10  35
ATOM     35  O   UNL     1     -21.820  31.084  -7.122  1.00  0.00    -0.507 OA
ATOM     36  H   UNL     1     -21.770  32.092  -6.966  1.00  0.00     0.293 HD
ENDBRANCH  10  35
TORSDOF 9
ENDMDL
MODEL 5
REMARK VINA RESULT:    -6.288      3.874      7.196
REMARK INTER + INTRA:          -9.461
REMARK INTER:                  -8.766
REMARK INTRA:                  -0.695
REMARK UNBOUND:                -0.968
REMARK SMILES O=c1c(-c2ccc(O)cc2)coc2c([C@H]3O[C@@H](CO)[C@@H](O)[C@@H](O)[C@H]3O)c(O)ccc12
REMARK SMILES IDX 3 1 11 2 12 3 13 4 30 5 2 6 1 7 29 8 28 9 26 10 14 11 4 12
REMARK SMILES IDX 5 13 6 14 7 15 10 16 9 17 8 18 15 20 24 21 16 22 22 23 17 24
REMARK SMILES IDX 20 25 25 26 23 28 18 30 19 31 21 33 27 35
REMARK H PARENT 8 19 25 27 23 29 19 32 21 34 27 36
REMARK Flexibility Score: inf
ROOT
ATOM      1  C   UNL     1     -23.980  28.908  -2.875  1.00  0.00     0.065 A 
ATOM      2  C   UNL     1     -22.633  29.042  -3.244  1.00  0.00     0.208 A 
ATOM      3  O   UNL     1     -21.981  30.175  -3.039  1.00  0.00    -0.463 OA
ATOM      4  C   UNL     1     -22.532  31.237  -2.464  1.00  0.00     0.147 A 
ATOM      5  C   UNL     1     -23.895  31.196  -2.084  1.00  0.00     0.066 A 
ATOM      6  C   UNL     1     -24.623  30.018  -2.303  1.00  0.00     0.200 A 
ATOM      7  O   UNL     1     -25.846  29.962  -1.998  1.00  0.00    -0.288 OA
ATOM      8  C   UNL     1     -24.483  32.319  -1.475  1.00  0.00     0.020 A 
ATOM      9  C   UNL     1     -23.723  33.455  -1.216  1.00  0.00     0.047 A 
ATOM     10  C   UNL     1     -22.370  33.500  -1.571  1.00  0.00     0.125 A 
ATOM     11  C   UNL     1     -21.758  32.398  -2.207  1.00  0.00     0.069 A 
ENDROOT
BRANCH   1  12
ATOM     12  C   UNL     1     -24.685  27.612  -3.092  1.00  0.00    -0.011 A 
ATOM     13  C   UNL     1     -25.357  27.353  -4.305  1.00  0.00     0.013 A 
ATOM     14  C   UNL     1     -25.987  26.120  -4.518  1.00  0.00     0.047 A 
ATOM     15  C   UNL     1     -25.945  25.134  -3.527  1.00  0.00     0.115 A 
ATOM     16  C   UNL     1     -24.661  26.611  -2.102  1.00  0.00     0.013 A 
ATOM     17  C   UNL     1     -25.293  25.383  -2.317  1.00  0.00     0.047 A 
BRANCH  15  18
ATOM     18  O   UNL     1     -26.537  23.912  -3.751  1.00  0.00    -0.508 OA
ATOM     19  H   UNL     1     -27.499  23.834  -4.057  1.00  0.00     0.293 HD
ENDBRANCH  15  18
ENDBRANCH   1  12
BRANCH  11  20
ATOM     20  C   UNL     1     -20.310  32.542  -2.669  1.00  0.00     0.188 C 
ATOM     21  C   UNL     1     -20.228  32.838  -4.195  1.00  0.00     0.179 C 
ATOM     22  O   UNL     1     -19.528  31.397  -2.354  1.00  0.00    -0.362 OA
ATOM     23  C   UNL     1     -18.851  32.433  -4.786  1.00  0.00     0.177 C 
ATOM     24  C   UNL     1     -18.133  31.679  -2.442  1.00  0.00     0.176 C 
ATOM     25  C   UNL     1     -17.764  32.552  -3.700  1.00  0.00     0.177 C 
BRANCH  21  26
ATOM     26  O   UNL     1     -21.281  32.246  -4.917  1.00  0.00    -0.387 OA
ATOM     27  H   UNL     1     -20.972  31.354  -5.228  1.00  0.00     0.211 HD
ENDBRANCH  21  26
BRANCH  23  28
ATOM     28  O   UNL     1     -18.873  31.113  -5.274  1.00  0.00    -0.387 OA
ATOM     29  H   UNL     1     -19.328  31.131  -6.149  1.00  0.00     0.211 HD
ENDBRANCH  23  28
BRANCH  24  30
ATOM     30  C   UNL     1     -17.383  30.330  -2.400  1.00  0.00     0.191 C 
BRANCH  30  31
ATOM     31  O   UNL     1     -16.059  30.510  -1.977  1.00  0.00    -0.394 OA
ATOM     32  H   UNL     1     -15.597  31.020  -2.690  1.00  0.00     0.210 HD
ENDBRANCH  30  31
ENDBRANCH  24  30
BRANCH  25  33
ATOM     33  O   UNL     1     -16.512  32.202  -4.236  1.00  0.00    -0.388 OA
ATOM     34  H   UNL     1     -16.668  31.461  -4.884  1.00  0.00     0.211 HD
ENDBRANCH  25  33
ENDBRANCH  11  20
BRANCH  10  35
ATOM     35  O   UNL     1     -21.628  34.642  -1.281  1.00  0.00    -0.507 OA
ATOM     36  H   UNL     1     -21.775  35.518  -1.785  1.00  0.00     0.293 HD
ENDBRANCH  10  35
TORSDOF 9
ENDMDL
MODEL 6
REMARK VINA RESULT:    -6.285      2.126      3.569
REMARK INTER + INTRA:          -9.458
REMARK INTER:                  -9.378
REMARK INTRA:                  -0.080
REMARK UNBOUND:                -0.968
REMARK SMILES O=c1c(-c2ccc(O)cc2)coc2c([C@H]3O[C@@H](CO)[C@@H](O)[C@@H](O)[C@H]3O)c(O)ccc12
REMARK SMILES IDX 3 1 11 2 12 3 13 4 30 5 2 6 1 7 29 8 28 9 26 10 14 11 4 12
REMARK SMILES IDX 5 13 6 14 7 15 10 16 9 17 8 18 15 20 24 21 16 22 22 23 17 24
REMARK SMILES IDX 20 25 25 26 23 28 18 30 19 31 21 33 27 35
REMARK H PARENT 8 19 25 27 23 29 19 32 21 34 27 36
REMARK Flexibility Score: inf
ROOT
ATOM      1  C   UNL     1     -20.967  31.866  -3.853  1.00  0.00     0.065 A 
ATOM      2  C   UNL     1     -19.569  31.950  -3.767  1.00  0.00     0.208 A 
ATOM      3  O   UNL     1     -18.796  31.413  -4.697  1.00  0.00    -0.463 OA
ATOM      4  C   UNL     1     -19.273  30.787  -5.766  1.00  0.00     0.147 A 
ATOM      5  C   UNL     1     -20.672  30.635  -5.918  1.00  0.00     0.066 A 
ATOM      6  C   UNL     1     -21.521  31.175  -4.942  1.00  0.00     0.200 A 
ATOM      7  O   UNL     1     -22.771  31.031  -5.040  1.00  0.00    -0.288 OA
ATOM      8  C   UNL     1     -21.182  29.972  -7.048  1.00  0.00     0.020 A 
ATOM      9  C   UNL     1     -20.319  29.495  -8.031  1.00  0.00     0.047 A 
ATOM     10  C   UNL     1     -18.935  29.657  -7.900  1.00  0.00     0.125 A 
ATOM     11  C   UNL     1     -18.392  30.296  -6.762  1.00  0.00     0.069 A 
ENDROOT
BRANCH   1  12
ATOM     12  C   UNL     1     -21.816  32.503  -2.806  1.00  0.00    -0.011 A 
ATOM     13  C   UNL     1     -21.440  33.731  -2.222  1.00  0.00     0.013 A 
ATOM     14  C   UNL     1     -22.260  34.343  -1.266  1.00  0.00     0.047 A 
ATOM     15  C   UNL     1     -23.464  33.739  -0.889  1.00  0.00     0.115 A 
ATOM     16  C   UNL     1     -23.028  31.906  -2.408  1.00  0.00     0.013 A 
ATOM     17  C   UNL     1     -23.841  32.517  -1.451  1.00  0.00     0.047 A 
BRANCH  15  18
ATOM     18  O   UNL     1     -24.283  34.358   0.027  1.00  0.00    -0.508 OA
ATOM     19  H   UNL     1     -24.748  35.233  -0.180  1.00  0.00     0.293 HD
ENDBRANCH  15  18
ENDBRANCH   1  12
BRANCH  11  20
ATOM     20  C   UNL     1     -16.873  30.349  -6.620  1.00  0.00     0.188 C 
ATOM     21  C   UNL     1     -16.360  29.272  -5.618  1.00  0.00     0.179 C 
ATOM     22  O   UNL     1     -16.414  31.635  -6.227  1.00  0.00    -0.362 OA
ATOM     23  C   UNL     1     -14.975  29.650  -5.029  1.00  0.00     0.177 C 
ATOM     24  C   UNL     1     -15.014  31.781  -6.456  1.00  0.00     0.176 C 
ATOM     25  C   UNL     1     -14.191  30.502  -6.046  1.00  0.00     0.177 C 
BRANCH  21  26
ATOM     26  O   UNL     1     -17.287  29.002  -4.595  1.00  0.00    -0.387 OA
ATOM     27  H   UNL     1     -17.673  29.868  -4.297  1.00  0.00     0.211 HD
ENDBRANCH  21  26
BRANCH  23  28
ATOM     28  O   UNL     1     -15.111  30.375  -3.829  1.00  0.00    -0.387 OA
ATOM     29  H   UNL     1     -14.629  29.875  -3.128  1.00  0.00     0.211 HD
ENDBRANCH  23  28
BRANCH  24  30
ATOM     30  C   UNL     1     -14.553  33.058  -5.722  1.00  0.00     0.191 C 
BRANCH  30  31
ATOM     31  O   UNL     1     -13.272  33.440  -6.143  1.00  0.00    -0.394 OA
ATOM     32  H   UNL     1     -13.201  33.202  -7.102  1.00  0.00     0.210 HD
ENDBRANCH  30  31
ENDBRANCH  24  30
BRANCH  25  33
ATOM     33  O   UNL     1     -12.929  30.832  -5.523  1.00  0.00    -0.388 OA
ATOM     34  H   UNL     1     -12.253  30.588  -6.213  1.00  0.00     0.211 HD
ENDBRANCH  25  33
ENDBRANCH  11  20
BRANCH  10  35
ATOM     35  O   UNL     1     -18.097  29.189  -8.908  1.00  0.00    -0.507 OA
ATOM     36  H   UNL     1     -17.939  28.191  -9.053  1.00  0.00     0.293 HD
ENDBRANCH  10  35
TORSDOF 9
ENDMDL
MODEL 7
REMARK VINA RESULT:    -6.273      2.778      3.959
REMARK INTER + INTRA:          -9.442
REMARK INTER:                  -8.251
REMARK INTRA:                  -1.191
REMARK UNBOUND:                -0.968
REMARK SMILES O=c1c(-c2ccc(O)cc2)coc2c([C@H]3O[C@@H](CO)[C@@H](O)[C@@H](O)[C@H]3O)c(O)ccc12
REMARK SMILES IDX 3 1 11 2 12 3 13 4 30 5 2 6 1 7 29 8 28 9 26 10 14 11 4 12
REMARK SMILES IDX 5 13 6 14 7 15 10 16 9 17 8 18 15 20 24 21 16 22 22 23 17 24
REMARK SMILES IDX 20 25 25 26 23 28 18 30 19 31 21 33 27 35
REMARK H PARENT 8 19 25 27 23 29 19 32 21 34 27 36
REMARK Flexibility Score: inf
ROOT
ATOM      1  C   UNL     1     -22.309  30.033  -3.545  1.00  0.00     0.065 A 
ATOM      2  C   UNL     1     -21.574  29.990  -4.739  1.00  0.00     0.208 A 
ATOM      3  O   UNL     1     -20.259  30.138  -4.735  1.00  0.00    -0.463 OA
ATOM      4  C   UNL     1     -19.551  30.314  -3.625  1.00  0.00     0.147 A 
ATOM      5  C   UNL     1     -20.217  30.395  -2.379  1.00  0.00     0.066 A 
ATOM      6  C   UNL     1     -21.612  30.262  -2.348  1.00  0.00     0.200 A 
ATOM      7  O   UNL     1     -22.234  30.356  -1.253  1.00  0.00    -0.288 OA
ATOM      8  C   UNL     1     -19.472  30.583  -1.201  1.00  0.00     0.020 A 
ATOM      9  C   UNL     1     -18.083  30.654  -1.254  1.00  0.00     0.047 A 
ATOM     10  C   UNL     1     -17.413  30.556  -2.479  1.00  0.00     0.125 A 
ATOM     11  C   UNL     1     -18.136  30.394  -3.682  1.00  0.00     0.069 A 
ENDROOT
BRANCH   1  12
ATOM     12  C   UNL     1     -23.787  29.837  -3.574  1.00  0.00    -0.011 A 
ATOM     13  C   UNL     1     -24.352  28.576  -3.288  1.00  0.00     0.013 A 
ATOM     14  C   UNL     1     -25.742  28.406  -3.281  1.00  0.00     0.047 A 
ATOM     15  C   UNL     1     -26.579  29.493  -3.552  1.00  0.00     0.115 A 
ATOM     16  C   UNL     1     -24.646  30.917  -3.852  1.00  0.00     0.013 A 
ATOM     17  C   UNL     1     -26.033  30.743  -3.848  1.00  0.00     0.047 A 
BRANCH  15  18
ATOM     18  O   UNL     1     -27.945  29.330  -3.512  1.00  0.00    -0.508 OA
ATOM     19  H   UNL     1     -28.372  28.501  -3.119  1.00  0.00     0.293 HD
ENDBRANCH  15  18
ENDBRANCH   1  12
BRANCH  11  20
ATOM     20  C   UNL     1     -17.362  30.402  -4.997  1.00  0.00     0.188 C 
ATOM     21  C   UNL     1     -16.802  28.989  -5.333  1.00  0.00     0.179 C 
ATOM     22  O   UNL     1     -16.308  31.355  -4.996  1.00  0.00    -0.362 OA
ATOM     23  C   UNL     1     -15.587  29.067  -6.297  1.00  0.00     0.177 C 
ATOM     24  C   UNL     1     -15.842  31.619  -6.318  1.00  0.00     0.176 C 
ATOM     25  C   UNL     1     -15.712  30.315  -7.192  1.00  0.00     0.177 C 
BRANCH  21  26
ATOM     26  O   UNL     1     -16.485  28.246  -4.181  1.00  0.00    -0.387 OA
ATOM     27  H   UNL     1     -15.592  28.546  -3.862  1.00  0.00     0.211 HD
ENDBRANCH  21  26
BRANCH  23  28
ATOM     28  O   UNL     1     -14.374  29.131  -5.584  1.00  0.00    -0.387 OA
ATOM     29  H   UNL     1     -13.967  30.009  -5.775  1.00  0.00     0.211 HD
ENDBRANCH  23  28
BRANCH  24  30
ATOM     30  C   UNL     1     -14.517  32.402  -6.196  1.00  0.00     0.191 C 
BRANCH  30  31
ATOM     31  O   UNL     1     -13.603  31.710  -5.390  1.00  0.00    -0.394 OA
ATOM     32  H   UNL     1     -12.723  31.768  -5.839  1.00  0.00     0.210 HD
ENDBRANCH  30  31
ENDBRANCH  24  30
BRANCH  25  33
ATOM     33  O   UNL     1     -14.623  30.381  -8.077  1.00  0.00    -0.388 OA
ATOM     34  H   UNL     1     -13.802  30.499  -7.523  1.00  0.00     0.211 HD
ENDBRANCH  25  33
ENDBRANCH  11  20
BRANCH  10  35
ATOM     35  O   UNL     1     -16.022  30.611  -2.500  1.00  0.00    -0.507 OA
ATOM     36  H   UNL     1     -15.518  31.490  -2.373  1.00  0.00     0.293 HD
ENDBRANCH  10  35
TORSDOF 9
ENDMDL
MODEL 8
REMARK VINA RESULT:    -6.225      5.427      7.376
REMARK INTER + INTRA:          -9.378
REMARK INTER:                  -8.304
REMARK INTRA:                  -1.073
REMARK UNBOUND:                -0.968
REMARK SMILES O=c1c(-c2ccc(O)cc2)coc2c([C@H]3O[C@@H](CO)[C@@H](O)[C@@H](O)[C@H]3O)c(O)ccc12
REMARK SMILES IDX 3 1 11 2 12 3 13 4 30 5 2 6 1 7 29 8 28 9 26 10 14 11 4 12
REMARK SMILES IDX 5 13 6 14 7 15 10 16 9 17 8 18 15 20 24 21 16 22 22 23 17 24
REMARK SMILES IDX 20 25 25 26 23 28 18 30 19 31 21 33 27 35
REMARK H PARENT 8 19 25 27 23 29 19 32 21 34 27 36
REMARK Flexibility Score: inf
ROOT
ATOM      1  C   UNL     1     -20.408  25.315  -4.142  1.00  0.00     0.065 A 
ATOM      2  C   UNL     1     -19.221  26.050  -4.278  1.00  0.00     0.208 A 
ATOM      3  O   UNL     1     -19.247  27.326  -4.629  1.00  0.00    -0.463 OA
ATOM      4  C   UNL     1     -20.371  27.995  -4.852  1.00  0.00     0.147 A 
ATOM      5  C   UNL     1     -21.613  27.322  -4.761  1.00  0.00     0.066 A 
ATOM      6  C   UNL     1     -21.623  25.965  -4.411  1.00  0.00     0.200 A 
ATOM      7  O   UNL     1     -22.715  25.334  -4.349  1.00  0.00    -0.288 OA
ATOM      8  C   UNL     1     -22.807  28.028  -4.998  1.00  0.00     0.020 A 
ATOM      9  C   UNL     1     -22.772  29.388  -5.288  1.00  0.00     0.047 A 
ATOM     10  C   UNL     1     -21.550  30.067  -5.361  1.00  0.00     0.125 A 
ATOM     11  C   UNL     1     -20.333  29.380  -5.154  1.00  0.00     0.069 A 
ENDROOT
BRANCH   1  12
ATOM     12  C   UNL     1     -20.354  23.885  -3.720  1.00  0.00    -0.011 A 
ATOM     13  C   UNL     1     -20.473  22.849  -4.670  1.00  0.00     0.013 A 
ATOM     14  C   UNL     1     -20.385  21.509  -4.273  1.00  0.00     0.047 A 
ATOM     15  C   UNL     1     -20.170  21.192  -2.928  1.00  0.00     0.115 A 
ATOM     16  C   UNL     1     -20.146  23.546  -2.369  1.00  0.00     0.013 A 
ATOM     17  C   UNL     1     -20.062  22.208  -1.977  1.00  0.00     0.047 A 
BRANCH  15  18
ATOM     18  O   UNL     1     -20.052  19.875  -2.546  1.00  0.00    -0.508 OA
ATOM     19  H   UNL     1     -19.254  19.542  -2.019  1.00  0.00     0.293 HD
ENDBRANCH  15  18
ENDBRANCH   1  12
BRANCH  11  20
ATOM     20  C   UNL     1     -19.028  30.146  -5.353  1.00  0.00     0.188 C 
ATOM     21  C   UNL     1     -18.658  30.974  -4.087  1.00  0.00     0.179 C 
ATOM     22  O   UNL     1     -19.070  30.995  -6.492  1.00  0.00    -0.362 OA
ATOM     23  C   UNL     1     -17.712  32.155  -4.431  1.00  0.00     0.177 C 
ATOM     24  C   UNL     1     -17.762  31.408  -6.883  1.00  0.00     0.176 C 
ATOM     25  C   UNL     1     -16.852  31.795  -5.657  1.00  0.00     0.177 C 
BRANCH  21  26
ATOM     26  O   UNL     1     -19.792  31.422  -3.385  1.00  0.00    -0.387 OA
ATOM     27  H   UNL     1     -20.560  31.420  -4.015  1.00  0.00     0.211 HD
ENDBRANCH  21  26
BRANCH  23  28
ATOM     28  O   UNL     1     -18.440  33.328  -4.706  1.00  0.00    -0.387 OA
ATOM     29  H   UNL     1     -17.893  34.092  -4.405  1.00  0.00     0.211 HD
ENDBRANCH  23  28
BRANCH  24  30
ATOM     30  C   UNL     1     -17.923  32.554  -7.905  1.00  0.00     0.191 C 
BRANCH  30  31
ATOM     31  O   UNL     1     -19.072  33.308  -7.630  1.00  0.00    -0.394 OA
ATOM     32  H   UNL     1     -19.341  33.094  -6.702  1.00  0.00     0.210 HD
ENDBRANCH  30  31
ENDBRANCH  24  30
BRANCH  25  33
ATOM     33  O   UNL     1     -15.982  32.857  -5.961  1.00  0.00    -0.388 OA
ATOM     34  H   UNL     1     -15.835  33.365  -5.117  1.00  0.00     0.211 HD
ENDBRANCH  25  33
ENDBRANCH  11  20
BRANCH  10  35
ATOM     35  O   UNL     1     -21.546  31.433  -5.633  1.00  0.00    -0.507 OA
ATOM     36  H   UNL     1     -21.425  31.790  -6.581  1.00  0.00     0.293 HD
ENDBRANCH  10  35
TORSDOF 9
ENDMDL
MODEL 9
REMARK VINA RESULT:    -6.153      3.181      8.469
REMARK INTER + INTRA:          -9.279
REMARK INTER:                  -8.113
REMARK INTRA:                  -1.166
REMARK UNBOUND:                -0.968
REMARK SMILES O=c1c(-c2ccc(O)cc2)coc2c([C@H]3O[C@@H](CO)[C@@H](O)[C@@H](O)[C@H]3O)c(O)ccc12
REMARK SMILES IDX 3 1 11 2 12 3 13 4 30 5 2 6 1 7 29 8 28 9 26 10 14 11 4 12
REMARK SMILES IDX 5 13 6 14 7 15 10 16 9 17 8 18 15 20 24 21 16 22 22 23 17 24
REMARK SMILES IDX 20 25 25 26 23 28 18 30 19 31 21 33 27 35
REMARK H PARENT 8 19 25 27 23 29 19 32 21 34 27 36
REMARK Flexibility Score: inf
ROOT
ATOM      1  C   UNL     1     -14.340  28.464  -5.479  1.00  0.00     0.065 A 
ATOM      2  C   UNL     1     -15.460  28.287  -4.654  1.00  0.00     0.208 A 
ATOM      3  O   UNL     1     -16.489  29.118  -4.714  1.00  0.00    -0.463 OA
ATOM      4  C   UNL     1     -16.545  30.144  -5.554  1.00  0.00     0.147 A 
ATOM      5  C   UNL     1     -15.446  30.409  -6.406  1.00  0.00     0.066 A 
ATOM      6  C   UNL     1     -14.331  29.561  -6.355  1.00  0.00     0.200 A 
ATOM      7  O   UNL     1     -13.326  29.790  -7.084  1.00  0.00    -0.288 OA
ATOM      8  C   UNL     1     -15.501  31.496  -7.297  1.00  0.00     0.020 A 
ATOM      9  C   UNL     1     -16.643  32.288  -7.368  1.00  0.00     0.047 A 
ATOM     10  C   UNL     1     -17.743  32.023  -6.544  1.00  0.00     0.125 A 
ATOM     11  C   UNL     1     -17.707  30.955  -5.620  1.00  0.00     0.069 A 
ENDROOT
BRANCH   1  12
ATOM     12  C   UNL     1     -13.206  27.498  -5.411  1.00  0.00    -0.011 A 
ATOM     13  C   UNL     1     -12.032  27.815  -4.694  1.00  0.00     0.013 A 
ATOM     14  C   UNL     1     -10.985  26.890  -4.603  1.00  0.00     0.047 A 
ATOM     15  C   UNL     1     -11.102  25.640  -5.219  1.00  0.00     0.115 A 
ATOM     16  C   UNL     1     -13.302  26.237  -6.031  1.00  0.00     0.013 A 
ATOM     17  C   UNL     1     -12.253  25.319  -5.941  1.00  0.00     0.047 A 
BRANCH  15  18
ATOM     18  O   UNL     1     -10.084  24.721  -5.100  1.00  0.00    -0.508 OA
ATOM     19  H   UNL     1      -9.397  24.779  -4.359  1.00  0.00     0.293 HD
ENDBRANCH  15  18
ENDBRANCH   1  12
BRANCH  11  20
ATOM     20  C   UNL     1     -18.890  30.778  -4.672  1.00  0.00     0.188 C 
ATOM     21  C   UNL     1     -20.004  29.899  -5.313  1.00  0.00     0.179 C 
ATOM     22  O   UNL     1     -19.435  32.022  -4.254  1.00  0.00    -0.362 OA
ATOM     23  C   UNL     1     -21.389  30.163  -4.664  1.00  0.00     0.177 C 
ATOM     24  C   UNL     1     -20.270  31.867  -3.108  1.00  0.00     0.176 C 
ATOM     25  C   UNL     1     -21.202  30.601  -3.199  1.00  0.00     0.177 C 
BRANCH  21  26
ATOM     26  O   UNL     1     -20.067  30.043  -6.712  1.00  0.00    -0.387 OA
ATOM     27  H   UNL     1     -20.790  30.693  -6.919  1.00  0.00     0.211 HD
ENDBRANCH  21  26
BRANCH  23  28
ATOM     28  O   UNL     1     -22.095  31.164  -5.358  1.00  0.00    -0.387 OA
ATOM     29  H   UNL     1     -21.570  31.391  -6.161  1.00  0.00     0.211 HD
ENDBRANCH  23  28
BRANCH  24  30
ATOM     30  C   UNL     1     -21.054  33.184  -2.923  1.00  0.00     0.191 C 
BRANCH  30  31
ATOM     31  O   UNL     1     -21.749  33.519  -4.094  1.00  0.00    -0.394 OA
ATOM     32  H   UNL     1     -21.289  33.062  -4.841  1.00  0.00     0.210 HD
ENDBRANCH  30  31
ENDBRANCH  24  30
BRANCH  25  33
ATOM     33  O   UNL     1     -22.455  30.825  -2.602  1.00  0.00    -0.388 OA
ATOM     34  H   UNL     1     -22.798  29.939  -2.300  1.00  0.00     0.211 HD
ENDBRANCH  25  33
ENDBRANCH  11  20
BRANCH  10  35
ATOM     35  O   UNL     1     -18.880  32.819  -6.650  1.00  0.00    -0.507 OA
ATOM     36  H   UNL     1     -19.687  32.529  -7.205  1.00  0.00     0.293 HD
ENDBRANCH  10  35
TORSDOF 9
ENDMDL
