MODEL 1
REMARK VINA RESULT:    -5.075      0.000      0.000
REMARK INTER + INTRA:          -5.779
REMARK INTER:                  -5.668
REMARK INTRA:                  -0.110
REMARK UNBOUND:                -0.110
REMARK SMILES COc1cc2ccc(=O)oc2cc1OC
REMARK SMILES IDX 3 1 13 2 12 3 11 4 5 5 4 6 6 7 7 8 8 9 9 10 10 11 2 12 1 13
REMARK SMILES IDX 14 14 15 15
REMARK H PARENT
REMARK Flexibility Score: inf
ROOT
ATOM      1  C   UNL     1      68.008  52.026  19.184  1.00  0.00     0.161 A 
ATOM      2  C   UNL     1      69.020  51.769  20.125  1.00  0.00     0.164 A 
ATOM      3  C   UNL     1      70.333  52.218  19.880  1.00  0.00     0.098 A 
ATOM      4  C   UNL     1      70.635  52.917  18.708  1.00  0.00     0.142 A 
ATOM      5  C   UNL     1      69.620  53.175  17.764  1.00  0.00     0.022 A 
ATOM      6  C   UNL     1      68.314  52.731  18.003  1.00  0.00     0.062 A 
ATOM      7  C   UNL     1      69.953  53.877  16.601  1.00  0.00     0.019 A 
ATOM      8  C   UNL     1      71.269  54.297  16.409  1.00  0.00     0.094 A 
ATOM      9  C   UNL     1      72.224  54.005  17.389  1.00  0.00     0.336 A 
ATOM     10  O   UNL     1      73.416  54.376  17.236  1.00  0.00    -0.246 OA
ATOM     11  O   UNL     1      71.878  53.336  18.486  1.00  0.00    -0.423 OA
ENDROOT
BRANCH   1  12
ATOM     12  O   UNL     1      66.710  51.564  19.461  1.00  0.00    -0.493 OA
ATOM     13  C   UNL     1      65.575  51.802  18.635  1.00  0.00     0.278 C 
ENDBRANCH   1  12
BRANCH   2  14
ATOM     14  O   UNL     1      68.680  51.065  21.291  1.00  0.00    -0.493 OA
ATOM     15  C   UNL     1      69.380  49.923  21.776  1.00  0.00     0.278 C 
ENDBRANCH   2  14
TORSDOF 2
ENDMDL
MODEL 2
REMARK VINA RESULT:    -4.984      1.285      2.818
REMARK INTER + INTRA:          -5.677
REMARK INTER:                  -5.542
REMARK INTRA:                  -0.135
REMARK UNBOUND:                -0.110
REMARK SMILES COc1cc2ccc(=O)oc2cc1OC
REMARK SMILES IDX 3 1 13 2 12 3 11 4 5 5 4 6 6 7 7 8 8 9 9 10 10 11 2 12 1 13
REMARK SMILES IDX 14 14 15 15
REMARK H PARENT
REMARK Flexibility Score: inf
ROOT
ATOM      1  C   UNL     1      69.167  52.275  19.825  1.00  0.00     0.161 A 
ATOM      2  C   UNL     1      68.140  52.562  18.909  1.00  0.00     0.164 A 
ATOM      3  C   UNL     1      68.449  53.199  17.690  1.00  0.00     0.098 A 
ATOM      4  C   UNL     1      69.768  53.547  17.387  1.00  0.00     0.142 A 
ATOM      5  C   UNL     1      70.798  53.258  18.306  1.00  0.00     0.022 A 
ATOM      6  C   UNL     1      70.497  52.626  19.518  1.00  0.00     0.062 A 
ATOM      7  C   UNL     1      72.108  53.618  17.973  1.00  0.00     0.019 A 
ATOM      8  C   UNL     1      72.357  54.247  16.753  1.00  0.00     0.094 A 
ATOM      9  C   UNL     1      71.285  54.502  15.892  1.00  0.00     0.336 A 
ATOM     10  O   UNL     1      71.487  55.067  14.786  1.00  0.00    -0.246 OA
ATOM     11  O   UNL     1      70.048  54.148  16.233  1.00  0.00    -0.423 OA
ENDROOT
BRANCH   1  12
ATOM     12  O   UNL     1      68.824  51.639  21.029  1.00  0.00    -0.493 OA
ATOM     13  C   UNL     1      69.417  50.436  21.505  1.00  0.00     0.278 C 
ENDBRANCH   1  12
BRANCH   2  14
ATOM     14  O   UNL     1      66.827  52.199  19.246  1.00  0.00    -0.493 OA
ATOM     15  C   UNL     1      66.094  51.150  18.622  1.00  0.00     0.278 C 
ENDBRANCH   2  14
TORSDOF 2
ENDMDL
MODEL 3
REMARK VINA RESULT:    -4.930      1.966      3.210
REMARK INTER + INTRA:          -5.617
REMARK INTER:                  -5.507
REMARK INTRA:                  -0.109
REMARK UNBOUND:                -0.110
REMARK SMILES COc1cc2ccc(=O)oc2cc1OC
REMARK SMILES IDX 3 1 13 2 12 3 11 4 5 5 4 6 6 7 7 8 8 9 9 10 10 11 2 12 1 13
REMARK SMILES IDX 14 14 15 15
REMARK H PARENT
REMARK Flexibility Score: inf
ROOT
ATOM      1  C   UNL     1      69.341  51.237  21.822  1.00  0.00     0.161 A 
ATOM      2  C   UNL     1      70.514  52.009  21.880  1.00  0.00     0.164 A 
ATOM      3  C   UNL     1      70.889  52.796  20.772  1.00  0.00     0.098 A 
ATOM      4  C   UNL     1      70.101  52.813  19.618  1.00  0.00     0.142 A 
ATOM      5  C   UNL     1      68.925  52.040  19.560  1.00  0.00     0.022 A 
ATOM      6  C   UNL     1      68.548  51.256  20.658  1.00  0.00     0.062 A 
ATOM      7  C   UNL     1      68.158  52.079  18.391  1.00  0.00     0.019 A 
ATOM      8  C   UNL     1      68.576  52.875  17.324  1.00  0.00     0.094 A 
ATOM      9  C   UNL     1      69.755  53.616  17.453  1.00  0.00     0.336 A 
ATOM     10  O   UNL     1      70.149  54.340  16.504  1.00  0.00    -0.246 OA
ATOM     11  O   UNL     1      70.465  53.560  18.578  1.00  0.00    -0.423 OA
ENDROOT
BRANCH   1  12
ATOM     12  O   UNL     1      68.998  50.465  22.944  1.00  0.00    -0.493 OA
ATOM     13  C   UNL     1      68.602  49.099  22.894  1.00  0.00     0.278 C 
ENDBRANCH   1  12
BRANCH   2  14
ATOM     14  O   UNL     1      71.281  51.967  23.055  1.00  0.00    -0.493 OA
ATOM     15  C   UNL     1      72.391  52.817  23.325  1.00  0.00     0.278 C 
ENDBRANCH   2  14
TORSDOF 2
ENDMDL
MODEL 4
REMARK VINA RESULT:    -4.629      2.094      4.288
REMARK INTER + INTRA:          -5.280
REMARK INTER:                  -5.178
REMARK INTRA:                  -0.102
REMARK UNBOUND:                -0.110
REMARK SMILES COc1cc2ccc(=O)oc2cc1OC
REMARK SMILES IDX 3 1 13 2 12 3 11 4 5 5 4 6 6 7 7 8 8 9 9 10 10 11 2 12 1 13
REMARK SMILES IDX 14 14 15 15
REMARK H PARENT
REMARK Flexibility Score: inf
ROOT
ATOM      1  C   UNL     1      68.258  52.155  19.031  1.00  0.00     0.161 A 
ATOM      2  C   UNL     1      69.413  52.756  18.501  1.00  0.00     0.164 A 
ATOM      3  C   UNL     1      70.543  52.944  19.322  1.00  0.00     0.098 A 
ATOM      4  C   UNL     1      70.523  52.537  20.659  1.00  0.00     0.142 A 
ATOM      5  C   UNL     1      69.365  51.934  21.190  1.00  0.00     0.022 A 
ATOM      6  C   UNL     1      68.240  51.744  20.379  1.00  0.00     0.062 A 
ATOM      7  C   UNL     1      69.376  51.537  22.531  1.00  0.00     0.019 A 
ATOM      8  C   UNL     1      70.522  51.748  23.299  1.00  0.00     0.094 A 
ATOM      9  C   UNL     1      71.633  52.353  22.703  1.00  0.00     0.336 A 
ATOM     10  O   UNL     1      72.677  52.551  23.377  1.00  0.00    -0.246 OA
ATOM     11  O   UNL     1      71.595  52.720  21.425  1.00  0.00    -0.423 OA
ENDROOT
BRANCH   1  12
ATOM     12  O   UNL     1      67.151  51.982  18.185  1.00  0.00    -0.493 OA
ATOM     13  C   UNL     1      65.902  51.433  18.592  1.00  0.00     0.278 C 
ENDBRANCH   1  12
BRANCH   2  14
ATOM     14  O   UNL     1      69.398  53.152  17.154  1.00  0.00    -0.493 OA
ATOM     15  C   UNL     1      70.258  54.139  16.594  1.00  0.00     0.278 C 
ENDBRANCH   2  14
TORSDOF 2
ENDMDL
MODEL 5
REMARK VINA RESULT:    -4.612      1.571      5.609
REMARK INTER + INTRA:          -5.262
REMARK INTER:                  -5.146
REMARK INTRA:                  -0.116
REMARK UNBOUND:                -0.110
REMARK SMILES COc1cc2ccc(=O)oc2cc1OC
REMARK SMILES IDX 3 1 13 2 12 3 11 4 5 5 4 6 6 7 7 8 8 9 9 10 10 11 2 12 1 13
REMARK SMILES IDX 14 14 15 15
REMARK H PARENT
REMARK Flexibility Score: inf
ROOT
ATOM      1  C   UNL     1      71.608  53.569  18.394  1.00  0.00     0.161 A 
ATOM      2  C   UNL     1      71.011  53.824  17.147  1.00  0.00     0.164 A 
ATOM      3  C   UNL     1      69.673  53.444  16.922  1.00  0.00     0.098 A 
ATOM      4  C   UNL     1      68.936  52.817  17.930  1.00  0.00     0.142 A 
ATOM      5  C   UNL     1      69.534  52.562  19.181  1.00  0.00     0.022 A 
ATOM      6  C   UNL     1      70.864  52.937  19.410  1.00  0.00     0.062 A 
ATOM      7  C   UNL     1      68.770  51.933  20.169  1.00  0.00     0.019 A 
ATOM      8  C   UNL     1      67.450  51.578  19.892  1.00  0.00     0.094 A 
ATOM      9  C   UNL     1      66.923  51.863  18.628  1.00  0.00     0.336 A 
ATOM     10  O   UNL     1      65.735  51.552  18.358  1.00  0.00    -0.246 OA
ATOM     11  O   UNL     1      67.673  52.462  17.706  1.00  0.00    -0.423 OA
ENDROOT
BRANCH   1  12
ATOM     12  O   UNL     1      72.943  53.961  18.584  1.00  0.00    -0.493 OA
ATOM     13  C   UNL     1      73.380  54.886  19.574  1.00  0.00     0.278 C 
ENDBRANCH   1  12
BRANCH   2  14
ATOM     14  O   UNL     1      71.782  54.456  16.158  1.00  0.00    -0.493 OA
ATOM     15  C   UNL     1      71.244  55.145  15.034  1.00  0.00     0.278 C 
ENDBRANCH   2  14
TORSDOF 2
ENDMDL
MODEL 6
REMARK VINA RESULT:    -4.605      1.400      5.163
REMARK INTER + INTRA:          -5.254
REMARK INTER:                  -5.151
REMARK INTRA:                  -0.103
REMARK UNBOUND:                -0.110
REMARK SMILES COc1cc2ccc(=O)oc2cc1OC
REMARK SMILES IDX 3 1 13 2 12 3 11 4 5 5 4 6 6 7 7 8 8 9 9 10 10 11 2 12 1 13
REMARK SMILES IDX 14 14 15 15
REMARK H PARENT
REMARK Flexibility Score: inf
ROOT
ATOM      1  C   UNL     1      71.514  54.406  16.351  1.00  0.00     0.161 A 
ATOM      2  C   UNL     1      72.343  54.098  17.443  1.00  0.00     0.164 A 
ATOM      3  C   UNL     1      71.821  53.376  18.536  1.00  0.00     0.098 A 
ATOM      4  C   UNL     1      70.486  52.964  18.539  1.00  0.00     0.142 A 
ATOM      5  C   UNL     1      69.654  53.273  17.443  1.00  0.00     0.022 A 
ATOM      6  C   UNL     1      70.168  53.990  16.356  1.00  0.00     0.062 A 
ATOM      7  C   UNL     1      68.323  52.847  17.476  1.00  0.00     0.019 A 
ATOM      8  C   UNL     1      67.858  52.136  18.583  1.00  0.00     0.094 A 
ATOM      9  C   UNL     1      68.741  51.866  19.633  1.00  0.00     0.336 A 
ATOM     10  O   UNL     1      68.343  51.225  20.640  1.00  0.00    -0.246 OA
ATOM     11  O   UNL     1      70.004  52.283  19.575  1.00  0.00    -0.423 OA
ENDROOT
BRANCH   1  12
ATOM     12  O   UNL     1      72.067  55.127  15.280  1.00  0.00    -0.493 OA
ATOM     13  C   UNL     1      71.322  55.633  14.177  1.00  0.00     0.278 C 
ENDBRANCH   1  12
BRANCH   2  14
ATOM     14  O   UNL     1      73.679  54.527  17.406  1.00  0.00    -0.493 OA
ATOM     15  C   UNL     1      74.751  53.890  18.094  1.00  0.00     0.278 C 
ENDBRANCH   2  14
TORSDOF 2
ENDMDL
MODEL 7
REMARK VINA RESULT:    -4.548      2.165      4.727
REMARK INTER + INTRA:          -5.191
REMARK INTER:                  -5.042
REMARK INTRA:                  -0.149
REMARK UNBOUND:                -0.110
REMARK SMILES COc1cc2ccc(=O)oc2cc1OC
REMARK SMILES IDX 3 1 13 2 12 3 11 4 5 5 4 6 6 7 7 8 8 9 9 10 10 11 2 12 1 13
REMARK SMILES IDX 14 14 15 15
REMARK H PARENT
REMARK Flexibility Score: inf
ROOT
ATOM      1  C   UNL     1      71.245  52.902  21.030  1.00  0.00     0.161 A 
ATOM      2  C   UNL     1      70.411  52.313  21.996  1.00  0.00     0.164 A 
ATOM      3  C   UNL     1      69.135  51.844  21.625  1.00  0.00     0.098 A 
ATOM      4  C   UNL     1      68.695  51.958  20.304  1.00  0.00     0.142 A 
ATOM      5  C   UNL     1      69.532  52.548  19.335  1.00  0.00     0.022 A 
ATOM      6  C   UNL     1      70.800  53.016  19.698  1.00  0.00     0.062 A 
ATOM      7  C   UNL     1      69.063  52.647  18.021  1.00  0.00     0.019 A 
ATOM      8  C   UNL     1      67.791  52.166  17.710  1.00  0.00     0.094 A 
ATOM      9  C   UNL     1      67.016  51.593  18.724  1.00  0.00     0.336 A 
ATOM     10  O   UNL     1      65.867  51.153  18.464  1.00  0.00    -0.246 OA
ATOM     11  O   UNL     1      67.488  51.511  19.965  1.00  0.00    -0.423 OA
ENDROOT
BRANCH   1  12
ATOM     12  O   UNL     1      72.511  53.359  21.434  1.00  0.00    -0.493 OA
ATOM     13  C   UNL     1      72.896  54.728  21.484  1.00  0.00     0.278 C 
ENDBRANCH   1  12
BRANCH   2  14
ATOM     14  O   UNL     1      70.886  52.215  23.314  1.00  0.00    -0.493 OA
ATOM     15  C   UNL     1      70.621  53.165  24.340  1.00  0.00     0.278 C 
ENDBRANCH   2  14
TORSDOF 2
ENDMDL
MODEL 8
REMARK VINA RESULT:    -4.253      1.709      4.858
REMARK INTER + INTRA:          -4.861
REMARK INTER:                  -4.742
REMARK INTRA:                  -0.119
REMARK UNBOUND:                -0.110
REMARK SMILES COc1cc2ccc(=O)oc2cc1OC
REMARK SMILES IDX 3 1 13 2 12 3 11 4 5 5 4 6 6 7 7 8 8 9 9 10 10 11 2 12 1 13
REMARK SMILES IDX 14 14 15 15
REMARK H PARENT
REMARK Flexibility Score: inf
ROOT
ATOM      1  C   UNL     1      71.898  53.918  18.929  1.00  0.00     0.161 A 
ATOM      2  C   UNL     1      71.661  53.536  20.260  1.00  0.00     0.164 A 
ATOM      3  C   UNL     1      70.463  52.873  20.594  1.00  0.00     0.098 A 
ATOM      4  C   UNL     1      69.510  52.594  19.611  1.00  0.00     0.142 A 
ATOM      5  C   UNL     1      69.748  52.977  18.275  1.00  0.00     0.022 A 
ATOM      6  C   UNL     1      70.937  53.636  17.937  1.00  0.00     0.062 A 
ATOM      7  C   UNL     1      68.776  52.683  17.314  1.00  0.00     0.019 A 
ATOM      8  C   UNL     1      67.608  52.025  17.700  1.00  0.00     0.094 A 
ATOM      9  C   UNL     1      67.441  51.676  19.044  1.00  0.00     0.336 A 
ATOM     10  O   UNL     1      66.395  51.081  19.413  1.00  0.00    -0.246 OA
ATOM     11  O   UNL     1      68.383  51.968  19.937  1.00  0.00    -0.423 OA
ENDROOT
BRANCH   1  12
ATOM     12  O   UNL     1      73.103  54.577  18.631  1.00  0.00    -0.493 OA
ATOM     13  C   UNL     1      74.219  53.968  17.991  1.00  0.00     0.278 C 
ENDBRANCH   1  12
BRANCH   2  14
ATOM     14  O   UNL     1      72.640  53.832  21.222  1.00  0.00    -0.493 OA
ATOM     15  C   UNL     1      72.458  53.695  22.627  1.00  0.00     0.278 C 
ENDBRANCH   2  14
TORSDOF 2
ENDMDL
MODEL 9
REMARK VINA RESULT:    -4.234      3.860      5.165
REMARK INTER + INTRA:          -4.839
REMARK INTER:                  -4.689
REMARK INTRA:                  -0.151
REMARK UNBOUND:                -0.110
REMARK SMILES COc1cc2ccc(=O)oc2cc1OC
REMARK SMILES IDX 3 1 13 2 12 3 11 4 5 5 4 6 6 7 7 8 8 9 9 10 10 11 2 12 1 13
REMARK SMILES IDX 14 14 15 15
REMARK H PARENT
REMARK Flexibility Score: inf
ROOT
ATOM      1  C   UNL     1      67.689  52.900  20.202  1.00  0.00     0.161 A 
ATOM      2  C   UNL     1      68.696  52.616  21.141  1.00  0.00     0.164 A 
ATOM      3  C   UNL     1      68.855  53.446  22.268  1.00  0.00     0.098 A 
ATOM      4  C   UNL     1      68.018  54.549  22.459  1.00  0.00     0.142 A 
ATOM      5  C   UNL     1      67.008  54.834  21.518  1.00  0.00     0.022 A 
ATOM      6  C   UNL     1      66.845  54.012  20.396  1.00  0.00     0.062 A 
ATOM      7  C   UNL     1      66.186  55.944  21.738  1.00  0.00     0.019 A 
ATOM      8  C   UNL     1      66.388  56.732  22.871  1.00  0.00     0.094 A 
ATOM      9  C   UNL     1      67.411  56.389  23.761  1.00  0.00     0.336 A 
ATOM     10  O   UNL     1      67.609  57.086  24.789  1.00  0.00    -0.246 OA
ATOM     11  O   UNL     1      68.178  55.326  23.528  1.00  0.00    -0.423 OA
ENDROOT
BRANCH   1  12
ATOM     12  O   UNL     1      67.558  52.051  19.091  1.00  0.00    -0.493 OA
ATOM     13  C   UNL     1      66.406  51.265  18.806  1.00  0.00     0.278 C 
ENDBRANCH   1  12
BRANCH   2  14
ATOM     14  O   UNL     1      69.518  51.500  20.917  1.00  0.00    -0.493 OA
ATOM     15  C   UNL     1      69.382  50.250  21.585  1.00  0.00     0.278 C 
ENDBRANCH   2  14
TORSDOF 2
ENDMDL
