MODEL 1
REMARK VINA RESULT:    -4.100      0.000      0.000
REMARK INTER + INTRA:          -5.112
REMARK INTER:                  -5.059
REMARK INTRA:                  -0.053
REMARK UNBOUND:                -0.053
REMARK SMILES CCCCCC(C)=O
REMARK SMILES IDX 4 1 3 2 2 3 1 4 5 5 6 6 8 7 7 8
REMARK H PARENT
REMARK Flexibility Score: inf
ROOT
ATOM      1  C   UNL     1      25.923  57.255  -9.327  1.00  0.00     0.008 C 
ENDROOT
BRANCH   1   2
ATOM      2  C   UNL     1      26.294  58.742  -9.468  1.00  0.00     0.000 C 
BRANCH   2   3
ATOM      3  C   UNL     1      27.514  58.967 -10.374  1.00  0.00    -0.003 C 
ATOM      4  C   UNL     1      27.958  60.426 -10.344  1.00  0.00     0.004 C 
ENDBRANCH   2   3
ENDBRANCH   1   2
BRANCH   1   5
ATOM      5  C   UNL     1      24.552  57.008  -8.676  1.00  0.00     0.075 C 
BRANCH   5   6
ATOM      6  C   UNL     1      24.470  55.653  -8.022  1.00  0.00     0.129 C 
ATOM      7  O   UNL     1      25.492  55.008  -7.845  1.00  0.00    -0.300 OA
ATOM      8  C   UNL     1      23.158  55.079  -7.576  1.00  0.00     0.087 C 
ENDBRANCH   5   6
ENDBRANCH   1   5
TORSDOF 4
ENDMDL
MODEL 2
REMARK VINA RESULT:    -4.066      2.165      5.045
REMARK INTER + INTRA:          -5.069
REMARK INTER:                  -4.974
REMARK INTRA:                  -0.095
REMARK UNBOUND:                -0.053
REMARK SMILES CCCCCC(C)=O
REMARK SMILES IDX 4 1 3 2 2 3 1 4 5 5 6 6 8 7 7 8
REMARK H PARENT
REMARK Flexibility Score: inf
ROOT
ATOM      1  C   UNL     1      25.803  57.013  -9.012  1.00  0.00     0.008 C 
ENDROOT
BRANCH   1   2
ATOM      2  C   UNL     1      24.541  56.134  -8.945  1.00  0.00     0.000 C 
BRANCH   2   3
ATOM      3  C   UNL     1      24.281  55.571  -7.540  1.00  0.00    -0.003 C 
ATOM      4  C   UNL     1      22.886  54.961  -7.442  1.00  0.00     0.004 C 
ENDBRANCH   2   3
ENDBRANCH   1   2
BRANCH   1   5
ATOM      5  C   UNL     1      25.516  58.524  -9.018  1.00  0.00     0.075 C 
BRANCH   5   6
ATOM      6  C   UNL     1      26.685  59.320  -9.538  1.00  0.00     0.129 C 
ATOM      7  O   UNL     1      26.947  60.402  -9.035  1.00  0.00    -0.300 OA
ATOM      8  C   UNL     1      27.542  58.808 -10.657  1.00  0.00     0.087 C 
ENDBRANCH   5   6
ENDBRANCH   1   5
TORSDOF 4
ENDMDL
MODEL 3
REMARK VINA RESULT:    -3.706      1.412      1.595
REMARK INTER + INTRA:          -4.626
REMARK INTER:                  -4.510
REMARK INTRA:                  -0.116
REMARK UNBOUND:                -0.053
REMARK SMILES CCCCCC(C)=O
REMARK SMILES IDX 4 1 3 2 2 3 1 4 5 5 6 6 8 7 7 8
REMARK H PARENT
REMARK Flexibility Score: inf
ROOT
ATOM      1  C   UNL     1      25.665  58.689  -9.018  1.00  0.00     0.008 C 
ENDROOT
BRANCH   1   2
ATOM      2  C   UNL     1      26.693  59.685  -9.585  1.00  0.00     0.000 C 
BRANCH   2   3
ATOM      3  C   UNL     1      27.726  59.016 -10.504  1.00  0.00    -0.003 C 
ATOM      4  C   UNL     1      29.088  59.692 -10.382  1.00  0.00     0.004 C 
ENDBRANCH   2   3
ENDBRANCH   1   2
BRANCH   1   5
ATOM      5  C   UNL     1      25.910  57.229  -9.435  1.00  0.00     0.075 C 
BRANCH   5   6
ATOM      6  C   UNL     1      24.990  56.274  -8.718  1.00  0.00     0.129 C 
ATOM      7  O   UNL     1      23.781  56.425  -8.805  1.00  0.00    -0.300 OA
ATOM      8  C   UNL     1      25.528  55.135  -7.905  1.00  0.00     0.087 C 
ENDBRANCH   5   6
ENDBRANCH   1   5
TORSDOF 4
ENDMDL
MODEL 4
REMARK VINA RESULT:    -3.581      2.471      5.350
REMARK INTER + INTRA:          -4.472
REMARK INTER:                  -4.416
REMARK INTRA:                  -0.056
REMARK UNBOUND:                -0.053
REMARK SMILES CCCCCC(C)=O
REMARK SMILES IDX 4 1 3 2 2 3 1 4 5 5 6 6 8 7 7 8
REMARK H PARENT
REMARK Flexibility Score: inf
ROOT
ATOM      1  C   UNL     1      26.645  58.452 -10.057  1.00  0.00     0.008 C 
ENDROOT
BRANCH   1   2
ATOM      2  C   UNL     1      25.567  58.061  -9.030  1.00  0.00     0.000 C 
BRANCH   2   3
ATOM      3  C   UNL     1      25.615  56.572  -8.655  1.00  0.00    -0.003 C 
ATOM      4  C   UNL     1      24.226  55.945  -8.721  1.00  0.00     0.004 C 
ENDBRANCH   2   3
ENDBRANCH   1   2
BRANCH   1   5
ATOM      5  C   UNL     1      27.385  59.759  -9.725  1.00  0.00     0.075 C 
BRANCH   5   6
ATOM      6  C   UNL     1      28.815  59.736 -10.199  1.00  0.00     0.129 C 
ATOM      7  O   UNL     1      29.146  58.953 -11.076  1.00  0.00    -0.300 OA
ATOM      8  C   UNL     1      29.844  60.661  -9.620  1.00  0.00     0.087 C 
ENDBRANCH   5   6
ENDBRANCH   1   5
TORSDOF 4
ENDMDL
MODEL 5
REMARK VINA RESULT:    -3.472     15.069     16.523
REMARK INTER + INTRA:          -4.336
REMARK INTER:                  -4.228
REMARK INTRA:                  -0.108
REMARK UNBOUND:                -0.053
REMARK SMILES CCCCCC(C)=O
REMARK SMILES IDX 4 1 3 2 2 3 1 4 5 5 6 6 8 7 7 8
REMARK H PARENT
REMARK Flexibility Score: inf
ROOT
ATOM      1  C   UNL     1      31.790  45.500   1.116  1.00  0.00     0.008 C 
ENDROOT
BRANCH   1   2
ATOM      2  C   UNL     1      32.539  45.595   2.457  1.00  0.00     0.000 C 
BRANCH   2   3
ATOM      3  C   UNL     1      32.985  47.027   2.789  1.00  0.00    -0.003 C 
ATOM      4  C   UNL     1      32.080  47.653   3.846  1.00  0.00     0.004 C 
ENDBRANCH   2   3
ENDBRANCH   1   2
BRANCH   1   5
ATOM      5  C   UNL     1      30.261  45.413   1.254  1.00  0.00     0.075 C 
BRANCH   5   6
ATOM      6  C   UNL     1      29.594  45.048  -0.047  1.00  0.00     0.129 C 
ATOM      7  O   UNL     1      30.136  44.251  -0.798  1.00  0.00    -0.300 OA
ATOM      8  C   UNL     1      28.272  45.638  -0.438  1.00  0.00     0.087 C 
ENDBRANCH   5   6
ENDBRANCH   1   5
TORSDOF 4
ENDMDL
MODEL 6
REMARK VINA RESULT:    -3.461     16.361     18.228
REMARK INTER + INTRA:          -4.323
REMARK INTER:                  -4.061
REMARK INTRA:                  -0.262
REMARK UNBOUND:                -0.053
REMARK SMILES CCCCCC(C)=O
REMARK SMILES IDX 4 1 3 2 2 3 1 4 5 5 6 6 8 7 7 8
REMARK H PARENT
REMARK Flexibility Score: inf
ROOT
ATOM      1  C   UNL     1      16.844  43.834   0.796  1.00  0.00     0.008 C 
ENDROOT
BRANCH   1   2
ATOM      2  C   UNL     1      15.753  44.620   1.545  1.00  0.00     0.000 C 
BRANCH   2   3
ATOM      3  C   UNL     1      14.897  45.488   0.610  1.00  0.00    -0.003 C 
ATOM      4  C   UNL     1      15.612  45.737  -0.715  1.00  0.00     0.004 C 
ENDBRANCH   2   3
ENDBRANCH   1   2
BRANCH   1   5
ATOM      5  C   UNL     1      18.223  43.872   1.474  1.00  0.00     0.075 C 
BRANCH   5   6
ATOM      6  C   UNL     1      19.331  44.148   0.490  1.00  0.00     0.129 C 
ATOM      7  O   UNL     1      20.255  43.356   0.387  1.00  0.00    -0.300 OA
ATOM      8  C   UNL     1      19.320  45.374  -0.374  1.00  0.00     0.087 C 
ENDBRANCH   5   6
ENDBRANCH   1   5
TORSDOF 4
ENDMDL
MODEL 7
REMARK VINA RESULT:    -3.397     16.709     18.265
REMARK INTER + INTRA:          -4.244
REMARK INTER:                  -3.980
REMARK INTRA:                  -0.265
REMARK UNBOUND:                -0.053
REMARK SMILES CCCCCC(C)=O
REMARK SMILES IDX 4 1 3 2 2 3 1 4 5 5 6 6 8 7 7 8
REMARK H PARENT
REMARK Flexibility Score: inf
ROOT
ATOM      1  C   UNL     1      16.992  43.671   0.914  1.00  0.00     0.008 C 
ENDROOT
BRANCH   1   2
ATOM      2  C   UNL     1      18.381  43.779   1.568  1.00  0.00     0.000 C 
BRANCH   2   3
ATOM      3  C   UNL     1      19.512  43.942   0.541  1.00  0.00    -0.003 C 
ATOM      4  C   UNL     1      19.342  45.228  -0.262  1.00  0.00     0.004 C 
ENDBRANCH   2   3
ENDBRANCH   1   2
BRANCH   1   5
ATOM      5  C   UNL     1      15.914  44.541   1.581  1.00  0.00     0.075 C 
BRANCH   5   6
ATOM      6  C   UNL     1      15.208  45.429   0.588  1.00  0.00     0.129 C 
ATOM      7  O   UNL     1      14.177  45.996   0.916  1.00  0.00    -0.300 OA
ATOM      8  C   UNL     1      15.750  45.638  -0.794  1.00  0.00     0.087 C 
ENDBRANCH   5   6
ENDBRANCH   1   5
TORSDOF 4
ENDMDL
MODEL 8
REMARK VINA RESULT:    -3.320      5.460      7.318
REMARK INTER + INTRA:          -4.149
REMARK INTER:                  -3.963
REMARK INTRA:                  -0.186
REMARK UNBOUND:                -0.053
REMARK SMILES CCCCCC(C)=O
REMARK SMILES IDX 4 1 3 2 2 3 1 4 5 5 6 6 8 7 7 8
REMARK H PARENT
REMARK Flexibility Score: inf
ROOT
ATOM      1  C   UNL     1      30.339  57.305 -13.178  1.00  0.00     0.008 C 
ENDROOT
BRANCH   1   2
ATOM      2  C   UNL     1      31.542  56.623 -13.855  1.00  0.00     0.000 C 
BRANCH   2   3
ATOM      3  C   UNL     1      32.792  57.516 -13.886  1.00  0.00    -0.003 C 
ATOM      4  C   UNL     1      34.028  56.746 -13.432  1.00  0.00     0.004 C 
ENDBRANCH   2   3
ENDBRANCH   1   2
BRANCH   1   5
ATOM      5  C   UNL     1      30.550  58.799 -12.882  1.00  0.00     0.075 C 
BRANCH   5   6
ATOM      6  C   UNL     1      30.409  59.110 -11.414  1.00  0.00     0.129 C 
ATOM      7  O   UNL     1      31.353  58.914 -10.664  1.00  0.00    -0.300 OA
ATOM      8  C   UNL     1      29.133  59.665 -10.852  1.00  0.00     0.087 C 
ENDBRANCH   5   6
ENDBRANCH   1   5
TORSDOF 4
ENDMDL
MODEL 9
REMARK VINA RESULT:    -3.235      4.893      7.054
REMARK INTER + INTRA:          -4.045
REMARK INTER:                  -3.955
REMARK INTRA:                  -0.090
REMARK UNBOUND:                -0.053
REMARK SMILES CCCCCC(C)=O
REMARK SMILES IDX 4 1 3 2 2 3 1 4 5 5 6 6 8 7 7 8
REMARK H PARENT
REMARK Flexibility Score: inf
ROOT
ATOM      1  C   UNL     1      30.070  58.909 -11.989  1.00  0.00     0.008 C 
ENDROOT
BRANCH   1   2
ATOM      2  C   UNL     1      29.758  59.640 -10.672  1.00  0.00     0.000 C 
BRANCH   2   3
ATOM      3  C   UNL     1      28.295  60.099 -10.578  1.00  0.00    -0.003 C 
ATOM      4  C   UNL     1      27.369  58.922 -10.289  1.00  0.00     0.004 C 
ENDBRANCH   2   3
ENDBRANCH   1   2
BRANCH   1   5
ATOM      5  C   UNL     1      31.572  58.701 -12.252  1.00  0.00     0.075 C 
BRANCH   5   6
ATOM      6  C   UNL     1      31.820  57.737 -13.384  1.00  0.00     0.129 C 
ATOM      7  O   UNL     1      32.721  57.962 -14.178  1.00  0.00    -0.300 OA
ATOM      8  C   UNL     1      30.988  56.501 -13.554  1.00  0.00     0.087 C 
ENDBRANCH   5   6
ENDBRANCH   1   5
TORSDOF 4
ENDMDL
