MODEL 1
REMARK VINA RESULT:    -2.349      0.000      0.000
REMARK INTER + INTRA:          -4.375
REMARK INTER:                  -3.585
REMARK INTRA:                  -0.789
REMARK UNBOUND:                -0.789
REMARK SMILES O=C([O-])CCCCCCCCC(=O)[O-]
REMARK SMILES IDX 7 1 6 2 5 3 4 4 2 5 1 6 3 7 8 8 9 9 10 10 11 11 12 12 13 13
REMARK SMILES IDX 14 14
REMARK H PARENT
REMARK Flexibility Score: inf
ROOT
ATOM      1  C   UNL     1     177.942 204.834 201.467  1.00  0.00     0.000 C 
ENDROOT
BRANCH   1   2
ATOM      2  C   UNL     1     176.563 205.509 201.372  1.00  0.00     0.000 C 
BRANCH   2   3
ATOM      3  C   UNL     1     176.429 206.739 202.288  1.00  0.00     0.006 C 
BRANCH   3   4
ATOM      4  C   UNL     1     176.256 208.066 201.529  1.00  0.00     0.053 C 
BRANCH   4   5
ATOM      5  C   UNL     1     175.041 208.076 200.651  1.00  0.00     0.041 C 
ATOM      6  O   UNL     1     173.889 208.082 201.160  1.00  0.00    -0.550 OA
ATOM      7  O   UNL     1     175.181 208.114 199.270  1.00  0.00    -0.550 OA
ENDBRANCH   4   5
ENDBRANCH   3   4
ENDBRANCH   2   3
ENDBRANCH   1   2
BRANCH   1   8
ATOM      8  C   UNL     1     178.694 205.210 202.754  1.00  0.00     0.000 C 
BRANCH   8   9
ATOM      9  C   UNL     1     180.210 205.346 202.532  1.00  0.00     0.000 C 
BRANCH   9  10
ATOM     10  C   UNL     1     180.584 205.431 201.044  1.00  0.00     0.006 C 
BRANCH  10  11
ATOM     11  C   UNL     1     180.860 206.869 200.586  1.00  0.00     0.053 C 
BRANCH  11  12
ATOM     12  C   UNL     1     180.037 207.201 199.383  1.00  0.00     0.041 C 
ATOM     13  O   UNL     1     178.892 207.708 199.519  1.00  0.00    -0.550 OA
ATOM     14  O   UNL     1     180.553 207.000 198.109  1.00  0.00    -0.550 OA
ENDBRANCH  11  12
ENDBRANCH  10  11
ENDBRANCH   9  10
ENDBRANCH   8   9
ENDBRANCH   1   8
TORSDOF 9
ENDMDL
MODEL 2
REMARK VINA RESULT:    -2.314      1.438      2.195
REMARK INTER + INTRA:          -4.321
REMARK INTER:                  -3.494
REMARK INTRA:                  -0.826
REMARK UNBOUND:                -0.789
REMARK SMILES O=C([O-])CCCCCCCCC(=O)[O-]
REMARK SMILES IDX 7 1 6 2 5 3 4 4 2 5 1 6 3 7 8 8 9 9 10 10 11 11 12 12 13 13
REMARK SMILES IDX 14 14
REMARK H PARENT
REMARK Flexibility Score: inf
ROOT
ATOM      1  C   UNL     1     177.662 205.725 202.184  1.00  0.00     0.000 C 
ENDROOT
BRANCH   1   2
ATOM      2  C   UNL     1     176.286 206.389 201.995  1.00  0.00     0.000 C 
BRANCH   2   3
ATOM      3  C   UNL     1     176.376 207.793 201.371  1.00  0.00     0.006 C 
BRANCH   3   4
ATOM      4  C   UNL     1     175.274 208.087 200.337  1.00  0.00     0.053 C 
BRANCH   4   5
ATOM      5  C   UNL     1     174.812 206.856 199.618  1.00  0.00     0.041 C 
ATOM      6  O   UNL     1     175.524 206.342 198.715  1.00  0.00    -0.550 OA
ATOM      7  O   UNL     1     173.611 206.256 199.969  1.00  0.00    -0.550 OA
ENDBRANCH   4   5
ENDBRANCH   3   4
ENDBRANCH   2   3
ENDBRANCH   1   2
BRANCH   1   8
ATOM      8  C   UNL     1     178.404 205.518 200.854  1.00  0.00     0.000 C 
BRANCH   8   9
ATOM      9  C   UNL     1     179.814 206.131 200.865  1.00  0.00     0.000 C 
BRANCH   9  10
ATOM     10  C   UNL     1     179.981 207.248 199.824  1.00  0.00     0.006 C 
BRANCH  10  11
ATOM     11  C   UNL     1     178.893 207.216 198.744  1.00  0.00     0.053 C 
BRANCH  11  12
ATOM     12  C   UNL     1     179.506 207.071 197.388  1.00  0.00     0.041 C 
ATOM     13  O   UNL     1     180.749 207.204 197.237  1.00  0.00    -0.550 OA
ATOM     14  O   UNL     1     178.712 206.738 196.298  1.00  0.00    -0.550 OA
ENDBRANCH  11  12
ENDBRANCH  10  11
ENDBRANCH   9  10
ENDBRANCH   8   9
ENDBRANCH   1   8
TORSDOF 9
ENDMDL
MODEL 3
REMARK VINA RESULT:    -2.288      2.516      3.981
REMARK INTER + INTRA:          -4.281
REMARK INTER:                  -3.209
REMARK INTRA:                  -1.071
REMARK UNBOUND:                -0.789
REMARK SMILES O=C([O-])CCCCCCCCC(=O)[O-]
REMARK SMILES IDX 7 1 6 2 5 3 4 4 2 5 1 6 3 7 8 8 9 9 10 10 11 11 12 12 13 13
REMARK SMILES IDX 14 14
REMARK H PARENT
REMARK Flexibility Score: inf
ROOT
ATOM      1  C   UNL     1     175.903 206.182 201.742  1.00  0.00     0.000 C 
ENDROOT
BRANCH   1   2
ATOM      2  C   UNL     1     176.576 205.439 202.910  1.00  0.00     0.000 C 
BRANCH   2   3
ATOM      3  C   UNL     1     178.108 205.371 202.777  1.00  0.00     0.006 C 
BRANCH   3   4
ATOM      4  C   UNL     1     178.639 203.979 202.389  1.00  0.00     0.053 C 
BRANCH   4   5
ATOM      5  C   UNL     1     178.937 203.863 200.924  1.00  0.00     0.041 C 
ATOM      6  O   UNL     1     180.128 203.835 200.518  1.00  0.00    -0.550 OA
ATOM      7  O   UNL     1     177.898 203.752 200.010  1.00  0.00    -0.550 OA
ENDBRANCH   4   5
ENDBRANCH   3   4
ENDBRANCH   2   3
ENDBRANCH   1   2
BRANCH   1   8
ATOM      8  C   UNL     1     176.326 207.657 201.660  1.00  0.00     0.000 C 
BRANCH   8   9
ATOM      9  C   UNL     1     176.556 208.125 200.213  1.00  0.00     0.000 C 
BRANCH   9  10
ATOM     10  C   UNL     1     177.498 207.194 199.434  1.00  0.00     0.006 C 
BRANCH  10  11
ATOM     11  C   UNL     1     178.975 207.434 199.771  1.00  0.00     0.053 C 
BRANCH  11  12
ATOM     12  C   UNL     1     179.853 206.875 198.697  1.00  0.00     0.041 C 
ATOM     13  O   UNL     1     181.043 207.271 198.582  1.00  0.00    -0.550 OA
ATOM     14  O   UNL     1     179.375 205.880 197.855  1.00  0.00    -0.550 OA
ENDBRANCH  11  12
ENDBRANCH  10  11
ENDBRANCH   9  10
ENDBRANCH   8   9
ENDBRANCH   1   8
TORSDOF 9
ENDMDL
MODEL 4
REMARK VINA RESULT:    -2.277      2.177      3.647
REMARK INTER + INTRA:          -4.265
REMARK INTER:                  -3.417
REMARK INTRA:                  -0.847
REMARK UNBOUND:                -0.789
REMARK SMILES O=C([O-])CCCCCCCCC(=O)[O-]
REMARK SMILES IDX 7 1 6 2 5 3 4 4 2 5 1 6 3 7 8 8 9 9 10 10 11 11 12 12 13 13
REMARK SMILES IDX 14 14
REMARK H PARENT
REMARK Flexibility Score: inf
ROOT
ATOM      1  C   UNL     1     174.962 206.656 198.629  1.00  0.00     0.000 C 
ENDROOT
BRANCH   1   2
ATOM      2  C   UNL     1     174.621 208.059 199.162  1.00  0.00     0.000 C 
BRANCH   2   3
ATOM      3  C   UNL     1     174.528 208.113 200.698  1.00  0.00     0.006 C 
BRANCH   3   4
ATOM      4  C   UNL     1     175.886 207.975 201.410  1.00  0.00     0.053 C 
BRANCH   4   5
ATOM      5  C   UNL     1     176.100 206.607 201.984  1.00  0.00     0.041 C 
ATOM      6  O   UNL     1     177.260 206.216 202.280  1.00  0.00    -0.550 OA
ATOM      7  O   UNL     1     175.015 205.775 202.222  1.00  0.00    -0.550 OA
ENDBRANCH   4   5
ENDBRANCH   3   4
ENDBRANCH   2   3
ENDBRANCH   1   2
BRANCH   1   8
ATOM      8  C   UNL     1     175.915 206.700 197.424  1.00  0.00     0.000 C 
BRANCH   8   9
ATOM      9  C   UNL     1     177.204 207.485 197.721  1.00  0.00     0.000 C 
BRANCH   9  10
ATOM     10  C   UNL     1     178.207 206.679 198.561  1.00  0.00     0.006 C 
BRANCH  10  11
ATOM     11  C   UNL     1     178.981 207.553 199.555  1.00  0.00     0.053 C 
BRANCH  11  12
ATOM     12  C   UNL     1     180.430 207.185 199.557  1.00  0.00     0.041 C 
ATOM     13  O   UNL     1     181.038 206.998 198.470  1.00  0.00    -0.550 OA
ATOM     14  O   UNL     1     181.124 207.097 200.757  1.00  0.00    -0.550 OA
ENDBRANCH  11  12
ENDBRANCH  10  11
ENDBRANCH   9  10
ENDBRANCH   8   9
ENDBRANCH   1   8
TORSDOF 9
ENDMDL
MODEL 5
REMARK VINA RESULT:    -2.240      2.511      5.175
REMARK INTER + INTRA:          -4.207
REMARK INTER:                  -3.199
REMARK INTRA:                  -1.008
REMARK UNBOUND:                -0.789
REMARK SMILES O=C([O-])CCCCCCCCC(=O)[O-]
REMARK SMILES IDX 7 1 6 2 5 3 4 4 2 5 1 6 3 7 8 8 9 9 10 10 11 11 12 12 13 13
REMARK SMILES IDX 14 14
REMARK H PARENT
REMARK Flexibility Score: inf
ROOT
ATOM      1  C   UNL     1     178.108 206.554 200.854  1.00  0.00     0.000 C 
ENDROOT
BRANCH   1   2
ATOM      2  C   UNL     1     178.478 207.748 199.957  1.00  0.00     0.000 C 
BRANCH   2   3
ATOM      3  C   UNL     1     178.690 207.352 198.484  1.00  0.00     0.006 C 
BRANCH   3   4
ATOM      4  C   UNL     1     177.390 207.275 197.665  1.00  0.00     0.053 C 
BRANCH   4   5
ATOM      5  C   UNL     1     177.126 205.901 197.127  1.00  0.00     0.041 C 
ATOM      6  O   UNL     1     177.226 205.671 195.893  1.00  0.00    -0.550 OA
ATOM      7  O   UNL     1     176.801 204.866 197.994  1.00  0.00    -0.550 OA
ENDBRANCH   4   5
ENDBRANCH   3   4
ENDBRANCH   2   3
ENDBRANCH   1   2
BRANCH   1   8
ATOM      8  C   UNL     1     176.790 206.775 201.614  1.00  0.00     0.000 C 
BRANCH   8   9
ATOM      9  C   UNL     1     176.133 208.124 201.275  1.00  0.00     0.000 C 
BRANCH   9  10
ATOM     10  C   UNL     1     174.607 208.020 201.138  1.00  0.00     0.006 C 
BRANCH  10  11
ATOM     11  C   UNL     1     174.136 208.125 199.682  1.00  0.00     0.053 C 
BRANCH  11  12
ATOM     12  C   UNL     1     173.876 206.765 199.117  1.00  0.00     0.041 C 
ATOM     13  O   UNL     1     173.880 206.585 197.871  1.00  0.00    -0.550 OA
ATOM     14  O   UNL     1     173.680 205.684 199.968  1.00  0.00    -0.550 OA
ENDBRANCH  11  12
ENDBRANCH  10  11
ENDBRANCH   9  10
ENDBRANCH   8   9
ENDBRANCH   1   8
TORSDOF 9
ENDMDL
MODEL 6
REMARK VINA RESULT:    -2.209      2.195      5.223
REMARK INTER + INTRA:          -4.160
REMARK INTER:                  -3.443
REMARK INTRA:                  -0.716
REMARK UNBOUND:                -0.789
REMARK SMILES O=C([O-])CCCCCCCCC(=O)[O-]
REMARK SMILES IDX 7 1 6 2 5 3 4 4 2 5 1 6 3 7 8 8 9 9 10 10 11 11 12 12 13 13
REMARK SMILES IDX 14 14
REMARK H PARENT
REMARK Flexibility Score: inf
ROOT
ATOM      1  C   UNL     1     178.829 206.278 200.785  1.00  0.00     0.000 C 
ENDROOT
BRANCH   1   2
ATOM      2  C   UNL     1     179.017 207.417 199.769  1.00  0.00     0.000 C 
BRANCH   2   3
ATOM      3  C   UNL     1     178.897 206.946 198.308  1.00  0.00     0.006 C 
BRANCH   3   4
ATOM      4  C   UNL     1     177.590 207.378 197.619  1.00  0.00     0.053 C 
BRANCH   4   5
ATOM      5  C   UNL     1     177.774 207.667 196.160  1.00  0.00     0.041 C 
ATOM      6  O   UNL     1     176.813 208.103 195.472  1.00  0.00    -0.550 OA
ATOM      7  O   UNL     1     179.016 207.485 195.566  1.00  0.00    -0.550 OA
ENDBRANCH   4   5
ENDBRANCH   3   4
ENDBRANCH   2   3
ENDBRANCH   1   2
BRANCH   1   8
ATOM      8  C   UNL     1     177.352 205.896 200.975  1.00  0.00     0.000 C 
BRANCH   8   9
ATOM      9  C   UNL     1     176.669 206.717 202.082  1.00  0.00     0.000 C 
BRANCH   9  10
ATOM     10  C   UNL     1     175.864 207.902 201.526  1.00  0.00     0.006 C 
BRANCH  10  11
ATOM     11  C   UNL     1     175.051 207.530 200.280  1.00  0.00     0.053 C 
BRANCH  11  12
ATOM     12  C   UNL     1     173.586 207.577 200.578  1.00  0.00     0.041 C 
ATOM     13  O   UNL     1     173.151 207.164 201.685  1.00  0.00    -0.550 OA
ATOM     14  O   UNL     1     172.706 208.124 199.653  1.00  0.00    -0.550 OA
ENDBRANCH  11  12
ENDBRANCH  10  11
ENDBRANCH   9  10
ENDBRANCH   8   9
ENDBRANCH   1   8
TORSDOF 9
ENDMDL
MODEL 7
REMARK VINA RESULT:    -2.186      2.361      3.215
REMARK INTER + INTRA:          -4.125
REMARK INTER:                  -3.086
REMARK INTRA:                  -1.039
REMARK UNBOUND:                -0.789
REMARK SMILES O=C([O-])CCCCCCCCC(=O)[O-]
REMARK SMILES IDX 7 1 6 2 5 3 4 4 2 5 1 6 3 7 8 8 9 9 10 10 11 11 12 12 13 13
REMARK SMILES IDX 14 14
REMARK H PARENT
REMARK Flexibility Score: inf
ROOT
ATOM      1  C   UNL     1     177.968 207.105 199.023  1.00  0.00     0.000 C 
ENDROOT
BRANCH   1   2
ATOM      2  C   UNL     1     177.702 208.122 200.146  1.00  0.00     0.000 C 
BRANCH   2   3
ATOM      3  C   UNL     1     176.427 207.811 200.952  1.00  0.00     0.006 C 
BRANCH   3   4
ATOM      4  C   UNL     1     176.607 206.696 201.998  1.00  0.00     0.053 C 
BRANCH   4   5
ATOM      5  C   UNL     1     175.699 205.528 201.759  1.00  0.00     0.041 C 
ATOM      6  O   UNL     1     174.785 205.254 202.581  1.00  0.00    -0.550 OA
ATOM      7  O   UNL     1     175.841 204.760 200.611  1.00  0.00    -0.550 OA
ENDBRANCH   4   5
ENDBRANCH   3   4
ENDBRANCH   2   3
ENDBRANCH   1   2
BRANCH   1   8
ATOM      8  C   UNL     1     179.465 206.937 198.722  1.00  0.00     0.000 C 
BRANCH   8   9
ATOM      9  C   UNL     1     180.351 207.268 199.936  1.00  0.00     0.000 C 
BRANCH   9  10
ATOM     10  C   UNL     1     181.031 206.024 200.528  1.00  0.00     0.006 C 
BRANCH  10  11
ATOM     11  C   UNL     1     180.321 205.505 201.785  1.00  0.00     0.053 C 
BRANCH  11  12
ATOM     12  C   UNL     1     179.484 204.311 201.457  1.00  0.00     0.041 C 
ATOM     13  O   UNL     1     178.669 203.856 202.303  1.00  0.00    -0.550 OA
ATOM     14  O   UNL     1     179.565 203.728 200.198  1.00  0.00    -0.550 OA
ENDBRANCH  11  12
ENDBRANCH  10  11
ENDBRANCH   9  10
ENDBRANCH   8   9
ENDBRANCH   1   8
TORSDOF 9
ENDMDL
MODEL 8
REMARK VINA RESULT:    -2.186      2.385      4.806
REMARK INTER + INTRA:          -4.125
REMARK INTER:                  -3.185
REMARK INTRA:                  -0.940
REMARK UNBOUND:                -0.789
REMARK SMILES O=C([O-])CCCCCCCCC(=O)[O-]
REMARK SMILES IDX 7 1 6 2 5 3 4 4 2 5 1 6 3 7 8 8 9 9 10 10 11 11 12 12 13 13
REMARK SMILES IDX 14 14
REMARK H PARENT
REMARK Flexibility Score: inf
ROOT
ATOM      1  C   UNL     1     176.302 208.061 199.732  1.00  0.00     0.000 C 
ENDROOT
BRANCH   1   2
ATOM      2  C   UNL     1     177.533 207.370 199.120  1.00  0.00     0.000 C 
BRANCH   2   3
ATOM      3  C   UNL     1     178.851 207.765 199.810  1.00  0.00     0.006 C 
BRANCH   3   4
ATOM      4  C   UNL     1     179.994 206.756 199.597  1.00  0.00     0.053 C 
BRANCH   4   5
ATOM      5  C   UNL     1     180.101 206.297 198.174  1.00  0.00     0.041 C 
ATOM      6  O   UNL     1     179.868 205.096 197.875  1.00  0.00    -0.550 OA
ATOM      7  O   UNL     1     180.427 207.203 197.174  1.00  0.00    -0.550 OA
ENDBRANCH   4   5
ENDBRANCH   3   4
ENDBRANCH   2   3
ENDBRANCH   1   2
BRANCH   1   8
ATOM      8  C   UNL     1     176.164 207.795 201.239  1.00  0.00     0.000 C 
BRANCH   8   9
ATOM      9  C   UNL     1     175.213 206.626 201.546  1.00  0.00     0.000 C 
BRANCH   9  10
ATOM     10  C   UNL     1     175.847 205.575 202.470  1.00  0.00     0.006 C 
BRANCH  10  11
ATOM     11  C   UNL     1     177.375 205.694 202.539  1.00  0.00     0.053 C 
BRANCH  11  12
ATOM     12  C   UNL     1     178.020 204.620 201.722  1.00  0.00     0.041 C 
ATOM     13  O   UNL     1     177.424 204.141 200.721  1.00  0.00    -0.550 OA
ATOM     14  O   UNL     1     179.301 204.183 202.035  1.00  0.00    -0.550 OA
ENDBRANCH  11  12
ENDBRANCH  10  11
ENDBRANCH   9  10
ENDBRANCH   8   9
ENDBRANCH   1   8
TORSDOF 9
ENDMDL
MODEL 9
REMARK VINA RESULT:    -2.166      1.977      2.787
REMARK INTER + INTRA:          -4.094
REMARK INTER:                  -3.319
REMARK INTRA:                  -0.775
REMARK UNBOUND:                -0.789
REMARK SMILES O=C([O-])CCCCCCCCC(=O)[O-]
REMARK SMILES IDX 7 1 6 2 5 3 4 4 2 5 1 6 3 7 8 8 9 9 10 10 11 11 12 12 13 13
REMARK SMILES IDX 14 14
REMARK H PARENT
REMARK Flexibility Score: inf
ROOT
ATOM      1  C   UNL     1     177.274 206.008 200.635  1.00  0.00     0.000 C 
ENDROOT
BRANCH   1   2
ATOM      2  C   UNL     1     176.656 206.753 201.831  1.00  0.00     0.000 C 
BRANCH   2   3
ATOM      3  C   UNL     1     176.065 208.122 201.448  1.00  0.00     0.006 C 
BRANCH   3   4
ATOM      4  C   UNL     1     175.316 208.125 200.103  1.00  0.00     0.053 C 
BRANCH   4   5
ATOM      5  C   UNL     1     173.828 208.052 200.270  1.00  0.00     0.041 C 
ATOM      6  O   UNL     1     173.313 208.124 201.417  1.00  0.00    -0.550 OA
ATOM      7  O   UNL     1     173.009 207.937 199.156  1.00  0.00    -0.550 OA
ENDBRANCH   4   5
ENDBRANCH   3   4
ENDBRANCH   2   3
ENDBRANCH   1   2
BRANCH   1   8
ATOM      8  C   UNL     1     178.809 206.085 200.623  1.00  0.00     0.000 C 
BRANCH   8   9
ATOM      9  C   UNL     1     179.333 207.275 199.802  1.00  0.00     0.000 C 
BRANCH   9  10
ATOM     10  C   UNL     1     179.627 206.902 198.341  1.00  0.00     0.006 C 
BRANCH  10  11
ATOM     11  C   UNL     1     178.489 207.294 197.391  1.00  0.00     0.053 C 
BRANCH  11  12
ATOM     12  C   UNL     1     177.706 206.085 196.987  1.00  0.00     0.041 C 
ATOM     13  O   UNL     1     178.289 205.093 196.476  1.00  0.00    -0.550 OA
ATOM     14  O   UNL     1     176.337 206.033 197.221  1.00  0.00    -0.550 OA
ENDBRANCH  11  12
ENDBRANCH  10  11
ENDBRANCH   9  10
ENDBRANCH   8   9
ENDBRANCH   1   8
TORSDOF 9
ENDMDL
