MODEL 1
REMARK VINA RESULT:    -3.687      0.000      0.000
REMARK INTER + INTRA:          -4.786
REMARK INTER:                  -4.657
REMARK INTRA:                  -0.129
REMARK UNBOUND:                -0.129
REMARK SMILES CCCCCCO
REMARK SMILES IDX 4 1 3 2 2 3 1 4 5 5 6 6 7 7
REMARK H PARENT 7 8
REMARK Flexibility Score: inf
ROOT
ATOM      1  C   UNL     1      19.962  -1.198 -15.529  1.00  0.00     0.002 C 
ENDROOT
BRANCH   1   2
ATOM      2  C   UNL     1      21.256  -1.350 -16.344  1.00  0.00    -0.000 C 
BRANCH   2   3
ATOM      3  C   UNL     1      20.999  -1.373 -17.859  1.00  0.00    -0.003 C 
ATOM      4  C   UNL     1      19.820  -2.266 -18.246  1.00  0.00     0.004 C 
ENDBRANCH   2   3
ENDBRANCH   1   2
BRANCH   1   5
ATOM      5  C   UNL     1      19.726   0.270 -15.144  1.00  0.00     0.028 C 
BRANCH   5   6
ATOM      6  C   UNL     1      18.468   0.840 -15.804  1.00  0.00     0.156 C 
BRANCH   6   7
ATOM      7  O   UNL     1      17.388   0.828 -14.910  1.00  0.00    -0.396 OA
ATOM      8  H   UNL     1      17.481   0.009 -14.356  1.00  0.00     0.210 HD
ENDBRANCH   6   7
ENDBRANCH   5   6
ENDBRANCH   1   5
TORSDOF 5
ENDMDL
MODEL 2
REMARK VINA RESULT:    -3.651      8.694      9.803
REMARK INTER + INTRA:          -4.741
REMARK INTER:                  -4.599
REMARK INTRA:                  -0.142
REMARK UNBOUND:                -0.129
REMARK SMILES CCCCCCO
REMARK SMILES IDX 4 1 3 2 2 3 1 4 5 5 6 6 7 7
REMARK H PARENT 7 8
REMARK Flexibility Score: inf
ROOT
ATOM      1  C   UNL     1      15.823   0.501 -25.555  1.00  0.00     0.002 C 
ENDROOT
BRANCH   1   2
ATOM      2  C   UNL     1      16.328  -0.388 -24.409  1.00  0.00    -0.000 C 
BRANCH   2   3
ATOM      3  C   UNL     1      16.646   0.412 -23.137  1.00  0.00    -0.003 C 
ATOM      4  C   UNL     1      18.081   0.207 -22.652  1.00  0.00     0.004 C 
ENDBRANCH   2   3
ENDBRANCH   1   2
BRANCH   1   5
ATOM      5  C   UNL     1      16.005   1.988 -25.217  1.00  0.00     0.028 C 
BRANCH   5   6
ATOM      6  C   UNL     1      17.114   2.634 -26.051  1.00  0.00     0.156 C 
BRANCH   6   7
ATOM      7  O   UNL     1      17.220   2.013 -27.304  1.00  0.00    -0.396 OA
ATOM      8  H   UNL     1      18.169   2.092 -27.586  1.00  0.00     0.210 HD
ENDBRANCH   6   7
ENDBRANCH   5   6
ENDBRANCH   1   5
TORSDOF 5
ENDMDL
MODEL 3
REMARK VINA RESULT:    -3.627      2.124      3.702
REMARK INTER + INTRA:          -4.711
REMARK INTER:                  -4.617
REMARK INTRA:                  -0.094
REMARK UNBOUND:                -0.129
REMARK SMILES CCCCCCO
REMARK SMILES IDX 4 1 3 2 2 3 1 4 5 5 6 6 7 7
REMARK H PARENT 7 8
REMARK Flexibility Score: inf
ROOT
ATOM      1  C   UNL     1      19.806  -1.106 -15.516  1.00  0.00     0.002 C 
ENDROOT
BRANCH   1   2
ATOM      2  C   UNL     1      20.469   0.200 -15.052  1.00  0.00    -0.000 C 
BRANCH   2   3
ATOM      3  C   UNL     1      19.443   1.285 -14.688  1.00  0.00    -0.003 C 
ATOM      4  C   UNL     1      18.121   1.126 -15.439  1.00  0.00     0.004 C 
ENDBRANCH   2   3
ENDBRANCH   1   2
BRANCH   1   5
ATOM      5  C   UNL     1      20.584  -1.732 -16.682  1.00  0.00     0.028 C 
BRANCH   5   6
ATOM      6  C   UNL     1      19.667  -2.094 -17.854  1.00  0.00     0.156 C 
BRANCH   6   7
ATOM      7  O   UNL     1      19.094  -3.360 -17.663  1.00  0.00    -0.396 OA
ATOM      8  H   UNL     1      19.689  -3.856 -17.041  1.00  0.00     0.210 HD
ENDBRANCH   6   7
ENDBRANCH   5   6
ENDBRANCH   1   5
TORSDOF 5
ENDMDL
MODEL 4
REMARK VINA RESULT:    -3.608      7.777      9.003
REMARK INTER + INTRA:          -4.686
REMARK INTER:                  -4.528
REMARK INTRA:                  -0.158
REMARK UNBOUND:                -0.129
REMARK SMILES CCCCCCO
REMARK SMILES IDX 4 1 3 2 2 3 1 4 5 5 6 6 7 7
REMARK H PARENT 7 8
REMARK Flexibility Score: inf
ROOT
ATOM      1  C   UNL     1      16.586   0.174 -23.390  1.00  0.00     0.002 C 
ENDROOT
BRANCH   1   2
ATOM      2  C   UNL     1      16.832   1.629 -23.818  1.00  0.00    -0.000 C 
BRANCH   2   3
ATOM      3  C   UNL     1      16.222   1.951 -25.190  1.00  0.00    -0.003 C 
ATOM      4  C   UNL     1      15.834   0.698 -25.975  1.00  0.00     0.004 C 
ENDBRANCH   2   3
ENDBRANCH   1   2
BRANCH   1   5
ATOM      5  C   UNL     1      17.906  -0.523 -23.031  1.00  0.00     0.028 C 
BRANCH   5   6
ATOM      6  C   UNL     1      18.222  -1.678 -23.985  1.00  0.00     0.156 C 
BRANCH   6   7
ATOM      7  O   UNL     1      17.105  -2.511 -24.145  1.00  0.00    -0.396 OA
ATOM      8  H   UNL     1      17.125  -2.844 -25.081  1.00  0.00     0.210 HD
ENDBRANCH   6   7
ENDBRANCH   5   6
ENDBRANCH   1   5
TORSDOF 5
ENDMDL
MODEL 5
REMARK VINA RESULT:    -3.490      8.294      9.397
REMARK INTER + INTRA:          -4.538
REMARK INTER:                  -4.409
REMARK INTRA:                  -0.128
REMARK UNBOUND:                -0.129
REMARK SMILES CCCCCCO
REMARK SMILES IDX 4 1 3 2 2 3 1 4 5 5 6 6 7 7
REMARK H PARENT 7 8
REMARK Flexibility Score: inf
ROOT
ATOM      1  C   UNL     1      16.720   1.595 -23.984  1.00  0.00     0.002 C 
ENDROOT
BRANCH   1   2
ATOM      2  C   UNL     1      16.612   0.324 -23.128  1.00  0.00    -0.000 C 
BRANCH   2   3
ATOM      3  C   UNL     1      17.938  -0.446 -23.044  1.00  0.00    -0.003 C 
ATOM      4  C   UNL     1      17.973  -1.668 -23.962  1.00  0.00     0.004 C 
ENDBRANCH   2   3
ENDBRANCH   1   2
BRANCH   1   5
ATOM      5  C   UNL     1      15.986   1.420 -25.321  1.00  0.00     0.028 C 
BRANCH   5   6
ATOM      6  C   UNL     1      16.948   1.447 -26.512  1.00  0.00     0.156 C 
BRANCH   6   7
ATOM      7  O   UNL     1      17.186   2.764 -26.929  1.00  0.00    -0.396 OA
ATOM      8  H   UNL     1      17.801   3.171 -26.263  1.00  0.00     0.210 HD
ENDBRANCH   6   7
ENDBRANCH   5   6
ENDBRANCH   1   5
TORSDOF 5
ENDMDL
MODEL 6
REMARK VINA RESULT:    -3.482      2.474      3.648
REMARK INTER + INTRA:          -4.527
REMARK INTER:                  -4.404
REMARK INTRA:                  -0.123
REMARK UNBOUND:                -0.129
REMARK SMILES CCCCCCO
REMARK SMILES IDX 4 1 3 2 2 3 1 4 5 5 6 6 7 7
REMARK H PARENT 7 8
REMARK Flexibility Score: inf
ROOT
ATOM      1  C   UNL     1      20.109  -1.479 -15.922  1.00  0.00     0.002 C 
ENDROOT
BRANCH   1   2
ATOM      2  C   UNL     1      21.373  -1.462 -15.048  1.00  0.00    -0.000 C 
BRANCH   2   3
ATOM      3  C   UNL     1      22.547  -0.738 -15.724  1.00  0.00    -0.003 C 
ATOM      4  C   UNL     1      23.826  -0.774 -14.887  1.00  0.00     0.004 C 
ENDBRANCH   2   3
ENDBRANCH   1   2
BRANCH   1   5
ATOM      5  C   UNL     1      20.459  -1.240 -17.397  1.00  0.00     0.028 C 
BRANCH   5   6
ATOM      6  C   UNL     1      19.792  -2.265 -18.318  1.00  0.00     0.156 C 
BRANCH   6   7
ATOM      7  O   UNL     1      19.344  -3.374 -17.586  1.00  0.00    -0.396 OA
ATOM      8  H   UNL     1      19.559  -4.181 -18.124  1.00  0.00     0.210 HD
ENDBRANCH   6   7
ENDBRANCH   5   6
ENDBRANCH   1   5
TORSDOF 5
ENDMDL
MODEL 7
REMARK VINA RESULT:    -3.448      1.243      2.210
REMARK INTER + INTRA:          -4.484
REMARK INTER:                  -4.376
REMARK INTRA:                  -0.108
REMARK UNBOUND:                -0.129
REMARK SMILES CCCCCCO
REMARK SMILES IDX 4 1 3 2 2 3 1 4 5 5 6 6 7 7
REMARK H PARENT 7 8
REMARK Flexibility Score: inf
ROOT
ATOM      1  C   UNL     1      20.272  -1.048 -15.094  1.00  0.00     0.002 C 
ENDROOT
BRANCH   1   2
ATOM      2  C   UNL     1      21.312  -1.191 -16.216  1.00  0.00    -0.000 C 
BRANCH   2   3
ATOM      3  C   UNL     1      22.590  -0.384 -15.943  1.00  0.00    -0.003 C 
ATOM      4  C   UNL     1      23.426  -0.968 -14.804  1.00  0.00     0.004 C 
ENDBRANCH   2   3
ENDBRANCH   1   2
BRANCH   1   5
ATOM      5  C   UNL     1      19.852   0.419 -14.919  1.00  0.00     0.028 C 
BRANCH   5   6
ATOM      6  C   UNL     1      18.607   0.760 -15.741  1.00  0.00     0.156 C 
BRANCH   6   7
ATOM      7  O   UNL     1      17.469   0.811 -14.923  1.00  0.00    -0.396 OA
ATOM      8  H   UNL     1      17.505   1.673 -14.432  1.00  0.00     0.210 HD
ENDBRANCH   6   7
ENDBRANCH   5   6
ENDBRANCH   1   5
TORSDOF 5
ENDMDL
MODEL 8
REMARK VINA RESULT:    -3.436     11.373     12.259
REMARK INTER + INTRA:          -4.469
REMARK INTER:                  -4.374
REMARK INTRA:                  -0.094
REMARK UNBOUND:                -0.129
REMARK SMILES CCCCCCO
REMARK SMILES IDX 4 1 3 2 2 3 1 4 5 5 6 6 7 7
REMARK H PARENT 7 8
REMARK Flexibility Score: inf
ROOT
ATOM      1  C   UNL     1      14.929  -9.735 -10.581  1.00  0.00     0.002 C 
ENDROOT
BRANCH   1   2
ATOM      2  C   UNL     1      13.739 -10.457  -9.931  1.00  0.00    -0.000 C 
BRANCH   2   3
ATOM      3  C   UNL     1      12.448  -9.627  -9.979  1.00  0.00    -0.003 C 
ATOM      4  C   UNL     1      12.691  -8.178 -10.402  1.00  0.00     0.004 C 
ENDBRANCH   2   3
ENDBRANCH   1   2
BRANCH   1   5
ATOM      5  C   UNL     1      16.189  -9.862  -9.713  1.00  0.00     0.028 C 
BRANCH   5   6
ATOM      6  C   UNL     1      17.466  -9.583 -10.510  1.00  0.00     0.156 C 
BRANCH   6   7
ATOM      7  O   UNL     1      17.186  -9.496 -11.881  1.00  0.00    -0.396 OA
ATOM      8  H   UNL     1      18.060  -9.470 -12.353  1.00  0.00     0.210 HD
ENDBRANCH   6   7
ENDBRANCH   5   6
ENDBRANCH   1   5
TORSDOF 5
ENDMDL
MODEL 9
REMARK VINA RESULT:    -3.387     15.158     16.710
REMARK INTER + INTRA:          -4.407
REMARK INTER:                  -4.289
REMARK INTRA:                  -0.119
REMARK UNBOUND:                -0.129
REMARK SMILES CCCCCCO
REMARK SMILES IDX 4 1 3 2 2 3 1 4 5 5 6 6 7 7
REMARK H PARENT 7 8
REMARK Flexibility Score: inf
ROOT
ATOM      1  C   UNL     1      26.019 -13.461 -25.457  1.00  0.00     0.002 C 
ENDROOT
BRANCH   1   2
ATOM      2  C   UNL     1      27.148 -13.413 -26.498  1.00  0.00    -0.000 C 
BRANCH   2   3
ATOM      3  C   UNL     1      26.648 -13.008 -27.893  1.00  0.00    -0.003 C 
ATOM      4  C   UNL     1      27.547 -11.970 -28.565  1.00  0.00     0.004 C 
ENDBRANCH   2   3
ENDBRANCH   1   2
BRANCH   1   5
ATOM      5  C   UNL     1      26.226 -12.394 -24.373  1.00  0.00     0.028 C 
BRANCH   5   6
ATOM      6  C   UNL     1      25.667 -11.032 -24.794  1.00  0.00     0.156 C 
BRANCH   6   7
ATOM      7  O   UNL     1      26.609 -10.017 -24.571  1.00  0.00    -0.396 OA
ATOM      8  H   UNL     1      26.372  -9.266 -25.175  1.00  0.00     0.210 HD
ENDBRANCH   6   7
ENDBRANCH   5   6
ENDBRANCH   1   5
TORSDOF 5
ENDMDL
