MODEL 1
REMARK VINA RESULT:    -3.048      0.000      0.000
REMARK INTER + INTRA:          -4.587
REMARK INTER:                  -4.117
REMARK INTRA:                  -0.470
REMARK UNBOUND:                -0.470
REMARK SMILES CCCCCCCC(=O)[O-]
REMARK SMILES IDX 5 1 6 2 7 3 8 4 9 5 10 6 4 7 3 8 2 9 1 10
REMARK H PARENT
REMARK Flexibility Score: inf
ROOT
ATOM      1  C   UNL     1      38.941  37.580  18.309  1.00  0.00     0.000 C 
ENDROOT
BRANCH   1   2
ATOM      2  C   UNL     1      39.113  38.981  18.920  1.00  0.00     0.006 C 
BRANCH   2   3
ATOM      3  C   UNL     1      37.781  39.733  19.034  1.00  0.00     0.053 C 
BRANCH   3   4
ATOM      4  C   UNL     1      37.025  39.279  20.243  1.00  0.00     0.041 C 
ATOM      5  O   UNL     1      37.640  38.786  21.224  1.00  0.00    -0.550 OA
ATOM      6  O   UNL     1      35.639  39.355  20.265  1.00  0.00    -0.550 OA
ENDBRANCH   3   4
ENDBRANCH   2   3
ENDBRANCH   1   2
BRANCH   1   7
ATOM      7  C   UNL     1      39.779  36.493  19.021  1.00  0.00     0.000 C 
BRANCH   7   8
ATOM      8  C   UNL     1      38.961  35.255  19.432  1.00  0.00    -0.000 C 
BRANCH   8   9
ATOM      9  C   UNL     1      37.478  35.540  19.721  1.00  0.00    -0.003 C 
ATOM     10  C   UNL     1      37.094  35.269  21.176  1.00  0.00     0.004 C 
ENDBRANCH   8   9
ENDBRANCH   7   8
ENDBRANCH   1   7
TORSDOF 6
ENDMDL
MODEL 2
REMARK VINA RESULT:    -3.007      2.525      3.145
REMARK INTER + INTRA:          -4.532
REMARK INTER:                  -4.243
REMARK INTRA:                  -0.290
REMARK UNBOUND:                -0.470
REMARK SMILES CCCCCCCC(=O)[O-]
REMARK SMILES IDX 5 1 6 2 7 3 8 4 9 5 10 6 4 7 3 8 2 9 1 10
REMARK H PARENT
REMARK Flexibility Score: inf
ROOT
ATOM      1  C   UNL     1      37.776  38.730  20.386  1.00  0.00     0.000 C 
ENDROOT
BRANCH   1   2
ATOM      2  C   UNL     1      37.859  39.403  19.005  1.00  0.00     0.006 C 
BRANCH   2   3
ATOM      3  C   UNL     1      39.307  39.589  18.534  1.00  0.00     0.053 C 
BRANCH   3   4
ATOM      4  C   UNL     1      39.496  38.988  17.177  1.00  0.00     0.041 C 
ATOM      5  O   UNL     1      39.380  37.745  17.014  1.00  0.00    -0.550 OA
ATOM      6  O   UNL     1      39.850  39.794  16.103  1.00  0.00    -0.550 OA
ENDBRANCH   3   4
ENDBRANCH   2   3
ENDBRANCH   1   2
BRANCH   1   7
ATOM      7  C   UNL     1      36.946  37.426  20.384  1.00  0.00     0.000 C 
BRANCH   7   8
ATOM      8  C   UNL     1      37.529  36.325  19.478  1.00  0.00    -0.000 C 
BRANCH   8   9
ATOM      9  C   UNL     1      37.818  34.997  20.197  1.00  0.00    -0.003 C 
ATOM     10  C   UNL     1      37.088  34.875  21.534  1.00  0.00     0.004 C 
ENDBRANCH   8   9
ENDBRANCH   7   8
ENDBRANCH   1   7
TORSDOF 6
ENDMDL
MODEL 3
REMARK VINA RESULT:    -2.951      1.383      2.899
REMARK INTER + INTRA:          -4.457
REMARK INTER:                  -3.979
REMARK INTRA:                  -0.477
REMARK UNBOUND:                -0.470
REMARK SMILES CCCCCCCC(=O)[O-]
REMARK SMILES IDX 5 1 6 2 7 3 8 4 9 5 10 6 4 7 3 8 2 9 1 10
REMARK H PARENT
REMARK Flexibility Score: inf
ROOT
ATOM      1  C   UNL     1      38.023  35.907  19.902  1.00  0.00     0.000 C 
ENDROOT
BRANCH   1   2
ATOM      2  C   UNL     1      36.978  36.902  20.432  1.00  0.00     0.006 C 
BRANCH   2   3
ATOM      3  C   UNL     1      37.588  38.273  20.753  1.00  0.00     0.053 C 
BRANCH   3   4
ATOM      4  C   UNL     1      36.827  39.360  20.063  1.00  0.00     0.041 C 
ATOM      5  O   UNL     1      35.587  39.479  20.247  1.00  0.00    -0.550 OA
ATOM      6  O   UNL     1      37.476  40.210  19.178  1.00  0.00    -0.550 OA
ENDBRANCH   3   4
ENDBRANCH   2   3
ENDBRANCH   1   2
BRANCH   1   7
ATOM      7  C   UNL     1      37.725  35.408  18.469  1.00  0.00     0.000 C 
BRANCH   7   8
ATOM      8  C   UNL     1      38.820  35.772  17.449  1.00  0.00    -0.000 C 
BRANCH   8   9
ATOM      9  C   UNL     1      39.787  36.872  17.918  1.00  0.00    -0.003 C 
ATOM     10  C   UNL     1      39.544  38.211  17.223  1.00  0.00     0.004 C 
ENDBRANCH   8   9
ENDBRANCH   7   8
ENDBRANCH   1   7
TORSDOF 6
ENDMDL
MODEL 4
REMARK VINA RESULT:    -2.895      2.518      4.423
REMARK INTER + INTRA:          -4.381
REMARK INTER:                  -3.918
REMARK INTRA:                  -0.463
REMARK UNBOUND:                -0.470
REMARK SMILES CCCCCCCC(=O)[O-]
REMARK SMILES IDX 5 1 6 2 7 3 8 4 9 5 10 6 4 7 3 8 2 9 1 10
REMARK H PARENT
REMARK Flexibility Score: inf
ROOT
ATOM      1  C   UNL     1      36.881  36.541  20.597  1.00  0.00     0.000 C 
ENDROOT
BRANCH   1   2
ATOM      2  C   UNL     1      37.851  35.404  20.232  1.00  0.00     0.006 C 
BRANCH   2   3
ATOM      3  C   UNL     1      38.978  35.876  19.305  1.00  0.00     0.053 C 
BRANCH   3   4
ATOM      4  C   UNL     1      38.556  35.772  17.873  1.00  0.00     0.041 C 
ATOM      5  O   UNL     1      39.079  36.517  17.004  1.00  0.00    -0.550 OA
ATOM      6  O   UNL     1      37.549  34.887  17.508  1.00  0.00    -0.550 OA
ENDBRANCH   3   4
ENDBRANCH   2   3
ENDBRANCH   1   2
BRANCH   1   7
ATOM      7  C   UNL     1      37.586  37.895  20.839  1.00  0.00     0.000 C 
BRANCH   7   8
ATOM      8  C   UNL     1      36.740  39.114  20.424  1.00  0.00    -0.000 C 
BRANCH   8   9
ATOM      9  C   UNL     1      37.328  39.931  19.262  1.00  0.00    -0.003 C 
ATOM     10  C   UNL     1      38.729  39.469  18.861  1.00  0.00     0.004 C 
ENDBRANCH   8   9
ENDBRANCH   7   8
ENDBRANCH   1   7
TORSDOF 6
ENDMDL
MODEL 5
REMARK VINA RESULT:    -2.821     12.973     14.165
REMARK INTER + INTRA:          -4.281
REMARK INTER:                  -4.125
REMARK INTRA:                  -0.156
REMARK UNBOUND:                -0.470
REMARK SMILES CCCCCCCC(=O)[O-]
REMARK SMILES IDX 5 1 6 2 7 3 8 4 9 5 10 6 4 7 3 8 2 9 1 10
REMARK H PARENT
REMARK Flexibility Score: inf
ROOT
ATOM      1  C   UNL     1      25.204  35.590  18.208  1.00  0.00     0.000 C 
ENDROOT
BRANCH   1   2
ATOM      2  C   UNL     1      23.926  35.144  17.478  1.00  0.00     0.006 C 
BRANCH   2   3
ATOM      3  C   UNL     1      22.660  35.414  18.301  1.00  0.00     0.053 C 
BRANCH   3   4
ATOM      4  C   UNL     1      21.858  36.515  17.681  1.00  0.00     0.041 C 
ATOM      5  O   UNL     1      22.002  36.792  16.462  1.00  0.00    -0.550 OA
ATOM      6  O   UNL     1      20.989  37.266  18.461  1.00  0.00    -0.550 OA
ENDBRANCH   3   4
ENDBRANCH   2   3
ENDBRANCH   1   2
BRANCH   1   7
ATOM      7  C   UNL     1      25.381  34.928  19.593  1.00  0.00     0.000 C 
BRANCH   7   8
ATOM      8  C   UNL     1      26.620  35.428  20.361  1.00  0.00    -0.000 C 
BRANCH   8   9
ATOM      9  C   UNL     1      26.412  35.573  21.878  1.00  0.00    -0.003 C 
ATOM     10  C   UNL     1      27.704  35.394  22.674  1.00  0.00     0.004 C 
ENDBRANCH   8   9
ENDBRANCH   7   8
ENDBRANCH   1   7
TORSDOF 6
ENDMDL
MODEL 6
REMARK VINA RESULT:    -2.811     13.161     14.362
REMARK INTER + INTRA:          -4.267
REMARK INTER:                  -4.085
REMARK INTRA:                  -0.182
REMARK UNBOUND:                -0.470
REMARK SMILES CCCCCCCC(=O)[O-]
REMARK SMILES IDX 5 1 6 2 7 3 8 4 9 5 10 6 4 7 3 8 2 9 1 10
REMARK H PARENT
REMARK Flexibility Score: inf
ROOT
ATOM      1  C   UNL     1      23.904  34.953  18.433  1.00  0.00     0.000 C 
ENDROOT
BRANCH   1   2
ATOM      2  C   UNL     1      25.343  35.296  18.854  1.00  0.00     0.006 C 
BRANCH   2   3
ATOM      3  C   UNL     1      25.605  34.993  20.335  1.00  0.00     0.053 C 
BRANCH   3   4
ATOM      4  C   UNL     1      27.059  35.142  20.650  1.00  0.00     0.041 C 
ATOM      5  O   UNL     1      27.907  35.179  19.720  1.00  0.00    -0.550 OA
ATOM      6  O   UNL     1      27.483  35.190  21.972  1.00  0.00    -0.550 OA
ENDBRANCH   3   4
ENDBRANCH   2   3
ENDBRANCH   1   2
BRANCH   1   7
ATOM      7  C   UNL     1      23.209  36.086  17.645  1.00  0.00     0.000 C 
BRANCH   7   8
ATOM      8  C   UNL     1      21.674  35.955  17.600  1.00  0.00    -0.000 C 
BRANCH   8   9
ATOM      9  C   UNL     1      20.926  36.920  18.534  1.00  0.00    -0.003 C 
ATOM     10  C   UNL     1      20.324  36.219  19.752  1.00  0.00     0.004 C 
ENDBRANCH   8   9
ENDBRANCH   7   8
ENDBRANCH   1   7
TORSDOF 6
ENDMDL
MODEL 7
REMARK VINA RESULT:    -2.730      2.394      3.769
REMARK INTER + INTRA:          -4.158
REMARK INTER:                  -3.692
REMARK INTRA:                  -0.465
REMARK UNBOUND:                -0.470
REMARK SMILES CCCCCCCC(=O)[O-]
REMARK SMILES IDX 5 1 6 2 7 3 8 4 9 5 10 6 4 7 3 8 2 9 1 10
REMARK H PARENT
REMARK Flexibility Score: inf
ROOT
ATOM      1  C   UNL     1      38.017  35.288  18.827  1.00  0.00     0.000 C 
ENDROOT
BRANCH   1   2
ATOM      2  C   UNL     1      39.440  35.435  18.261  1.00  0.00     0.006 C 
BRANCH   2   3
ATOM      3  C   UNL     1      39.995  36.854  18.442  1.00  0.00     0.053 C 
BRANCH   3   4
ATOM      4  C   UNL     1      39.557  37.734  17.315  1.00  0.00     0.041 C 
ATOM      5  O   UNL     1      39.669  37.341  16.124  1.00  0.00    -0.550 OA
ATOM      6  O   UNL     1      39.071  39.009  17.577  1.00  0.00    -0.550 OA
ENDBRANCH   3   4
ENDBRANCH   2   3
ENDBRANCH   1   2
BRANCH   1   7
ATOM      7  C   UNL     1      37.889  35.755  20.296  1.00  0.00     0.000 C 
BRANCH   7   8
ATOM      8  C   UNL     1      36.818  36.841  20.507  1.00  0.00    -0.000 C 
BRANCH   8   9
ATOM      9  C   UNL     1      37.372  38.273  20.590  1.00  0.00    -0.003 C 
ATOM     10  C   UNL     1      36.373  39.324  20.107  1.00  0.00     0.004 C 
ENDBRANCH   8   9
ENDBRANCH   7   8
ENDBRANCH   1   7
TORSDOF 6
ENDMDL
MODEL 8
REMARK VINA RESULT:    -2.686      2.158      4.018
REMARK INTER + INTRA:          -4.098
REMARK INTER:                  -3.788
REMARK INTRA:                  -0.310
REMARK UNBOUND:                -0.470
REMARK SMILES CCCCCCCC(=O)[O-]
REMARK SMILES IDX 5 1 6 2 7 3 8 4 9 5 10 6 4 7 3 8 2 9 1 10
REMARK H PARENT
REMARK Flexibility Score: inf
ROOT
ATOM      1  C   UNL     1      37.612  39.445  19.369  1.00  0.00     0.000 C 
ENDROOT
BRANCH   1   2
ATOM      2  C   UNL     1      37.614  38.501  20.584  1.00  0.00     0.006 C 
BRANCH   2   3
ATOM      3  C   UNL     1      36.668  37.308  20.396  1.00  0.00     0.053 C 
BRANCH   3   4
ATOM      4  C   UNL     1      37.416  36.020  20.543  1.00  0.00     0.041 C 
ATOM      5  O   UNL     1      38.394  35.768  19.791  1.00  0.00    -0.550 OA
ATOM      6  O   UNL     1      37.002  35.078  21.475  1.00  0.00    -0.550 OA
ENDBRANCH   3   4
ENDBRANCH   2   3
ENDBRANCH   1   2
BRANCH   1   7
ATOM      7  C   UNL     1      39.023  39.711  18.797  1.00  0.00     0.000 C 
BRANCH   7   8
ATOM      8  C   UNL     1      39.734  38.441  18.292  1.00  0.00    -0.000 C 
BRANCH   8   9
ATOM      9  C   UNL     1      39.680  38.245  16.768  1.00  0.00    -0.003 C 
ATOM     10  C   UNL     1      39.835  39.555  15.996  1.00  0.00     0.004 C 
ENDBRANCH   8   9
ENDBRANCH   7   8
ENDBRANCH   1   7
TORSDOF 6
ENDMDL
MODEL 9
REMARK VINA RESULT:    -2.657     14.531     15.655
REMARK INTER + INTRA:          -4.060
REMARK INTER:                  -3.655
REMARK INTRA:                  -0.405
REMARK UNBOUND:                -0.470
REMARK SMILES CCCCCCCC(=O)[O-]
REMARK SMILES IDX 5 1 6 2 7 3 8 4 9 5 10 6 4 7 3 8 2 9 1 10
REMARK H PARENT
REMARK Flexibility Score: inf
ROOT
ATOM      1  C   UNL     1      22.626  36.699  17.240  1.00  0.00     0.000 C 
ENDROOT
BRANCH   1   2
ATOM      2  C   UNL     1      23.480  35.421  17.196  1.00  0.00     0.006 C 
BRANCH   2   3
ATOM      3  C   UNL     1      24.016  35.032  18.580  1.00  0.00     0.053 C 
BRANCH   3   4
ATOM      4  C   UNL     1      25.479  35.328  18.676  1.00  0.00     0.041 C 
ATOM      5  O   UNL     1      26.225  35.166  17.675  1.00  0.00    -0.550 OA
ATOM      6  O   UNL     1      26.028  35.737  19.885  1.00  0.00    -0.550 OA
ENDBRANCH   3   4
ENDBRANCH   2   3
ENDBRANCH   1   2
BRANCH   1   7
ATOM      7  C   UNL     1      21.227  36.525  16.605  1.00  0.00     0.000 C 
BRANCH   7   8
ATOM      8  C   UNL     1      20.074  36.598  17.624  1.00  0.00    -0.000 C 
BRANCH   8   9
ATOM      9  C   UNL     1      20.178  35.586  18.777  1.00  0.00    -0.003 C 
ATOM     10  C   UNL     1      20.242  36.255  20.150  1.00  0.00     0.004 C 
ENDBRANCH   8   9
ENDBRANCH   7   8
ENDBRANCH   1   7
TORSDOF 6
ENDMDL
