MODEL 1
REMARK VINA RESULT:    -3.867      0.000      0.000
REMARK INTER + INTRA:          -4.464
REMARK INTER:                  -4.319
REMARK INTRA:                  -0.145
REMARK UNBOUND:                -0.145
REMARK SMILES O=C([O-])C=Cc1ccccc1
REMARK SMILES IDX 4 1 5 2 2 3 1 4 3 5 6 6 7 7 11 8 8 9 10 10 9 11
REMARK H PARENT
REMARK Flexibility Score: inf
ROOT
ATOM      1  C   UNL     1       6.507  17.938  -6.144  1.00  0.00     0.025 C 
ATOM      2  C   UNL     1       6.696  17.327  -7.323  1.00  0.00     0.010 C 
ENDROOT
BRANCH   1   3
ATOM      3  C   UNL     1       5.937  17.230  -4.986  1.00  0.00     0.064 C 
ATOM      4  O   UNL     1       4.712  16.939  -4.979  1.00  0.00    -0.545 OA
ATOM      5  O   UNL     1       6.728  16.876  -3.899  1.00  0.00    -0.545 OA
ENDBRANCH   1   3
BRANCH   2   6
ATOM      6  C   UNL     1       7.267  17.977  -8.535  1.00  0.00    -0.026 A 
ATOM      7  C   UNL     1       7.401  19.378  -8.534  1.00  0.00     0.008 A 
ATOM      8  C   UNL     1       7.677  17.260  -9.680  1.00  0.00     0.008 A 
ATOM      9  C   UNL     1       7.929  20.045  -9.644  1.00  0.00     0.001 A 
ATOM     10  C   UNL     1       8.206  17.934 -10.786  1.00  0.00     0.001 A 
ATOM     11  C   UNL     1       8.332  19.324 -10.768  1.00  0.00     0.000 A 
ENDBRANCH   2   6
TORSDOF 2
ENDMDL
MODEL 2
REMARK VINA RESULT:    -3.812      3.530      5.274
REMARK INTER + INTRA:          -4.402
REMARK INTER:                  -4.266
REMARK INTRA:                  -0.137
REMARK UNBOUND:                -0.145
REMARK SMILES O=C([O-])C=Cc1ccccc1
REMARK SMILES IDX 4 1 5 2 2 3 1 4 3 5 6 6 7 7 11 8 8 9 10 10 9 11
REMARK H PARENT
REMARK Flexibility Score: inf
ROOT
ATOM      1  C   UNL     1       7.780  19.828  -9.029  1.00  0.00     0.025 C 
ATOM      2  C   UNL     1       7.649  18.586  -8.540  1.00  0.00     0.010 C 
ENDROOT
BRANCH   1   3
ATOM      3  C   UNL     1       8.655  20.123 -10.175  1.00  0.00     0.064 C 
ATOM      4  O   UNL     1       8.996  21.312 -10.406  1.00  0.00    -0.545 OA
ATOM      5  O   UNL     1       9.112  19.108 -11.009  1.00  0.00    -0.545 OA
ENDBRANCH   1   3
BRANCH   2   6
ATOM      6  C   UNL     1       6.785  18.213  -7.386  1.00  0.00    -0.026 A 
ATOM      7  C   UNL     1       6.935  18.933  -6.187  1.00  0.00     0.008 A 
ATOM      8  C   UNL     1       5.828  17.176  -7.437  1.00  0.00     0.008 A 
ATOM      9  C   UNL     1       6.153  18.628  -5.069  1.00  0.00     0.001 A 
ATOM     10  C   UNL     1       5.048  16.877  -6.314  1.00  0.00     0.001 A 
ATOM     11  C   UNL     1       5.210  17.602  -5.132  1.00  0.00     0.000 A 
ENDBRANCH   2   6
TORSDOF 2
ENDMDL
MODEL 3
REMARK VINA RESULT:    -3.804      3.590      4.941
REMARK INTER + INTRA:          -4.393
REMARK INTER:                  -4.264
REMARK INTRA:                  -0.129
REMARK UNBOUND:                -0.145
REMARK SMILES O=C([O-])C=Cc1ccccc1
REMARK SMILES IDX 4 1 5 2 2 3 1 4 3 5 6 6 7 7 11 8 8 9 10 10 9 11
REMARK H PARENT
REMARK Flexibility Score: inf
ROOT
ATOM      1  C   UNL     1       7.176  21.510  -5.232  1.00  0.00     0.025 C 
ATOM      2  C   UNL     1       7.490  20.223  -5.029  1.00  0.00     0.010 C 
ENDROOT
BRANCH   1   3
ATOM      3  C   UNL     1       7.878  22.600  -4.533  1.00  0.00     0.064 C 
ATOM      4  O   UNL     1       9.125  22.532  -4.374  1.00  0.00    -0.545 OA
ATOM      5  O   UNL     1       7.187  23.704  -4.047  1.00  0.00    -0.545 OA
ENDBRANCH   1   3
BRANCH   2   6
ATOM      6  C   UNL     1       6.825  19.070  -5.697  1.00  0.00    -0.026 A 
ATOM      7  C   UNL     1       5.800  18.403  -5.002  1.00  0.00     0.008 A 
ATOM      8  C   UNL     1       7.172  18.616  -6.988  1.00  0.00     0.008 A 
ATOM      9  C   UNL     1       5.140  17.313  -5.577  1.00  0.00     0.001 A 
ATOM     10  C   UNL     1       6.506  17.525  -7.558  1.00  0.00     0.001 A 
ATOM     11  C   UNL     1       5.491  16.875  -6.854  1.00  0.00     0.000 A 
ENDBRANCH   2   6
TORSDOF 2
ENDMDL
MODEL 4
REMARK VINA RESULT:    -3.771     14.642     15.092
REMARK INTER + INTRA:          -4.357
REMARK INTER:                  -4.227
REMARK INTRA:                  -0.130
REMARK UNBOUND:                -0.145
REMARK SMILES O=C([O-])C=Cc1ccccc1
REMARK SMILES IDX 4 1 5 2 2 3 1 4 3 5 6 6 7 7 11 8 8 9 10 10 9 11
REMARK H PARENT
REMARK Flexibility Score: inf
ROOT
ATOM      1  C   UNL     1      -8.027  21.102  -7.357  1.00  0.00     0.025 C 
ATOM      2  C   UNL     1      -7.075  20.538  -8.113  1.00  0.00     0.010 C 
ENDROOT
BRANCH   1   3
ATOM      3  C   UNL     1      -7.752  22.273  -6.509  1.00  0.00     0.064 C 
ATOM      4  O   UNL     1      -7.431  22.105  -5.304  1.00  0.00    -0.545 OA
ATOM      5  O   UNL     1      -7.841  23.564  -7.018  1.00  0.00    -0.545 OA
ENDBRANCH   1   3
BRANCH   2   6
ATOM      6  C   UNL     1      -7.278  19.354  -8.994  1.00  0.00    -0.026 A 
ATOM      7  C   UNL     1      -7.430  18.094  -8.385  1.00  0.00     0.008 A 
ATOM      8  C   UNL     1      -7.324  19.433 -10.403  1.00  0.00     0.008 A 
ATOM      9  C   UNL     1      -7.623  16.946  -9.159  1.00  0.00     0.001 A 
ATOM     10  C   UNL     1      -7.518  18.280 -11.171  1.00  0.00     0.001 A 
ATOM     11  C   UNL     1      -7.668  17.039 -10.551  1.00  0.00     0.000 A 
ENDBRANCH   2   6
TORSDOF 2
ENDMDL
MODEL 5
REMARK VINA RESULT:    -3.720      9.187      9.985
REMARK INTER + INTRA:          -4.300
REMARK INTER:                  -4.154
REMARK INTRA:                  -0.146
REMARK UNBOUND:                -0.145
REMARK SMILES O=C([O-])C=Cc1ccccc1
REMARK SMILES IDX 4 1 5 2 2 3 1 4 3 5 6 6 7 7 11 8 8 9 10 10 9 11
REMARK H PARENT
REMARK Flexibility Score: inf
ROOT
ATOM      1  C   UNL     1      -0.083  26.264  -8.570  1.00  0.00     0.025 C 
ATOM      2  C   UNL     1      -0.072  25.049  -9.138  1.00  0.00     0.010 C 
ENDROOT
BRANCH   1   3
ATOM      3  C   UNL     1      -1.315  27.064  -8.474  1.00  0.00     0.064 C 
ATOM      4  O   UNL     1      -1.629  27.592  -7.375  1.00  0.00    -0.545 OA
ATOM      5  O   UNL     1      -2.140  27.248  -9.578  1.00  0.00    -0.545 OA
ENDBRANCH   1   3
BRANCH   2   6
ATOM      6  C   UNL     1       1.132  24.184  -9.270  1.00  0.00    -0.026 A 
ATOM      7  C   UNL     1       2.339  24.637  -8.707  1.00  0.00     0.008 A 
ATOM      8  C   UNL     1       1.122  22.936  -9.932  1.00  0.00     0.008 A 
ATOM      9  C   UNL     1       3.503  23.869  -8.800  1.00  0.00     0.001 A 
ATOM     10  C   UNL     1       2.291  22.172 -10.021  1.00  0.00     0.001 A 
ATOM     11  C   UNL     1       3.480  22.638  -9.455  1.00  0.00     0.000 A 
ENDBRANCH   2   6
TORSDOF 2
ENDMDL
MODEL 6
REMARK VINA RESULT:    -3.699      9.549     10.296
REMARK INTER + INTRA:          -4.276
REMARK INTER:                  -4.143
REMARK INTRA:                  -0.133
REMARK UNBOUND:                -0.145
REMARK SMILES O=C([O-])C=Cc1ccccc1
REMARK SMILES IDX 4 1 5 2 2 3 1 4 3 5 6 6 7 7 11 8 8 9 10 10 9 11
REMARK H PARENT
REMARK Flexibility Score: inf
ROOT
ATOM      1  C   UNL     1      -0.335  26.010  -8.770  1.00  0.00     0.025 C 
ATOM      2  C   UNL     1      -0.656  24.944  -9.518  1.00  0.00     0.010 C 
ENDROOT
BRANCH   1   3
ATOM      3  C   UNL     1      -1.312  27.068  -8.467  1.00  0.00     0.064 C 
ATOM      4  O   UNL     1      -2.069  27.494  -9.378  1.00  0.00    -0.545 OA
ATOM      5  O   UNL     1      -1.415  27.606  -7.189  1.00  0.00    -0.545 OA
ENDBRANCH   1   3
BRANCH   2   6
ATOM      6  C   UNL     1       0.277  23.837  -9.865  1.00  0.00    -0.026 A 
ATOM      7  C   UNL     1      -0.096  22.956 -10.896  1.00  0.00     0.008 A 
ATOM      8  C   UNL     1       1.512  23.630  -9.213  1.00  0.00     0.008 A 
ATOM      9  C   UNL     1       0.738  21.897 -11.267  1.00  0.00     0.001 A 
ATOM     10  C   UNL     1       2.342  22.568  -9.589  1.00  0.00     0.001 A 
ATOM     11  C   UNL     1       1.956  21.703 -10.615  1.00  0.00     0.000 A 
ENDBRANCH   2   6
TORSDOF 2
ENDMDL
MODEL 7
REMARK VINA RESULT:    -3.621     12.340     12.975
REMARK INTER + INTRA:          -4.189
REMARK INTER:                  -4.045
REMARK INTRA:                  -0.144
REMARK UNBOUND:                -0.145
REMARK SMILES O=C([O-])C=Cc1ccccc1
REMARK SMILES IDX 4 1 5 2 2 3 1 4 3 5 6 6 7 7 11 8 8 9 10 10 9 11
REMARK H PARENT
REMARK Flexibility Score: inf
ROOT
ATOM      1  C   UNL     1      -1.146  21.244 -14.836  1.00  0.00     0.025 C 
ATOM      2  C   UNL     1      -1.710  20.085 -15.207  1.00  0.00     0.010 C 
ENDROOT
BRANCH   1   3
ATOM      3  C   UNL     1      -0.067  21.296 -13.835  1.00  0.00     0.064 C 
ATOM      4  O   UNL     1       0.946  20.561 -13.976  1.00  0.00    -0.545 OA
ATOM      5  O   UNL     1      -0.147  22.143 -12.737  1.00  0.00    -0.545 OA
ENDBRANCH   1   3
BRANCH   2   6
ATOM      6  C   UNL     1      -2.803  19.955 -16.210  1.00  0.00    -0.026 A 
ATOM      7  C   UNL     1      -2.972  20.994 -17.143  1.00  0.00     0.008 A 
ATOM      8  C   UNL     1      -3.674  18.845 -16.268  1.00  0.00     0.008 A 
ATOM      9  C   UNL     1      -3.982  20.929 -18.108  1.00  0.00     0.001 A 
ATOM     10  C   UNL     1      -4.682  18.786 -17.237  1.00  0.00     0.001 A 
ATOM     11  C   UNL     1      -4.836  19.826 -18.156  1.00  0.00     0.000 A 
ENDBRANCH   2   6
TORSDOF 2
ENDMDL
MODEL 8
REMARK VINA RESULT:    -3.593      8.817      9.430
REMARK INTER + INTRA:          -4.158
REMARK INTER:                  -4.025
REMARK INTRA:                  -0.134
REMARK UNBOUND:                -0.145
REMARK SMILES O=C([O-])C=Cc1ccccc1
REMARK SMILES IDX 4 1 5 2 2 3 1 4 3 5 6 6 7 7 11 8 8 9 10 10 9 11
REMARK H PARENT
REMARK Flexibility Score: inf
ROOT
ATOM      1  C   UNL     1       0.704  23.888  -9.930  1.00  0.00     0.025 C 
ATOM      2  C   UNL     1       0.046  23.649 -11.074  1.00  0.00     0.010 C 
ENDROOT
BRANCH   1   3
ATOM      3  C   UNL     1       0.363  25.028  -9.063  1.00  0.00     0.064 C 
ATOM      4  O   UNL     1      -0.784  25.541  -9.135  1.00  0.00    -0.545 OA
ATOM      5  O   UNL     1       1.287  25.547  -8.163  1.00  0.00    -0.545 OA
ENDBRANCH   1   3
BRANCH   2   6
ATOM      6  C   UNL     1       0.334  22.519 -12.000  1.00  0.00    -0.026 A 
ATOM      7  C   UNL     1      -0.041  22.657 -13.349  1.00  0.00     0.008 A 
ATOM      8  C   UNL     1       0.963  21.322 -11.592  1.00  0.00     0.008 A 
ATOM      9  C   UNL     1       0.202  21.630 -14.266  1.00  0.00     0.001 A 
ATOM     10  C   UNL     1       1.204  20.299 -12.515  1.00  0.00     0.001 A 
ATOM     11  C   UNL     1       0.825  20.452 -13.850  1.00  0.00     0.000 A 
ENDBRANCH   2   6
TORSDOF 2
ENDMDL
MODEL 9
REMARK VINA RESULT:    -3.490     11.271     11.960
REMARK INTER + INTRA:          -4.044
REMARK INTER:                  -3.908
REMARK INTRA:                  -0.136
REMARK UNBOUND:                -0.145
REMARK SMILES O=C([O-])C=Cc1ccccc1
REMARK SMILES IDX 4 1 5 2 2 3 1 4 3 5 6 6 7 7 11 8 8 9 10 10 9 11
REMARK H PARENT
REMARK Flexibility Score: inf
ROOT
ATOM      1  C   UNL     1      -0.019  21.401 -13.857  1.00  0.00     0.025 C 
ATOM      2  C   UNL     1      -1.295  21.726 -14.108  1.00  0.00     0.010 C 
ENDROOT
BRANCH   1   3
ATOM      3  C   UNL     1       0.706  21.944 -12.695  1.00  0.00     0.064 C 
ATOM      4  O   UNL     1       1.024  23.162 -12.676  1.00  0.00    -0.545 OA
ATOM      5  O   UNL     1       1.044  21.134 -11.617  1.00  0.00    -0.545 OA
ENDBRANCH   1   3
BRANCH   2   6
ATOM      6  C   UNL     1      -2.090  21.218 -15.261  1.00  0.00    -0.026 A 
ATOM      7  C   UNL     1      -2.103  19.831 -15.496  1.00  0.00     0.008 A 
ATOM      8  C   UNL     1      -2.828  22.057 -16.124  1.00  0.00     0.008 A 
ATOM      9  C   UNL     1      -2.830  19.295 -16.563  1.00  0.00     0.001 A 
ATOM     10  C   UNL     1      -3.554  21.514 -17.190  1.00  0.00     0.001 A 
ATOM     11  C   UNL     1      -3.555  20.135 -17.408  1.00  0.00     0.000 A 
ENDBRANCH   2   6
TORSDOF 2
ENDMDL
