MODEL 1
REMARK VINA RESULT:    -4.288      0.000      0.000
REMARK INTER + INTRA:          -5.990
REMARK INTER:                  -5.541
REMARK INTRA:                  -0.449
REMARK UNBOUND:                -0.449
REMARK SMILES CCO[C@@H]1O[C@@H](CO)[C@H](O)[C@@H](O)[C@@H]1O
REMARK SMILES IDX 4 1 13 2 11 3 9 4 6 5 5 6 3 7 2 8 1 9 14 10 12 12 7 14 8 15
REMARK SMILES IDX 10 17
REMARK H PARENT 14 11 12 13 8 16 10 18
REMARK Flexibility Score: inf
ROOT
ATOM      1  C   UNL     1     -14.944   7.817  29.613  1.00  0.00     0.281 C 
ATOM      2  C   UNL     1     -15.214   7.577  31.113  1.00  0.00     0.202 C 
ATOM      3  C   UNL     1     -14.712   8.770  31.951  1.00  0.00     0.179 C 
ATOM      4  C   UNL     1     -15.268  10.089  31.380  1.00  0.00     0.177 C 
ATOM      5  C   UNL     1     -14.980  10.158  29.862  1.00  0.00     0.178 C 
ATOM      6  O   UNL     1     -15.541   9.037  29.191  1.00  0.00    -0.341 OA
ENDROOT
BRANCH   1   7
ATOM      7  O   UNL     1     -13.549   7.802  29.348  1.00  0.00    -0.350 OA
BRANCH   7   8
ATOM      8  C   UNL     1     -13.298   7.223  28.085  1.00  0.00     0.160 C 
ATOM      9  C   UNL     1     -13.677   5.751  28.130  1.00  0.00     0.035 C 
ENDBRANCH   7   8
ENDBRANCH   1   7
BRANCH   2  10
ATOM     10  O   UNL     1     -14.642   6.368  31.546  1.00  0.00    -0.385 OA
ATOM     11  H   UNL     1     -15.019   6.154  32.441  1.00  0.00     0.211 HD
ENDBRANCH   2  10
BRANCH   3  12
ATOM     12  O   UNL     1     -15.066   8.616  33.303  1.00  0.00    -0.387 OA
ATOM     13  H   UNL     1     -14.430   9.152  33.845  1.00  0.00     0.211 HD
ENDBRANCH   3  12
BRANCH   5  14
ATOM     14  C   UNL     1     -15.581  11.433  29.253  1.00  0.00     0.191 C 
BRANCH  14  15
ATOM     15  O   UNL     1     -14.631  12.465  29.243  1.00  0.00    -0.394 OA
ATOM     16  H   UNL     1     -14.910  13.101  28.534  1.00  0.00     0.210 HD
ENDBRANCH  14  15
ENDBRANCH   5  14
BRANCH   4  17
ATOM     17  O   UNL     1     -14.660  11.178  32.026  1.00  0.00    -0.387 OA
ATOM     18  H   UNL     1     -13.679  11.042  31.959  1.00  0.00     0.211 HD
ENDBRANCH   4  17
TORSDOF 7
ENDMDL
MODEL 2
REMARK VINA RESULT:    -4.036     17.749     19.042
REMARK INTER + INTRA:          -5.665
REMARK INTER:                  -5.255
REMARK INTRA:                  -0.409
REMARK UNBOUND:                -0.449
REMARK SMILES CCO[C@@H]1O[C@@H](CO)[C@H](O)[C@@H](O)[C@@H]1O
REMARK SMILES IDX 4 1 13 2 11 3 9 4 6 5 5 6 3 7 2 8 1 9 14 10 12 12 7 14 8 15
REMARK SMILES IDX 10 17
REMARK H PARENT 14 11 12 13 8 16 10 18
REMARK Flexibility Score: inf
ROOT
ATOM      1  C   UNL     1     -15.526  -5.501  19.812  1.00  0.00     0.281 C 
ATOM      2  C   UNL     1     -15.397  -5.359  18.281  1.00  0.00     0.202 C 
ATOM      3  C   UNL     1     -16.472  -6.201  17.566  1.00  0.00     0.179 C 
ATOM      4  C   UNL     1     -17.865  -5.882  18.146  1.00  0.00     0.177 C 
ATOM      5  C   UNL     1     -17.823  -6.002  19.687  1.00  0.00     0.178 C 
ATOM      6  O   UNL     1     -16.835  -5.139  20.234  1.00  0.00    -0.341 OA
ENDROOT
BRANCH   1   7
ATOM      7  O   UNL     1     -15.195  -6.819  20.221  1.00  0.00    -0.350 OA
BRANCH   7   8
ATOM      8  C   UNL     1     -14.383  -6.782  21.376  1.00  0.00     0.160 C 
ATOM      9  C   UNL     1     -15.232  -7.125  22.591  1.00  0.00     0.035 C 
ENDBRANCH   7   8
ENDBRANCH   1   7
BRANCH   2  10
ATOM     10  O   UNL     1     -14.104  -5.700  17.845  1.00  0.00    -0.385 OA
ATOM     11  H   UNL     1     -13.700  -6.300  18.525  1.00  0.00     0.211 HD
ENDBRANCH   2  10
BRANCH   3  12
ATOM     12  O   UNL     1     -16.440  -5.979  16.178  1.00  0.00    -0.387 OA
ATOM     13  H   UNL     1     -15.608  -6.390  15.825  1.00  0.00     0.211 HD
ENDBRANCH   3  12
BRANCH   5  14
ATOM     14  C   UNL     1     -19.181  -5.628  20.298  1.00  0.00     0.191 C 
BRANCH  14  15
ATOM     15  O   UNL     1     -19.973  -4.957  19.355  1.00  0.00    -0.394 OA
ATOM     16  H   UNL     1     -19.585  -4.049  19.252  1.00  0.00     0.210 HD
ENDBRANCH  14  15
ENDBRANCH   5  14
BRANCH   4  17
ATOM     17  O   UNL     1     -18.810  -6.783  17.627  1.00  0.00    -0.387 OA
ATOM     18  H   UNL     1     -19.706  -6.443  17.886  1.00  0.00     0.211 HD
ENDBRANCH   4  17
TORSDOF 7
ENDMDL
MODEL 3
REMARK VINA RESULT:    -3.992     17.642     18.628
REMARK INTER + INTRA:          -5.608
REMARK INTER:                  -5.411
REMARK INTRA:                  -0.198
REMARK UNBOUND:                -0.449
REMARK SMILES CCO[C@@H]1O[C@@H](CO)[C@H](O)[C@@H](O)[C@@H]1O
REMARK SMILES IDX 4 1 13 2 11 3 9 4 6 5 5 6 3 7 2 8 1 9 14 10 12 12 7 14 8 15
REMARK SMILES IDX 10 17
REMARK H PARENT 14 11 12 13 8 16 10 18
REMARK Flexibility Score: inf
ROOT
ATOM      1  C   UNL     1     -15.610  -6.590  19.392  1.00  0.00     0.281 C 
ATOM      2  C   UNL     1     -17.115  -6.366  19.138  1.00  0.00     0.202 C 
ATOM      3  C   UNL     1     -17.389  -4.894  18.769  1.00  0.00     0.179 C 
ATOM      4  C   UNL     1     -16.451  -4.451  17.628  1.00  0.00     0.177 C 
ATOM      5  C   UNL     1     -14.990  -4.798  17.997  1.00  0.00     0.178 C 
ATOM      6  O   UNL     1     -14.851  -6.188  18.259  1.00  0.00    -0.341 OA
ENDROOT
BRANCH   1   7
ATOM      7  O   UNL     1     -15.195  -5.906  20.564  1.00  0.00    -0.350 OA
BRANCH   7   8
ATOM      8  C   UNL     1     -14.664  -6.820  21.501  1.00  0.00     0.160 C 
ATOM      9  C   UNL     1     -15.517  -6.791  22.761  1.00  0.00     0.035 C 
ENDBRANCH   7   8
ENDBRANCH   1   7
BRANCH   2  10
ATOM     10  O   UNL     1     -17.885  -6.770  20.243  1.00  0.00    -0.385 OA
ATOM     11  H   UNL     1     -18.736  -6.257  20.228  1.00  0.00     0.211 HD
ENDBRANCH   2  10
BRANCH   3  12
ATOM     12  O   UNL     1     -18.737  -4.709  18.414  1.00  0.00    -0.387 OA
ATOM     13  H   UNL     1     -19.094  -5.586  18.115  1.00  0.00     0.211 HD
ENDBRANCH   3  12
BRANCH   5  14
ATOM     14  C   UNL     1     -14.038  -4.427  16.851  1.00  0.00     0.191 C 
BRANCH  14  15
ATOM     15  O   UNL     1     -12.875  -5.208  16.908  1.00  0.00    -0.394 OA
ATOM     16  H   UNL     1     -12.788  -5.520  17.846  1.00  0.00     0.210 HD
ENDBRANCH  14  15
ENDBRANCH   5  14
BRANCH   4  17
ATOM     17  O   UNL     1     -16.572  -3.066  17.427  1.00  0.00    -0.387 OA
ATOM     18  H   UNL     1     -15.778  -2.643  17.846  1.00  0.00     0.211 HD
ENDBRANCH   4  17
TORSDOF 7
ENDMDL
MODEL 4
REMARK VINA RESULT:    -3.990      1.176      4.052
REMARK INTER + INTRA:          -5.605
REMARK INTER:                  -5.187
REMARK INTRA:                  -0.419
REMARK UNBOUND:                -0.449
REMARK SMILES CCO[C@@H]1O[C@@H](CO)[C@H](O)[C@@H](O)[C@@H]1O
REMARK SMILES IDX 4 1 13 2 11 3 9 4 6 5 5 6 3 7 2 8 1 9 14 10 12 12 7 14 8 15
REMARK SMILES IDX 10 17
REMARK H PARENT 14 11 12 13 8 16 10 18
REMARK Flexibility Score: inf
ROOT
ATOM      1  C   UNL     1     -14.843  10.308  30.037  1.00  0.00     0.281 C 
ATOM      2  C   UNL     1     -14.453  10.222  31.526  1.00  0.00     0.202 C 
ATOM      3  C   UNL     1     -14.800   8.833  32.098  1.00  0.00     0.179 C 
ATOM      4  C   UNL     1     -14.217   7.728  31.195  1.00  0.00     0.177 C 
ATOM      5  C   UNL     1     -14.638   7.983  29.729  1.00  0.00     0.178 C 
ATOM      6  O   UNL     1     -14.213   9.269  29.298  1.00  0.00    -0.341 OA
ENDROOT
BRANCH   1   7
ATOM      7  O   UNL     1     -16.255  10.268  29.888  1.00  0.00    -0.350 OA
BRANCH   7   8
ATOM      8  C   UNL     1     -16.637  10.898  28.683  1.00  0.00     0.160 C 
ATOM      9  C   UNL     1     -15.932  12.242  28.580  1.00  0.00     0.035 C 
ENDBRANCH   7   8
ENDBRANCH   1   7
BRANCH   2  10
ATOM     10  O   UNL     1     -15.056  11.250  32.272  1.00  0.00    -0.385 OA
ATOM     11  H   UNL     1     -15.602  11.800  31.650  1.00  0.00     0.211 HD
ENDBRANCH   2  10
BRANCH   3  12
ATOM     12  O   UNL     1     -14.334   8.704  33.419  1.00  0.00    -0.387 OA
ATOM     13  H   UNL     1     -14.250   7.735  33.617  1.00  0.00     0.211 HD
ENDBRANCH   3  12
BRANCH   5  14
ATOM     14  C   UNL     1     -14.018   6.933  28.796  1.00  0.00     0.191 C 
BRANCH  14  15
ATOM     15  O   UNL     1     -14.676   5.703  28.937  1.00  0.00    -0.394 OA
ATOM     16  H   UNL     1     -15.558   5.800  28.492  1.00  0.00     0.210 HD
ENDBRANCH  14  15
ENDBRANCH   5  14
BRANCH   4  17
ATOM     17  O   UNL     1     -14.694   6.475  31.613  1.00  0.00    -0.387 OA
ATOM     18  H   UNL     1     -14.335   6.319  32.525  1.00  0.00     0.211 HD
ENDBRANCH   4  17
TORSDOF 7
ENDMDL
MODEL 5
REMARK VINA RESULT:    -3.959     16.785     19.262
REMARK INTER + INTRA:          -5.565
REMARK INTER:                  -5.462
REMARK INTRA:                  -0.103
REMARK UNBOUND:                -0.449
REMARK SMILES CCO[C@@H]1O[C@@H](CO)[C@H](O)[C@@H](O)[C@@H]1O
REMARK SMILES IDX 4 1 13 2 11 3 9 4 6 5 5 6 3 7 2 8 1 9 14 10 12 12 7 14 8 15
REMARK SMILES IDX 10 17
REMARK H PARENT 14 11 12 13 8 16 10 18
REMARK Flexibility Score: inf
ROOT
ATOM      1  C   UNL     1     -16.236  -6.124  19.722  1.00  0.00     0.281 C 
ATOM      2  C   UNL     1     -17.568  -6.416  19.001  1.00  0.00     0.202 C 
ATOM      3  C   UNL     1     -17.594  -5.739  17.616  1.00  0.00     0.179 C 
ATOM      4  C   UNL     1     -16.320  -6.102  16.826  1.00  0.00     0.177 C 
ATOM      5  C   UNL     1     -15.075  -5.817  17.697  1.00  0.00     0.178 C 
ATOM      6  O   UNL     1     -15.138  -6.539  18.920  1.00  0.00    -0.341 OA
ENDROOT
BRANCH   1   7
ATOM      7  O   UNL     1     -16.142  -4.748  20.059  1.00  0.00    -0.350 OA
BRANCH   7   8
ATOM      8  C   UNL     1     -16.176  -4.585  21.461  1.00  0.00     0.160 C 
ATOM      9  C   UNL     1     -15.902  -5.927  22.123  1.00  0.00     0.035 C 
ENDBRANCH   7   8
ENDBRANCH   1   7
BRANCH   2  10
ATOM     10  O   UNL     1     -18.668  -6.024  19.784  1.00  0.00    -0.385 OA
ATOM     11  H   UNL     1     -19.449  -5.910  19.181  1.00  0.00     0.211 HD
ENDBRANCH   2  10
BRANCH   3  12
ATOM     12  O   UNL     1     -18.751  -6.103  16.903  1.00  0.00    -0.387 OA
ATOM     13  H   UNL     1     -19.459  -5.441  17.117  1.00  0.00     0.211 HD
ENDBRANCH   3  12
BRANCH   5  14
ATOM     14  C   UNL     1     -13.792  -6.229  16.960  1.00  0.00     0.191 C 
BRANCH  14  15
ATOM     15  O   UNL     1     -12.875  -5.168  16.943  1.00  0.00    -0.394 OA
ATOM     16  H   UNL     1     -12.307  -5.271  17.751  1.00  0.00     0.210 HD
ENDBRANCH  14  15
ENDBRANCH   5  14
BRANCH   4  17
ATOM     17  O   UNL     1     -16.260  -5.336  15.650  1.00  0.00    -0.387 OA
ATOM     18  H   UNL     1     -16.055  -5.963  14.908  1.00  0.00     0.211 HD
ENDBRANCH   4  17
TORSDOF 7
ENDMDL
MODEL 6
REMARK VINA RESULT:    -3.938     17.649     19.205
REMARK INTER + INTRA:          -5.538
REMARK INTER:                  -5.220
REMARK INTRA:                  -0.318
REMARK UNBOUND:                -0.449
REMARK SMILES CCO[C@@H]1O[C@@H](CO)[C@H](O)[C@@H](O)[C@@H]1O
REMARK SMILES IDX 4 1 13 2 11 3 9 4 6 5 5 6 3 7 2 8 1 9 14 10 12 12 7 14 8 15
REMARK SMILES IDX 10 17
REMARK H PARENT 14 11 12 13 8 16 10 18
REMARK Flexibility Score: inf
ROOT
ATOM      1  C   UNL     1     -15.581  -5.659  18.013  1.00  0.00     0.281 C 
ATOM      2  C   UNL     1     -17.051  -5.306  17.704  1.00  0.00     0.202 C 
ATOM      3  C   UNL     1     -18.003  -6.092  18.628  1.00  0.00     0.179 C 
ATOM      4  C   UNL     1     -17.574  -5.920  20.099  1.00  0.00     0.177 C 
ATOM      5  C   UNL     1     -16.069  -6.246  20.240  1.00  0.00     0.178 C 
ATOM      6  O   UNL     1     -15.291  -5.419  19.384  1.00  0.00    -0.341 OA
ENDROOT
BRANCH   1   7
ATOM      7  O   UNL     1     -15.305  -7.005  17.652  1.00  0.00    -0.350 OA
BRANCH   7   8
ATOM      8  C   UNL     1     -14.223  -7.054  16.746  1.00  0.00     0.160 C 
ATOM      9  C   UNL     1     -13.653  -5.654  16.576  1.00  0.00     0.035 C 
ENDBRANCH   7   8
ENDBRANCH   1   7
BRANCH   2  10
ATOM     10  O   UNL     1     -17.354  -5.524  16.349  1.00  0.00    -0.385 OA
ATOM     11  H   UNL     1     -16.748  -6.234  16.010  1.00  0.00     0.211 HD
ENDBRANCH   2  10
BRANCH   3  12
ATOM     12  O   UNL     1     -19.335  -5.684  18.439  1.00  0.00    -0.387 OA
ATOM     13  H   UNL     1     -19.502  -5.638  17.462  1.00  0.00     0.211 HD
ENDBRANCH   3  12
BRANCH   5  14
ATOM     14  C   UNL     1     -15.598  -6.020  21.684  1.00  0.00     0.191 C 
BRANCH  14  15
ATOM     15  O   UNL     1     -15.925  -7.125  22.484  1.00  0.00    -0.394 OA
ATOM     16  H   UNL     1     -15.089  -7.401  22.943  1.00  0.00     0.210 HD
ENDBRANCH  14  15
ENDBRANCH   5  14
BRANCH   4  17
ATOM     17  O   UNL     1     -18.323  -6.785  20.914  1.00  0.00    -0.387 OA
ATOM     18  H   UNL     1     -18.715  -6.232  21.639  1.00  0.00     0.211 HD
ENDBRANCH   4  17
TORSDOF 7
ENDMDL
MODEL 7
REMARK VINA RESULT:    -3.906     18.045     18.994
REMARK INTER + INTRA:          -5.496
REMARK INTER:                  -5.117
REMARK INTRA:                  -0.379
REMARK UNBOUND:                -0.449
REMARK SMILES CCO[C@@H]1O[C@@H](CO)[C@H](O)[C@@H](O)[C@@H]1O
REMARK SMILES IDX 4 1 13 2 11 3 9 4 6 5 5 6 3 7 2 8 1 9 14 10 12 12 7 14 8 15
REMARK SMILES IDX 10 17
REMARK H PARENT 14 11 12 13 8 16 10 18
REMARK Flexibility Score: inf
ROOT
ATOM      1  C   UNL     1     -15.466  -6.160  18.487  1.00  0.00     0.281 C 
ATOM      2  C   UNL     1     -15.546  -6.700  19.930  1.00  0.00     0.202 C 
ATOM      3  C   UNL     1     -16.782  -6.130  20.655  1.00  0.00     0.179 C 
ATOM      4  C   UNL     1     -18.044  -6.346  19.796  1.00  0.00     0.177 C 
ATOM      5  C   UNL     1     -17.792  -5.817  18.365  1.00  0.00     0.178 C 
ATOM      6  O   UNL     1     -16.664  -6.456  17.781  1.00  0.00    -0.341 OA
ENDROOT
BRANCH   1   7
ATOM      7  O   UNL     1     -15.196  -4.766  18.490  1.00  0.00    -0.350 OA
BRANCH   7   8
ATOM      8  C   UNL     1     -14.573  -4.388  17.280  1.00  0.00     0.160 C 
ATOM      9  C   UNL     1     -13.619  -5.490  16.847  1.00  0.00     0.035 C 
ENDBRANCH   7   8
ENDBRANCH   1   7
BRANCH   2  10
ATOM     10  O   UNL     1     -14.363  -6.429  20.642  1.00  0.00    -0.385 OA
ATOM     11  H   UNL     1     -14.443  -5.519  21.034  1.00  0.00     0.211 HD
ENDBRANCH   2  10
BRANCH   3  12
ATOM     12  O   UNL     1     -16.930  -6.713  21.926  1.00  0.00    -0.387 OA
ATOM     13  H   UNL     1     -17.717  -6.292  22.362  1.00  0.00     0.211 HD
ENDBRANCH   3  12
BRANCH   5  14
ATOM     14  C   UNL     1     -19.011  -6.077  17.468  1.00  0.00     0.191 C 
BRANCH  14  15
ATOM     15  O   UNL     1     -19.785  -7.125  17.985  1.00  0.00    -0.394 OA
ATOM     16  H   UNL     1     -19.214  -7.937  17.966  1.00  0.00     0.210 HD
ENDBRANCH  14  15
ENDBRANCH   5  14
BRANCH   4  17
ATOM     17  O   UNL     1     -19.129  -5.662  20.369  1.00  0.00    -0.387 OA
ATOM     18  H   UNL     1     -18.786  -5.210  21.184  1.00  0.00     0.211 HD
ENDBRANCH   4  17
TORSDOF 7
ENDMDL
MODEL 8
REMARK VINA RESULT:    -3.860     16.140     18.641
REMARK INTER + INTRA:          -5.437
REMARK INTER:                  -5.078
REMARK INTRA:                  -0.360
REMARK UNBOUND:                -0.449
REMARK SMILES CCO[C@@H]1O[C@@H](CO)[C@H](O)[C@@H](O)[C@@H]1O
REMARK SMILES IDX 4 1 13 2 11 3 9 4 6 5 5 6 3 7 2 8 1 9 14 10 12 12 7 14 8 15
REMARK SMILES IDX 10 17
REMARK H PARENT 14 11 12 13 8 16 10 18
REMARK Flexibility Score: inf
ROOT
ATOM      1  C   UNL     1     -14.427  -2.946  17.658  1.00  0.00     0.281 C 
ATOM      2  C   UNL     1     -15.168  -3.638  18.821  1.00  0.00     0.202 C 
ATOM      3  C   UNL     1     -16.421  -4.373  18.305  1.00  0.00     0.179 C 
ATOM      4  C   UNL     1     -16.047  -5.287  17.120  1.00  0.00     0.177 C 
ATOM      5  C   UNL     1     -15.257  -4.473  16.070  1.00  0.00     0.178 C 
ATOM      6  O   UNL     1     -14.096  -3.893  16.650  1.00  0.00    -0.341 OA
ENDROOT
BRANCH   1   7
ATOM      7  O   UNL     1     -15.205  -1.880  17.134  1.00  0.00    -0.350 OA
BRANCH   7   8
ATOM      8  C   UNL     1     -14.486  -0.667  17.214  1.00  0.00     0.160 C 
ATOM      9  C   UNL     1     -14.916   0.240  16.071  1.00  0.00     0.035 C 
ENDBRANCH   7   8
ENDBRANCH   1   7
BRANCH   2  10
ATOM     10  O   UNL     1     -15.492  -2.720  19.836  1.00  0.00    -0.385 OA
ATOM     11  H   UNL     1     -16.020  -1.985  19.427  1.00  0.00     0.211 HD
ENDBRANCH   2  10
BRANCH   3  12
ATOM     12  O   UNL     1     -17.031  -5.108  19.337  1.00  0.00    -0.387 OA
ATOM     13  H   UNL     1     -17.976  -4.810  19.402  1.00  0.00     0.211 HD
ENDBRANCH   3  12
BRANCH   5  14
ATOM     14  C   UNL     1     -14.815  -5.374  14.907  1.00  0.00     0.191 C 
BRANCH  14  15
ATOM     15  O   UNL     1     -15.892  -5.623  14.044  1.00  0.00    -0.394 OA
ATOM     16  H   UNL     1     -16.474  -4.819  14.078  1.00  0.00     0.210 HD
ENDBRANCH  14  15
ENDBRANCH   5  14
BRANCH   4  17
ATOM     17  O   UNL     1     -17.216  -5.805  16.537  1.00  0.00    -0.387 OA
ATOM     18  H   UNL     1     -17.398  -5.263  15.726  1.00  0.00     0.211 HD
ENDBRANCH   4  17
TORSDOF 7
ENDMDL
MODEL 9
REMARK VINA RESULT:    -2.701     16.949     18.901
REMARK INTER + INTRA:          -3.940
REMARK INTER:                  -3.482
REMARK INTRA:                  -0.458
REMARK UNBOUND:                -0.449
REMARK SMILES CCO[C@@H]1O[C@@H](CO)[C@H](O)[C@@H](O)[C@@H]1O
REMARK SMILES IDX 4 1 13 2 11 3 9 4 6 5 5 6 3 7 2 8 1 9 14 10 12 12 7 14 8 15
REMARK SMILES IDX 10 17
REMARK H PARENT 14 11 12 13 8 16 10 18
REMARK Flexibility Score: inf
ROOT
ATOM      1  C   UNL     1     -16.128  -5.948  19.558  1.00  0.00     0.281 C 
ATOM      2  C   UNL     1     -16.627  -4.537  19.188  1.00  0.00     0.202 C 
ATOM      3  C   UNL     1     -15.635  -3.845  18.232  1.00  0.00     0.179 C 
ATOM      4  C   UNL     1     -15.317  -4.770  17.040  1.00  0.00     0.177 C 
ATOM      5  C   UNL     1     -14.895  -6.162  17.564  1.00  0.00     0.178 C 
ATOM      6  O   UNL     1     -15.912  -6.721  18.385  1.00  0.00    -0.341 OA
ENDROOT
BRANCH   1   7
ATOM      7  O   UNL     1     -14.953  -5.870  20.352  1.00  0.00    -0.350 OA
BRANCH   7   8
ATOM      8  C   UNL     1     -14.981  -6.855  21.364  1.00  0.00     0.160 C 
ATOM      9  C   UNL     1     -15.874  -6.376  22.498  1.00  0.00     0.035 C 
ENDBRANCH   7   8
ENDBRANCH   1   7
BRANCH   2  10
ATOM     10  O   UNL     1     -16.859  -3.760  20.337  1.00  0.00    -0.385 OA
ATOM     11  H   UNL     1     -17.827  -3.540  20.367  1.00  0.00     0.211 HD
ENDBRANCH   2  10
BRANCH   3  12
ATOM     12  O   UNL     1     -16.143  -2.609  17.791  1.00  0.00    -0.387 OA
ATOM     13  H   UNL     1     -16.992  -2.441  18.277  1.00  0.00     0.211 HD
ENDBRANCH   3  12
BRANCH   5  14
ATOM     14  C   UNL     1     -14.634  -7.125  16.397  1.00  0.00     0.191 C 
BRANCH  14  15
ATOM     15  O   UNL     1     -15.387  -6.750  15.275  1.00  0.00    -0.394 OA
ATOM     16  H   UNL     1     -14.915  -5.981  14.860  1.00  0.00     0.210 HD
ENDBRANCH  14  15
ENDBRANCH   5  14
BRANCH   4  17
ATOM     17  O   UNL     1     -14.275  -4.216  16.277  1.00  0.00    -0.387 OA
ATOM     18  H   UNL     1     -13.726  -3.667  16.894  1.00  0.00     0.211 HD
ENDBRANCH   4  17
TORSDOF 7
ENDMDL
