MODEL 1
REMARK VINA RESULT:    -2.996      0.000      0.000
REMARK INTER + INTRA:          -7.085
REMARK INTER:                  -5.273
REMARK INTRA:                  -1.812
REMARK UNBOUND:                -1.812
REMARK SMILES CCCCCCCCCCCCCCC(=O)[O-]
REMARK SMILES IDX 9 1 10 2 11 3 12 4 13 5 14 6 15 7 16 8 17 9 8 10 7 11 6 12
REMARK SMILES IDX 5 13 4 14 3 15 2 16 1 17
REMARK H PARENT
REMARK Flexibility Score: inf
ROOT
ATOM      1  C   UNL     1      -7.839   8.092   3.367  1.00  0.00     0.000 C 
ENDROOT
BRANCH   1   2
ATOM      2  C   UNL     1      -9.251   8.062   3.975  1.00  0.00     0.000 C 
BRANCH   2   3
ATOM      3  C   UNL     1      -9.513   6.794   4.802  1.00  0.00     0.000 C 
BRANCH   3   4
ATOM      4  C   UNL     1      -9.370   7.078   6.302  1.00  0.00     0.000 C 
BRANCH   4   5
ATOM      5  C   UNL     1      -8.297   6.184   6.933  1.00  0.00     0.006 C 
BRANCH   5   6
ATOM      6  C   UNL     1      -8.912   5.222   7.953  1.00  0.00     0.053 C 
BRANCH   6   7
ATOM      7  C   UNL     1      -8.044   5.118   9.167  1.00  0.00     0.041 C 
ATOM      8  O   UNL     1      -7.361   4.081   9.371  1.00  0.00    -0.550 OA
ATOM      9  O   UNL     1      -8.028   6.148  10.099  1.00  0.00    -0.550 OA
ENDBRANCH   6   7
ENDBRANCH   5   6
ENDBRANCH   4   5
ENDBRANCH   3   4
ENDBRANCH   2   3
ENDBRANCH   1   2
BRANCH   1  10
ATOM     10  C   UNL     1      -7.070   9.375   3.713  1.00  0.00     0.000 C 
BRANCH  10  11
ATOM     11  C   UNL     1      -7.669  10.056   4.952  1.00  0.00    -0.000 C 
BRANCH  11  12
ATOM     12  C   UNL     1      -6.762   9.947   6.191  1.00  0.00    -0.000 C 
BRANCH  12  13
ATOM     13  C   UNL     1      -7.498   9.992   7.546  1.00  0.00    -0.000 C 
BRANCH  13  14
ATOM     14  C   UNL     1      -6.901   9.094   8.643  1.00  0.00    -0.000 C 
BRANCH  14  15
ATOM     15  C   UNL     1      -5.506   8.560   8.284  1.00  0.00    -0.000 C 
BRANCH  15  16
ATOM     16  C   UNL     1      -4.920   7.739   9.438  1.00  0.00    -0.003 C 
ATOM     17  C   UNL     1      -4.551   6.330   8.982  1.00  0.00     0.004 C 
ENDBRANCH  15  16
ENDBRANCH  14  15
ENDBRANCH  13  14
ENDBRANCH  12  13
ENDBRANCH  11  12
ENDBRANCH  10  11
ENDBRANCH   1  10
TORSDOF 13
ENDMDL
MODEL 2
REMARK VINA RESULT:    -2.882      2.562      5.971
REMARK INTER + INTRA:          -6.885
REMARK INTER:                  -6.084
REMARK INTRA:                  -0.801
REMARK UNBOUND:                -1.812
REMARK SMILES CCCCCCCCCCCCCCC(=O)[O-]
REMARK SMILES IDX 9 1 10 2 11 3 12 4 13 5 14 6 15 7 16 8 17 9 8 10 7 11 6 12
REMARK SMILES IDX 5 13 4 14 3 15 2 16 1 17
REMARK H PARENT
REMARK Flexibility Score: inf
ROOT
ATOM      1  C   UNL     1      -8.860   7.122   6.361  1.00  0.00     0.000 C 
ENDROOT
BRANCH   1   2
ATOM      2  C   UNL     1      -8.056   5.970   6.985  1.00  0.00     0.000 C 
BRANCH   2   3
ATOM      3  C   UNL     1      -8.099   5.983   8.521  1.00  0.00     0.000 C 
BRANCH   3   4
ATOM      4  C   UNL     1      -6.876   5.268   9.108  1.00  0.00     0.000 C 
BRANCH   4   5
ATOM      5  C   UNL     1      -5.950   6.258   9.823  1.00  0.00     0.006 C 
BRANCH   5   6
ATOM      6  C   UNL     1      -4.840   6.747   8.888  1.00  0.00     0.053 C 
BRANCH   6   7
ATOM      7  C   UNL     1      -4.921   8.230   8.708  1.00  0.00     0.041 C 
ATOM      8  O   UNL     1      -5.647   8.720   7.804  1.00  0.00    -0.550 OA
ATOM      9  O   UNL     1      -4.154   9.069   9.506  1.00  0.00    -0.550 OA
ENDBRANCH   6   7
ENDBRANCH   5   6
ENDBRANCH   4   5
ENDBRANCH   3   4
ENDBRANCH   2   3
ENDBRANCH   1   2
BRANCH   1  10
ATOM     10  C   UNL     1      -9.449   6.761   4.989  1.00  0.00     0.000 C 
BRANCH  10  11
ATOM     11  C   UNL     1      -9.249   7.907   3.988  1.00  0.00    -0.000 C 
BRANCH  11  12
ATOM     12  C   UNL     1      -7.863   7.884   3.321  1.00  0.00    -0.000 C 
BRANCH  12  13
ATOM     13  C   UNL     1      -7.475   9.177   2.573  1.00  0.00    -0.000 C 
BRANCH  13  14
ATOM     14  C   UNL     1      -8.605   9.817   1.748  1.00  0.00    -0.000 C 
BRANCH  14  15
ATOM     15  C   UNL     1      -8.481   9.533   0.244  1.00  0.00    -0.000 C 
BRANCH  15  16
ATOM     16  C   UNL     1      -9.853   9.246  -0.375  1.00  0.00    -0.003 C 
ATOM     17  C   UNL     1      -9.855   7.913  -1.119  1.00  0.00     0.004 C 
ENDBRANCH  15  16
ENDBRANCH  14  15
ENDBRANCH  13  14
ENDBRANCH  12  13
ENDBRANCH  11  12
ENDBRANCH  10  11
ENDBRANCH   1  10
TORSDOF 13
ENDMDL
MODEL 3
REMARK VINA RESULT:    -2.878      2.665      4.984
REMARK INTER + INTRA:          -6.877
REMARK INTER:                  -5.330
REMARK INTRA:                  -1.547
REMARK UNBOUND:                -1.812
REMARK SMILES CCCCCCCCCCCCCCC(=O)[O-]
REMARK SMILES IDX 9 1 10 2 11 3 12 4 13 5 14 6 15 7 16 8 17 9 8 10 7 11 6 12
REMARK SMILES IDX 5 13 4 14 3 15 2 16 1 17
REMARK H PARENT
REMARK Flexibility Score: inf
ROOT
ATOM      1  C   UNL     1      -8.678   7.092   6.323  1.00  0.00     0.000 C 
ENDROOT
BRANCH   1   2
ATOM      2  C   UNL     1      -9.747   7.716   5.412  1.00  0.00     0.000 C 
BRANCH   2   3
ATOM      3  C   UNL     1      -9.713   7.147   3.985  1.00  0.00     0.000 C 
BRANCH   3   4
ATOM      4  C   UNL     1      -9.735   8.274   2.946  1.00  0.00     0.000 C 
BRANCH   4   5
ATOM      5  C   UNL     1      -9.027   9.526   3.476  1.00  0.00     0.006 C 
BRANCH   5   6
ATOM      6  C   UNL     1      -7.641   9.684   2.844  1.00  0.00     0.053 C 
BRANCH   6   7
ATOM      7  C   UNL     1      -6.602   9.887   3.900  1.00  0.00     0.041 C 
ATOM      8  O   UNL     1      -5.388   9.987   3.584  1.00  0.00    -0.550 OA
ATOM      9  O   UNL     1      -6.970   9.916   5.240  1.00  0.00    -0.550 OA
ENDBRANCH   6   7
ENDBRANCH   5   6
ENDBRANCH   4   5
ENDBRANCH   3   4
ENDBRANCH   2   3
ENDBRANCH   1   2
BRANCH   1  10
ATOM     10  C   UNL     1      -9.097   5.724   6.881  1.00  0.00     0.000 C 
BRANCH  10  11
ATOM     11  C   UNL     1      -9.857   5.882   8.206  1.00  0.00    -0.000 C 
BRANCH  11  12
ATOM     12  C   UNL     1      -9.028   5.444   9.427  1.00  0.00    -0.000 C 
BRANCH  12  13
ATOM     13  C   UNL     1      -7.758   4.632   9.098  1.00  0.00    -0.000 C 
BRANCH  13  14
ATOM     14  C   UNL     1      -6.451   5.198   9.680  1.00  0.00    -0.000 C 
BRANCH  14  15
ATOM     15  C   UNL     1      -5.857   6.327   8.825  1.00  0.00    -0.000 C 
BRANCH  15  16
ATOM     16  C   UNL     1      -5.803   7.641   9.614  1.00  0.00    -0.003 C 
ATOM     17  C   UNL     1      -6.911   8.594   9.175  1.00  0.00     0.004 C 
ENDBRANCH  15  16
ENDBRANCH  14  15
ENDBRANCH  13  14
ENDBRANCH  12  13
ENDBRANCH  11  12
ENDBRANCH  10  11
ENDBRANCH   1  10
TORSDOF 13
ENDMDL
MODEL 4
REMARK VINA RESULT:    -2.767      4.420      6.407
REMARK INTER + INTRA:          -6.681
REMARK INTER:                  -5.587
REMARK INTRA:                  -1.094
REMARK UNBOUND:                -1.812
REMARK SMILES CCCCCCCCCCCCCCC(=O)[O-]
REMARK SMILES IDX 9 1 10 2 11 3 12 4 13 5 14 6 15 7 16 8 17 9 8 10 7 11 6 12
REMARK SMILES IDX 5 13 4 14 3 15 2 16 1 17
REMARK H PARENT
REMARK Flexibility Score: inf
ROOT
ATOM      1  C   UNL     1      -8.817   7.223   5.215  1.00  0.00     0.000 C 
ENDROOT
BRANCH   1   2
ATOM      2  C   UNL     1      -9.865   7.117   4.096  1.00  0.00     0.000 C 
BRANCH   2   3
ATOM      3  C   UNL     1      -9.764   8.265   3.080  1.00  0.00     0.000 C 
BRANCH   3   4
ATOM      4  C   UNL     1      -8.299   8.616   2.794  1.00  0.00     0.000 C 
BRANCH   4   5
ATOM      5  C   UNL     1      -8.166   9.394   1.479  1.00  0.00     0.006 C 
BRANCH   5   6
ATOM      6  C   UNL     1      -9.481   9.379   0.696  1.00  0.00     0.053 C 
BRANCH   6   7
ATOM      7  C   UNL     1      -9.237   9.008  -0.733  1.00  0.00     0.041 C 
ATOM      8  O   UNL     1      -8.680   9.823  -1.514  1.00  0.00    -0.550 OA
ATOM      9  O   UNL     1      -9.671   7.779  -1.215  1.00  0.00    -0.550 OA
ENDBRANCH   6   7
ENDBRANCH   5   6
ENDBRANCH   4   5
ENDBRANCH   3   4
ENDBRANCH   2   3
ENDBRANCH   1   2
BRANCH   1  10
ATOM     10  C   UNL     1      -8.844   6.020   6.170  1.00  0.00     0.000 C 
BRANCH  10  11
ATOM     11  C   UNL     1      -9.711   6.318   7.402  1.00  0.00    -0.000 C 
BRANCH  11  12
ATOM     12  C   UNL     1      -9.966   5.073   8.269  1.00  0.00    -0.000 C 
BRANCH  12  13
ATOM     13  C   UNL     1      -9.058   4.942   9.509  1.00  0.00    -0.000 C 
BRANCH  13  14
ATOM     14  C   UNL     1      -7.610   4.510   9.217  1.00  0.00    -0.000 C 
BRANCH  14  15
ATOM     15  C   UNL     1      -6.569   5.457   9.832  1.00  0.00    -0.000 C 
BRANCH  15  16
ATOM     16  C   UNL     1      -5.897   6.310   8.749  1.00  0.00    -0.003 C 
ATOM     17  C   UNL     1      -6.544   7.689   8.651  1.00  0.00     0.004 C 
ENDBRANCH  15  16
ENDBRANCH  14  15
ENDBRANCH  13  14
ENDBRANCH  12  13
ENDBRANCH  11  12
ENDBRANCH  10  11
ENDBRANCH   1  10
TORSDOF 13
ENDMDL
MODEL 5
REMARK VINA RESULT:    -2.677      3.213      4.903
REMARK INTER + INTRA:          -6.523
REMARK INTER:                  -4.722
REMARK INTRA:                  -1.801
REMARK UNBOUND:                -1.812
REMARK SMILES CCCCCCCCCCCCCCC(=O)[O-]
REMARK SMILES IDX 9 1 10 2 11 3 12 4 13 5 14 6 15 7 16 8 17 9 8 10 7 11 6 12
REMARK SMILES IDX 5 13 4 14 3 15 2 16 1 17
REMARK H PARENT
REMARK Flexibility Score: inf
ROOT
ATOM      1  C   UNL     1      -7.891   5.968   6.922  1.00  0.00     0.000 C 
ENDROOT
BRANCH   1   2
ATOM      2  C   UNL     1      -9.321   6.088   6.371  1.00  0.00     0.000 C 
BRANCH   2   3
ATOM      3  C   UNL     1      -9.581   7.442   5.692  1.00  0.00     0.000 C 
BRANCH   3   4
ATOM      4  C   UNL     1      -8.329   8.326   5.736  1.00  0.00     0.000 C 
BRANCH   4   5
ATOM      5  C   UNL     1      -8.485   9.547   4.821  1.00  0.00     0.006 C 
BRANCH   5   6
ATOM      6  C   UNL     1      -9.045   9.143   3.455  1.00  0.00     0.053 C 
BRANCH   6   7
ATOM      7  C   UNL     1      -7.952   9.084   2.436  1.00  0.00     0.041 C 
ATOM      8  O   UNL     1      -6.774   8.809   2.784  1.00  0.00    -0.550 OA
ATOM      9  O   UNL     1      -8.225   9.383   1.107  1.00  0.00    -0.550 OA
ENDBRANCH   6   7
ENDBRANCH   5   6
ENDBRANCH   4   5
ENDBRANCH   3   4
ENDBRANCH   2   3
ENDBRANCH   1   2
BRANCH   1  10
ATOM     10  C   UNL     1      -7.857   5.502   8.386  1.00  0.00     0.000 C 
BRANCH  10  11
ATOM     11  C   UNL     1      -9.053   6.062   9.167  1.00  0.00    -0.000 C 
BRANCH  11  12
ATOM     12  C   UNL     1      -8.663   7.202  10.124  1.00  0.00    -0.000 C 
BRANCH  12  13
ATOM     13  C   UNL     1      -8.307   8.538   9.439  1.00  0.00    -0.000 C 
BRANCH  13  14
ATOM     14  C   UNL     1      -6.871   9.033   9.681  1.00  0.00    -0.000 C 
BRANCH  14  15
ATOM     15  C   UNL     1      -5.912   8.666   8.538  1.00  0.00    -0.000 C 
BRANCH  15  16
ATOM     16  C   UNL     1      -4.604   8.084   9.085  1.00  0.00    -0.003 C 
ATOM     17  C   UNL     1      -4.521   6.581   8.834  1.00  0.00     0.004 C 
ENDBRANCH  15  16
ENDBRANCH  14  15
ENDBRANCH  13  14
ENDBRANCH  12  13
ENDBRANCH  11  12
ENDBRANCH  10  11
ENDBRANCH   1  10
TORSDOF 13
ENDMDL
MODEL 6
REMARK VINA RESULT:    -2.667      4.756      6.593
REMARK INTER + INTRA:          -6.506
REMARK INTER:                  -5.419
REMARK INTRA:                  -1.086
REMARK UNBOUND:                -1.812
REMARK SMILES CCCCCCCCCCCCCCC(=O)[O-]
REMARK SMILES IDX 9 1 10 2 11 3 12 4 13 5 14 6 15 7 16 8 17 9 8 10 7 11 6 12
REMARK SMILES IDX 5 13 4 14 3 15 2 16 1 17
REMARK H PARENT
REMARK Flexibility Score: inf
ROOT
ATOM      1  C   UNL     1      -8.352   7.563   4.268  1.00  0.00     0.000 C 
ENDROOT
BRANCH   1   2
ATOM      2  C   UNL     1      -7.633   8.909   4.084  1.00  0.00     0.000 C 
BRANCH   2   3
ATOM      3  C   UNL     1      -7.164   9.136   2.639  1.00  0.00     0.000 C 
BRANCH   3   4
ATOM      4  C   UNL     1      -8.160  10.012   1.870  1.00  0.00     0.000 C 
BRANCH   4   5
ATOM      5  C   UNL     1      -9.047   9.162   0.953  1.00  0.00     0.006 C 
BRANCH   5   6
ATOM      6  C   UNL     1      -9.437   9.939  -0.308  1.00  0.00     0.053 C 
BRANCH   6   7
ATOM      7  C   UNL     1      -9.459   9.032  -1.498  1.00  0.00     0.041 C 
ATOM      8  O   UNL     1      -9.611   7.792  -1.347  1.00  0.00    -0.550 OA
ATOM      9  O   UNL     1      -9.260   9.552  -2.770  1.00  0.00    -0.550 OA
ENDBRANCH   6   7
ENDBRANCH   5   6
ENDBRANCH   4   5
ENDBRANCH   3   4
ENDBRANCH   2   3
ENDBRANCH   1   2
BRANCH   1  10
ATOM     10  C   UNL     1      -9.789   7.724   4.787  1.00  0.00     0.000 C 
BRANCH  10  11
ATOM     11  C   UNL     1      -9.902   7.254   6.244  1.00  0.00    -0.000 C 
BRANCH  11  12
ATOM     12  C   UNL     1      -9.079   5.986   6.529  1.00  0.00    -0.000 C 
BRANCH  12  13
ATOM     13  C   UNL     1      -9.260   5.392   7.941  1.00  0.00    -0.000 C 
BRANCH  13  14
ATOM     14  C   UNL     1      -7.978   5.320   8.790  1.00  0.00    -0.000 C 
BRANCH  14  15
ATOM     15  C   UNL     1      -6.787   6.032   8.132  1.00  0.00    -0.000 C 
BRANCH  15  16
ATOM     16  C   UNL     1      -6.377   7.271   8.935  1.00  0.00    -0.003 C 
ATOM     17  C   UNL     1      -7.196   8.492   8.522  1.00  0.00     0.004 C 
ENDBRANCH  15  16
ENDBRANCH  14  15
ENDBRANCH  13  14
ENDBRANCH  12  13
ENDBRANCH  11  12
ENDBRANCH  10  11
ENDBRANCH   1  10
TORSDOF 13
ENDMDL
MODEL 7
REMARK VINA RESULT:    -2.585      2.424      5.830
REMARK INTER + INTRA:          -6.362
REMARK INTER:                  -4.404
REMARK INTRA:                  -1.958
REMARK UNBOUND:                -1.812
REMARK SMILES CCCCCCCCCCCCCCC(=O)[O-]
REMARK SMILES IDX 9 1 10 2 11 3 12 4 13 5 14 6 15 7 16 8 17 9 8 10 7 11 6 12
REMARK SMILES IDX 5 13 4 14 3 15 2 16 1 17
REMARK H PARENT
REMARK Flexibility Score: inf
ROOT
ATOM      1  C   UNL     1      -4.576   6.516   8.927  1.00  0.00     0.000 C 
ENDROOT
BRANCH   1   2
ATOM      2  C   UNL     1      -4.476   7.629   9.982  1.00  0.00     0.000 C 
BRANCH   2   3
ATOM      3  C   UNL     1      -4.523   9.035   9.366  1.00  0.00     0.000 C 
BRANCH   3   4
ATOM      4  C   UNL     1      -5.692   9.846   9.939  1.00  0.00     0.000 C 
BRANCH   4   5
ATOM      5  C   UNL     1      -6.925   9.752   9.032  1.00  0.00     0.006 C 
BRANCH   5   6
ATOM      6  C   UNL     1      -6.527   9.394   7.598  1.00  0.00     0.053 C 
BRANCH   6   7
ATOM      7  C   UNL     1      -7.602   9.797   6.639  1.00  0.00     0.041 C 
ATOM      8  O   UNL     1      -7.354   9.886   5.408  1.00  0.00    -0.550 OA
ATOM      9  O   UNL     1      -8.867  10.125   7.111  1.00  0.00    -0.550 OA
ENDBRANCH   6   7
ENDBRANCH   5   6
ENDBRANCH   4   5
ENDBRANCH   3   4
ENDBRANCH   2   3
ENDBRANCH   1   2
BRANCH   1  10
ATOM     10  C   UNL     1      -5.722   5.533   9.208  1.00  0.00     0.000 C 
BRANCH  10  11
ATOM     11  C   UNL     1      -6.778   6.169  10.123  1.00  0.00    -0.000 C 
BRANCH  11  12
ATOM     12  C   UNL     1      -8.217   5.784   9.734  1.00  0.00    -0.000 C 
BRANCH  12  13
ATOM     13  C   UNL     1      -9.133   6.969   9.365  1.00  0.00    -0.000 C 
BRANCH  13  14
ATOM     14  C   UNL     1      -9.934   6.795   8.062  1.00  0.00    -0.000 C 
BRANCH  14  15
ATOM     15  C   UNL     1      -9.359   5.700   7.150  1.00  0.00    -0.000 C 
BRANCH  15  16
ATOM     16  C   UNL     1      -8.620   6.315   5.956  1.00  0.00    -0.003 C 
ATOM     17  C   UNL     1      -9.543   7.216   5.140  1.00  0.00     0.004 C 
ENDBRANCH  15  16
ENDBRANCH  14  15
ENDBRANCH  13  14
ENDBRANCH  12  13
ENDBRANCH  11  12
ENDBRANCH  10  11
ENDBRANCH   1  10
TORSDOF 13
ENDMDL
MODEL 8
REMARK VINA RESULT:    -2.572      2.709      4.554
REMARK INTER + INTRA:          -6.338
REMARK INTER:                  -4.802
REMARK INTRA:                  -1.536
REMARK UNBOUND:                -1.812
REMARK SMILES CCCCCCCCCCCCCCC(=O)[O-]
REMARK SMILES IDX 9 1 10 2 11 3 12 4 13 5 14 6 15 7 16 8 17 9 8 10 7 11 6 12
REMARK SMILES IDX 5 13 4 14 3 15 2 16 1 17
REMARK H PARENT
REMARK Flexibility Score: inf
ROOT
ATOM      1  C   UNL     1      -7.890   8.213   7.556  1.00  0.00     0.000 C 
ENDROOT
BRANCH   1   2
ATOM      2  C   UNL     1      -9.110   7.448   7.019  1.00  0.00     0.000 C 
BRANCH   2   3
ATOM      3  C   UNL     1      -8.818   6.718   5.699  1.00  0.00     0.000 C 
BRANCH   3   4
ATOM      4  C   UNL     1      -9.768   7.188   4.591  1.00  0.00     0.000 C 
BRANCH   4   5
ATOM      5  C   UNL     1      -8.995   7.862   3.451  1.00  0.00     0.006 C 
BRANCH   5   6
ATOM      6  C   UNL     1      -8.617   9.300   3.817  1.00  0.00     0.053 C 
BRANCH   6   7
ATOM      7  C   UNL     1      -7.131   9.450   3.887  1.00  0.00     0.041 C 
ATOM      8  O   UNL     1      -6.403   8.988   2.970  1.00  0.00    -0.550 OA
ATOM      9  O   UNL     1      -6.545  10.057   4.991  1.00  0.00    -0.550 OA
ENDBRANCH   6   7
ENDBRANCH   5   6
ENDBRANCH   4   5
ENDBRANCH   3   4
ENDBRANCH   2   3
ENDBRANCH   1   2
BRANCH   1  10
ATOM     10  C   UNL     1      -8.034   8.596   9.036  1.00  0.00     0.000 C 
BRANCH  10  11
ATOM     11  C   UNL     1      -7.110   9.770   9.390  1.00  0.00    -0.000 C 
BRANCH  11  12
ATOM     12  C   UNL     1      -5.833   9.326  10.125  1.00  0.00    -0.000 C 
BRANCH  12  13
ATOM     13  C   UNL     1      -4.821   8.543   9.262  1.00  0.00    -0.000 C 
BRANCH  13  14
ATOM     14  C   UNL     1      -4.362   7.198   9.852  1.00  0.00    -0.000 C 
BRANCH  14  15
ATOM     15  C   UNL     1      -5.044   5.992   9.188  1.00  0.00    -0.000 C 
BRANCH  15  16
ATOM     16  C   UNL     1      -6.284   5.561   9.978  1.00  0.00    -0.003 C 
ATOM     17  C   UNL     1      -7.310   4.886   9.071  1.00  0.00     0.004 C 
ENDBRANCH  15  16
ENDBRANCH  14  15
ENDBRANCH  13  14
ENDBRANCH  12  13
ENDBRANCH  11  12
ENDBRANCH  10  11
ENDBRANCH   1  10
TORSDOF 13
ENDMDL
MODEL 9
REMARK VINA RESULT:    -1.930      1.787      4.757
REMARK INTER + INTRA:          -5.209
REMARK INTER:                  -3.742
REMARK INTRA:                  -1.468
REMARK UNBOUND:                -1.812
REMARK SMILES CCCCCCCCCCCCCCC(=O)[O-]
REMARK SMILES IDX 9 1 10 2 11 3 12 4 13 5 14 6 15 7 16 8 17 9 8 10 7 11 6 12
REMARK SMILES IDX 5 13 4 14 3 15 2 16 1 17
REMARK H PARENT
REMARK Flexibility Score: inf
ROOT
ATOM      1  C   UNL     1      -5.045   7.339   8.595  1.00  0.00     0.000 C 
ENDROOT
BRANCH   1   2
ATOM      2  C   UNL     1      -4.983   6.207   9.633  1.00  0.00     0.000 C 
BRANCH   2   3
ATOM      3  C   UNL     1      -6.321   5.467   9.782  1.00  0.00     0.000 C 
BRANCH   3   4
ATOM      4  C   UNL     1      -7.194   5.657   8.536  1.00  0.00     0.000 C 
BRANCH   4   5
ATOM      5  C   UNL     1      -8.683   5.536   8.882  1.00  0.00     0.006 C 
BRANCH   5   6
ATOM      6  C   UNL     1      -9.519   5.268   7.629  1.00  0.00     0.053 C 
BRANCH   6   7
ATOM      7  C   UNL     1      -9.514   6.462   6.728  1.00  0.00     0.041 C 
ATOM      8  O   UNL     1      -8.983   6.395   5.589  1.00  0.00    -0.550 OA
ATOM      9  O   UNL     1     -10.052   7.665   7.167  1.00  0.00    -0.550 OA
ENDBRANCH   6   7
ENDBRANCH   5   6
ENDBRANCH   4   5
ENDBRANCH   3   4
ENDBRANCH   2   3
ENDBRANCH   1   2
BRANCH   1  10
ATOM     10  C   UNL     1      -4.734   8.716   9.200  1.00  0.00     0.000 C 
BRANCH  10  11
ATOM     11  C   UNL     1      -6.013   9.552   9.350  1.00  0.00    -0.000 C 
BRANCH  11  12
ATOM     12  C   UNL     1      -7.026   9.302   8.218  1.00  0.00    -0.000 C 
BRANCH  12  13
ATOM     13  C   UNL     1      -6.788  10.125   6.935  1.00  0.00    -0.000 C 
BRANCH  13  14
ATOM     14  C   UNL     1      -7.122   9.397   5.621  1.00  0.00    -0.000 C 
BRANCH  14  15
ATOM     15  C   UNL     1      -8.443   9.869   4.996  1.00  0.00    -0.000 C 
BRANCH  15  16
ATOM     16  C   UNL     1      -8.549   9.422   3.534  1.00  0.00    -0.003 C 
ATOM     17  C   UNL     1      -7.195   8.962   2.999  1.00  0.00     0.004 C 
ENDBRANCH  15  16
ENDBRANCH  14  15
ENDBRANCH  13  14
ENDBRANCH  12  13
ENDBRANCH  11  12
ENDBRANCH  10  11
ENDBRANCH   1  10
TORSDOF 13
ENDMDL
