MODEL 1
REMARK VINA RESULT:    -0.008      0.000      0.000
REMARK INTER + INTRA:           0.297
REMARK INTER:                  -0.011
REMARK INTRA:                   0.308
REMARK UNBOUND:                 0.308
REMARK SMILES C=C1CCC=C(C)CC[C@H]2[C@H]1CC2(C)C
REMARK SMILES IDX 11 1 12 2 13 3 10 4 14 5 15 6 9 7 8 8 6 9 7 10 5 11 2 13
REMARK SMILES IDX 1 14 3 15 4 16
REMARK H PARENT
REMARK Flexibility Score: 70.00
ROOT
ATOM      1  C   UNL     1     137.955 135.453 124.371  1.00  0.00     0.018 C 
ATOM      2  C   UNL     1     139.277 135.124 125.079  1.00  0.00     0.015 C 
ATOM      3  C   UNL     1     140.064 135.838 123.968  1.00  0.00    -0.031 C 
ATOM      4  C   UNL     1     138.727 136.235 123.293  1.00  0.00     0.002 C 
ATOM      5  C   UNL     1     140.849 137.054 124.490  1.00  0.00     0.011 C 
ATOM      6  C   UNL     1     140.977 134.876 123.181  1.00  0.00     0.011 C 
ENDROOT
BRANCH   4   7
ATOM      7  C   UNL     1     138.463 135.725 121.860  1.00  0.00     0.009 C 
BRANCH   7   8
ATOM      8  C   UNL     1     137.208 136.362 121.242  1.00  0.00     0.030 C 
BRANCH   8   9
ATOM      9  C   UNL     1     137.138 137.858 121.491  1.00  0.00    -0.077 C 
ATOM     10  C   UNL     1     137.911 138.768 120.572  1.00  0.00     0.039 C 
ATOM     11  C   UNL     1     136.463 138.419 122.523  1.00  0.00    -0.028 CG0
ATOM     12  G   UNL     1     135.665 137.686 123.579  1.00  0.00     0.000 G0
ENDBRANCH   8   9
ENDBRANCH   7   8
ENDBRANCH   4   7
BRANCH   1  13
ATOM     13  C   UNL     1     136.969 136.226 125.237  1.00  0.00    -0.074 C 
ATOM     14  C   UNL     1     136.418 135.588 126.284  1.00  0.00     0.008 C 
BRANCH  13  15
ATOM     15  C   UNL     1     136.473 137.619 124.882  1.00  0.00     0.035 C 
BRANCH  15  16
ATOM     16  C   UNL     1     135.696 137.641 123.549  1.00  0.00     0.032 CG0
ATOM     17  G   UNL     1     136.218 138.692 122.595  1.00  0.00     0.000 G0
ENDBRANCH  15  16
ENDBRANCH  13  15
ENDBRANCH   1  13
TORSDOF 0
ENDMDL
MODEL 2
REMARK VINA RESULT:     0.152      1.882      4.899
REMARK INTER + INTRA:           0.514
REMARK INTER:                  -0.183
REMARK INTRA:                   0.697
REMARK UNBOUND:                 0.308
REMARK SMILES C=C1CCC=C(C)CC[C@H]2[C@H]1CC2(C)C
REMARK SMILES IDX 11 1 12 2 13 3 10 4 14 5 15 6 9 7 8 8 6 9 7 10 5 11 2 13
REMARK SMILES IDX 1 14 3 15 4 16
REMARK H PARENT
REMARK Flexibility Score: 70.00
ROOT
ATOM      1  C   UNL     1     136.740 137.327 122.947  1.00  0.00     0.018 C 
ATOM      2  C   UNL     1     135.551 138.280 122.763  1.00  0.00     0.015 C 
ATOM      3  C   UNL     1     135.945 139.040 124.039  1.00  0.00    -0.031 C 
ATOM      4  C   UNL     1     137.188 138.128 124.184  1.00  0.00     0.002 C 
ATOM      5  C   UNL     1     136.316 140.508 123.760  1.00  0.00     0.011 C 
ATOM      6  C   UNL     1     134.875 138.933 125.144  1.00  0.00     0.011 C 
ENDROOT
BRANCH   4   7
ATOM      7  C   UNL     1     137.306 137.266 125.460  1.00  0.00     0.009 C 
BRANCH   7   8
ATOM      8  C   UNL     1     137.323 135.763 125.142  1.00  0.00     0.030 C 
BRANCH   8   9
ATOM      9  C   UNL     1     138.725 135.245 124.876  1.00  0.00    -0.077 C 
ATOM     10  C   UNL     1     139.693 135.192 126.030  1.00  0.00     0.039 C 
ATOM     11  C   UNL     1     139.172 134.875 123.652  1.00  0.00    -0.028 CG0
ATOM     12  G   UNL     1     138.380 134.894 122.364  1.00  0.00     0.000 G0
ENDBRANCH   8   9
ENDBRANCH   7   8
ENDBRANCH   4   7
BRANCH   1  13
ATOM     13  C   UNL     1     137.684 137.283 121.752  1.00  0.00    -0.074 C 
ATOM     14  C   UNL     1     137.535 138.219 120.800  1.00  0.00     0.008 C 
BRANCH  13  15
ATOM     15  C   UNL     1     138.672 136.150 121.521  1.00  0.00     0.035 C 
BRANCH  15  16
ATOM     16  C   UNL     1     138.346 134.907 122.375  1.00  0.00     0.032 CG0
ATOM     17  G   UNL     1     139.147 134.862 123.657  1.00  0.00     0.000 G0
ENDBRANCH  15  16
ENDBRANCH  13  15
ENDBRANCH   1  13
TORSDOF 0
ENDMDL
MODEL 3
REMARK VINA RESULT:     1.006      1.626      4.084
REMARK INTER + INTRA:           1.667
REMARK INTER:                  -0.011
REMARK INTRA:                   1.678
REMARK UNBOUND:                 0.308
REMARK SMILES C=C1CCC=C(C)CC[C@H]2[C@H]1CC2(C)C
REMARK SMILES IDX 11 1 12 2 13 3 10 4 14 5 15 6 9 7 8 8 6 9 7 10 5 11 2 13
REMARK SMILES IDX 1 14 3 15 4 16
REMARK H PARENT
REMARK Flexibility Score: 70.00
ROOT
ATOM      1  C   UNL     1     137.615 137.852 123.303  1.00  0.00     0.018 C 
ATOM      2  C   UNL     1     137.213 138.000 121.829  1.00  0.00     0.015 C 
ATOM      3  C   UNL     1     137.826 136.627 121.510  1.00  0.00    -0.031 C 
ATOM      4  C   UNL     1     138.164 136.443 123.011  1.00  0.00     0.002 C 
ATOM      5  C   UNL     1     136.778 135.617 121.010  1.00  0.00     0.011 C 
ATOM      6  C   UNL     1     139.019 136.725 120.539  1.00  0.00     0.011 C 
ENDROOT
BRANCH   4   7
ATOM      7  C   UNL     1     139.648 136.272 123.400  1.00  0.00     0.009 C 
BRANCH   7   8
ATOM      8  C   UNL     1     139.872 135.042 124.294  1.00  0.00     0.030 C 
BRANCH   8   9
ATOM      9  C   UNL     1     139.356 135.254 125.706  1.00  0.00    -0.077 C 
ATOM     10  C   UNL     1     140.337 135.150 126.845  1.00  0.00     0.039 C 
ATOM     11  C   UNL     1     138.054 135.479 126.006  1.00  0.00    -0.028 CG0
ATOM     12  G   UNL     1     136.909 135.576 125.022  1.00  0.00     0.000 G0
ENDBRANCH   8   9
ENDBRANCH   7   8
ENDBRANCH   4   7
BRANCH   1  13
ATOM     13  C   UNL     1     136.448 137.970 124.274  1.00  0.00    -0.074 C 
ATOM     14  C   UNL     1     135.830 139.160 124.372  1.00  0.00     0.008 C 
BRANCH  13  15
ATOM     15  C   UNL     1     136.056 136.858 125.234  1.00  0.00     0.035 C 
BRANCH  15  16
ATOM     16  C   UNL     1     136.904 135.585 125.032  1.00  0.00     0.032 CG0
ATOM     17  G   UNL     1     138.064 135.506 126.000  1.00  0.00     0.000 G0
ENDBRANCH  15  16
ENDBRANCH  13  15
ENDBRANCH   1  13
TORSDOF 0
ENDMDL
MODEL 4
REMARK VINA RESULT:     1.364      1.453      3.430
REMARK INTER + INTRA:           2.151
REMARK INTER:                   0.700
REMARK INTRA:                   1.451
REMARK UNBOUND:                 0.308
REMARK SMILES C=C1CCC=C(C)CC[C@H]2[C@H]1CC2(C)C
REMARK SMILES IDX 11 1 12 2 13 3 10 4 14 5 15 6 9 7 8 8 6 9 7 10 5 11 2 13
REMARK SMILES IDX 1 14 3 15 4 16
REMARK H PARENT
REMARK Flexibility Score: 70.00
ROOT
ATOM      1  C   UNL     1     138.124 135.705 122.790  1.00  0.00     0.018 C 
ATOM      2  C   UNL     1     138.964 136.151 121.585  1.00  0.00     0.015 C 
ATOM      3  C   UNL     1     138.130 137.436 121.463  1.00  0.00    -0.031 C 
ATOM      4  C   UNL     1     137.332 137.024 122.725  1.00  0.00     0.002 C 
ATOM      5  C   UNL     1     138.970 138.707 121.682  1.00  0.00     0.011 C 
ATOM      6  C   UNL     1     137.343 137.506 120.139  1.00  0.00     0.011 C 
ENDROOT
BRANCH   4   7
ATOM      7  C   UNL     1     135.809 136.816 122.580  1.00  0.00     0.009 C 
BRANCH   7   8
ATOM      8  C   UNL     1     135.013 137.645 123.600  1.00  0.00     0.030 C 
BRANCH   8   9
ATOM      9  C   UNL     1     135.900 138.235 124.681  1.00  0.00    -0.077 C 
ATOM     10  C   UNL     1     135.922 139.734 124.843  1.00  0.00     0.039 C 
ATOM     11  C   UNL     1     136.712 137.497 125.476  1.00  0.00    -0.028 CG0
ATOM     12  G   UNL     1     136.872 135.994 125.447  1.00  0.00     0.000 G0
ENDBRANCH   8   9
ENDBRANCH   7   8
ENDBRANCH   4   7
BRANCH   1  13
ATOM     13  C   UNL     1     138.945 135.433 124.044  1.00  0.00    -0.074 C 
ATOM     14  C   UNL     1     140.167 134.896 123.891  1.00  0.00     0.008 C 
BRANCH  13  15
ATOM     15  C   UNL     1     138.386 135.598 125.449  1.00  0.00     0.035 C 
BRANCH  15  16
ATOM     16  C   UNL     1     136.895 135.994 125.443  1.00  0.00     0.032 CG0
ATOM     17  G   UNL     1     136.696 137.493 125.465  1.00  0.00     0.000 G0
ENDBRANCH  15  16
ENDBRANCH  13  15
ENDBRANCH   1  13
TORSDOF 0
ENDMDL
MODEL 5
REMARK VINA RESULT:     1.619      1.916      3.774
REMARK INTER + INTRA:           2.495
REMARK INTER:                   1.782
REMARK INTRA:                   0.713
REMARK UNBOUND:                 0.308
REMARK SMILES C=C1CCC=C(C)CC[C@H]2[C@H]1CC2(C)C
REMARK SMILES IDX 11 1 12 2 13 3 10 4 14 5 15 6 9 7 8 8 6 9 7 10 5 11 2 13
REMARK SMILES IDX 1 14 3 15 4 16
REMARK H PARENT
REMARK Flexibility Score: 70.00
ROOT
ATOM      1  C   UNL     1     138.078 136.766 124.844  1.00  0.00     0.018 C 
ATOM      2  C   UNL     1     136.688 136.544 125.457  1.00  0.00     0.015 C 
ATOM      3  C   UNL     1     136.025 137.121 124.196  1.00  0.00    -0.031 C 
ATOM      4  C   UNL     1     137.423 137.275 123.546  1.00  0.00     0.002 C 
ATOM      5  C   UNL     1     135.144 136.090 123.469  1.00  0.00     0.011 C 
ATOM      6  C   UNL     1     135.248 138.421 124.481  1.00  0.00     0.011 C 
ENDROOT
BRANCH   4   7
ATOM      7  C   UNL     1     137.881 138.694 123.146  1.00  0.00     0.009 C 
BRANCH   7   8
ATOM      8  C   UNL     1     138.716 138.690 121.856  1.00  0.00     0.030 C 
BRANCH   8   9
ATOM      9  C   UNL     1     138.485 137.442 121.024  1.00  0.00    -0.077 C 
ATOM     10  C   UNL     1     137.546 137.535 119.848  1.00  0.00     0.039 C 
ATOM     11  C   UNL     1     139.033 136.236 121.306  1.00  0.00    -0.028 CG0
ATOM     12  G   UNL     1     139.961 135.918 122.458  1.00  0.00     0.000 G0
ENDBRANCH   8   9
ENDBRANCH   7   8
ENDBRANCH   4   7
BRANCH   1  13
ATOM     13  C   UNL     1     138.924 135.502 124.762  1.00  0.00    -0.074 C 
ATOM     14  C   UNL     1     139.422 135.005 125.907  1.00  0.00     0.008 C 
BRANCH  13  15
ATOM     15  C   UNL     1     139.348 134.875 123.443  1.00  0.00     0.035 C 
BRANCH  15  16
ATOM     16  C   UNL     1     139.965 135.908 122.477  1.00  0.00     0.032 CG0
ATOM     17  G   UNL     1     139.040 136.247 121.329  1.00  0.00     0.000 G0
ENDBRANCH  15  16
ENDBRANCH  13  15
ENDBRANCH   1  13
TORSDOF 0
ENDMDL
MODEL 6
REMARK VINA RESULT:     2.228      2.206      4.495
REMARK INTER + INTRA:           3.317
REMARK INTER:                   2.493
REMARK INTRA:                   0.824
REMARK UNBOUND:                 0.308
REMARK SMILES C=C1CCC=C(C)CC[C@H]2[C@H]1CC2(C)C
REMARK SMILES IDX 11 1 12 2 13 3 10 4 14 5 15 6 9 7 8 8 6 9 7 10 5 11 2 13
REMARK SMILES IDX 1 14 3 15 4 16
REMARK H PARENT
REMARK Flexibility Score: 70.00
ROOT
ATOM      1  C   UNL     1     136.987 135.234 123.289  1.00  0.00     0.018 C 
ATOM      2  C   UNL     1     135.778 136.078 123.716  1.00  0.00     0.015 C 
ATOM      3  C   UNL     1     136.602 136.711 124.848  1.00  0.00    -0.031 C 
ATOM      4  C   UNL     1     137.844 135.917 124.371  1.00  0.00     0.002 C 
ATOM      5  C   UNL     1     136.768 138.231 124.677  1.00  0.00     0.011 C 
ATOM      6  C   UNL     1     136.052 136.360 126.245  1.00  0.00     0.011 C 
ENDROOT
BRANCH   4   7
ATOM      7  C   UNL     1     138.488 134.922 125.359  1.00  0.00     0.009 C 
BRANCH   7   8
ATOM      8  C   UNL     1     140.020 134.900 125.242  1.00  0.00     0.030 C 
BRANCH   8   9
ATOM      9  C   UNL     1     140.561 136.123 124.524  1.00  0.00    -0.077 C 
ATOM     10  C   UNL     1     141.153 137.231 125.355  1.00  0.00     0.039 C 
ATOM     11  C   UNL     1     140.496 136.299 123.182  1.00  0.00    -0.028 CG0
ATOM     12  G   UNL     1     139.905 135.334 122.177  1.00  0.00     0.000 G0
ENDBRANCH   8   9
ENDBRANCH   7   8
ENDBRANCH   4   7
BRANCH   1  13
ATOM     13  C   UNL     1     137.393 135.433 121.834  1.00  0.00    -0.074 C 
ATOM     14  C   UNL     1     136.570 134.961 120.882  1.00  0.00     0.008 C 
BRANCH  13  15
ATOM     15  C   UNL     1     138.743 135.999 121.423  1.00  0.00     0.035 C 
BRANCH  15  16
ATOM     16  C   UNL     1     139.910 135.338 122.186  1.00  0.00     0.032 CG0
ATOM     17  G   UNL     1     140.531 136.266 123.206  1.00  0.00     0.000 G0
ENDBRANCH  15  16
ENDBRANCH  13  15
ENDBRANCH   1  13
TORSDOF 0
ENDMDL
