MODEL 1
REMARK VINA RESULT:    -5.273      0.000      0.000
REMARK INTER + INTRA:          -8.659
REMARK INTER:                  -7.277
REMARK INTRA:                  -1.382
REMARK UNBOUND:                -1.382
REMARK SMILES O=C([O-])[C@@H]1O[C@@H](Oc2cc3oc(-c4ccccc4)cc(=O)c3c(O)c2O)[C@@H](O)[C@@H](O)[C@@H]1O
REMARK SMILES IDX 7 1 6 2 4 3 31 4 5 5 29 6 27 7 2 8 1 9 3 10 32 11 30 13
REMARK SMILES IDX 28 15 8 17 25 18 9 19 23 20 10 21 22 22 11 23 20 24 12 25
REMARK SMILES IDX 19 26 21 27 26 28 24 30 13 32 14 33 18 34 15 35 17 36 16 37
REMARK H PARENT 32 12 30 14 28 16 26 29 24 31
REMARK Flexibility Score: inf
ROOT
ATOM      1  O   UNL     1      71.269  -0.769  36.818  1.00  0.00    -0.458 OA
ENDROOT
BRANCH   1   2
ATOM      2  C   UNL     1      70.472   0.133  36.038  1.00  0.00     0.339 C 
ATOM      3  C   UNL     1      68.968  -1.564  35.418  1.00  0.00     0.199 C 
ATOM      4  C   UNL     1      69.364  -1.515  33.923  1.00  0.00     0.180 C 
ATOM      5  O   UNL     1      69.115  -0.290  36.033  1.00  0.00    -0.328 OA
ATOM      6  C   UNL     1      70.820  -1.030  33.790  1.00  0.00     0.181 C 
ATOM      7  C   UNL     1      71.001   0.278  34.592  1.00  0.00     0.214 C 
BRANCH   3   8
ATOM      8  C   UNL     1      67.547  -2.029  35.568  1.00  0.00     0.073 C 
ATOM      9  O   UNL     1      67.286  -3.114  36.156  1.00  0.00    -0.547 OA
ATOM     10  O   UNL     1      66.506  -1.230  35.110  1.00  0.00    -0.547 OA
ENDBRANCH   3   8
BRANCH   4  11
ATOM     11  O   UNL     1      68.520  -0.636  33.219  1.00  0.00    -0.387 OA
ATOM     12  H   UNL     1      67.878  -0.258  33.876  1.00  0.00     0.211 HD
ENDBRANCH   4  11
BRANCH   6  13
ATOM     13  O   UNL     1      71.701  -2.020  34.261  1.00  0.00    -0.387 OA
ATOM     14  H   UNL     1      71.188  -2.580  34.900  1.00  0.00     0.211 HD
ENDBRANCH   6  13
BRANCH   7  15
ATOM     15  O   UNL     1      72.327   0.746  34.561  1.00  0.00    -0.384 OA
ATOM     16  H   UNL     1      72.806   0.286  33.825  1.00  0.00     0.211 HD
ENDBRANCH   7  15
ENDBRANCH   1   2
BRANCH   1  17
ATOM     17  C   UNL     1      71.675  -0.540  38.140  1.00  0.00     0.172 A 
ATOM     18  C   UNL     1      72.827   0.204  38.453  1.00  0.00     0.201 A 
ATOM     19  C   UNL     1      70.866  -1.026  39.166  1.00  0.00     0.098 A 
ATOM     20  C   UNL     1      73.207   0.393  39.797  1.00  0.00     0.176 A 
ATOM     21  C   UNL     1      71.241  -0.878  40.500  1.00  0.00     0.146 A 
ATOM     22  C   UNL     1      72.437  -0.200  40.841  1.00  0.00     0.111 A 
ATOM     23  O   UNL     1      70.458  -1.398  41.441  1.00  0.00    -0.456 OA
ATOM     24  C   UNL     1      72.797  -0.190  42.211  1.00  0.00     0.197 A 
ATOM     25  C   UNL     1      70.740  -1.346  42.739  1.00  0.00     0.138 A 
ATOM     26  C   UNL     1      71.937  -0.747  43.157  1.00  0.00     0.100 A 
ATOM     27  O   UNL     1      73.897   0.274  42.607  1.00  0.00    -0.289 OA
BRANCH  18  28
ATOM     28  O   UNL     1      73.557   0.801  37.424  1.00  0.00    -0.502 OA
ATOM     29  H   UNL     1      73.795   1.786  37.423  1.00  0.00     0.293 HD
ENDBRANCH  18  28
BRANCH  20  30
ATOM     30  O   UNL     1      74.321   1.205  40.041  1.00  0.00    -0.504 OA
ATOM     31  H   UNL     1      75.185   1.158  39.523  1.00  0.00     0.293 HD
ENDBRANCH  20  30
BRANCH  25  32
ATOM     32  C   UNL     1      69.786  -1.950  43.702  1.00  0.00     0.017 A 
ATOM     33  C   UNL     1      68.438  -2.184  43.364  1.00  0.00     0.012 A 
ATOM     34  C   UNL     1      70.240  -2.332  44.977  1.00  0.00     0.012 A 
ATOM     35  C   UNL     1      67.566  -2.765  44.291  1.00  0.00     0.001 A 
ATOM     36  C   UNL     1      69.364  -2.912  45.899  1.00  0.00     0.001 A 
ATOM     37  C   UNL     1      68.027  -3.125  45.557  1.00  0.00     0.000 A 
ENDBRANCH  25  32
ENDBRANCH   1  17
TORSDOF 9
ENDMDL
MODEL 2
REMARK VINA RESULT:    -5.178      9.169     13.430
REMARK INTER + INTRA:          -8.527
REMARK INTER:                  -7.405
REMARK INTRA:                  -1.122
REMARK UNBOUND:                -1.382
REMARK SMILES O=C([O-])[C@@H]1O[C@@H](Oc2cc3oc(-c4ccccc4)cc(=O)c3c(O)c2O)[C@@H](O)[C@@H](O)[C@@H]1O
REMARK SMILES IDX 7 1 6 2 4 3 31 4 5 5 29 6 27 7 2 8 1 9 3 10 32 11 30 13
REMARK SMILES IDX 28 15 8 17 25 18 9 19 23 20 10 21 22 22 11 23 20 24 12 25
REMARK SMILES IDX 19 26 21 27 26 28 24 30 13 32 14 33 18 34 15 35 17 36 16 37
REMARK H PARENT 32 12 30 14 28 16 26 29 24 31
REMARK Flexibility Score: inf
ROOT
ATOM      1  O   UNL     1      59.329   3.921  31.783  1.00  0.00    -0.458 OA
ENDROOT
BRANCH   1   2
ATOM      2  C   UNL     1      59.991   4.706  30.781  1.00  0.00     0.339 C 
ATOM      3  C   UNL     1      61.583   5.511  32.311  1.00  0.00     0.199 C 
ATOM      4  C   UNL     1      61.079   6.972  32.230  1.00  0.00     0.180 C 
ATOM      5  O   UNL     1      61.375   4.824  31.084  1.00  0.00    -0.328 OA
ATOM      6  C   UNL     1      59.582   6.982  31.868  1.00  0.00     0.181 C 
ATOM      7  C   UNL     1      59.349   6.105  30.619  1.00  0.00     0.214 C 
BRANCH   3   8
ATOM      8  C   UNL     1      63.045   5.480  32.658  1.00  0.00     0.073 C 
ATOM      9  O   UNL     1      63.813   4.633  32.125  1.00  0.00    -0.547 OA
ATOM     10  O   UNL     1      63.570   6.430  33.526  1.00  0.00    -0.547 OA
ENDBRANCH   3   8
BRANCH   4  11
ATOM     11  O   UNL     1      61.795   7.685  31.251  1.00  0.00    -0.387 OA
ATOM     12  H   UNL     1      61.230   8.454  30.977  1.00  0.00     0.211 HD
ENDBRANCH   4  11
BRANCH   6  13
ATOM     13  O   UNL     1      58.823   6.503  32.951  1.00  0.00    -0.387 OA
ATOM     14  H   UNL     1      58.458   5.621  32.678  1.00  0.00     0.211 HD
ENDBRANCH   6  13
BRANCH   7  15
ATOM     15  O   UNL     1      57.990   6.022  30.266  1.00  0.00    -0.384 OA
ATOM     16  H   UNL     1      57.471   6.602  30.881  1.00  0.00     0.211 HD
ENDBRANCH   7  15
ENDBRANCH   1   2
BRANCH   1  17
ATOM     17  C   UNL     1      59.370   2.522  31.860  1.00  0.00     0.172 A 
ATOM     18  C   UNL     1      58.686   1.701  30.945  1.00  0.00     0.201 A 
ATOM     19  C   UNL     1      60.164   1.943  32.847  1.00  0.00     0.098 A 
ATOM     20  C   UNL     1      58.740   0.298  31.071  1.00  0.00     0.176 A 
ATOM     21  C   UNL     1      60.206   0.560  33.010  1.00  0.00     0.146 A 
ATOM     22  C   UNL     1      59.465  -0.288  32.151  1.00  0.00     0.111 A 
ATOM     23  O   UNL     1      60.944   0.058  33.995  1.00  0.00    -0.456 OA
ATOM     24  C   UNL     1      59.477  -1.671  32.454  1.00  0.00     0.197 A 
ATOM     25  C   UNL     1      61.025  -1.242  34.260  1.00  0.00     0.138 A 
ATOM     26  C   UNL     1      60.272  -2.146  33.497  1.00  0.00     0.100 A 
ATOM     27  O   UNL     1      58.756  -2.496  31.833  1.00  0.00    -0.289 OA
BRANCH  18  28
ATOM     28  O   UNL     1      58.002   2.286  29.878  1.00  0.00    -0.502 OA
ATOM     29  H   UNL     1      57.553   1.741  29.152  1.00  0.00     0.293 HD
ENDBRANCH  18  28
BRANCH  20  30
ATOM     30  O   UNL     1      58.098  -0.460  30.085  1.00  0.00    -0.504 OA
ATOM     31  H   UNL     1      58.573  -0.942  29.337  1.00  0.00     0.293 HD
ENDBRANCH  20  30
BRANCH  25  32
ATOM     32  C   UNL     1      61.891  -1.691  35.379  1.00  0.00     0.017 A 
ATOM     33  C   UNL     1      61.460  -2.656  36.311  1.00  0.00     0.012 A 
ATOM     34  C   UNL     1      63.191  -1.167  35.499  1.00  0.00     0.012 A 
ATOM     35  C   UNL     1      62.304  -3.065  37.349  1.00  0.00     0.001 A 
ATOM     36  C   UNL     1      64.030  -1.579  36.539  1.00  0.00     0.001 A 
ATOM     37  C   UNL     1      63.585  -2.525  37.464  1.00  0.00     0.000 A 
ENDBRANCH  25  32
ENDBRANCH   1  17
TORSDOF 9
ENDMDL
MODEL 3
REMARK VINA RESULT:    -5.150      6.811      9.518
REMARK INTER + INTRA:          -8.489
REMARK INTER:                  -7.368
REMARK INTRA:                  -1.121
REMARK UNBOUND:                -1.382
REMARK SMILES O=C([O-])[C@@H]1O[C@@H](Oc2cc3oc(-c4ccccc4)cc(=O)c3c(O)c2O)[C@@H](O)[C@@H](O)[C@@H]1O
REMARK SMILES IDX 7 1 6 2 4 3 31 4 5 5 29 6 27 7 2 8 1 9 3 10 32 11 30 13
REMARK SMILES IDX 28 15 8 17 25 18 9 19 23 20 10 21 22 22 11 23 20 24 12 25
REMARK SMILES IDX 19 26 21 27 26 28 24 30 13 32 14 33 18 34 15 35 17 36 16 37
REMARK H PARENT 32 12 30 14 28 16 26 29 24 31
REMARK Flexibility Score: inf
ROOT
ATOM      1  O   UNL     1      72.024   1.721  32.756  1.00  0.00    -0.458 OA
ENDROOT
BRANCH   1   2
ATOM      2  C   UNL     1      72.119   0.778  33.833  1.00  0.00     0.339 C 
ATOM      3  C   UNL     1      73.218  -0.807  32.489  1.00  0.00     0.199 C 
ATOM      4  C   UNL     1      72.046  -1.817  32.538  1.00  0.00     0.180 C 
ATOM      5  O   UNL     1      73.279  -0.029  33.677  1.00  0.00    -0.328 OA
ATOM      6  C   UNL     1      70.721  -1.061  32.742  1.00  0.00     0.181 C 
ATOM      7  C   UNL     1      70.854  -0.105  33.947  1.00  0.00     0.214 C 
BRANCH   3   8
ATOM      8  C   UNL     1      74.523  -1.527  32.297  1.00  0.00     0.073 C 
ATOM      9  O   UNL     1      75.137  -1.460  31.197  1.00  0.00    -0.547 OA
ATOM     10  O   UNL     1      75.090  -2.223  33.358  1.00  0.00    -0.547 OA
ENDBRANCH   3   8
BRANCH   4  11
ATOM     11  O   UNL     1      72.226  -2.726  33.597  1.00  0.00    -0.387 OA
ATOM     12  H   UNL     1      71.404  -3.281  33.650  1.00  0.00     0.211 HD
ENDBRANCH   4  11
BRANCH   6  13
ATOM     13  O   UNL     1      70.395  -0.340  31.579  1.00  0.00    -0.387 OA
ATOM     14  H   UNL     1      69.404  -0.328  31.517  1.00  0.00     0.211 HD
ENDBRANCH   6  13
BRANCH   7  15
ATOM     15  O   UNL     1      69.693   0.663  34.155  1.00  0.00    -0.384 OA
ATOM     16  H   UNL     1      69.965   1.563  34.468  1.00  0.00     0.211 HD
ENDBRANCH   7  15
ENDBRANCH   1   2
BRANCH   1  17
ATOM     17  C   UNL     1      72.187   3.107  32.889  1.00  0.00     0.172 A 
ATOM     18  C   UNL     1      71.443   4.027  32.128  1.00  0.00     0.201 A 
ATOM     19  C   UNL     1      73.080   3.571  33.853  1.00  0.00     0.098 A 
ATOM     20  C   UNL     1      71.654   5.412  32.282  1.00  0.00     0.176 A 
ATOM     21  C   UNL     1      73.327   4.935  33.999  1.00  0.00     0.146 A 
ATOM     22  C   UNL     1      72.649   5.880  33.191  1.00  0.00     0.111 A 
ATOM     23  O   UNL     1      74.221   5.325  34.902  1.00  0.00    -0.456 OA
ATOM     24  C   UNL     1      73.039   7.234  33.329  1.00  0.00     0.197 A 
ATOM     25  C   UNL     1      74.558   6.596  35.098  1.00  0.00     0.138 A 
ATOM     26  C   UNL     1      73.979   7.590  34.295  1.00  0.00     0.100 A 
ATOM     27  O   UNL     1      72.590   8.136  32.574  1.00  0.00    -0.289 OA
BRANCH  18  28
ATOM     28  O   UNL     1      70.455   3.557  31.261  1.00  0.00    -0.502 OA
ATOM     29  H   UNL     1      69.478   3.503  31.523  1.00  0.00     0.293 HD
ENDBRANCH  18  28
BRANCH  20  30
ATOM     30  O   UNL     1      70.830   6.272  31.548  1.00  0.00    -0.504 OA
ATOM     31  H   UNL     1      70.838   7.278  31.629  1.00  0.00     0.293 HD
ENDBRANCH  20  30
BRANCH  25  32
ATOM     32  C   UNL     1      75.560   6.917  36.144  1.00  0.00     0.017 A 
ATOM     33  C   UNL     1      76.817   7.470  35.824  1.00  0.00     0.012 A 
ATOM     34  C   UNL     1      75.243   6.696  37.497  1.00  0.00     0.012 A 
ATOM     35  C   UNL     1      77.736   7.771  36.834  1.00  0.00     0.001 A 
ATOM     36  C   UNL     1      76.166   6.998  38.501  1.00  0.00     0.001 A 
ATOM     37  C   UNL     1      77.413   7.532  38.170  1.00  0.00     0.000 A 
ENDBRANCH  25  32
ENDBRANCH   1  17
TORSDOF 9
ENDMDL
MODEL 4
REMARK VINA RESULT:    -5.122     16.942     18.910
REMARK INTER + INTRA:          -8.450
REMARK INTER:                  -7.199
REMARK INTRA:                  -1.250
REMARK UNBOUND:                -1.382
REMARK SMILES O=C([O-])[C@@H]1O[C@@H](Oc2cc3oc(-c4ccccc4)cc(=O)c3c(O)c2O)[C@@H](O)[C@@H](O)[C@@H]1O
REMARK SMILES IDX 7 1 6 2 4 3 31 4 5 5 29 6 27 7 2 8 1 9 3 10 32 11 30 13
REMARK SMILES IDX 28 15 8 17 25 18 9 19 23 20 10 21 22 22 11 23 20 24 12 25
REMARK SMILES IDX 19 26 21 27 26 28 24 30 13 32 14 33 18 34 15 35 17 36 16 37
REMARK H PARENT 32 12 30 14 28 16 26 29 24 31
REMARK Flexibility Score: inf
ROOT
ATOM      1  O   UNL     1      64.831  15.294  44.153  1.00  0.00    -0.458 OA
ENDROOT
BRANCH   1   2
ATOM      2  C   UNL     1      64.598  14.069  44.862  1.00  0.00     0.339 C 
ATOM      3  C   UNL     1      62.294  14.494  45.054  1.00  0.00     0.199 C 
ATOM      4  C   UNL     1      62.343  14.646  46.593  1.00  0.00     0.180 C 
ATOM      5  O   UNL     1      63.288  13.587  44.593  1.00  0.00    -0.328 OA
ATOM      6  C   UNL     1      63.739  15.135  47.020  1.00  0.00     0.181 C 
ATOM      7  C   UNL     1      64.817  14.229  46.386  1.00  0.00     0.214 C 
BRANCH   3   8
ATOM      8  C   UNL     1      60.940  14.011  44.617  1.00  0.00     0.073 C 
ATOM      9  O   UNL     1      60.076  14.824  44.188  1.00  0.00    -0.547 OA
ATOM     10  O   UNL     1      60.654  12.651  44.629  1.00  0.00    -0.547 OA
ENDBRANCH   3   8
BRANCH   4  11
ATOM     11  O   UNL     1      62.075  13.415  47.218  1.00  0.00    -0.387 OA
ATOM     12  H   UNL     1      62.680  13.345  48.002  1.00  0.00     0.211 HD
ENDBRANCH   4  11
BRANCH   6  13
ATOM     13  O   UNL     1      63.925  16.470  46.619  1.00  0.00    -0.387 OA
ATOM     14  H   UNL     1      63.062  16.778  46.236  1.00  0.00     0.211 HD
ENDBRANCH   6  13
BRANCH   7  15
ATOM     15  O   UNL     1      66.123  14.655  46.688  1.00  0.00    -0.384 OA
ATOM     16  H   UNL     1      66.089  15.214  47.505  1.00  0.00     0.211 HD
ENDBRANCH   7  15
ENDBRANCH   1   2
BRANCH   1  17
ATOM     17  C   UNL     1      65.503  15.393  42.926  1.00  0.00     0.172 A 
ATOM     18  C   UNL     1      66.863  15.740  42.842  1.00  0.00     0.201 A 
ATOM     19  C   UNL     1      64.797  15.080  41.766  1.00  0.00     0.098 A 
ATOM     20  C   UNL     1      67.494  15.846  41.586  1.00  0.00     0.176 A 
ATOM     21  C   UNL     1      65.391  15.210  40.512  1.00  0.00     0.146 A 
ATOM     22  C   UNL     1      66.739  15.632  40.395  1.00  0.00     0.111 A 
ATOM     23  O   UNL     1      64.663  14.942  39.433  1.00  0.00    -0.456 OA
ATOM     24  C   UNL     1      67.229  15.842  39.083  1.00  0.00     0.197 A 
ATOM     25  C   UNL     1      65.120  15.068  38.191  1.00  0.00     0.138 A 
ATOM     26  C   UNL     1      66.424  15.541  37.985  1.00  0.00     0.100 A 
ATOM     27  O   UNL     1      68.368  16.334  38.869  1.00  0.00    -0.289 OA
BRANCH  18  28
ATOM     28  O   UNL     1      67.598  15.921  44.016  1.00  0.00    -0.502 OA
ATOM     29  H   UNL     1      67.332  16.589  44.729  1.00  0.00     0.293 HD
ENDBRANCH  18  28
BRANCH  20  30
ATOM     30  O   UNL     1      68.866  16.122  41.577  1.00  0.00    -0.504 OA
ATOM     31  H   UNL     1      69.296  16.893  42.064  1.00  0.00     0.293 HD
ENDBRANCH  20  30
BRANCH  25  32
ATOM     32  C   UNL     1      64.220  14.728  37.061  1.00  0.00     0.017 A 
ATOM     33  C   UNL     1      63.080  15.501  36.761  1.00  0.00     0.012 A 
ATOM     34  C   UNL     1      64.525  13.626  36.242  1.00  0.00     0.012 A 
ATOM     35  C   UNL     1      62.257  15.160  35.683  1.00  0.00     0.001 A 
ATOM     36  C   UNL     1      63.698  13.290  35.166  1.00  0.00     0.001 A 
ATOM     37  C   UNL     1      62.564  14.055  34.889  1.00  0.00     0.000 A 
ENDBRANCH  25  32
ENDBRANCH   1  17
TORSDOF 9
ENDMDL
MODEL 5
REMARK VINA RESULT:    -5.067      1.032      2.713
REMARK INTER + INTRA:          -8.375
REMARK INTER:                  -6.898
REMARK INTRA:                  -1.477
REMARK UNBOUND:                -1.382
REMARK SMILES O=C([O-])[C@@H]1O[C@@H](Oc2cc3oc(-c4ccccc4)cc(=O)c3c(O)c2O)[C@@H](O)[C@@H](O)[C@@H]1O
REMARK SMILES IDX 7 1 6 2 4 3 31 4 5 5 29 6 27 7 2 8 1 9 3 10 32 11 30 13
REMARK SMILES IDX 28 15 8 17 25 18 9 19 23 20 10 21 22 22 11 23 20 24 12 25
REMARK SMILES IDX 19 26 21 27 26 28 24 30 13 32 14 33 18 34 15 35 17 36 16 37
REMARK H PARENT 32 12 30 14 28 16 26 29 24 31
REMARK Flexibility Score: inf
ROOT
ATOM      1  O   UNL     1      70.259  -0.366  36.821  1.00  0.00    -0.458 OA
ENDROOT
BRANCH   1   2
ATOM      2  C   UNL     1      70.616  -1.271  35.767  1.00  0.00     0.339 C 
ATOM      3  C   UNL     1      70.963   0.480  34.237  1.00  0.00     0.199 C 
ATOM      4  C   UNL     1      69.772   0.071  33.338  1.00  0.00     0.180 C 
ATOM      5  O   UNL     1      71.537  -0.652  34.879  1.00  0.00    -0.328 OA
ATOM      6  C   UNL     1      68.708  -0.650  34.185  1.00  0.00     0.181 C 
ATOM      7  C   UNL     1      69.376  -1.783  34.995  1.00  0.00     0.214 C 
BRANCH   3   8
ATOM      8  C   UNL     1      72.016   1.181  33.426  1.00  0.00     0.073 C 
ATOM      9  O   UNL     1      71.768   1.572  32.254  1.00  0.00    -0.547 OA
ATOM     10  O   UNL     1      73.256   1.454  33.993  1.00  0.00    -0.547 OA
ENDBRANCH   3   8
BRANCH   4  11
ATOM     11  O   UNL     1      70.203  -0.788  32.311  1.00  0.00    -0.387 OA
ATOM     12  H   UNL     1      69.399  -1.057  31.795  1.00  0.00     0.211 HD
ENDBRANCH   4  11
BRANCH   6  13
ATOM     13  O   UNL     1      68.080   0.265  35.050  1.00  0.00    -0.387 OA
ATOM     14  H   UNL     1      67.184   0.454  34.666  1.00  0.00     0.211 HD
ENDBRANCH   6  13
BRANCH   7  15
ATOM     15  O   UNL     1      68.468  -2.448  35.839  1.00  0.00    -0.384 OA
ATOM     16  H   UNL     1      68.385  -3.387  35.531  1.00  0.00     0.211 HD
ENDBRANCH   7  15
ENDBRANCH   1   2
BRANCH   1  17
ATOM     17  C   UNL     1      70.881  -0.316  38.077  1.00  0.00     0.172 A 
ATOM     18  C   UNL     1      72.156   0.248  38.260  1.00  0.00     0.201 A 
ATOM     19  C   UNL     1      70.174  -0.797  39.177  1.00  0.00     0.098 A 
ATOM     20  C   UNL     1      72.752   0.260  39.538  1.00  0.00     0.176 A 
ATOM     21  C   UNL     1      70.756  -0.826  40.443  1.00  0.00     0.146 A 
ATOM     22  C   UNL     1      72.070  -0.334  40.642  1.00  0.00     0.111 A 
ATOM     23  O   UNL     1      70.057  -1.335  41.452  1.00  0.00    -0.456 OA
ATOM     24  C   UNL     1      72.624  -0.500  41.934  1.00  0.00     0.197 A 
ATOM     25  C   UNL     1      70.530  -1.442  42.690  1.00  0.00     0.138 A 
ATOM     26  C   UNL     1      71.845  -1.037  42.959  1.00  0.00     0.100 A 
ATOM     27  O   UNL     1      73.823  -0.213  42.186  1.00  0.00    -0.289 OA
BRANCH  18  28
ATOM     28  O   UNL     1      72.802   0.849  37.178  1.00  0.00    -0.502 OA
ATOM     29  H   UNL     1      72.631   1.809  36.904  1.00  0.00     0.293 HD
ENDBRANCH  18  28
BRANCH  20  30
ATOM     30  O   UNL     1      73.988   0.902  39.665  1.00  0.00    -0.504 OA
ATOM     31  H   UNL     1      74.502   0.986  40.529  1.00  0.00     0.293 HD
ENDBRANCH  20  30
BRANCH  25  32
ATOM     32  C   UNL     1      69.655  -2.017  43.742  1.00  0.00     0.017 A 
ATOM     33  C   UNL     1      68.400  -2.582  43.437  1.00  0.00     0.012 A 
ATOM     34  C   UNL     1      70.096  -2.030  45.077  1.00  0.00     0.012 A 
ATOM     35  C   UNL     1      67.602  -3.124  44.450  1.00  0.00     0.001 A 
ATOM     36  C   UNL     1      69.294  -2.573  46.085  1.00  0.00     0.001 A 
ATOM     37  C   UNL     1      68.047  -3.116  45.772  1.00  0.00     0.000 A 
ENDBRANCH  25  32
ENDBRANCH   1  17
TORSDOF 9
ENDMDL
MODEL 6
REMARK VINA RESULT:    -5.055     16.886     19.093
REMARK INTER + INTRA:          -8.358
REMARK INTER:                  -6.850
REMARK INTRA:                  -1.507
REMARK UNBOUND:                -1.382
REMARK SMILES O=C([O-])[C@@H]1O[C@@H](Oc2cc3oc(-c4ccccc4)cc(=O)c3c(O)c2O)[C@@H](O)[C@@H](O)[C@@H]1O
REMARK SMILES IDX 7 1 6 2 4 3 31 4 5 5 29 6 27 7 2 8 1 9 3 10 32 11 30 13
REMARK SMILES IDX 28 15 8 17 25 18 9 19 23 20 10 21 22 22 11 23 20 24 12 25
REMARK SMILES IDX 19 26 21 27 26 28 24 30 13 32 14 33 18 34 15 35 17 36 16 37
REMARK H PARENT 32 12 30 14 28 16 26 29 24 31
REMARK Flexibility Score: inf
ROOT
ATOM      1  O   UNL     1      63.785  13.996  43.691  1.00  0.00    -0.458 OA
ENDROOT
BRANCH   1   2
ATOM      2  C   UNL     1      63.240  14.874  44.687  1.00  0.00     0.339 C 
ATOM      3  C   UNL     1      64.194  13.642  46.446  1.00  0.00     0.199 C 
ATOM      4  C   UNL     1      62.827  13.179  47.004  1.00  0.00     0.180 C 
ATOM      5  O   UNL     1      64.093  14.916  45.823  1.00  0.00    -0.328 OA
ATOM      6  C   UNL     1      61.795  13.126  45.863  1.00  0.00     0.181 C 
ATOM      7  C   UNL     1      61.805  14.468  45.098  1.00  0.00     0.214 C 
BRANCH   3   8
ATOM      8  C   UNL     1      65.215  13.705  47.547  1.00  0.00     0.073 C 
ATOM      9  O   UNL     1      65.002  13.140  48.654  1.00  0.00    -0.547 OA
ATOM     10  O   UNL     1      66.432  14.341  47.325  1.00  0.00    -0.547 OA
ENDBRANCH   3   8
BRANCH   4  11
ATOM     11  O   UNL     1      62.374  14.069  47.995  1.00  0.00    -0.387 OA
ATOM     12  H   UNL     1      62.363  13.570  48.854  1.00  0.00     0.211 HD
ENDBRANCH   4  11
BRANCH   6  13
ATOM     13  O   UNL     1      62.094  12.064  44.992  1.00  0.00    -0.387 OA
ATOM     14  H   UNL     1      61.538  11.293  45.278  1.00  0.00     0.211 HD
ENDBRANCH   6  13
BRANCH   7  15
ATOM     15  O   UNL     1      60.923  14.468  44.002  1.00  0.00    -0.384 OA
ATOM     16  H   UNL     1      61.387  14.062  43.226  1.00  0.00     0.211 HD
ENDBRANCH   7  15
ENDBRANCH   1   2
BRANCH   1  17
ATOM     17  C   UNL     1      64.678  14.387  42.683  1.00  0.00     0.172 A 
ATOM     18  C   UNL     1      66.057  14.532  42.918  1.00  0.00     0.201 A 
ATOM     19  C   UNL     1      64.172  14.579  41.399  1.00  0.00     0.098 A 
ATOM     20  C   UNL     1      66.915  14.946  41.879  1.00  0.00     0.176 A 
ATOM     21  C   UNL     1      64.996  15.019  40.365  1.00  0.00     0.146 A 
ATOM     22  C   UNL     1      66.376  15.248  40.594  1.00  0.00     0.111 A 
ATOM     23  O   UNL     1      64.458  15.231  39.169  1.00  0.00    -0.456 OA
ATOM     24  C   UNL     1      67.117  15.797  39.520  1.00  0.00     0.197 A 
ATOM     25  C   UNL     1      65.146  15.684  38.125  1.00  0.00     0.138 A 
ATOM     26  C   UNL     1      66.503  15.996  38.283  1.00  0.00     0.100 A 
ATOM     27  O   UNL     1      68.317  16.154  39.652  1.00  0.00    -0.289 OA
BRANCH  18  28
ATOM     28  O   UNL     1      66.576  14.208  44.173  1.00  0.00    -0.502 OA
ATOM     29  H   UNL     1      67.067  14.879  44.751  1.00  0.00     0.293 HD
ENDBRANCH  18  28
BRANCH  20  30
ATOM     30  O   UNL     1      68.285  14.998  42.161  1.00  0.00    -0.504 OA
ATOM     31  H   UNL     1      68.774  14.334  42.741  1.00  0.00     0.293 HD
ENDBRANCH  20  30
BRANCH  25  32
ATOM     32  C   UNL     1      64.442  15.871  36.832  1.00  0.00     0.017 A 
ATOM     33  C   UNL     1      63.369  15.043  36.444  1.00  0.00     0.012 A 
ATOM     34  C   UNL     1      64.829  16.921  35.980  1.00  0.00     0.012 A 
ATOM     35  C   UNL     1      62.720  15.251  35.223  1.00  0.00     0.001 A 
ATOM     36  C   UNL     1      64.177  17.123  34.760  1.00  0.00     0.001 A 
ATOM     37  C   UNL     1      63.125  16.287  34.381  1.00  0.00     0.000 A 
ENDBRANCH  25  32
ENDBRANCH   1  17
TORSDOF 9
ENDMDL
MODEL 7
REMARK VINA RESULT:    -4.998      3.486      6.735
REMARK INTER + INTRA:          -8.279
REMARK INTER:                  -7.043
REMARK INTRA:                  -1.236
REMARK UNBOUND:                -1.382
REMARK SMILES O=C([O-])[C@@H]1O[C@@H](Oc2cc3oc(-c4ccccc4)cc(=O)c3c(O)c2O)[C@@H](O)[C@@H](O)[C@@H]1O
REMARK SMILES IDX 7 1 6 2 4 3 31 4 5 5 29 6 27 7 2 8 1 9 3 10 32 11 30 13
REMARK SMILES IDX 28 15 8 17 25 18 9 19 23 20 10 21 22 22 11 23 20 24 12 25
REMARK SMILES IDX 19 26 21 27 26 28 24 30 13 32 14 33 18 34 15 35 17 36 16 37
REMARK H PARENT 32 12 30 14 28 16 26 29 24 31
REMARK Flexibility Score: inf
ROOT
ATOM      1  O   UNL     1      70.249   2.965  33.554  1.00  0.00    -0.458 OA
ENDROOT
BRANCH   1   2
ATOM      2  C   UNL     1      71.184   3.161  32.484  1.00  0.00     0.339 C 
ATOM      3  C   UNL     1      72.037   5.128  33.449  1.00  0.00     0.199 C 
ATOM      4  C   UNL     1      71.506   6.040  32.317  1.00  0.00     0.180 C 
ATOM      5  O   UNL     1      72.345   3.828  32.963  1.00  0.00    -0.328 OA
ATOM      6  C   UNL     1      70.254   5.403  31.686  1.00  0.00     0.181 C 
ATOM      7  C   UNL     1      70.560   3.939  31.301  1.00  0.00     0.214 C 
BRANCH   3   8
ATOM      8  C   UNL     1      73.264   5.729  34.074  1.00  0.00     0.073 C 
ATOM      9  O   UNL     1      74.077   5.009  34.714  1.00  0.00    -0.547 OA
ATOM     10  O   UNL     1      73.539   7.081  33.895  1.00  0.00    -0.547 OA
ENDBRANCH   3   8
BRANCH   4  11
ATOM     11  O   UNL     1      72.486   6.211  31.323  1.00  0.00    -0.387 OA
ATOM     12  H   UNL     1      73.066   5.405  31.340  1.00  0.00     0.211 HD
ENDBRANCH   4  11
BRANCH   6  13
ATOM     13  O   UNL     1      69.179   5.457  32.591  1.00  0.00    -0.387 OA
ATOM     14  H   UNL     1      69.158   4.585  33.064  1.00  0.00     0.211 HD
ENDBRANCH   6  13
BRANCH   7  15
ATOM     15  O   UNL     1      69.437   3.277  30.770  1.00  0.00    -0.384 OA
ATOM     16  H   UNL     1      68.783   3.136  31.501  1.00  0.00     0.211 HD
ENDBRANCH   7  15
ENDBRANCH   1   2
BRANCH   1  17
ATOM     17  C   UNL     1      69.988   1.734  34.172  1.00  0.00     0.172 A 
ATOM     18  C   UNL     1      69.397   0.659  33.482  1.00  0.00     0.201 A 
ATOM     19  C   UNL     1      70.383   1.569  35.498  1.00  0.00     0.098 A 
ATOM     20  C   UNL     1      69.135  -0.555  34.149  1.00  0.00     0.176 A 
ATOM     21  C   UNL     1      70.105   0.389  36.185  1.00  0.00     0.146 A 
ATOM     22  C   UNL     1      69.441  -0.681  35.536  1.00  0.00     0.111 A 
ATOM     23  O   UNL     1      70.463   0.298  37.462  1.00  0.00    -0.456 OA
ATOM     24  C   UNL     1      69.100  -1.799  36.336  1.00  0.00     0.197 A 
ATOM     25  C   UNL     1      70.213  -0.767  38.218  1.00  0.00     0.138 A 
ATOM     26  C   UNL     1      69.504  -1.845  37.671  1.00  0.00     0.100 A 
ATOM     27  O   UNL     1      68.402  -2.748  35.893  1.00  0.00    -0.289 OA
BRANCH  18  28
ATOM     28  O   UNL     1      69.126   0.786  32.119  1.00  0.00    -0.502 OA
ATOM     29  H   UNL     1      69.639   0.275  31.410  1.00  0.00     0.293 HD
ENDBRANCH  18  28
BRANCH  20  30
ATOM     30  O   UNL     1      68.615  -1.607  33.386  1.00  0.00    -0.504 OA
ATOM     31  H   UNL     1      69.170  -2.231  32.822  1.00  0.00     0.293 HD
ENDBRANCH  20  30
BRANCH  25  32
ATOM     32  C   UNL     1      70.671  -0.764  39.629  1.00  0.00     0.017 A 
ATOM     33  C   UNL     1      71.906  -0.199  40.008  1.00  0.00     0.012 A 
ATOM     34  C   UNL     1      69.842  -1.308  40.627  1.00  0.00     0.012 A 
ATOM     35  C   UNL     1      72.305  -0.203  41.349  1.00  0.00     0.001 A 
ATOM     36  C   UNL     1      70.247  -1.309  41.965  1.00  0.00     0.001 A 
ATOM     37  C   UNL     1      71.478  -0.760  42.324  1.00  0.00     0.000 A 
ENDBRANCH  25  32
ENDBRANCH   1  17
TORSDOF 9
ENDMDL
MODEL 8
REMARK VINA RESULT:    -4.987      9.032     12.485
REMARK INTER + INTRA:          -8.264
REMARK INTER:                  -6.779
REMARK INTRA:                  -1.484
REMARK UNBOUND:                -1.382
REMARK SMILES O=C([O-])[C@@H]1O[C@@H](Oc2cc3oc(-c4ccccc4)cc(=O)c3c(O)c2O)[C@@H](O)[C@@H](O)[C@@H]1O
REMARK SMILES IDX 7 1 6 2 4 3 31 4 5 5 29 6 27 7 2 8 1 9 3 10 32 11 30 13
REMARK SMILES IDX 28 15 8 17 25 18 9 19 23 20 10 21 22 22 11 23 20 24 12 25
REMARK SMILES IDX 19 26 21 27 26 28 24 30 13 32 14 33 18 34 15 35 17 36 16 37
REMARK H PARENT 32 12 30 14 28 16 26 29 24 31
REMARK Flexibility Score: inf
ROOT
ATOM      1  O   UNL     1      61.643   5.091  33.280  1.00  0.00    -0.458 OA
ENDROOT
BRANCH   1   2
ATOM      2  C   UNL     1      62.968   5.575  33.020  1.00  0.00     0.339 C 
ATOM      3  C   UNL     1      62.456   7.722  33.829  1.00  0.00     0.199 C 
ATOM      4  C   UNL     1      62.613   8.396  32.445  1.00  0.00     0.180 C 
ATOM      5  O   UNL     1      63.310   6.592  33.953  1.00  0.00    -0.328 OA
ATOM      6  C   UNL     1      62.301   7.376  31.335  1.00  0.00     0.181 C 
ATOM      7  C   UNL     1      63.126   6.091  31.570  1.00  0.00     0.214 C 
BRANCH   3   8
ATOM      8  C   UNL     1      62.763   8.702  34.927  1.00  0.00     0.073 C 
ATOM      9  O   UNL     1      61.943   8.891  35.865  1.00  0.00    -0.547 OA
ATOM     10  O   UNL     1      63.987   9.361  34.942  1.00  0.00    -0.547 OA
ENDBRANCH   3   8
BRANCH   4  11
ATOM     11  O   UNL     1      63.927   8.873  32.277  1.00  0.00    -0.387 OA
ATOM     12  H   UNL     1      63.862   9.836  32.045  1.00  0.00     0.211 HD
ENDBRANCH   4  11
BRANCH   6  13
ATOM     13  O   UNL     1      60.926   7.080  31.326  1.00  0.00    -0.387 OA
ATOM     14  H   UNL     1      60.769   6.469  30.559  1.00  0.00     0.211 HD
ENDBRANCH   6  13
BRANCH   7  15
ATOM     15  O   UNL     1      62.845   5.091  30.622  1.00  0.00    -0.384 OA
ATOM     16  H   UNL     1      62.061   4.573  30.937  1.00  0.00     0.211 HD
ENDBRANCH   7  15
ENDBRANCH   1   2
BRANCH   1  17
ATOM     17  C   UNL     1      61.239   3.755  33.147  1.00  0.00     0.172 A 
ATOM     18  C   UNL     1      60.420   3.321  32.089  1.00  0.00     0.201 A 
ATOM     19  C   UNL     1      61.720   2.831  34.072  1.00  0.00     0.098 A 
ATOM     20  C   UNL     1      60.023   1.970  32.005  1.00  0.00     0.176 A 
ATOM     21  C   UNL     1      61.313   1.498  34.028  1.00  0.00     0.146 A 
ATOM     22  C   UNL     1      60.428   1.050  33.017  1.00  0.00     0.111 A 
ATOM     23  O   UNL     1      61.765   0.665  34.959  1.00  0.00    -0.456 OA
ATOM     24  C   UNL     1      59.981  -0.290  33.109  1.00  0.00     0.197 A 
ATOM     25  C   UNL     1      61.413  -0.615  35.030  1.00  0.00     0.138 A 
ATOM     26  C   UNL     1      60.490  -1.124  34.105  1.00  0.00     0.100 A 
ATOM     27  O   UNL     1      59.100  -0.753  32.339  1.00  0.00    -0.289 OA
BRANCH  18  28
ATOM     28  O   UNL     1      60.053   4.225  31.091  1.00  0.00    -0.502 OA
ATOM     29  H   UNL     1      59.773   5.178  31.293  1.00  0.00     0.293 HD
ENDBRANCH  18  28
BRANCH  20  30
ATOM     30  O   UNL     1      59.271   1.591  30.888  1.00  0.00    -0.504 OA
ATOM     31  H   UNL     1      59.000   2.215  30.144  1.00  0.00     0.293 HD
ENDBRANCH  20  30
BRANCH  25  32
ATOM     32  C   UNL     1      61.990  -1.456  36.108  1.00  0.00     0.017 A 
ATOM     33  C   UNL     1      61.193  -2.331  36.874  1.00  0.00     0.012 A 
ATOM     34  C   UNL     1      63.374  -1.409  36.355  1.00  0.00     0.012 A 
ATOM     35  C   UNL     1      61.769  -3.119  37.876  1.00  0.00     0.001 A 
ATOM     36  C   UNL     1      63.943  -2.198  37.359  1.00  0.00     0.001 A 
ATOM     37  C   UNL     1      63.141  -3.050  38.120  1.00  0.00     0.000 A 
ENDBRANCH  25  32
ENDBRANCH   1  17
TORSDOF 9
ENDMDL
MODEL 9
REMARK VINA RESULT:    -4.970     14.280     16.448
REMARK INTER + INTRA:          -8.241
REMARK INTER:                  -6.798
REMARK INTRA:                  -1.443
REMARK UNBOUND:                -1.382
REMARK SMILES O=C([O-])[C@@H]1O[C@@H](Oc2cc3oc(-c4ccccc4)cc(=O)c3c(O)c2O)[C@@H](O)[C@@H](O)[C@@H]1O
REMARK SMILES IDX 7 1 6 2 4 3 31 4 5 5 29 6 27 7 2 8 1 9 3 10 32 11 30 13
REMARK SMILES IDX 28 15 8 17 25 18 9 19 23 20 10 21 22 22 11 23 20 24 12 25
REMARK SMILES IDX 19 26 21 27 26 28 24 30 13 32 14 33 18 34 15 35 17 36 16 37
REMARK H PARENT 32 12 30 14 28 16 26 29 24 31
REMARK Flexibility Score: inf
ROOT
ATOM      1  O   UNL     1      68.527  13.330  46.183  1.00  0.00    -0.458 OA
ENDROOT
BRANCH   1   2
ATOM      2  C   UNL     1      67.786  14.266  46.979  1.00  0.00     0.339 C 
ATOM      3  C   UNL     1      65.780  13.804  45.844  1.00  0.00     0.199 C 
ATOM      4  C   UNL     1      65.685  15.216  45.219  1.00  0.00     0.180 C 
ATOM      5  O   UNL     1      66.436  13.841  47.106  1.00  0.00    -0.328 OA
ATOM      6  C   UNL     1      67.098  15.807  45.061  1.00  0.00     0.181 C 
ATOM      7  C   UNL     1      67.853  15.701  46.404  1.00  0.00     0.214 C 
BRANCH   3   8
ATOM      8  C   UNL     1      64.409  13.212  46.013  1.00  0.00     0.073 C 
ATOM      9  O   UNL     1      64.237  12.182  46.718  1.00  0.00    -0.547 OA
ATOM     10  O   UNL     1      63.310  13.839  45.436  1.00  0.00    -0.547 OA
ENDBRANCH   3   8
BRANCH   4  11
ATOM     11  O   UNL     1      64.919  16.066  46.038  1.00  0.00    -0.387 OA
ATOM     12  H   UNL     1      64.151  16.382  45.495  1.00  0.00     0.211 HD
ENDBRANCH   4  11
BRANCH   6  13
ATOM     13  O   UNL     1      67.796  15.121  44.051  1.00  0.00    -0.387 OA
ATOM     14  H   UNL     1      68.242  15.810  43.492  1.00  0.00     0.211 HD
ENDBRANCH   6  13
BRANCH   7  15
ATOM     15  O   UNL     1      69.176  16.171  46.316  1.00  0.00    -0.384 OA
ATOM     16  H   UNL     1      69.271  16.956  46.913  1.00  0.00     0.211 HD
ENDBRANCH   7  15
ENDBRANCH   1   2
BRANCH   1  17
ATOM     17  C   UNL     1      69.210  12.215  46.688  1.00  0.00     0.172 A 
ATOM     18  C   UNL     1      68.541  11.045  47.093  1.00  0.00     0.201 A 
ATOM     19  C   UNL     1      70.602  12.263  46.731  1.00  0.00     0.098 A 
ATOM     20  C   UNL     1      69.267   9.955  47.613  1.00  0.00     0.176 A 
ATOM     21  C   UNL     1      71.337  11.210  47.272  1.00  0.00     0.146 A 
ATOM     22  C   UNL     1      70.682  10.052  47.759  1.00  0.00     0.111 A 
ATOM     23  O   UNL     1      72.660  11.323  47.331  1.00  0.00    -0.456 OA
ATOM     24  C   UNL     1      71.494   9.078  48.389  1.00  0.00     0.197 A 
ATOM     25  C   UNL     1      73.451  10.395  47.859  1.00  0.00     0.138 A 
ATOM     26  C   UNL     1      72.879   9.245  48.421  1.00  0.00     0.100 A 
ATOM     27  O   UNL     1      71.003   8.073  48.965  1.00  0.00    -0.289 OA
BRANCH  18  28
ATOM     28  O   UNL     1      67.159  10.953  46.922  1.00  0.00    -0.502 OA
ATOM     29  H   UNL     1      66.501  11.164  47.663  1.00  0.00     0.293 HD
ENDBRANCH  18  28
BRANCH  20  30
ATOM     30  O   UNL     1      68.548   8.796  47.928  1.00  0.00    -0.504 OA
ATOM     31  H   UNL     1      67.629   8.581  47.571  1.00  0.00     0.293 HD
ENDBRANCH  20  30
BRANCH  25  32
ATOM     32  C   UNL     1      74.918  10.622  47.861  1.00  0.00     0.017 A 
ATOM     33  C   UNL     1      75.674  10.602  46.671  1.00  0.00     0.012 A 
ATOM     34  C   UNL     1      75.574  10.899  49.074  1.00  0.00     0.012 A 
ATOM     35  C   UNL     1      77.053  10.830  46.705  1.00  0.00     0.001 A 
ATOM     36  C   UNL     1      76.953  11.126  49.101  1.00  0.00     0.001 A 
ATOM     37  C   UNL     1      77.692  11.088  47.918  1.00  0.00     0.000 A 
ENDBRANCH  25  32
ENDBRANCH   1  17
TORSDOF 9
ENDMDL
