MODEL 1
REMARK VINA RESULT:     2.361      0.000      0.000
REMARK INTER + INTRA:           2.476
REMARK INTER:                   2.500
REMARK INTRA:                  -0.023
REMARK UNBOUND:                -0.023
REMARK SMILES O=C([O-])c1cccnc1
REMARK SMILES IDX 4 1 5 2 9 3 6 4 8 5 7 6 2 7 1 8 3 9
REMARK H PARENT
REMARK Flexibility Score: inf
ROOT
ATOM      1  C   UNL     1     -18.389  17.116  12.306  1.00  0.00     0.016 A 
ATOM      2  C   UNL     1     -18.757  18.363  12.837  1.00  0.00     0.013 A 
ATOM      3  C   UNL     1     -18.404  15.997  13.159  1.00  0.00     0.120 A 
ATOM      4  C   UNL     1     -19.125  18.474  14.179  1.00  0.00     0.021 A 
ATOM      5  N   UNL     1     -18.766  16.133  14.462  1.00  0.00    -0.264 NA
ATOM      6  C   UNL     1     -19.124  17.334  14.984  1.00  0.00     0.111 A 
ENDROOT
BRANCH   1   7
ATOM      7  C   UNL     1     -17.997  16.986  10.886  1.00  0.00     0.073 C 
ATOM      8  O   UNL     1     -18.343  17.858  10.045  1.00  0.00    -0.545 OA
ATOM      9  O   UNL     1     -17.239  15.901  10.462  1.00  0.00    -0.545 OA
ENDBRANCH   1   7
TORSDOF 1
ENDMDL
MODEL 2
REMARK VINA RESULT:     2.663      3.536      4.240
REMARK INTER + INTRA:           2.796
REMARK INTER:                   2.820
REMARK INTRA:                  -0.024
REMARK UNBOUND:                -0.023
REMARK SMILES O=C([O-])c1cccnc1
REMARK SMILES IDX 4 1 5 2 9 3 6 4 8 5 7 6 2 7 1 8 3 9
REMARK H PARENT
REMARK Flexibility Score: inf
ROOT
ATOM      1  C   UNL     1     -18.980  17.045  15.204  1.00  0.00     0.016 A 
ATOM      2  C   UNL     1     -18.848  18.340  14.677  1.00  0.00     0.013 A 
ATOM      3  C   UNL     1     -19.089  15.968  14.306  1.00  0.00     0.120 A 
ATOM      4  C   UNL     1     -18.828  18.538  13.296  1.00  0.00     0.021 A 
ATOM      5  N   UNL     1     -19.067  16.188  12.965  1.00  0.00    -0.264 NA
ATOM      6  C   UNL     1     -18.939  17.436  12.446  1.00  0.00     0.111 A 
ENDROOT
BRANCH   1   7
ATOM      7  C   UNL     1     -19.004  16.823  16.666  1.00  0.00     0.073 C 
ATOM      8  O   UNL     1     -19.086  17.798  17.460  1.00  0.00    -0.545 OA
ATOM      9  O   UNL     1     -18.937  15.535  17.183  1.00  0.00    -0.545 OA
ENDBRANCH   1   7
TORSDOF 1
ENDMDL
MODEL 3
REMARK VINA RESULT:     3.999      9.530     10.169
REMARK INTER + INTRA:           4.209
REMARK INTER:                   4.227
REMARK INTRA:                  -0.017
REMARK UNBOUND:                -0.023
REMARK SMILES O=C([O-])c1cccnc1
REMARK SMILES IDX 4 1 5 2 9 3 6 4 8 5 7 6 2 7 1 8 3 9
REMARK H PARENT
REMARK Flexibility Score: inf
ROOT
ATOM      1  C   UNL     1     -16.959  25.785  16.471  1.00  0.00     0.016 A 
ATOM      2  C   UNL     1     -16.128  25.800  17.604  1.00  0.00     0.013 A 
ATOM      3  C   UNL     1     -16.366  25.584  15.211  1.00  0.00     0.120 A 
ATOM      4  C   UNL     1     -14.751  25.619  17.467  1.00  0.00     0.021 A 
ATOM      5  N   UNL     1     -15.022  25.410  15.106  1.00  0.00    -0.264 NA
ATOM      6  C   UNL     1     -14.211  25.423  16.195  1.00  0.00     0.111 A 
ENDROOT
BRANCH   1   7
ATOM      7  C   UNL     1     -18.419  25.976  16.603  1.00  0.00     0.073 C 
ATOM      8  O   UNL     1     -19.125  25.122  17.204  1.00  0.00    -0.545 OA
ATOM      9  O   UNL     1     -19.033  27.102  16.068  1.00  0.00    -0.545 OA
ENDBRANCH   1   7
TORSDOF 1
ENDMDL
MODEL 4
REMARK VINA RESULT:     4.320      9.606     10.153
REMARK INTER + INTRA:           4.550
REMARK INTER:                   4.567
REMARK INTRA:                  -0.017
REMARK UNBOUND:                -0.023
REMARK SMILES O=C([O-])c1cccnc1
REMARK SMILES IDX 4 1 5 2 9 3 6 4 8 5 7 6 2 7 1 8 3 9
REMARK H PARENT
REMARK Flexibility Score: inf
ROOT
ATOM      1  C   UNL     1     -16.958  25.762  16.499  1.00  0.00     0.016 A 
ATOM      2  C   UNL     1     -16.382  25.569  15.232  1.00  0.00     0.013 A 
ATOM      3  C   UNL     1     -16.114  25.757  17.624  1.00  0.00     0.120 A 
ATOM      4  C   UNL     1     -15.005  25.378  15.109  1.00  0.00     0.021 A 
ATOM      5  N   UNL     1     -14.776  25.568  17.476  1.00  0.00    -0.264 NA
ATOM      6  C   UNL     1     -14.209  25.381  16.256  1.00  0.00     0.111 A 
ENDROOT
BRANCH   1   7
ATOM      7  C   UNL     1     -18.416  25.966  16.642  1.00  0.00     0.073 C 
ATOM      8  O   UNL     1     -19.125  25.116  17.244  1.00  0.00    -0.545 OA
ATOM      9  O   UNL     1     -19.023  27.099  16.115  1.00  0.00    -0.545 OA
ENDBRANCH   1   7
TORSDOF 1
ENDMDL
MODEL 5
REMARK VINA RESULT:     5.139      9.214     10.073
REMARK INTER + INTRA:           5.416
REMARK INTER:                   5.432
REMARK INTRA:                  -0.016
REMARK UNBOUND:                -0.023
REMARK SMILES O=C([O-])c1cccnc1
REMARK SMILES IDX 4 1 5 2 9 3 6 4 8 5 7 6 2 7 1 8 3 9
REMARK H PARENT
REMARK Flexibility Score: inf
ROOT
ATOM      1  C   UNL     1     -17.514  19.385  22.032  1.00  0.00     0.016 A 
ATOM      2  C   UNL     1     -17.511  20.783  22.169  1.00  0.00     0.013 A 
ATOM      3  C   UNL     1     -18.344  18.813  21.052  1.00  0.00     0.120 A 
ATOM      4  C   UNL     1     -18.318  21.570  21.347  1.00  0.00     0.021 A 
ATOM      5  N   UNL     1     -19.121  19.602  20.264  1.00  0.00    -0.264 NA
ATOM      6  C   UNL     1     -19.125  20.955  20.389  1.00  0.00     0.111 A 
ENDROOT
BRANCH   1   7
ATOM      7  C   UNL     1     -16.663  18.540  22.898  1.00  0.00     0.073 C 
ATOM      8  O   UNL     1     -17.041  18.228  24.058  1.00  0.00    -0.545 OA
ATOM      9  O   UNL     1     -15.434  18.078  22.441  1.00  0.00    -0.545 OA
ENDBRANCH   1   7
TORSDOF 1
ENDMDL
