MODEL 1
REMARK VINA RESULT:    -5.589      0.000      0.000
REMARK INTER + INTRA:          -6.843
REMARK INTER:                  -6.732
REMARK INTRA:                  -0.110
REMARK UNBOUND:                -0.110
REMARK SMILES O=c1c(O)c(-c2ccc(O)c(O)c2)oc2cc(O)cc(O)c12
REMARK SMILES IDX 5 1 3 2 2 3 1 4 22 5 20 6 19 7 17 8 16 9 15 10 14 11 6 12
REMARK SMILES IDX 7 13 8 14 9 15 13 16 11 17 10 18 12 20 4 22 21 24 18 26
REMARK H PARENT 10 19 12 21 4 23 21 25 18 27
REMARK Flexibility Score: inf
ROOT
ATOM      1  C   UNL     1     124.416 126.014 126.865  1.00  0.00     0.180 A 
ATOM      2  C   UNL     1     123.571 127.138 126.855  1.00  0.00     0.208 A 
ATOM      3  C   UNL     1     123.084 127.612 125.627  1.00  0.00     0.238 A 
ATOM      4  O   UNL     1     122.372 128.650 125.618  1.00  0.00    -0.285 OA
ATOM      5  C   UNL     1     123.434 126.947 124.426  1.00  0.00     0.111 A 
ATOM      6  C   UNL     1     122.965 127.316 123.130  1.00  0.00     0.134 A 
ATOM      7  C   UNL     1     123.480 126.669 121.999  1.00  0.00     0.093 A 
ATOM      8  C   UNL     1     124.395 125.624 122.121  1.00  0.00     0.123 A 
ATOM      9  C   UNL     1     124.815 125.215 123.388  1.00  0.00     0.094 A 
ATOM     10  C   UNL     1     124.347 125.866 124.533  1.00  0.00     0.146 A 
ATOM     11  O   UNL     1     124.779 125.453 125.718  1.00  0.00    -0.452 OA
ENDROOT
BRANCH   1  12
ATOM     12  C   UNL     1     124.949 125.442 128.123  1.00  0.00     0.025 A 
ATOM     13  C   UNL     1     124.095 125.015 129.153  1.00  0.00     0.016 A 
ATOM     14  C   UNL     1     124.619 124.456 130.322  1.00  0.00     0.051 A 
ATOM     15  C   UNL     1     126.001 124.301 130.473  1.00  0.00     0.157 A 
ATOM     16  C   UNL     1     126.335 125.267 128.269  1.00  0.00     0.062 A 
ATOM     17  C   UNL     1     126.864 124.705 129.441  1.00  0.00     0.158 A 
BRANCH  15  18
ATOM     18  O   UNL     1     126.495 123.741 131.650  1.00  0.00    -0.504 OA
ATOM     19  H   UNL     1     125.895 123.270 132.315  1.00  0.00     0.293 HD
ENDBRANCH  15  18
BRANCH  17  20
ATOM     20  O   UNL     1     128.242 124.547 129.582  1.00  0.00    -0.504 OA
ATOM     21  H   UNL     1     128.756 125.012 130.322  1.00  0.00     0.293 HD
ENDBRANCH  17  20
ENDBRANCH   1  12
BRANCH   2  22
ATOM     22  O   UNL     1     123.256 127.791 128.049  1.00  0.00    -0.502 OA
ATOM     23  H   UNL     1     123.742 128.625 128.357  1.00  0.00     0.293 HD
ENDBRANCH   2  22
BRANCH   6  24
ATOM     24  O   UNL     1     121.983 128.284 122.901  1.00  0.00    -0.507 OA
ATOM     25  H   UNL     1     122.048 129.016 122.211  1.00  0.00     0.293 HD
ENDBRANCH   6  24
BRANCH   8  26
ATOM     26  O   UNL     1     124.874 124.992 120.977  1.00  0.00    -0.508 OA
ATOM     27  H   UNL     1     124.246 124.590 120.290  1.00  0.00     0.293 HD
ENDBRANCH   8  26
TORSDOF 6
ENDMDL
MODEL 2
REMARK VINA RESULT:    -5.405      2.597      3.915
REMARK INTER + INTRA:          -6.621
REMARK INTER:                  -6.474
REMARK INTRA:                  -0.147
REMARK UNBOUND:                -0.110
REMARK SMILES O=c1c(O)c(-c2ccc(O)c(O)c2)oc2cc(O)cc(O)c12
REMARK SMILES IDX 5 1 3 2 2 3 1 4 22 5 20 6 19 7 17 8 16 9 15 10 14 11 6 12
REMARK SMILES IDX 7 13 8 14 9 15 13 16 11 17 10 18 12 20 4 22 21 24 18 26
REMARK H PARENT 10 19 12 21 4 23 21 25 18 27
REMARK Flexibility Score: inf
ROOT
ATOM      1  C   UNL     1     126.170 125.205 126.793  1.00  0.00     0.180 A 
ATOM      2  C   UNL     1     127.563 125.397 126.796  1.00  0.00     0.208 A 
ATOM      3  C   UNL     1     128.225 125.594 125.574  1.00  0.00     0.238 A 
ATOM      4  O   UNL     1     129.479 125.712 125.577  1.00  0.00    -0.285 OA
ATOM      5  C   UNL     1     127.485 125.613 124.366  1.00  0.00     0.111 A 
ATOM      6  C   UNL     1     128.048 125.845 123.076  1.00  0.00     0.134 A 
ATOM      7  C   UNL     1     127.242 125.710 121.937  1.00  0.00     0.093 A 
ATOM      8  C   UNL     1     125.883 125.419 122.046  1.00  0.00     0.123 A 
ATOM      9  C   UNL     1     125.310 125.249 123.308  1.00  0.00     0.094 A 
ATOM     10  C   UNL     1     126.096 125.340 124.460  1.00  0.00     0.146 A 
ATOM     11  O   UNL     1     125.514 125.162 125.640  1.00  0.00    -0.452 OA
ENDROOT
BRANCH   1  12
ATOM     12  C   UNL     1     125.399 125.016 128.043  1.00  0.00     0.025 A 
ATOM     13  C   UNL     1     125.378 126.000 129.046  1.00  0.00     0.016 A 
ATOM     14  C   UNL     1     124.623 125.810 130.207  1.00  0.00     0.051 A 
ATOM     15  C   UNL     1     123.870 124.645 130.379  1.00  0.00     0.157 A 
ATOM     16  C   UNL     1     124.625 123.855 128.209  1.00  0.00     0.062 A 
ATOM     17  C   UNL     1     123.867 123.663 129.374  1.00  0.00     0.158 A 
BRANCH  15  18
ATOM     18  O   UNL     1     123.129 124.482 131.548  1.00  0.00    -0.504 OA
ATOM     19  H   UNL     1     122.928 125.256 132.170  1.00  0.00     0.293 HD
ENDBRANCH  15  18
BRANCH  17  20
ATOM     20  O   UNL     1     123.112 122.502 129.535  1.00  0.00    -0.504 OA
ATOM     21  H   UNL     1     123.552 121.598 129.666  1.00  0.00     0.293 HD
ENDBRANCH  17  20
ENDBRANCH   1  12
BRANCH   2  22
ATOM     22  O   UNL     1     128.276 125.353 127.997  1.00  0.00    -0.502 OA
ATOM     23  H   UNL     1     128.682 124.498 128.357  1.00  0.00     0.293 HD
ENDBRANCH   2  22
BRANCH   6  24
ATOM     24  O   UNL     1     129.373 126.232 122.860  1.00  0.00    -0.507 OA
ATOM     25  H   UNL     1     130.159 125.926 123.412  1.00  0.00     0.293 HD
ENDBRANCH   6  24
BRANCH   8  26
ATOM     26  O   UNL     1     125.109 125.309 120.895  1.00  0.00    -0.508 OA
ATOM     27  H   UNL     1     124.300 124.700 120.855  1.00  0.00     0.293 HD
ENDBRANCH   8  26
TORSDOF 6
ENDMDL
MODEL 3
REMARK VINA RESULT:    -5.284      2.541      3.905
REMARK INTER + INTRA:          -6.475
REMARK INTER:                  -6.340
REMARK INTRA:                  -0.135
REMARK UNBOUND:                -0.110
REMARK SMILES O=c1c(O)c(-c2ccc(O)c(O)c2)oc2cc(O)cc(O)c12
REMARK SMILES IDX 5 1 3 2 2 3 1 4 22 5 20 6 19 7 17 8 16 9 15 10 14 11 6 12
REMARK SMILES IDX 7 13 8 14 9 15 13 16 11 17 10 18 12 20 4 22 21 24 18 26
REMARK H PARENT 10 19 12 21 4 23 21 25 18 27
REMARK Flexibility Score: inf
ROOT
ATOM      1  C   UNL     1     124.619 124.172 126.821  1.00  0.00     0.180 A 
ATOM      2  C   UNL     1     124.083 122.872 126.824  1.00  0.00     0.208 A 
ATOM      3  C   UNL     1     123.911 122.204 125.601  1.00  0.00     0.238 A 
ATOM      4  O   UNL     1     123.381 121.062 125.605  1.00  0.00    -0.285 OA
ATOM      5  C   UNL     1     124.294 122.837 124.393  1.00  0.00     0.111 A 
ATOM      6  C   UNL     1     124.203 122.237 123.101  1.00  0.00     0.134 A 
ATOM      7  C   UNL     1     124.486 123.003 121.963  1.00  0.00     0.093 A 
ATOM      8  C   UNL     1     124.921 124.324 122.073  1.00  0.00     0.123 A 
ATOM      9  C   UNL     1     125.071 124.901 123.335  1.00  0.00     0.094 A 
ATOM     10  C   UNL     1     124.760 124.174 124.487  1.00  0.00     0.146 A 
ATOM     11  O   UNL     1     124.906 124.763 125.668  1.00  0.00    -0.452 OA
ENDROOT
BRANCH   1  12
ATOM     12  C   UNL     1     124.852 124.930 128.072  1.00  0.00     0.025 A 
ATOM     13  C   UNL     1     125.702 124.439 129.078  1.00  0.00     0.016 A 
ATOM     14  C   UNL     1     125.926 125.184 130.240  1.00  0.00     0.051 A 
ATOM     15  C   UNL     1     125.317 126.431 130.409  1.00  0.00     0.157 A 
ATOM     16  C   UNL     1     124.258 126.192 128.236  1.00  0.00     0.062 A 
ATOM     17  C   UNL     1     124.482 126.941 129.401  1.00  0.00     0.158 A 
BRANCH  15  18
ATOM     18  O   UNL     1     125.558 127.150 131.579  1.00  0.00    -0.504 OA
ATOM     19  H   UNL     1     126.366 127.751 131.684  1.00  0.00     0.293 HD
ENDBRANCH  15  18
BRANCH  17  20
ATOM     20  O   UNL     1     123.877 128.187 129.560  1.00  0.00    -0.504 OA
ATOM     21  H   UNL     1     123.054 128.307 130.137  1.00  0.00     0.293 HD
ENDBRANCH  17  20
ENDBRANCH   1  12
BRANCH   2  22
ATOM     22  O   UNL     1     123.692 122.275 128.025  1.00  0.00    -0.502 OA
ATOM     23  H   UNL     1     122.728 122.041 128.227  1.00  0.00     0.293 HD
ENDBRANCH   2  22
BRANCH   6  24
ATOM     24  O   UNL     1     123.868 120.897 122.884  1.00  0.00    -0.507 OA
ATOM     25  H   UNL     1     124.087 120.379 122.047  1.00  0.00     0.293 HD
ENDBRANCH   6  24
BRANCH   8  26
ATOM     26  O   UNL     1     125.210 125.051 120.922  1.00  0.00    -0.508 OA
ATOM     27  H   UNL     1     125.462 126.031 120.962  1.00  0.00     0.293 HD
ENDBRANCH   8  26
TORSDOF 6
ENDMDL
MODEL 4
REMARK VINA RESULT:    -5.268      2.194      2.823
REMARK INTER + INTRA:          -6.456
REMARK INTER:                  -6.122
REMARK INTRA:                  -0.334
REMARK UNBOUND:                -0.110
REMARK SMILES O=c1c(O)c(-c2ccc(O)c(O)c2)oc2cc(O)cc(O)c12
REMARK SMILES IDX 5 1 3 2 2 3 1 4 22 5 20 6 19 7 17 8 16 9 15 10 14 11 6 12
REMARK SMILES IDX 7 13 8 14 9 15 13 16 11 17 10 18 12 20 4 22 21 24 18 26
REMARK H PARENT 10 19 12 21 4 23 21 25 18 27
REMARK Flexibility Score: inf
ROOT
ATOM      1  C   UNL     1     125.245 125.472 126.597  1.00  0.00     0.180 A 
ATOM      2  C   UNL     1     124.093 125.586 125.799  1.00  0.00     0.208 A 
ATOM      3  C   UNL     1     124.237 125.668 124.405  1.00  0.00     0.238 A 
ATOM      4  O   UNL     1     123.207 125.824 123.699  1.00  0.00    -0.285 OA
ATOM      5  C   UNL     1     125.529 125.618 123.826  1.00  0.00     0.111 A 
ATOM      6  C   UNL     1     125.789 125.651 122.423  1.00  0.00     0.134 A 
ATOM      7  C   UNL     1     127.111 125.729 121.967  1.00  0.00     0.093 A 
ATOM      8  C   UNL     1     128.183 125.706 122.859  1.00  0.00     0.123 A 
ATOM      9  C   UNL     1     127.941 125.613 124.231  1.00  0.00     0.094 A 
ATOM     10  C   UNL     1     126.631 125.572 124.717  1.00  0.00     0.146 A 
ATOM     11  O   UNL     1     126.445 125.494 126.029  1.00  0.00    -0.452 OA
ENDROOT
BRANCH   1  12
ATOM     12  C   UNL     1     125.172 125.356 128.072  1.00  0.00     0.025 A 
ATOM     13  C   UNL     1     125.048 124.106 128.703  1.00  0.00     0.016 A 
ATOM     14  C   UNL     1     125.006 124.019 130.097  1.00  0.00     0.051 A 
ATOM     15  C   UNL     1     125.100 125.173 130.881  1.00  0.00     0.157 A 
ATOM     16  C   UNL     1     125.287 126.511 128.863  1.00  0.00     0.062 A 
ATOM     17  C   UNL     1     125.245 126.426 130.262  1.00  0.00     0.158 A 
BRANCH  15  18
ATOM     18  O   UNL     1     125.053 125.055 132.270  1.00  0.00    -0.504 OA
ATOM     19  H   UNL     1     125.267 124.186 132.743  1.00  0.00     0.293 HD
ENDBRANCH  15  18
BRANCH  17  20
ATOM     20  O   UNL     1     125.347 127.580 131.038  1.00  0.00    -0.504 OA
ATOM     21  H   UNL     1     124.565 127.922 131.584  1.00  0.00     0.293 HD
ENDBRANCH  17  20
ENDBRANCH   1  12
BRANCH   2  22
ATOM     22  O   UNL     1     122.831 125.655 126.393  1.00  0.00    -0.502 OA
ATOM     23  H   UNL     1     122.673 126.114 127.282  1.00  0.00     0.293 HD
ENDBRANCH   2  22
BRANCH   6  24
ATOM     24  O   UNL     1     124.794 125.584 121.442  1.00  0.00    -0.507 OA
ATOM     25  H   UNL     1     123.869 125.975 121.535  1.00  0.00     0.293 HD
ENDBRANCH   6  24
BRANCH   8  26
ATOM     26  O   UNL     1     129.485 125.768 122.371  1.00  0.00    -0.508 OA
ATOM     27  H   UNL     1     129.904 124.989 121.877  1.00  0.00     0.293 HD
ENDBRANCH   8  26
TORSDOF 6
ENDMDL
MODEL 5
REMARK VINA RESULT:    -5.197      2.439      2.994
REMARK INTER + INTRA:          -6.371
REMARK INTER:                  -6.037
REMARK INTRA:                  -0.334
REMARK UNBOUND:                -0.110
REMARK SMILES O=c1c(O)c(-c2ccc(O)c(O)c2)oc2cc(O)cc(O)c12
REMARK SMILES IDX 5 1 3 2 2 3 1 4 22 5 20 6 19 7 17 8 16 9 15 10 14 11 6 12
REMARK SMILES IDX 7 13 8 14 9 15 13 16 11 17 10 18 12 20 4 22 21 24 18 26
REMARK H PARENT 10 19 12 21 4 23 21 25 18 27
REMARK Flexibility Score: inf
ROOT
ATOM      1  C   UNL     1     125.275 124.730 126.696  1.00  0.00     0.180 A 
ATOM      2  C   UNL     1     125.887 125.702 125.885  1.00  0.00     0.208 A 
ATOM      3  C   UNL     1     125.863 125.540 124.492  1.00  0.00     0.238 A 
ATOM      4  O   UNL     1     126.459 126.385 123.774  1.00  0.00    -0.285 OA
ATOM      5  C   UNL     1     125.212 124.417 123.924  1.00  0.00     0.111 A 
ATOM      6  C   UNL     1     125.091 124.174 122.523  1.00  0.00     0.134 A 
ATOM      7  C   UNL     1     124.543 122.964 122.077  1.00  0.00     0.093 A 
ATOM      8  C   UNL     1     124.050 122.021 122.978  1.00  0.00     0.123 A 
ATOM      9  C   UNL     1     124.109 122.276 124.349  1.00  0.00     0.094 A 
ATOM     10  C   UNL     1     124.685 123.456 124.826  1.00  0.00     0.146 A 
ATOM     11  O   UNL     1     124.731 123.655 126.137  1.00  0.00    -0.452 OA
ENDROOT
BRANCH   1  12
ATOM     12  C   UNL     1     125.238 124.845 128.172  1.00  0.00     0.025 A 
ATOM     13  C   UNL     1     124.203 125.533 128.827  1.00  0.00     0.016 A 
ATOM     14  C   UNL     1     124.175 125.607 130.223  1.00  0.00     0.051 A 
ATOM     15  C   UNL     1     125.171 124.986 130.984  1.00  0.00     0.157 A 
ATOM     16  C   UNL     1     126.225 124.205 128.939  1.00  0.00     0.062 A 
ATOM     17  C   UNL     1     126.199 124.278 130.340  1.00  0.00     0.158 A 
BRANCH  15  18
ATOM     18  O   UNL     1     125.118 125.079 132.374  1.00  0.00    -0.504 OA
ATOM     19  H   UNL     1     125.630 125.788 132.885  1.00  0.00     0.293 HD
ENDBRANCH  15  18
BRANCH  17  20
ATOM     20  O   UNL     1     127.191 123.650 131.093  1.00  0.00    -0.504 OA
ATOM     21  H   UNL     1     127.209 123.714 132.104  1.00  0.00     0.293 HD
ENDBRANCH  17  20
ENDBRANCH   1  12
BRANCH   2  22
ATOM     22  O   UNL     1     126.541 126.791 126.467  1.00  0.00    -0.502 OA
ATOM     23  H   UNL     1     126.969 126.741 127.385  1.00  0.00     0.293 HD
ENDBRANCH   2  22
BRANCH   6  24
ATOM     24  O   UNL     1     125.467 125.090 121.536  1.00  0.00    -0.507 OA
ATOM     25  H   UNL     1     125.230 125.012 120.559  1.00  0.00     0.293 HD
ENDBRANCH   6  24
BRANCH   8  26
ATOM     26  O   UNL     1     123.496 120.837 122.499  1.00  0.00    -0.508 OA
ATOM     27  H   UNL     1     123.903 119.935 122.717  1.00  0.00     0.293 HD
ENDBRANCH   8  26
TORSDOF 6
ENDMDL
MODEL 6
REMARK VINA RESULT:    -5.096      1.516      3.231
REMARK INTER + INTRA:          -6.249
REMARK INTER:                  -5.938
REMARK INTRA:                  -0.310
REMARK UNBOUND:                -0.110
REMARK SMILES O=c1c(O)c(-c2ccc(O)c(O)c2)oc2cc(O)cc(O)c12
REMARK SMILES IDX 5 1 3 2 2 3 1 4 22 5 20 6 19 7 17 8 16 9 15 10 14 11 6 12
REMARK SMILES IDX 7 13 8 14 9 15 13 16 11 17 10 18 12 20 4 22 21 24 18 26
REMARK H PARENT 10 19 12 21 4 23 21 25 18 27
REMARK Flexibility Score: inf
ROOT
ATOM      1  C   UNL     1     124.539 125.376 126.702  1.00  0.00     0.180 A 
ATOM      2  C   UNL     1     125.081 124.459 125.784  1.00  0.00     0.208 A 
ATOM      3  C   UNL     1     124.858 124.657 124.413  1.00  0.00     0.238 A 
ATOM      4  O   UNL     1     125.300 123.804 123.599  1.00  0.00    -0.285 OA
ATOM      5  C   UNL     1     124.111 125.777 123.974  1.00  0.00     0.111 A 
ATOM      6  C   UNL     1     123.859 126.098 122.607  1.00  0.00     0.134 A 
ATOM      7  C   UNL     1     122.997 127.157 122.293  1.00  0.00     0.093 A 
ATOM      8  C   UNL     1     122.432 127.947 123.294  1.00  0.00     0.123 A 
ATOM      9  C   UNL     1     122.720 127.679 124.633  1.00  0.00     0.094 A 
ATOM     10  C   UNL     1     123.547 126.606 124.978  1.00  0.00     0.146 A 
ATOM     11  O   UNL     1     123.787 126.379 126.264  1.00  0.00    -0.452 OA
ENDROOT
BRANCH   1  12
ATOM     12  C   UNL     1     124.751 125.248 128.162  1.00  0.00     0.025 A 
ATOM     13  C   UNL     1     125.947 125.670 128.768  1.00  0.00     0.016 A 
ATOM     14  C   UNL     1     126.116 125.562 130.151  1.00  0.00     0.051 A 
ATOM     15  C   UNL     1     125.091 125.044 130.950  1.00  0.00     0.157 A 
ATOM     16  C   UNL     1     123.716 124.748 128.970  1.00  0.00     0.062 A 
ATOM     17  C   UNL     1     123.883 124.639 130.358  1.00  0.00     0.158 A 
BRANCH  15  18
ATOM     18  O   UNL     1     125.289 124.947 132.327  1.00  0.00    -0.504 OA
ATOM     19  H   UNL     1     125.657 124.108 132.759  1.00  0.00     0.293 HD
ENDBRANCH  15  18
BRANCH  17  20
ATOM     20  O   UNL     1     122.855 124.129 131.150  1.00  0.00    -0.504 OA
ATOM     21  H   UNL     1     122.085 123.608 130.748  1.00  0.00     0.293 HD
ENDBRANCH  17  20
ENDBRANCH   1  12
BRANCH   2  22
ATOM     22  O   UNL     1     125.796 123.349 126.240  1.00  0.00    -0.502 OA
ATOM     23  H   UNL     1     126.401 123.388 127.052  1.00  0.00     0.293 HD
ENDBRANCH   2  22
BRANCH   6  24
ATOM     24  O   UNL     1     124.446 125.430 121.527  1.00  0.00    -0.507 OA
ATOM     25  H   UNL     1     124.830 125.882 120.712  1.00  0.00     0.293 HD
ENDBRANCH   6  24
BRANCH   8  26
ATOM     26  O   UNL     1     121.593 129.001 122.946  1.00  0.00    -0.508 OA
ATOM     27  H   UNL     1     120.871 129.334 123.573  1.00  0.00     0.293 HD
ENDBRANCH   8  26
TORSDOF 6
ENDMDL
MODEL 7
REMARK VINA RESULT:    -4.755      2.941      6.818
REMARK INTER + INTRA:          -5.839
REMARK INTER:                  -5.764
REMARK INTRA:                  -0.074
REMARK UNBOUND:                -0.110
REMARK SMILES O=c1c(O)c(-c2ccc(O)c(O)c2)oc2cc(O)cc(O)c12
REMARK SMILES IDX 5 1 3 2 2 3 1 4 22 5 20 6 19 7 17 8 16 9 15 10 14 11 6 12
REMARK SMILES IDX 7 13 8 14 9 15 13 16 11 17 10 18 12 20 4 22 21 24 18 26
REMARK H PARENT 10 19 12 21 4 23 21 25 18 27
REMARK Flexibility Score: inf
ROOT
ATOM      1  C   UNL     1     125.704 124.628 125.830  1.00  0.00     0.180 A 
ATOM      2  C   UNL     1     124.996 123.433 126.050  1.00  0.00     0.208 A 
ATOM      3  C   UNL     1     124.435 123.198 127.315  1.00  0.00     0.238 A 
ATOM      4  O   UNL     1     123.848 122.103 127.522  1.00  0.00    -0.285 OA
ATOM      5  C   UNL     1     124.574 124.166 128.339  1.00  0.00     0.111 A 
ATOM      6  C   UNL     1     124.011 124.050 129.645  1.00  0.00     0.134 A 
ATOM      7  C   UNL     1     124.323 125.008 130.619  1.00  0.00     0.093 A 
ATOM      8  C   UNL     1     125.121 126.110 130.316  1.00  0.00     0.123 A 
ATOM      9  C   UNL     1     125.627 126.265 129.024  1.00  0.00     0.094 A 
ATOM     10  C   UNL     1     125.364 125.307 128.042  1.00  0.00     0.146 A 
ATOM     11  O   UNL     1     125.874 125.486 126.829  1.00  0.00    -0.452 OA
ENDROOT
BRANCH   1  12
ATOM     12  C   UNL     1     126.303 124.957 124.516  1.00  0.00     0.025 A 
ATOM     13  C   UNL     1     125.534 124.956 123.340  1.00  0.00     0.016 A 
ATOM     14  C   UNL     1     126.115 125.295 122.115  1.00  0.00     0.051 A 
ATOM     15  C   UNL     1     127.465 125.651 122.047  1.00  0.00     0.157 A 
ATOM     16  C   UNL     1     127.654 125.336 124.448  1.00  0.00     0.062 A 
ATOM     17  C   UNL     1     128.239 125.676 123.219  1.00  0.00     0.158 A 
BRANCH  15  18
ATOM     18  O   UNL     1     128.017 125.982 120.810  1.00  0.00    -0.504 OA
ATOM     19  H   UNL     1     129.017 125.973 120.648  1.00  0.00     0.293 HD
ENDBRANCH  15  18
BRANCH  17  20
ATOM     20  O   UNL     1     129.584 126.038 123.160  1.00  0.00    -0.504 OA
ATOM     21  H   UNL     1     130.182 125.993 123.977  1.00  0.00     0.293 HD
ENDBRANCH  17  20
ENDBRANCH   1  12
BRANCH   2  22
ATOM     22  O   UNL     1     124.889 122.482 125.032  1.00  0.00    -0.502 OA
ATOM     23  H   UNL     1     124.052 121.929 124.891  1.00  0.00     0.293 HD
ENDBRANCH   2  22
BRANCH   6  24
ATOM     24  O   UNL     1     123.126 123.037 130.027  1.00  0.00    -0.507 OA
ATOM     25  H   UNL     1     122.933 122.209 129.487  1.00  0.00     0.293 HD
ENDBRANCH   6  24
BRANCH   8  26
ATOM     26  O   UNL     1     125.397 127.051 131.304  1.00  0.00    -0.508 OA
ATOM     27  H   UNL     1     124.679 127.668 131.665  1.00  0.00     0.293 HD
ENDBRANCH   8  26
TORSDOF 6
ENDMDL
MODEL 8
REMARK VINA RESULT:    -4.715      1.513      7.203
REMARK INTER + INTRA:          -5.790
REMARK INTER:                  -5.663
REMARK INTRA:                  -0.127
REMARK UNBOUND:                -0.110
REMARK SMILES O=c1c(O)c(-c2ccc(O)c(O)c2)oc2cc(O)cc(O)c12
REMARK SMILES IDX 5 1 3 2 2 3 1 4 22 5 20 6 19 7 17 8 16 9 15 10 14 11 6 12
REMARK SMILES IDX 7 13 8 14 9 15 13 16 11 17 10 18 12 20 4 22 21 24 18 26
REMARK H PARENT 10 19 12 21 4 23 21 25 18 27
REMARK Flexibility Score: inf
ROOT
ATOM      1  C   UNL     1     125.459 125.604 125.513  1.00  0.00     0.180 A 
ATOM      2  C   UNL     1     126.821 125.696 125.849  1.00  0.00     0.208 A 
ATOM      3  C   UNL     1     127.215 125.430 127.170  1.00  0.00     0.238 A 
ATOM      4  O   UNL     1     128.428 125.566 127.478  1.00  0.00    -0.285 OA
ATOM      5  C   UNL     1     126.245 125.060 128.133  1.00  0.00     0.111 A 
ATOM      6  C   UNL     1     126.538 124.729 129.490  1.00  0.00     0.134 A 
ATOM      7  C   UNL     1     125.486 124.505 130.389  1.00  0.00     0.093 A 
ATOM      8  C   UNL     1     124.158 124.535 129.965  1.00  0.00     0.123 A 
ATOM      9  C   UNL     1     123.864 124.799 128.627  1.00  0.00     0.094 A 
ATOM     10  C   UNL     1     124.890 125.063 127.715  1.00  0.00     0.146 A 
ATOM     11  O   UNL     1     124.566 125.320 126.454  1.00  0.00    -0.452 OA
ENDROOT
BRANCH   1  12
ATOM     12  C   UNL     1     124.970 125.846 124.136  1.00  0.00     0.025 A 
ATOM     13  C   UNL     1     125.437 125.087 123.049  1.00  0.00     0.016 A 
ATOM     14  C   UNL     1     124.944 125.316 121.762  1.00  0.00     0.051 A 
ATOM     15  C   UNL     1     123.968 126.294 121.542  1.00  0.00     0.157 A 
ATOM     16  C   UNL     1     123.975 126.813 123.915  1.00  0.00     0.062 A 
ATOM     17  C   UNL     1     123.478 127.044 122.624  1.00  0.00     0.158 A 
BRANCH  15  18
ATOM     18  O   UNL     1     123.496 126.502 120.247  1.00  0.00    -0.504 OA
ATOM     19  H   UNL     1     122.560 126.235 119.967  1.00  0.00     0.293 HD
ENDBRANCH  15  18
BRANCH  17  20
ATOM     20  O   UNL     1     122.500 128.016 122.413  1.00  0.00    -0.504 OA
ATOM     21  H   UNL     1     122.336 128.412 121.495  1.00  0.00     0.293 HD
ENDBRANCH  17  20
ENDBRANCH   1  12
BRANCH   2  22
ATOM     22  O   UNL     1     127.757 126.083 124.887  1.00  0.00    -0.502 OA
ATOM     23  H   UNL     1     127.487 126.436 123.977  1.00  0.00     0.293 HD
ENDBRANCH   2  22
BRANCH   6  24
ATOM     24  O   UNL     1     127.833 124.581 129.997  1.00  0.00    -0.507 OA
ATOM     25  H   UNL     1     128.673 124.603 129.440  1.00  0.00     0.293 HD
ENDBRANCH   6  24
BRANCH   8  26
ATOM     26  O   UNL     1     123.139 124.292 130.882  1.00  0.00    -0.508 OA
ATOM     27  H   UNL     1     122.274 124.820 130.865  1.00  0.00     0.293 HD
ENDBRANCH   8  26
TORSDOF 6
ENDMDL
MODEL 9
REMARK VINA RESULT:    -4.527      2.078      6.506
REMARK INTER + INTRA:          -5.564
REMARK INTER:                  -5.512
REMARK INTRA:                  -0.051
REMARK UNBOUND:                -0.110
REMARK SMILES O=c1c(O)c(-c2ccc(O)c(O)c2)oc2cc(O)cc(O)c12
REMARK SMILES IDX 5 1 3 2 2 3 1 4 22 5 20 6 19 7 17 8 16 9 15 10 14 11 6 12
REMARK SMILES IDX 7 13 8 14 9 15 13 16 11 17 10 18 12 20 4 22 21 24 18 26
REMARK H PARENT 10 19 12 21 4 23 21 25 18 27
REMARK Flexibility Score: inf
ROOT
ATOM      1  C   UNL     1     124.303 124.739 125.879  1.00  0.00     0.180 A 
ATOM      2  C   UNL     1     123.623 125.951 126.096  1.00  0.00     0.208 A 
ATOM      3  C   UNL     1     123.710 126.564 127.355  1.00  0.00     0.238 A 
ATOM      4  O   UNL     1     123.056 127.620 127.560  1.00  0.00    -0.285 OA
ATOM      5  C   UNL     1     124.489 125.968 128.377  1.00  0.00     0.111 A 
ATOM      6  C   UNL     1     124.680 126.523 129.678  1.00  0.00     0.134 A 
ATOM      7  C   UNL     1     125.362 125.782 130.652  1.00  0.00     0.093 A 
ATOM      8  C   UNL     1     125.916 124.538 130.354  1.00  0.00     0.123 A 
ATOM      9  C   UNL     1     125.786 124.012 129.067  1.00  0.00     0.094 A 
ATOM     10  C   UNL     1     125.080 124.711 128.085  1.00  0.00     0.146 A 
ATOM     11  O   UNL     1     124.970 124.171 126.877  1.00  0.00    -0.452 OA
ENDROOT
BRANCH   1  12
ATOM     12  C   UNL     1     124.279 124.046 124.571  1.00  0.00     0.025 A 
ATOM     13  C   UNL     1     124.614 124.715 123.381  1.00  0.00     0.016 A 
ATOM     14  C   UNL     1     124.608 124.034 122.161  1.00  0.00     0.051 A 
ATOM     15  C   UNL     1     124.282 122.675 122.111  1.00  0.00     0.157 A 
ATOM     16  C   UNL     1     123.972 122.676 124.520  1.00  0.00     0.062 A 
ATOM     17  C   UNL     1     123.966 121.990 123.297  1.00  0.00     0.158 A 
BRANCH  15  18
ATOM     18  O   UNL     1     124.282 122.022 120.879  1.00  0.00    -0.504 OA
ATOM     19  H   UNL     1     123.975 122.479 120.029  1.00  0.00     0.293 HD
ENDBRANCH  15  18
BRANCH  17  20
ATOM     20  O   UNL     1     123.646 120.634 123.255  1.00  0.00    -0.504 OA
ATOM     21  H   UNL     1     123.887 120.057 122.457  1.00  0.00     0.293 HD
ENDBRANCH  17  20
ENDBRANCH   1  12
BRANCH   2  22
ATOM     22  O   UNL     1     122.844 126.510 125.080  1.00  0.00    -0.502 OA
ATOM     23  H   UNL     1     121.849 126.670 125.184  1.00  0.00     0.293 HD
ENDBRANCH   2  22
BRANCH   6  24
ATOM     24  O   UNL     1     124.247 127.799 130.054  1.00  0.00    -0.507 OA
ATOM     25  H   UNL     1     123.290 128.046 130.248  1.00  0.00     0.293 HD
ENDBRANCH   6  24
BRANCH   8  26
ATOM     26  O   UNL     1     126.602 123.836 131.341  1.00  0.00    -0.508 OA
ATOM     27  H   UNL     1     126.156 123.099 131.875  1.00  0.00     0.293 HD
ENDBRANCH   8  26
TORSDOF 6
ENDMDL
