MODEL 1
REMARK VINA RESULT:    -3.653      0.000      0.000
REMARK INTER + INTRA:          -5.204
REMARK INTER:                  -4.934
REMARK INTRA:                  -0.270
REMARK UNBOUND:                -0.270
REMARK SMILES C=C1C(=O)O[C@@H]2[C@@H]1CCC(C)=CCC[C@@]1(C)O[C@@H]21
REMARK SMILES IDX 6 1 7 2 2 3 1 4 3 5 4 6 5 7 8 8 9 9 10 10 11 11 12 12 18 14
REMARK SMILES IDX 15 15 17 16 16 17 14 18 13 19
REMARK H PARENT
REMARK Flexibility Score: 70.00
ROOT
ATOM      1  C   UNL     1      -5.332  91.516 -11.612  1.00  0.00     0.216 C 
ATOM      2  C   UNL     1      -4.138  91.997 -12.518  1.00  0.00     0.070 C 
ATOM      3  C   UNL     1      -4.325  91.201 -13.778  1.00  0.00     0.037 C 
ATOM      4  C   UNL     1      -3.484  91.167 -14.812  1.00  0.00     0.021 C 
ATOM      5  C   UNL     1      -5.514  90.403 -13.638  1.00  0.00     0.334 C 
ATOM      6  O   UNL     1      -5.982  89.624 -14.508  1.00  0.00    -0.247 OA
ATOM      7  O   UNL     1      -6.082  90.593 -12.400  1.00  0.00    -0.455 OA
ENDROOT
BRANCH   2   8
ATOM      8  C   UNL     1      -4.187  93.526 -12.804  1.00  0.00     0.017 C 
BRANCH   8   9
ATOM      9  C   UNL     1      -3.552  94.449 -11.731  1.00  0.00     0.031 C 
BRANCH   9  10
ATOM     10  C   UNL     1      -4.487  95.382 -10.973  1.00  0.00    -0.077 C 
ATOM     11  C   UNL     1      -5.008  96.612 -11.673  1.00  0.00     0.039 C 
ATOM     12  C   UNL     1      -4.947  95.128  -9.728  1.00  0.00    -0.028 CG0
ATOM     13  G   UNL     1      -4.493  93.991  -8.848  1.00  0.00     0.000 G0
ENDBRANCH   9  10
ENDBRANCH   8   9
ENDBRANCH   2   8
BRANCH   1  14
ATOM     14  C   UNL     1      -4.824  90.790 -10.361  1.00  0.00     0.192 C 
ATOM     15  C   UNL     1      -4.906  91.418  -9.006  1.00  0.00     0.096 C 
ATOM     16  O   UNL     1      -5.892  90.527  -9.477  1.00  0.00    -0.362 OA
ATOM     17  C   UNL     1      -4.096  90.767  -7.880  1.00  0.00     0.045 C 
BRANCH  15  18
ATOM     18  C   UNL     1      -5.497  92.830  -8.753  1.00  0.00     0.042 C 
BRANCH  18  19
ATOM     19  C   UNL     1      -4.488  93.997  -8.834  1.00  0.00     0.030 CG0
ATOM     20  G   UNL     1      -4.955  95.117  -9.729  1.00  0.00     0.000 G0
ENDBRANCH  18  19
ENDBRANCH  15  18
ENDBRANCH   1  14
TORSDOF 0
ENDMDL
MODEL 2
REMARK VINA RESULT:    -3.443      5.784      8.332
REMARK INTER + INTRA:          -4.922
REMARK INTER:                  -4.676
REMARK INTRA:                  -0.245
REMARK UNBOUND:                -0.270
REMARK SMILES C=C1C(=O)O[C@@H]2[C@@H]1CCC(C)=CCC[C@@]1(C)O[C@@H]21
REMARK SMILES IDX 6 1 7 2 2 3 1 4 3 5 4 6 5 7 8 8 9 9 10 10 11 11 12 12 18 14
REMARK SMILES IDX 15 15 17 16 16 17 14 18 13 19
REMARK H PARENT
REMARK Flexibility Score: 70.00
ROOT
ATOM      1  C   UNL     1      -3.771  92.128 -17.221  1.00  0.00     0.216 C 
ATOM      2  C   UNL     1      -5.214  91.541 -17.007  1.00  0.00     0.070 C 
ATOM      3  C   UNL     1      -5.120  90.886 -15.659  1.00  0.00     0.037 C 
ATOM      4  C   UNL     1      -6.062  90.137 -15.085  1.00  0.00     0.021 C 
ATOM      5  C   UNL     1      -3.800  91.119 -15.134  1.00  0.00     0.334 C 
ATOM      6  O   UNL     1      -3.374  90.725 -14.017  1.00  0.00    -0.247 OA
ATOM      7  O   UNL     1      -3.041  91.831 -16.032  1.00  0.00    -0.455 OA
ENDROOT
BRANCH   2   8
ATOM      8  C   UNL     1      -6.315  92.642 -17.022  1.00  0.00     0.017 C 
BRANCH   8   9
ATOM      9  C   UNL     1      -6.941  92.971 -18.403  1.00  0.00     0.031 C 
BRANCH   9  10
ATOM     10  C   UNL     1      -6.713  94.371 -18.955  1.00  0.00    -0.077 C 
ATOM     11  C   UNL     1      -7.527  95.513 -18.399  1.00  0.00     0.039 C 
ATOM     12  C   UNL     1      -5.756  94.669 -19.864  1.00  0.00    -0.028 CG0
ATOM     13  G   UNL     1      -4.893  93.661 -20.580  1.00  0.00     0.000 G0
ENDBRANCH   9  10
ENDBRANCH   8   9
ENDBRANCH   2   8
BRANCH   1  14
ATOM     14  C   UNL     1      -3.067  91.459 -18.407  1.00  0.00     0.192 C 
ATOM     15  C   UNL     1      -2.917  92.156 -19.722  1.00  0.00     0.096 C 
ATOM     16  O   UNL     1      -1.896  92.168 -18.748  1.00  0.00    -0.362 OA
ATOM     17  C   UNL     1      -2.495  91.305 -20.924  1.00  0.00     0.045 C 
BRANCH  15  18
ATOM     18  C   UNL     1      -3.451  93.587 -19.996  1.00  0.00     0.042 C 
BRANCH  18  19
ATOM     19  C   UNL     1      -4.883  93.663 -20.569  1.00  0.00     0.030 CG0
ATOM     20  G   UNL     1      -5.755  94.655 -19.841  1.00  0.00     0.000 G0
ENDBRANCH  18  19
ENDBRANCH  15  18
ENDBRANCH   1  14
TORSDOF 0
ENDMDL
MODEL 3
REMARK VINA RESULT:    -3.363      3.934      5.464
REMARK INTER + INTRA:          -4.813
REMARK INTER:                  -4.565
REMARK INTRA:                  -0.248
REMARK UNBOUND:                -0.270
REMARK SMILES C=C1C(=O)O[C@@H]2[C@@H]1CCC(C)=CCC[C@@]1(C)O[C@@H]21
REMARK SMILES IDX 6 1 7 2 2 3 1 4 3 5 4 6 5 7 8 8 9 9 10 10 11 11 12 12 18 14
REMARK SMILES IDX 15 15 17 16 16 17 14 18 13 19
REMARK H PARENT
REMARK Flexibility Score: 70.00
ROOT
ATOM      1  C   UNL     1      -4.226  91.939 -16.365  1.00  0.00     0.216 C 
ATOM      2  C   UNL     1      -3.707  93.322 -16.906  1.00  0.00     0.070 C 
ATOM      3  C   UNL     1      -2.762  92.925 -18.003  1.00  0.00     0.037 C 
ATOM      4  C   UNL     1      -1.971  93.750 -18.690  1.00  0.00     0.021 C 
ATOM      5  C   UNL     1      -2.779  91.491 -18.120  1.00  0.00     0.334 C 
ATOM      6  O   UNL     1      -2.116  90.813 -18.948  1.00  0.00    -0.247 OA
ATOM      7  O   UNL     1      -3.620  90.939 -17.182  1.00  0.00    -0.455 OA
ENDROOT
BRANCH   2   8
ATOM      8  C   UNL     1      -4.858  94.219 -17.449  1.00  0.00     0.017 C 
BRANCH   8   9
ATOM      9  C   UNL     1      -5.828  94.810 -16.393  1.00  0.00     0.031 C 
BRANCH   9  10
ATOM     10  C   UNL     1      -7.232  94.223 -16.332  1.00  0.00    -0.077 C 
ATOM     11  C   UNL     1      -8.172  94.466 -17.486  1.00  0.00     0.039 C 
ATOM     12  C   UNL     1      -7.662  93.419 -15.333  1.00  0.00    -0.028 CG0
ATOM     13  G   UNL     1      -6.896  93.116 -14.070  1.00  0.00     0.000 G0
ENDBRANCH   9  10
ENDBRANCH   8   9
ENDBRANCH   2   8
BRANCH   1  14
ATOM     14  C   UNL     1      -3.792  91.710 -14.912  1.00  0.00     0.192 C 
ATOM     15  C   UNL     1      -4.794  91.589 -13.807  1.00  0.00     0.096 C 
ATOM     16  O   UNL     1      -4.252  90.458 -14.453  1.00  0.00    -0.362 OA
ATOM     17  C   UNL     1      -4.270  91.684 -12.371  1.00  0.00     0.045 C 
BRANCH  15  18
ATOM     18  C   UNL     1      -6.326  91.684 -14.029  1.00  0.00     0.042 C 
BRANCH  18  19
ATOM     19  C   UNL     1      -6.905  93.116 -14.067  1.00  0.00     0.030 CG0
ATOM     20  G   UNL     1      -7.664  93.409 -15.336  1.00  0.00     0.000 G0
ENDBRANCH  18  19
ENDBRANCH  15  18
ENDBRANCH   1  14
TORSDOF 0
ENDMDL
MODEL 4
REMARK VINA RESULT:    -3.305      1.817      3.831
REMARK INTER + INTRA:          -4.735
REMARK INTER:                  -4.482
REMARK INTRA:                  -0.254
REMARK UNBOUND:                -0.270
REMARK SMILES C=C1C(=O)O[C@@H]2[C@@H]1CCC(C)=CCC[C@@]1(C)O[C@@H]21
REMARK SMILES IDX 6 1 7 2 2 3 1 4 3 5 4 6 5 7 8 8 9 9 10 10 11 11 12 12 18 14
REMARK SMILES IDX 15 15 17 16 16 17 14 18 13 19
REMARK H PARENT
REMARK Flexibility Score: 70.00
ROOT
ATOM      1  C   UNL     1      -4.230  92.978 -11.846  1.00  0.00     0.216 C 
ATOM      2  C   UNL     1      -5.352  91.885 -11.702  1.00  0.00     0.070 C 
ATOM      3  C   UNL     1      -5.429  91.291 -13.079  1.00  0.00     0.037 C 
ATOM      4  C   UNL     1      -6.327  90.399 -13.497  1.00  0.00     0.021 C 
ATOM      5  C   UNL     1      -4.432  91.924 -13.901  1.00  0.00     0.334 C 
ATOM      6  O   UNL     1      -4.204  91.663 -15.111  1.00  0.00    -0.247 OA
ATOM      7  O   UNL     1      -3.752  92.882 -13.187  1.00  0.00    -0.455 OA
ENDROOT
BRANCH   2   8
ATOM      8  C   UNL     1      -4.997  90.803 -10.640  1.00  0.00     0.017 C 
BRANCH   8   9
ATOM      9  C   UNL     1      -5.557  91.029  -9.211  1.00  0.00     0.031 C 
BRANCH   9  10
ATOM     10  C   UNL     1      -4.546  91.227  -8.091  1.00  0.00    -0.077 C 
ATOM     11  C   UNL     1      -3.890  90.013  -7.481  1.00  0.00     0.039 C 
ATOM     12  C   UNL     1      -4.135  92.441  -7.662  1.00  0.00    -0.028 CG0
ATOM     13  G   UNL     1      -4.717  93.761  -8.101  1.00  0.00     0.000 G0
ENDBRANCH   9  10
ENDBRANCH   8   9
ENDBRANCH   2   8
BRANCH   1  14
ATOM     14  C   UNL     1      -4.793  94.387 -11.628  1.00  0.00     0.192 C 
ATOM     15  C   UNL     1      -4.607  95.111 -10.332  1.00  0.00     0.096 C 
ATOM     16  O   UNL     1      -3.745  95.310 -11.430  1.00  0.00    -0.362 OA
ATOM     17  C   UNL     1      -5.464  96.358 -10.095  1.00  0.00     0.045 C 
BRANCH  15  18
ATOM     18  C   UNL     1      -3.846  94.511  -9.120  1.00  0.00     0.042 C 
BRANCH  18  19
ATOM     19  C   UNL     1      -4.721  93.766  -8.088  1.00  0.00     0.030 CG0
ATOM     20  G   UNL     1      -4.136  92.442  -7.669  1.00  0.00     0.000 G0
ENDBRANCH  18  19
ENDBRANCH  15  18
ENDBRANCH   1  14
TORSDOF 0
ENDMDL
MODEL 5
REMARK VINA RESULT:    -3.266      2.860      5.423
REMARK INTER + INTRA:          -4.682
REMARK INTER:                  -4.442
REMARK INTRA:                  -0.241
REMARK UNBOUND:                -0.270
REMARK SMILES C=C1C(=O)O[C@@H]2[C@@H]1CCC(C)=CCC[C@@]1(C)O[C@@H]21
REMARK SMILES IDX 6 1 7 2 2 3 1 4 3 5 4 6 5 7 8 8 9 9 10 10 11 11 12 12 18 14
REMARK SMILES IDX 15 15 17 16 16 17 14 18 13 19
REMARK H PARENT
REMARK Flexibility Score: 70.00
ROOT
ATOM      1  C   UNL     1      -5.824  90.723 -11.602  1.00  0.00     0.216 C 
ATOM      2  C   UNL     1      -5.260  92.171 -11.845  1.00  0.00     0.070 C 
ATOM      3  C   UNL     1      -4.886  92.627 -10.464  1.00  0.00     0.037 C 
ATOM      4  C   UNL     1      -4.472  93.850 -10.129  1.00  0.00     0.021 C 
ATOM      5  C   UNL     1      -5.148  91.551  -9.545  1.00  0.00     0.334 C 
ATOM      6  O   UNL     1      -4.939  91.577  -8.304  1.00  0.00    -0.247 OA
ATOM      7  O   UNL     1      -5.680  90.469 -10.206  1.00  0.00    -0.455 OA
ENDROOT
BRANCH   2   8
ATOM      8  C   UNL     1      -4.027  92.179 -12.794  1.00  0.00     0.017 C 
BRANCH   8   9
ATOM      9  C   UNL     1      -4.281  92.647 -14.251  1.00  0.00     0.031 C 
BRANCH   9  10
ATOM     10  C   UNL     1      -4.024  91.638 -15.362  1.00  0.00    -0.077 C 
ATOM     11  C   UNL     1      -2.626  91.506 -15.913  1.00  0.00     0.039 C 
ATOM     12  C   UNL     1      -4.965  90.788 -15.830  1.00  0.00    -0.028 CG0
ATOM     13  G   UNL     1      -6.424  90.812 -15.453  1.00  0.00     0.000 G0
ENDBRANCH   9  10
ENDBRANCH   8   9
ENDBRANCH   2   8
BRANCH   1  14
ATOM     14  C   UNL     1      -7.312  90.636 -11.963  1.00  0.00     0.192 C 
ATOM     15  C   UNL     1      -7.764  90.155 -13.305  1.00  0.00     0.096 C 
ATOM     16  O   UNL     1      -7.685  89.295 -12.190  1.00  0.00    -0.362 OA
ATOM     17  C   UNL     1      -9.227  90.403 -13.684  1.00  0.00     0.045 C 
BRANCH  15  18
ATOM     18  C   UNL     1      -6.788  89.712 -14.427  1.00  0.00     0.042 C 
BRANCH  18  19
ATOM     19  C   UNL     1      -6.424  90.802 -15.460  1.00  0.00     0.030 CG0
ATOM     20  G   UNL     1      -4.965  90.788 -15.839  1.00  0.00     0.000 G0
ENDBRANCH  18  19
ENDBRANCH  15  18
ENDBRANCH   1  14
TORSDOF 0
ENDMDL
MODEL 6
REMARK VINA RESULT:    -3.262      2.012      4.091
REMARK INTER + INTRA:          -4.677
REMARK INTER:                  -4.420
REMARK INTRA:                  -0.257
REMARK UNBOUND:                -0.270
REMARK SMILES C=C1C(=O)O[C@@H]2[C@@H]1CCC(C)=CCC[C@@]1(C)O[C@@H]21
REMARK SMILES IDX 6 1 7 2 2 3 1 4 3 5 4 6 5 7 8 8 9 9 10 10 11 11 12 12 18 14
REMARK SMILES IDX 15 15 17 16 16 17 14 18 13 19
REMARK H PARENT
REMARK Flexibility Score: 70.00
ROOT
ATOM      1  C   UNL     1      -4.742  91.581 -11.679  1.00  0.00     0.216 C 
ATOM      2  C   UNL     1      -5.981  90.682 -12.040  1.00  0.00     0.070 C 
ATOM      3  C   UNL     1      -5.751  90.348 -13.486  1.00  0.00     0.037 C 
ATOM      4  C   UNL     1      -6.601  89.700 -14.284  1.00  0.00     0.021 C 
ATOM      5  C   UNL     1      -4.501  90.934 -13.893  1.00  0.00     0.334 C 
ATOM      6  O   UNL     1      -3.986  90.845 -15.038  1.00  0.00    -0.247 OA
ATOM      7  O   UNL     1      -3.933  91.632 -12.853  1.00  0.00    -0.455 OA
ENDROOT
BRANCH   2   8
ATOM      8  C   UNL     1      -6.057  89.394 -11.169  1.00  0.00     0.017 C 
BRANCH   8   9
ATOM      9  C   UNL     1      -6.471  89.587  -9.686  1.00  0.00     0.031 C 
BRANCH   9  10
ATOM     10  C   UNL     1      -5.392  89.389  -8.630  1.00  0.00    -0.077 C 
ATOM     11  C   UNL     1      -4.863  87.998  -8.385  1.00  0.00     0.039 C 
ATOM     12  C   UNL     1      -4.815  90.407  -7.953  1.00  0.00    -0.028 CG0
ATOM     13  G   UNL     1      -5.251  91.849  -8.012  1.00  0.00     0.000 G0
ENDBRANCH   9  10
ENDBRANCH   8   9
ENDBRANCH   2   8
BRANCH   1  14
ATOM     14  C   UNL     1      -5.174  93.008 -11.321  1.00  0.00     0.192 C 
ATOM     15  C   UNL     1      -4.965  93.566  -9.949  1.00  0.00     0.096 C 
ATOM     16  O   UNL     1      -4.049  93.795 -10.997  1.00  0.00    -0.362 OA
ATOM     17  C   UNL     1      -5.706  94.860  -9.597  1.00  0.00     0.045 C 
BRANCH  15  18
ATOM     18  C   UNL     1      -4.309  92.767  -8.792  1.00  0.00     0.042 C 
BRANCH  18  19
ATOM     19  C   UNL     1      -5.262  91.850  -7.993  1.00  0.00     0.030 CG0
ATOM     20  G   UNL     1      -4.800  90.416  -7.952  1.00  0.00     0.000 G0
ENDBRANCH  18  19
ENDBRANCH  15  18
ENDBRANCH   1  14
TORSDOF 0
ENDMDL
MODEL 7
REMARK VINA RESULT:    -3.208      3.036      5.752
REMARK INTER + INTRA:          -4.604
REMARK INTER:                  -4.328
REMARK INTRA:                  -0.276
REMARK UNBOUND:                -0.270
REMARK SMILES C=C1C(=O)O[C@@H]2[C@@H]1CCC(C)=CCC[C@@]1(C)O[C@@H]21
REMARK SMILES IDX 6 1 7 2 2 3 1 4 3 5 4 6 5 7 8 8 9 9 10 10 11 11 12 12 18 14
REMARK SMILES IDX 15 15 17 16 16 17 14 18 13 19
REMARK H PARENT
REMARK Flexibility Score: 70.00
ROOT
ATOM      1  C   UNL     1      -5.121  92.465 -11.429  1.00  0.00     0.216 C 
ATOM      2  C   UNL     1      -4.953  91.444 -10.244  1.00  0.00     0.070 C 
ATOM      3  C   UNL     1      -4.500  92.314  -9.106  1.00  0.00     0.037 C 
ATOM      4  C   UNL     1      -4.105  91.888  -7.906  1.00  0.00     0.021 C 
ATOM      5  C   UNL     1      -4.468  93.678  -9.564  1.00  0.00     0.334 C 
ATOM      6  O   UNL     1      -4.148  94.678  -8.870  1.00  0.00    -0.247 OA
ATOM      7  O   UNL     1      -4.827  93.752 -10.889  1.00  0.00    -0.455 OA
ENDROOT
BRANCH   2   8
ATOM      8  C   UNL     1      -6.281  90.709  -9.898  1.00  0.00     0.017 C 
BRANCH   8   9
ATOM      9  C   UNL     1      -6.736  89.604 -10.888  1.00  0.00     0.031 C 
BRANCH   9  10
ATOM     10  C   UNL     1      -7.961  89.897 -11.743  1.00  0.00    -0.077 C 
ATOM     11  C   UNL     1      -9.312  89.966 -11.076  1.00  0.00     0.039 C 
ATOM     12  C   UNL     1      -7.898  90.184 -13.063  1.00  0.00    -0.028 CG0
ATOM     13  G   UNL     1      -6.656  90.101 -13.913  1.00  0.00     0.000 G0
ENDBRANCH   9  10
ENDBRANCH   8   9
ENDBRANCH   2   8
BRANCH   1  14
ATOM     14  C   UNL     1      -4.130  92.172 -12.561  1.00  0.00     0.192 C 
ATOM     15  C   UNL     1      -4.594  91.718 -13.909  1.00  0.00     0.096 C 
ATOM     16  O   UNL     1      -4.323  93.074 -13.629  1.00  0.00    -0.362 OA
ATOM     17  C   UNL     1      -3.538  91.149 -14.861  1.00  0.00     0.045 C 
BRANCH  15  18
ATOM     18  C   UNL     1      -6.088  91.506 -14.271  1.00  0.00     0.042 C 
BRANCH  18  19
ATOM     19  C   UNL     1      -6.664  90.114 -13.928  1.00  0.00     0.030 CG0
ATOM     20  G   UNL     1      -7.901  90.185 -13.071  1.00  0.00     0.000 G0
ENDBRANCH  18  19
ENDBRANCH  15  18
ENDBRANCH   1  14
TORSDOF 0
ENDMDL
MODEL 8
REMARK VINA RESULT:    -3.160      4.358      6.550
REMARK INTER + INTRA:          -4.539
REMARK INTER:                  -4.278
REMARK INTRA:                  -0.260
REMARK UNBOUND:                -0.270
REMARK SMILES C=C1C(=O)O[C@@H]2[C@@H]1CCC(C)=CCC[C@@]1(C)O[C@@H]21
REMARK SMILES IDX 6 1 7 2 2 3 1 4 3 5 4 6 5 7 8 8 9 9 10 10 11 11 12 12 18 14
REMARK SMILES IDX 15 15 17 16 16 17 14 18 13 19
REMARK H PARENT
REMARK Flexibility Score: 70.00
ROOT
ATOM      1  C   UNL     1      -4.702  91.979 -15.147  1.00  0.00     0.216 C 
ATOM      2  C   UNL     1      -6.179  91.464 -15.311  1.00  0.00     0.070 C 
ATOM      3  C   UNL     1      -6.471  90.833 -13.980  1.00  0.00     0.037 C 
ATOM      4  C   UNL     1      -7.567  90.141 -13.667  1.00  0.00     0.021 C 
ATOM      5  C   UNL     1      -5.323  91.014 -13.132  1.00  0.00     0.334 C 
ATOM      6  O   UNL     1      -5.221  90.622 -11.940  1.00  0.00    -0.247 OA
ATOM      7  O   UNL     1      -4.321  91.671 -13.807  1.00  0.00    -0.455 OA
ENDROOT
BRANCH   2   8
ATOM      8  C   UNL     1      -7.180  92.616 -15.620  1.00  0.00     0.017 C 
BRANCH   8   9
ATOM      9  C   UNL     1      -7.102  93.235 -17.041  1.00  0.00     0.031 C 
BRANCH   9  10
ATOM     10  C   UNL     1      -6.528  94.640 -17.158  1.00  0.00    -0.077 C 
ATOM     11  C   UNL     1      -7.315  95.796 -16.591  1.00  0.00     0.039 C 
ATOM     12  C   UNL     1      -5.305  94.907 -17.669  1.00  0.00    -0.028 CG0
ATOM     13  G   UNL     1      -4.404  93.901 -18.338  1.00  0.00     0.000 G0
ENDBRANCH   9  10
ENDBRANCH   8   9
ENDBRANCH   2   8
BRANCH   1  14
ATOM     14  C   UNL     1      -3.749  91.253 -16.104  1.00  0.00     0.192 C 
ATOM     15  C   UNL     1      -3.036  91.982 -17.199  1.00  0.00     0.096 C 
ATOM     16  O   UNL     1      -2.433  91.736 -15.947  1.00  0.00    -0.362 OA
ATOM     17  C   UNL     1      -2.368  91.136 -18.287  1.00  0.00     0.045 C 
BRANCH  15  18
ATOM     18  C   UNL     1      -3.196  93.504 -17.457  1.00  0.00     0.042 C 
BRANCH  18  19
ATOM     19  C   UNL     1      -4.397  93.905 -18.342  1.00  0.00     0.030 CG0
ATOM     20  G   UNL     1      -5.308  94.905 -17.678  1.00  0.00     0.000 G0
ENDBRANCH  18  19
ENDBRANCH  15  18
ENDBRANCH   1  14
TORSDOF 0
ENDMDL
MODEL 9
REMARK VINA RESULT:    -3.072      3.092      5.789
REMARK INTER + INTRA:          -4.420
REMARK INTER:                  -4.160
REMARK INTRA:                  -0.260
REMARK UNBOUND:                -0.270
REMARK SMILES C=C1C(=O)O[C@@H]2[C@@H]1CCC(C)=CCC[C@@]1(C)O[C@@H]21
REMARK SMILES IDX 6 1 7 2 2 3 1 4 3 5 4 6 5 7 8 8 9 9 10 10 11 11 12 12 18 14
REMARK SMILES IDX 15 15 17 16 16 17 14 18 13 19
REMARK H PARENT
REMARK Flexibility Score: 70.00
ROOT
ATOM      1  C   UNL     1      -5.269  92.979 -12.266  1.00  0.00     0.216 C 
ATOM      2  C   UNL     1      -4.839  92.392 -10.872  1.00  0.00     0.070 C 
ATOM      3  C   UNL     1      -4.631  93.620 -10.034  1.00  0.00     0.037 C 
ATOM      4  C   UNL     1      -4.137  93.648  -8.795  1.00  0.00     0.021 C 
ATOM      5  C   UNL     1      -4.959  94.773 -10.831  1.00  0.00     0.334 C 
ATOM      6  O   UNL     1      -4.913  95.970 -10.444  1.00  0.00    -0.247 OA
ATOM      7  O   UNL     1      -5.325  94.395 -12.101  1.00  0.00    -0.455 OA
ENDROOT
BRANCH   2   8
ATOM      8  C   UNL     1      -5.926  91.465 -10.254  1.00  0.00     0.017 C 
BRANCH   8   9
ATOM      9  C   UNL     1      -6.046  90.043 -10.862  1.00  0.00     0.031 C 
BRANCH   9  10
ATOM     10  C   UNL     1      -7.297  89.736 -11.674  1.00  0.00    -0.077 C 
ATOM     11  C   UNL     1      -8.615  89.597 -10.954  1.00  0.00     0.039 C 
ATOM     12  C   UNL     1      -7.311  89.662 -13.024  1.00  0.00    -0.028 CG0
ATOM     13  G   UNL     1      -6.092  89.708 -13.911  1.00  0.00     0.000 G0
ENDBRANCH   9  10
ENDBRANCH   8   9
ENDBRANCH   2   8
BRANCH   1  14
ATOM     14  C   UNL     1      -4.236  92.655 -13.351  1.00  0.00     0.192 C 
ATOM     15  C   UNL     1      -4.556  91.733 -14.485  1.00  0.00     0.096 C 
ATOM     16  O   UNL     1      -4.672  93.134 -14.605  1.00  0.00    -0.362 OA
ATOM     17  C   UNL     1      -3.384  91.221 -15.328  1.00  0.00     0.045 C 
BRANCH  15  18
ATOM     18  C   UNL     1      -5.933  91.037 -14.658  1.00  0.00     0.042 C 
BRANCH  18  19
ATOM     19  C   UNL     1      -6.098  89.695 -13.911  1.00  0.00     0.030 CG0
ATOM     20  G   UNL     1      -7.317  89.661 -13.026  1.00  0.00     0.000 G0
ENDBRANCH  18  19
ENDBRANCH  15  18
ENDBRANCH   1  14
TORSDOF 0
ENDMDL
