MODEL 1
REMARK VINA RESULT:    -4.325      0.000      0.000
REMARK INTER + INTRA:         -11.408
REMARK INTER:                  -9.129
REMARK INTRA:                  -2.279
REMARK UNBOUND:                -2.279
REMARK SMILES CCC(=O)CCCCC[C@H]1NC(=O)[C@@H]2CCCCN2C(=O)[C@H]([C@H](C)CC)NC(=O)[C@@H](Cc2cn(OC)c3ccccc23)NC1=O
REMARK SMILES IDX 9 1 10 2 44 3 43 4 45 6 30 7 28 8 27 9 29 11 22 12 23 14
REMARK SMILES IDX 24 15 25 16 26 17 31 18 32 19 33 20 42 21 34 22 37 23 41 24
REMARK SMILES IDX 38 25 40 26 39 27 35 28 36 29 11 30 12 31 13 33 14 34 19 35
REMARK SMILES IDX 15 36 18 37 16 38 17 39 20 40 21 41 8 43 7 44 6 45 5 46 3 47
REMARK SMILES IDX 4 48 2 49 1 50
REMARK H PARENT 43 5 27 10 11 32
REMARK Flexibility Score: 80.00
ROOT
ATOM      1  C   UNL     1      62.741  29.865  61.577  1.00  0.00     0.035 C 
ENDROOT
BRANCH   1   2
ATOM      2  C   UNL     1      61.616  29.056  60.897  1.00  0.00     0.171 C 
BRANCH   2   3
ATOM      3  C   UNL     1      60.334  29.861  60.900  1.00  0.00     0.243 C 
ATOM      4  N   UNL     1      59.046  29.255  61.063  1.00  0.00    -0.342 N 
ATOM      5  H   UNL     1      58.334  29.780  61.621  1.00  0.00     0.164 HD
ATOM      6  O   UNL     1      60.399  31.117  60.779  1.00  0.00    -0.273 OA
BRANCH   4   7
ATOM      7  C   UNL     1      58.586  28.120  60.255  1.00  0.00     0.175 C 
BRANCH   7   8
ATOM      8  C   UNL     1      58.104  27.008  61.146  1.00  0.00     0.243 C 
ATOM      9  N   UNL     1      58.820  25.765  61.177  1.00  0.00    -0.342 N 
ATOM     10  H   UNL     1      59.606  25.634  60.500  1.00  0.00     0.164 HD
ATOM     11  O   UNL     1      57.064  27.163  61.850  1.00  0.00    -0.273 OA
BRANCH   9  12
ATOM     12  C   UNL     1      58.681  24.808  62.280  1.00  0.00     0.174 CG0
ATOM     13  G   UNL     1      60.057  24.382  62.747  1.00  0.00     0.000 G0
BRANCH  12  14
ATOM     14  C   UNL     1      57.752  23.633  61.850  1.00  0.00     0.018 C 
ATOM     15  C   UNL     1      57.598  23.643  60.315  1.00  0.00     0.010 C 
BRANCH  14  16
ATOM     16  C   UNL     1      56.370  23.704  62.548  1.00  0.00     0.002 C 
ATOM     17  C   UNL     1      56.302  22.897  63.844  1.00  0.00     0.004 C 
ENDBRANCH  14  16
ENDBRANCH  12  14
ENDBRANCH   9  12
ENDBRANCH   7   8
BRANCH   7  18
ATOM     18  C   UNL     1      57.464  28.564  59.302  1.00  0.00     0.073 C 
BRANCH  18  19
ATOM     19  C   UNL     1      58.036  29.205  58.068  1.00  0.00    -0.016 A 
ATOM     20  C   UNL     1      57.959  30.551  57.741  1.00  0.00     0.134 A 
ATOM     21  C   UNL     1      58.612  28.585  56.977  1.00  0.00     0.006 A 
ATOM     22  N   UNL     1      58.473  30.771  56.511  1.00  0.00    -0.191 N 
ATOM     23  C   UNL     1      58.872  29.560  56.036  1.00  0.00     0.087 A 
ATOM     24  C   UNL     1      58.899  27.238  56.753  1.00  0.00     0.011 A 
ATOM     25  C   UNL     1      59.448  29.219  54.800  1.00  0.00     0.030 A 
ATOM     26  C   UNL     1      59.481  26.881  55.527  1.00  0.00     0.001 A 
ATOM     27  C   UNL     1      59.752  27.866  54.555  1.00  0.00     0.002 A 
BRANCH  22  28
ATOM     28  O   UNL     1      58.531  32.039  55.952  1.00  0.00    -0.417 OA
ATOM     29  C   UNL     1      57.587  33.078  56.180  1.00  0.00     0.313 C 
ENDBRANCH  22  28
ENDBRANCH  18  19
ENDBRANCH   7  18
ENDBRANCH   4   7
ENDBRANCH   2   3
BRANCH   2  30
ATOM     30  N   UNL     1      61.438  27.776  61.597  1.00  0.00    -0.343 N 
ATOM     31  C   UNL     1      62.354  26.678  61.456  1.00  0.00     0.243 C 
ATOM     32  H   UNL     1      60.685  27.713  62.324  1.00  0.00     0.164 HD
ATOM     33  O   UNL     1      63.188  26.674  60.512  1.00  0.00    -0.273 OA
BRANCH  31  34
ATOM     34  C   UNL     1      62.277  25.501  62.403  1.00  0.00     0.174 C 
ATOM     35  N   UNL     1      61.243  24.550  61.961  1.00  0.00    -0.329 N 
ATOM     36  C   UNL     1      63.634  24.781  62.573  1.00  0.00     0.035 C 
ATOM     37  C   UNL     1      61.523  23.663  60.828  1.00  0.00     0.120 C 
ATOM     38  C   UNL     1      63.973  23.846  61.399  1.00  0.00     0.004 C 
ATOM     39  C   UNL     1      62.819  22.891  61.086  1.00  0.00     0.022 C 
BRANCH  35  40
ATOM     40  C   UNL     1      60.061  24.366  62.759  1.00  0.00     0.246 CG0
ATOM     41  O   UNL     1      60.169  23.871  63.915  1.00  0.00    -0.272 OA
ATOM     42  G   UNL     1      58.698  24.811  62.273  1.00  0.00     0.000 G0
ENDBRANCH  35  40
ENDBRANCH  31  34
ENDBRANCH   2  30
ENDBRANCH   1   2
BRANCH   1  43
ATOM     43  C   UNL     1      63.986  30.021  60.693  1.00  0.00     0.003 C 
BRANCH  43  44
ATOM     44  C   UNL     1      64.357  31.506  60.550  1.00  0.00     0.001 C 
BRANCH  44  45
ATOM     45  C   UNL     1      63.284  32.324  59.816  1.00  0.00     0.008 C 
BRANCH  45  46
ATOM     46  C   UNL     1      63.718  33.766  59.532  1.00  0.00     0.075 C 
BRANCH  46  47
ATOM     47  C   UNL     1      63.511  34.625  60.753  1.00  0.00     0.132 C 
ATOM     48  O   UNL     1      62.411  35.124  60.949  1.00  0.00    -0.300 OA
BRANCH  47  49
ATOM     49  C   UNL     1      64.660  34.946  61.676  1.00  0.00     0.072 C 
ATOM     50  C   UNL     1      65.648  35.940  61.066  1.00  0.00     0.012 C 
ENDBRANCH  47  49
ENDBRANCH  46  47
ENDBRANCH  45  46
ENDBRANCH  44  45
ENDBRANCH  43  44
ENDBRANCH   1  43
TORSDOF 12
ENDMDL
MODEL 2
REMARK VINA RESULT:    -4.290      1.921      2.900
REMARK INTER + INTRA:         -11.335
REMARK INTER:                  -8.533
REMARK INTRA:                  -2.801
REMARK UNBOUND:                -2.279
REMARK SMILES CCC(=O)CCCCC[C@H]1NC(=O)[C@@H]2CCCCN2C(=O)[C@H]([C@H](C)CC)NC(=O)[C@@H](Cc2cn(OC)c3ccccc23)NC1=O
REMARK SMILES IDX 9 1 10 2 44 3 43 4 45 6 30 7 28 8 27 9 29 11 22 12 23 14
REMARK SMILES IDX 24 15 25 16 26 17 31 18 32 19 33 20 42 21 34 22 37 23 41 24
REMARK SMILES IDX 38 25 40 26 39 27 35 28 36 29 11 30 12 31 13 33 14 34 19 35
REMARK SMILES IDX 15 36 18 37 16 38 17 39 20 40 21 41 8 43 7 44 6 45 5 46 3 47
REMARK SMILES IDX 4 48 2 49 1 50
REMARK H PARENT 43 5 27 10 11 32
REMARK Flexibility Score: 80.00
ROOT
ATOM      1  C   UNL     1      62.616  30.021  61.623  1.00  0.00     0.035 C 
ENDROOT
BRANCH   1   2
ATOM      2  C   UNL     1      61.560  29.121  60.944  1.00  0.00     0.171 C 
BRANCH   2   3
ATOM      3  C   UNL     1      60.254  29.876  60.815  1.00  0.00     0.243 C 
ATOM      4  N   UNL     1      58.980  29.242  60.985  1.00  0.00    -0.342 N 
ATOM      5  H   UNL     1      58.228  29.794  61.458  1.00  0.00     0.164 HD
ATOM      6  O   UNL     1      60.283  31.115  60.571  1.00  0.00    -0.273 OA
BRANCH   4   7
ATOM      7  C   UNL     1      58.593  28.017  60.277  1.00  0.00     0.175 C 
BRANCH   7   8
ATOM      8  C   UNL     1      58.095  26.987  61.254  1.00  0.00     0.243 C 
ATOM      9  N   UNL     1      58.582  25.640  61.172  1.00  0.00    -0.342 N 
ATOM     10  H   UNL     1      59.201  25.389  60.367  1.00  0.00     0.164 HD
ATOM     11  O   UNL     1      57.239  27.303  62.130  1.00  0.00    -0.273 OA
BRANCH   9  12
ATOM     12  C   UNL     1      58.481  24.701  62.294  1.00  0.00     0.174 CG0
ATOM     13  G   UNL     1      59.840  24.086  62.554  1.00  0.00     0.000 G0
BRANCH  12  14
ATOM     14  C   UNL     1      57.346  23.668  62.021  1.00  0.00     0.018 C 
ATOM     15  C   UNL     1      57.199  23.466  60.499  1.00  0.00     0.010 C 
BRANCH  14  16
ATOM     16  C   UNL     1      56.002  24.103  62.657  1.00  0.00     0.002 C 
ATOM     17  C   UNL     1      55.473  23.113  63.696  1.00  0.00     0.004 C 
ENDBRANCH  14  16
ENDBRANCH  12  14
ENDBRANCH   9  12
ENDBRANCH   7   8
BRANCH   7  18
ATOM     18  C   UNL     1      57.510  28.326  59.230  1.00  0.00     0.073 C 
BRANCH  18  19
ATOM     19  C   UNL     1      57.205  27.108  58.404  1.00  0.00    -0.016 A 
ATOM     20  C   UNL     1      57.967  26.630  57.347  1.00  0.00     0.134 A 
ATOM     21  C   UNL     1      56.069  26.322  58.435  1.00  0.00     0.006 A 
ATOM     22  N   UNL     1      57.349  25.587  56.751  1.00  0.00    -0.191 N 
ATOM     23  C   UNL     1      56.177  25.398  57.416  1.00  0.00     0.087 A 
ATOM     24  C   UNL     1      54.957  26.379  59.274  1.00  0.00     0.011 A 
ATOM     25  C   UNL     1      55.150  24.466  57.191  1.00  0.00     0.030 A 
ATOM     26  C   UNL     1      53.925  25.451  59.068  1.00  0.00     0.001 A 
ATOM     27  C   UNL     1      54.020  24.501  58.031  1.00  0.00     0.002 A 
BRANCH  22  28
ATOM     28  O   UNL     1      57.910  24.916  55.674  1.00  0.00    -0.417 OA
ATOM     29  C   UNL     1      58.616  25.531  54.604  1.00  0.00     0.313 C 
ENDBRANCH  22  28
ENDBRANCH  18  19
ENDBRANCH   7  18
ENDBRANCH   4   7
ENDBRANCH   2   3
BRANCH   2  30
ATOM     30  N   UNL     1      61.384  27.891  61.727  1.00  0.00    -0.343 N 
ATOM     31  C   UNL     1      61.894  26.617  61.300  1.00  0.00     0.243 C 
ATOM     32  H   UNL     1      60.984  27.974  62.694  1.00  0.00     0.164 HD
ATOM     33  O   UNL     1      62.264  26.458  60.107  1.00  0.00    -0.273 OA
BRANCH  31  34
ATOM     34  C   UNL     1      61.928  25.452  62.265  1.00  0.00     0.174 C 
ATOM     35  N   UNL     1      61.025  24.381  61.813  1.00  0.00    -0.329 N 
ATOM     36  C   UNL     1      63.354  24.898  62.483  1.00  0.00     0.035 C 
ATOM     37  C   UNL     1      61.438  23.516  60.703  1.00  0.00     0.120 C 
ATOM     38  C   UNL     1      63.833  23.993  61.335  1.00  0.00     0.004 C 
ATOM     39  C   UNL     1      62.807  22.906  61.008  1.00  0.00     0.022 C 
BRANCH  35  40
ATOM     40  C   UNL     1      59.850  24.072  62.583  1.00  0.00     0.246 CG0
ATOM     41  O   UNL     1      59.949  23.295  63.572  1.00  0.00    -0.272 OA
ATOM     42  G   UNL     1      58.509  24.704  62.275  1.00  0.00     0.000 G0
ENDBRANCH  35  40
ENDBRANCH  31  34
ENDBRANCH   2  30
ENDBRANCH   1   2
BRANCH   1  43
ATOM     43  C   UNL     1      63.926  30.113  60.829  1.00  0.00     0.003 C 
BRANCH  43  44
ATOM     44  C   UNL     1      63.647  30.575  59.391  1.00  0.00     0.001 C 
BRANCH  44  45
ATOM     45  C   UNL     1      63.925  32.070  59.176  1.00  0.00     0.008 C 
BRANCH  45  46
ATOM     46  C   UNL     1      64.140  32.836  60.487  1.00  0.00     0.075 C 
BRANCH  46  47
ATOM     47  C   UNL     1      63.216  34.024  60.557  1.00  0.00     0.132 C 
ATOM     48  O   UNL     1      62.007  33.838  60.534  1.00  0.00    -0.300 OA
BRANCH  47  49
ATOM     49  C   UNL     1      63.763  35.429  60.561  1.00  0.00     0.072 C 
ATOM     50  C   UNL     1      62.829  36.425  61.250  1.00  0.00     0.012 C 
ENDBRANCH  47  49
ENDBRANCH  46  47
ENDBRANCH  45  46
ENDBRANCH  44  45
ENDBRANCH  43  44
ENDBRANCH   1  43
TORSDOF 12
ENDMDL
MODEL 3
REMARK VINA RESULT:    -4.130      1.501      2.104
REMARK INTER + INTRA:         -10.996
REMARK INTER:                  -8.079
REMARK INTRA:                  -2.917
REMARK UNBOUND:                -2.279
REMARK SMILES CCC(=O)CCCCC[C@H]1NC(=O)[C@@H]2CCCCN2C(=O)[C@H]([C@H](C)CC)NC(=O)[C@@H](Cc2cn(OC)c3ccccc23)NC1=O
REMARK SMILES IDX 9 1 10 2 44 3 43 4 45 6 30 7 28 8 27 9 29 11 22 12 23 14
REMARK SMILES IDX 24 15 25 16 26 17 31 18 32 19 33 20 42 21 34 22 37 23 41 24
REMARK SMILES IDX 38 25 40 26 39 27 35 28 36 29 11 30 12 31 13 33 14 34 19 35
REMARK SMILES IDX 15 36 18 37 16 38 17 39 20 40 21 41 8 43 7 44 6 45 5 46 3 47
REMARK SMILES IDX 4 48 2 49 1 50
REMARK H PARENT 43 5 27 10 11 32
REMARK Flexibility Score: 80.00
ROOT
ATOM      1  C   UNL     1      62.800  29.941  61.625  1.00  0.00     0.035 C 
ENDROOT
BRANCH   1   2
ATOM      2  C   UNL     1      61.705  29.094  60.940  1.00  0.00     0.171 C 
BRANCH   2   3
ATOM      3  C   UNL     1      60.428  29.902  60.833  1.00  0.00     0.243 C 
ATOM      4  N   UNL     1      59.131  29.314  60.993  1.00  0.00    -0.342 N 
ATOM      5  H   UNL     1      58.402  29.884  61.482  1.00  0.00     0.164 HD
ATOM      6  O   UNL     1      60.505  31.144  60.617  1.00  0.00    -0.273 OA
BRANCH   4   7
ATOM      7  C   UNL     1      58.695  28.122  60.259  1.00  0.00     0.175 C 
BRANCH   7   8
ATOM      8  C   UNL     1      58.155  27.092  61.214  1.00  0.00     0.243 C 
ATOM      9  N   UNL     1      58.681  25.757  61.187  1.00  0.00    -0.342 N 
ATOM     10  H   UNL     1      59.361  25.512  60.431  1.00  0.00     0.164 HD
ATOM     11  O   UNL     1      57.231  27.397  62.022  1.00  0.00    -0.273 OA
BRANCH   9  12
ATOM     12  C   UNL     1      58.523  24.830  62.312  1.00  0.00     0.174 CG0
ATOM     13  G   UNL     1      59.881  24.284  62.702  1.00  0.00     0.000 G0
BRANCH  12  14
ATOM     14  C   UNL     1      57.466  23.741  61.960  1.00  0.00     0.018 C 
ATOM     15  C   UNL     1      57.195  23.769  60.442  1.00  0.00     0.010 C 
BRANCH  14  16
ATOM     16  C   UNL     1      56.154  23.928  62.763  1.00  0.00     0.002 C 
ATOM     17  C   UNL     1      55.982  22.910  63.891  1.00  0.00     0.004 C 
ENDBRANCH  14  16
ENDBRANCH  12  14
ENDBRANCH   9  12
ENDBRANCH   7   8
BRANCH   7  18
ATOM     18  C   UNL     1      57.626  28.497  59.219  1.00  0.00     0.073 C 
BRANCH  18  19
ATOM     19  C   UNL     1      58.167  28.351  57.824  1.00  0.00    -0.016 A 
ATOM     20  C   UNL     1      58.133  27.196  57.056  1.00  0.00     0.134 A 
ATOM     21  C   UNL     1      58.908  29.263  57.099  1.00  0.00     0.006 A 
ATOM     22  N   UNL     1      58.807  27.375  55.900  1.00  0.00    -0.191 N 
ATOM     23  C   UNL     1      59.290  28.647  55.925  1.00  0.00     0.087 A 
ATOM     24  C   UNL     1      59.280  30.572  57.409  1.00  0.00     0.011 A 
ATOM     25  C   UNL     1      60.079  29.334  54.986  1.00  0.00     0.030 A 
ATOM     26  C   UNL     1      60.062  31.274  56.479  1.00  0.00     0.001 A 
ATOM     27  C   UNL     1      60.460  30.658  55.275  1.00  0.00     0.002 A 
BRANCH  22  28
ATOM     28  O   UNL     1      58.911  26.375  54.944  1.00  0.00    -0.417 OA
ATOM     29  C   UNL     1      58.169  26.321  53.732  1.00  0.00     0.313 C 
ENDBRANCH  22  28
ENDBRANCH  18  19
ENDBRANCH   7  18
ENDBRANCH   4   7
ENDBRANCH   2   3
BRANCH   2  30
ATOM     30  N   UNL     1      61.486  27.860  61.707  1.00  0.00    -0.343 N 
ATOM     31  C   UNL     1      62.125  26.616  61.378  1.00  0.00     0.243 C 
ATOM     32  H   UNL     1      60.943  27.925  62.602  1.00  0.00     0.164 HD
ATOM     33  O   UNL     1      62.676  26.472  60.254  1.00  0.00    -0.273 OA
BRANCH  31  34
ATOM     34  C   UNL     1      62.084  25.461  62.354  1.00  0.00     0.174 C 
ATOM     35  N   UNL     1      61.085  24.465  61.932  1.00  0.00    -0.329 N 
ATOM     36  C   UNL     1      63.463  24.791  62.547  1.00  0.00     0.035 C 
ATOM     37  C   UNL     1      61.400  23.559  60.823  1.00  0.00     0.120 C 
ATOM     38  C   UNL     1      63.839  23.840  61.399  1.00  0.00     0.004 C 
ATOM     39  C   UNL     1      62.719  22.839  61.105  1.00  0.00     0.022 C 
BRANCH  35  40
ATOM     40  C   UNL     1      59.905  24.261  62.729  1.00  0.00     0.246 CG0
ATOM     41  O   UNL     1      60.002  23.644  63.826  1.00  0.00    -0.272 OA
ATOM     42  G   UNL     1      58.561  24.824  62.317  1.00  0.00     0.000 G0
ENDBRANCH  35  40
ENDBRANCH  31  34
ENDBRANCH   2  30
ENDBRANCH   1   2
BRANCH   1  43
ATOM     43  C   UNL     1      64.038  30.147  60.741  1.00  0.00     0.003 C 
BRANCH  43  44
ATOM     44  C   UNL     1      64.403  31.638  60.673  1.00  0.00     0.001 C 
BRANCH  44  45
ATOM     45  C   UNL     1      64.502  32.166  59.234  1.00  0.00     0.008 C 
BRANCH  45  46
ATOM     46  C   UNL     1      63.151  32.614  58.664  1.00  0.00     0.075 C 
BRANCH  46  47
ATOM     47  C   UNL     1      63.179  34.089  58.352  1.00  0.00     0.132 C 
ATOM     48  O   UNL     1      63.862  34.485  57.417  1.00  0.00    -0.300 OA
BRANCH  47  49
ATOM     49  C   UNL     1      62.454  35.078  59.228  1.00  0.00     0.072 C 
ATOM     50  C   UNL     1      61.847  34.430  60.474  1.00  0.00     0.012 C 
ENDBRANCH  47  49
ENDBRANCH  46  47
ENDBRANCH  45  46
ENDBRANCH  44  45
ENDBRANCH  43  44
ENDBRANCH   1  43
TORSDOF 12
ENDMDL
MODEL 4
REMARK VINA RESULT:    -4.081      3.039      8.079
REMARK INTER + INTRA:         -10.893
REMARK INTER:                  -8.737
REMARK INTRA:                  -2.156
REMARK UNBOUND:                -2.279
REMARK SMILES CCC(=O)CCCCC[C@H]1NC(=O)[C@@H]2CCCCN2C(=O)[C@H]([C@H](C)CC)NC(=O)[C@@H](Cc2cn(OC)c3ccccc23)NC1=O
REMARK SMILES IDX 9 1 10 2 44 3 43 4 45 6 30 7 28 8 27 9 29 11 22 12 23 14
REMARK SMILES IDX 24 15 25 16 26 17 31 18 32 19 33 20 42 21 34 22 37 23 41 24
REMARK SMILES IDX 38 25 40 26 39 27 35 28 36 29 11 30 12 31 13 33 14 34 19 35
REMARK SMILES IDX 15 36 18 37 16 38 17 39 20 40 21 41 8 43 7 44 6 45 5 46 3 47
REMARK SMILES IDX 4 48 2 49 1 50
REMARK H PARENT 43 5 27 10 11 32
REMARK Flexibility Score: 80.00
ROOT
ATOM      1  C   UNL     1      59.615  31.060  55.249  1.00  0.00     0.035 C 
ENDROOT
BRANCH   1   2
ATOM      2  C   UNL     1      59.248  30.958  56.745  1.00  0.00     0.171 C 
BRANCH   2   3
ATOM      3  C   UNL     1      60.510  30.820  57.572  1.00  0.00     0.243 C 
ATOM      4  N   UNL     1      60.592  29.954  58.711  1.00  0.00    -0.342 N 
ATOM      5  H   UNL     1      61.495  29.450  58.867  1.00  0.00     0.164 HD
ATOM      6  O   UNL     1      61.538  31.472  57.234  1.00  0.00    -0.273 OA
BRANCH   4   7
ATOM      7  C   UNL     1      59.617  29.977  59.807  1.00  0.00     0.175 C 
BRANCH   7   8
ATOM      8  C   UNL     1      59.095  28.590  60.067  1.00  0.00     0.243 C 
ATOM      9  N   UNL     1      57.683  28.380  60.206  1.00  0.00    -0.342 N 
ATOM     10  H   UNL     1      57.060  29.220  60.219  1.00  0.00     0.164 HD
ATOM     11  O   UNL     1      59.898  27.619  60.181  1.00  0.00    -0.273 OA
BRANCH   9  12
ATOM     12  C   UNL     1      57.068  27.058  60.050  1.00  0.00     0.174 CG0
ATOM     13  G   UNL     1      56.040  27.113  58.939  1.00  0.00     0.000 G0
BRANCH  12  14
ATOM     14  C   UNL     1      56.512  26.565  61.420  1.00  0.00     0.018 C 
ATOM     15  C   UNL     1      56.112  27.785  62.274  1.00  0.00     0.010 C 
BRANCH  14  16
ATOM     16  C   UNL     1      57.532  25.671  62.170  1.00  0.00     0.002 C 
ATOM     17  C   UNL     1      57.668  24.270  61.571  1.00  0.00     0.004 C 
ENDBRANCH  14  16
ENDBRANCH  12  14
ENDBRANCH   9  12
ENDBRANCH   7   8
BRANCH   7  18
ATOM     18  C   UNL     1      60.260  30.553  61.079  1.00  0.00     0.073 C 
BRANCH  18  19
ATOM     19  C   UNL     1      61.690  30.939  60.826  1.00  0.00    -0.016 A 
ATOM     20  C   UNL     1      62.785  30.091  60.896  1.00  0.00     0.134 A 
ATOM     21  C   UNL     1      62.205  32.204  60.618  1.00  0.00     0.006 A 
ATOM     22  N   UNL     1      63.933  30.784  60.726  1.00  0.00    -0.191 N 
ATOM     23  C   UNL     1      63.579  32.087  60.559  1.00  0.00     0.087 A 
ATOM     24  C   UNL     1      61.557  33.433  60.499  1.00  0.00     0.011 A 
ATOM     25  C   UNL     1      64.381  33.225  60.371  1.00  0.00     0.030 A 
ATOM     26  C   UNL     1      62.342  34.579  60.304  1.00  0.00     0.001 A 
ATOM     27  C   UNL     1      63.747  34.476  60.242  1.00  0.00     0.002 A 
BRANCH  22  28
ATOM     28  O   UNL     1      65.175  30.166  60.736  1.00  0.00    -0.417 OA
ATOM     29  C   UNL     1      65.974  29.918  59.587  1.00  0.00     0.313 C 
ENDBRANCH  22  28
ENDBRANCH  18  19
ENDBRANCH   7  18
ENDBRANCH   4   7
ENDBRANCH   2   3
BRANCH   2  30
ATOM     30  N   UNL     1      58.352  29.812  56.955  1.00  0.00    -0.343 N 
ATOM     31  C   UNL     1      56.926  29.950  57.061  1.00  0.00     0.243 C 
ATOM     32  H   UNL     1      58.761  28.848  56.895  1.00  0.00     0.164 HD
ATOM     33  O   UNL     1      56.418  31.086  57.260  1.00  0.00    -0.273 OA
BRANCH  31  34
ATOM     34  C   UNL     1      56.039  28.726  56.997  1.00  0.00     0.174 C 
ATOM     35  N   UNL     1      55.588  28.344  58.345  1.00  0.00    -0.329 N 
ATOM     36  C   UNL     1      54.827  28.915  56.057  1.00  0.00     0.035 C 
ATOM     37  C   UNL     1      54.525  29.120  58.992  1.00  0.00     0.120 C 
ATOM     38  C   UNL     1      53.691  29.735  56.693  1.00  0.00     0.004 C 
ATOM     39  C   UNL     1      53.306  29.192  58.071  1.00  0.00     0.022 C 
BRANCH  35  40
ATOM     40  C   UNL     1      56.049  27.111  58.925  1.00  0.00     0.246 CG0
ATOM     41  O   UNL     1      55.628  26.017  58.460  1.00  0.00    -0.272 OA
ATOM     42  G   UNL     1      57.077  27.092  60.037  1.00  0.00     0.000 G0
ENDBRANCH  35  40
ENDBRANCH  31  34
ENDBRANCH   2  30
ENDBRANCH   1   2
BRANCH   1  43
ATOM     43  C   UNL     1      59.334  29.766  54.473  1.00  0.00     0.003 C 
BRANCH  43  44
ATOM     44  C   UNL     1      58.604  30.080  53.158  1.00  0.00     0.001 C 
BRANCH  44  45
ATOM     45  C   UNL     1      57.150  30.526  53.370  1.00  0.00     0.008 C 
BRANCH  45  46
ATOM     46  C   UNL     1      56.128  29.465  52.946  1.00  0.00     0.075 C 
BRANCH  46  47
ATOM     47  C   UNL     1      55.140  30.051  51.970  1.00  0.00     0.132 C 
ATOM     48  O   UNL     1      54.512  31.051  52.289  1.00  0.00    -0.300 OA
BRANCH  47  49
ATOM     49  C   UNL     1      54.855  29.369  50.656  1.00  0.00     0.072 C 
ATOM     50  C   UNL     1      55.024  27.851  50.729  1.00  0.00     0.012 C 
ENDBRANCH  47  49
ENDBRANCH  46  47
ENDBRANCH  45  46
ENDBRANCH  44  45
ENDBRANCH  43  44
ENDBRANCH   1  43
TORSDOF 12
ENDMDL
MODEL 5
REMARK VINA RESULT:    -3.960      3.536      8.635
REMARK INTER + INTRA:         -10.637
REMARK INTER:                  -8.017
REMARK INTRA:                  -2.620
REMARK UNBOUND:                -2.279
REMARK SMILES CCC(=O)CCCCC[C@H]1NC(=O)[C@@H]2CCCCN2C(=O)[C@H]([C@H](C)CC)NC(=O)[C@@H](Cc2cn(OC)c3ccccc23)NC1=O
REMARK SMILES IDX 9 1 10 2 44 3 43 4 45 6 30 7 28 8 27 9 29 11 22 12 23 14
REMARK SMILES IDX 24 15 25 16 26 17 31 18 32 19 33 20 42 21 34 22 37 23 41 24
REMARK SMILES IDX 38 25 40 26 39 27 35 28 36 29 11 30 12 31 13 33 14 34 19 35
REMARK SMILES IDX 15 36 18 37 16 38 17 39 20 40 21 41 8 43 7 44 6 45 5 46 3 47
REMARK SMILES IDX 4 48 2 49 1 50
REMARK H PARENT 43 5 27 10 11 32
REMARK Flexibility Score: 80.00
ROOT
ATOM      1  C   UNL     1      59.349  27.561  53.843  1.00  0.00     0.035 C 
ENDROOT
BRANCH   1   2
ATOM      2  C   UNL     1      59.484  28.735  54.837  1.00  0.00     0.171 C 
BRANCH   2   3
ATOM      3  C   UNL     1      60.587  29.667  54.380  1.00  0.00     0.243 C 
ATOM      4  N   UNL     1      61.484  30.305  55.297  1.00  0.00    -0.342 N 
ATOM      5  H   UNL     1      62.480  30.414  54.998  1.00  0.00     0.164 HD
ATOM      6  O   UNL     1      60.741  29.873  53.143  1.00  0.00    -0.273 OA
BRANCH   4   7
ATOM      7  C   UNL     1      61.028  31.067  56.464  1.00  0.00     0.175 C 
BRANCH   7   8
ATOM      8  C   UNL     1      61.717  30.574  57.708  1.00  0.00     0.243 C 
ATOM      9  N   UNL     1      60.931  30.164  58.837  1.00  0.00    -0.342 N 
ATOM     10  H   UNL     1      59.897  30.312  58.796  1.00  0.00     0.164 HD
ATOM     11  O   UNL     1      62.980  30.540  57.764  1.00  0.00    -0.273 OA
BRANCH   9  12
ATOM     12  C   UNL     1      61.473  29.309  59.899  1.00  0.00     0.174 CG0
ATOM     13  G   UNL     1      60.636  28.051  60.001  1.00  0.00     0.000 G0
BRANCH  12  14
ATOM     14  C   UNL     1      61.587  30.118  61.225  1.00  0.00     0.018 C 
ATOM     15  C   UNL     1      60.862  31.469  61.061  1.00  0.00     0.010 C 
BRANCH  14  16
ATOM     16  C   UNL     1      63.063  30.326  61.650  1.00  0.00     0.002 C 
ATOM     17  C   UNL     1      64.066  29.979  60.550  1.00  0.00     0.004 C 
ENDBRANCH  14  16
ENDBRANCH  12  14
ENDBRANCH   9  12
ENDBRANCH   7   8
BRANCH   7  18
ATOM     18  C   UNL     1      61.301  32.566  56.262  1.00  0.00     0.073 C 
BRANCH  18  19
ATOM     19  C   UNL     1      60.643  33.378  57.343  1.00  0.00    -0.016 A 
ATOM     20  C   UNL     1      59.309  33.759  57.376  1.00  0.00     0.134 A 
ATOM     21  C   UNL     1      61.241  34.008  58.417  1.00  0.00     0.006 A 
ATOM     22  N   UNL     1      59.075  34.577  58.425  1.00  0.00    -0.191 N 
ATOM     23  C   UNL     1      60.265  34.737  59.066  1.00  0.00     0.087 A 
ATOM     24  C   UNL     1      62.570  34.000  58.841  1.00  0.00     0.011 A 
ATOM     25  C   UNL     1      60.587  35.504  60.198  1.00  0.00     0.030 A 
ATOM     26  C   UNL     1      62.908  34.756  59.974  1.00  0.00     0.001 A 
ATOM     27  C   UNL     1      61.922  35.506  60.648  1.00  0.00     0.002 A 
BRANCH  22  28
ATOM     28  O   UNL     1      57.814  35.088  58.695  1.00  0.00    -0.417 OA
ATOM     29  C   UNL     1      56.641  34.812  57.940  1.00  0.00     0.313 C 
ENDBRANCH  22  28
ENDBRANCH  18  19
ENDBRANCH   7  18
ENDBRANCH   4   7
ENDBRANCH   2   3
BRANCH   2  30
ATOM     30  N   UNL     1      59.758  28.212  56.183  1.00  0.00    -0.343 N 
ATOM     31  C   UNL     1      58.719  27.781  57.076  1.00  0.00     0.243 C 
ATOM     32  H   UNL     1      60.757  28.029  56.446  1.00  0.00     0.164 HD
ATOM     33  O   UNL     1      57.522  28.097  56.845  1.00  0.00    -0.273 OA
BRANCH  31  34
ATOM     34  C   UNL     1      59.068  27.000  58.324  1.00  0.00     0.174 C 
ATOM     35  N   UNL     1      59.306  27.914  59.454  1.00  0.00    -0.329 N 
ATOM     36  C   UNL     1      57.994  25.954  58.695  1.00  0.00     0.035 C 
ATOM     37  C   UNL     1      58.162  28.538  60.124  1.00  0.00     0.120 C 
ATOM     38  C   UNL     1      56.768  26.568  59.392  1.00  0.00     0.004 C 
ATOM     39  C   UNL     1      57.174  27.457  60.569  1.00  0.00     0.022 C 
BRANCH  35  40
ATOM     40  C   UNL     1      60.629  28.028  60.007  1.00  0.00     0.246 CG0
ATOM     41  O   UNL     1      61.153  27.025  60.564  1.00  0.00    -0.272 OA
ATOM     42  G   UNL     1      61.435  29.304  59.881  1.00  0.00     0.000 G0
ENDBRANCH  35  40
ENDBRANCH  31  34
ENDBRANCH   2  30
ENDBRANCH   1   2
BRANCH   1  43
ATOM     43  C   UNL     1      57.991  27.532  53.129  1.00  0.00     0.003 C 
BRANCH  43  44
ATOM     44  C   UNL     1      58.036  28.397  51.860  1.00  0.00     0.001 C 
BRANCH  44  45
ATOM     45  C   UNL     1      56.915  28.063  50.866  1.00  0.00     0.008 C 
BRANCH  45  46
ATOM     46  C   UNL     1      56.709  26.555  50.676  1.00  0.00     0.075 C 
BRANCH  46  47
ATOM     47  C   UNL     1      55.248  26.207  50.797  1.00  0.00     0.132 C 
ATOM     48  O   UNL     1      54.695  26.332  51.882  1.00  0.00    -0.300 OA
BRANCH  47  49
ATOM     49  C   UNL     1      54.493  25.625  49.629  1.00  0.00     0.072 C 
ATOM     50  C   UNL     1      53.014  26.017  49.627  1.00  0.00     0.012 C 
ENDBRANCH  47  49
ENDBRANCH  46  47
ENDBRANCH  45  46
ENDBRANCH  44  45
ENDBRANCH  43  44
ENDBRANCH   1  43
TORSDOF 12
ENDMDL
MODEL 6
REMARK VINA RESULT:    -3.955      4.632      8.987
REMARK INTER + INTRA:         -10.627
REMARK INTER:                  -7.365
REMARK INTRA:                  -3.262
REMARK UNBOUND:                -2.279
REMARK SMILES CCC(=O)CCCCC[C@H]1NC(=O)[C@@H]2CCCCN2C(=O)[C@H]([C@H](C)CC)NC(=O)[C@@H](Cc2cn(OC)c3ccccc23)NC1=O
REMARK SMILES IDX 9 1 10 2 44 3 43 4 45 6 30 7 28 8 27 9 29 11 22 12 23 14
REMARK SMILES IDX 24 15 25 16 26 17 31 18 32 19 33 20 42 21 34 22 37 23 41 24
REMARK SMILES IDX 38 25 40 26 39 27 35 28 36 29 11 30 12 31 13 33 14 34 19 35
REMARK SMILES IDX 15 36 18 37 16 38 17 39 20 40 21 41 8 43 7 44 6 45 5 46 3 47
REMARK SMILES IDX 4 48 2 49 1 50
REMARK H PARENT 43 5 27 10 11 32
REMARK Flexibility Score: 80.00
ROOT
ATOM      1  C   UNL     1      60.876  29.095  56.114  1.00  0.00     0.035 C 
ENDROOT
BRANCH   1   2
ATOM      2  C   UNL     1      59.646  29.088  55.181  1.00  0.00     0.171 C 
BRANCH   2   3
ATOM      3  C   UNL     1      59.975  29.820  53.897  1.00  0.00     0.243 C 
ATOM      4  N   UNL     1      59.022  30.648  53.218  1.00  0.00    -0.342 N 
ATOM      5  H   UNL     1      59.380  31.520  52.765  1.00  0.00     0.164 HD
ATOM      6  O   UNL     1      61.138  29.720  53.416  1.00  0.00    -0.273 OA
BRANCH   4   7
ATOM      7  C   UNL     1      57.672  30.194  52.867  1.00  0.00     0.175 C 
BRANCH   7   8
ATOM      8  C   UNL     1      56.649  31.191  53.340  1.00  0.00     0.243 C 
ATOM      9  N   UNL     1      55.552  30.748  54.151  1.00  0.00    -0.342 N 
ATOM     10  H   UNL     1      55.441  29.720  54.311  1.00  0.00     0.164 HD
ATOM     11  O   UNL     1      56.747  32.407  53.009  1.00  0.00    -0.273 OA
BRANCH   9  12
ATOM     12  C   UNL     1      54.766  31.671  54.977  1.00  0.00     0.174 CG0
ATOM     13  G   UNL     1      54.681  31.128  56.388  1.00  0.00     0.000 G0
BRANCH  12  14
ATOM     14  C   UNL     1      53.386  31.941  54.306  1.00  0.00     0.018 C 
ATOM     15  C   UNL     1      53.204  30.978  53.115  1.00  0.00     0.010 C 
BRANCH  14  16
ATOM     16  C   UNL     1      53.241  33.417  53.855  1.00  0.00     0.002 C 
ATOM     17  C   UNL     1      54.216  34.364  54.555  1.00  0.00     0.004 C 
ENDBRANCH  14  16
ENDBRANCH  12  14
ENDBRANCH   9  12
ENDBRANCH   7   8
BRANCH   7  18
ATOM     18  C   UNL     1      57.556  29.990  51.348  1.00  0.00     0.073 C 
BRANCH  18  19
ATOM     19  C   UNL     1      57.208  28.563  51.027  1.00  0.00    -0.016 A 
ATOM     20  C   UNL     1      58.111  27.522  50.866  1.00  0.00     0.134 A 
ATOM     21  C   UNL     1      55.971  28.042  50.700  1.00  0.00     0.006 A 
ATOM     22  N   UNL     1      57.475  26.399  50.470  1.00  0.00    -0.191 N 
ATOM     23  C   UNL     1      56.156  26.717  50.362  1.00  0.00     0.087 A 
ATOM     24  C   UNL     1      54.717  28.653  50.660  1.00  0.00     0.011 A 
ATOM     25  C   UNL     1      55.064  25.927  49.963  1.00  0.00     0.030 A 
ATOM     26  C   UNL     1      53.615  27.877  50.271  1.00  0.00     0.001 A 
ATOM     27  C   UNL     1      53.788  26.521  49.922  1.00  0.00     0.002 A 
BRANCH  22  28
ATOM     28  O   UNL     1      58.150  25.206  50.252  1.00  0.00    -0.417 OA
ATOM     29  C   UNL     1      59.287  24.766  50.982  1.00  0.00     0.313 C 
ENDBRANCH  22  28
ENDBRANCH  18  19
ENDBRANCH   7  18
ENDBRANCH   4   7
ENDBRANCH   2   3
BRANCH   2  30
ATOM     30  N   UNL     1      58.504  29.711  55.866  1.00  0.00    -0.343 N 
ATOM     31  C   UNL     1      57.456  28.946  56.482  1.00  0.00     0.243 C 
ATOM     32  H   UNL     1      58.528  30.748  56.021  1.00  0.00     0.164 HD
ATOM     33  O   UNL     1      57.331  27.722  56.213  1.00  0.00    -0.273 OA
BRANCH  31  34
ATOM     34  C   UNL     1      56.465  29.623  57.404  1.00  0.00     0.174 C 
ATOM     35  N   UNL     1      55.164  29.784  56.733  1.00  0.00    -0.329 N 
ATOM     36  C   UNL     1      56.291  28.877  58.746  1.00  0.00     0.035 C 
ATOM     37  C   UNL     1      54.283  28.621  56.588  1.00  0.00     0.120 C 
ATOM     38  C   UNL     1      55.382  27.641  58.637  1.00  0.00     0.004 C 
ATOM     39  C   UNL     1      54.053  27.976  57.956  1.00  0.00     0.022 C 
BRANCH  35  40
ATOM     40  C   UNL     1      54.691  31.103  56.410  1.00  0.00     0.246 CG0
ATOM     41  O   UNL     1      54.260  31.847  57.333  1.00  0.00    -0.272 OA
ATOM     42  G   UNL     1      54.757  31.646  54.998  1.00  0.00     0.000 G0
ENDBRANCH  35  40
ENDBRANCH  31  34
ENDBRANCH   2  30
ENDBRANCH   1   2
BRANCH   1  43
ATOM     43  C   UNL     1      60.841  30.234  57.144  1.00  0.00     0.003 C 
BRANCH  43  44
ATOM     44  C   UNL     1      61.122  29.688  58.552  1.00  0.00     0.001 C 
BRANCH  44  45
ATOM     45  C   UNL     1      59.863  29.154  59.251  1.00  0.00     0.008 C 
BRANCH  45  46
ATOM     46  C   UNL     1      60.111  28.747  60.708  1.00  0.00     0.075 C 
BRANCH  46  47
ATOM     47  C   UNL     1      59.913  27.263  60.878  1.00  0.00     0.132 C 
ATOM     48  O   UNL     1      60.848  26.580  61.275  1.00  0.00    -0.300 OA
BRANCH  47  49
ATOM     49  C   UNL     1      58.616  26.606  60.480  1.00  0.00     0.072 C 
ATOM     50  C   UNL     1      58.775  25.656  59.292  1.00  0.00     0.012 C 
ENDBRANCH  47  49
ENDBRANCH  46  47
ENDBRANCH  45  46
ENDBRANCH  44  45
ENDBRANCH  43  44
ENDBRANCH   1  43
TORSDOF 12
ENDMDL
MODEL 7
REMARK VINA RESULT:    -3.861      4.917      8.368
REMARK INTER + INTRA:         -10.428
REMARK INTER:                  -7.750
REMARK INTRA:                  -2.678
REMARK UNBOUND:                -2.279
REMARK SMILES CCC(=O)CCCCC[C@H]1NC(=O)[C@@H]2CCCCN2C(=O)[C@H]([C@H](C)CC)NC(=O)[C@@H](Cc2cn(OC)c3ccccc23)NC1=O
REMARK SMILES IDX 9 1 10 2 44 3 43 4 45 6 30 7 28 8 27 9 29 11 22 12 23 14
REMARK SMILES IDX 24 15 25 16 26 17 31 18 32 19 33 20 42 21 34 22 37 23 41 24
REMARK SMILES IDX 38 25 40 26 39 27 35 28 36 29 11 30 12 31 13 33 14 34 19 35
REMARK SMILES IDX 15 36 18 37 16 38 17 39 20 40 21 41 8 43 7 44 6 45 5 46 3 47
REMARK SMILES IDX 4 48 2 49 1 50
REMARK H PARENT 43 5 27 10 11 32
REMARK Flexibility Score: 80.00
ROOT
ATOM      1  C   UNL     1      61.122  28.927  56.118  1.00  0.00     0.035 C 
ENDROOT
BRANCH   1   2
ATOM      2  C   UNL     1      59.859  28.957  55.231  1.00  0.00     0.171 C 
BRANCH   2   3
ATOM      3  C   UNL     1      60.166  29.665  53.928  1.00  0.00     0.243 C 
ATOM      4  N   UNL     1      59.228  30.537  53.287  1.00  0.00    -0.342 N 
ATOM      5  H   UNL     1      59.609  31.388  52.812  1.00  0.00     0.164 HD
ATOM      6  O   UNL     1      61.300  29.502  53.396  1.00  0.00    -0.273 OA
BRANCH   4   7
ATOM      7  C   UNL     1      57.842  30.151  53.001  1.00  0.00     0.175 C 
BRANCH   7   8
ATOM      8  C   UNL     1      56.893  31.195  53.525  1.00  0.00     0.243 C 
ATOM      9  N   UNL     1      55.740  30.790  54.276  1.00  0.00    -0.342 N 
ATOM     10  H   UNL     1      55.538  29.766  54.354  1.00  0.00     0.164 HD
ATOM     11  O   UNL     1      57.102  32.420  53.289  1.00  0.00    -0.273 OA
BRANCH   9  12
ATOM     12  C   UNL     1      55.011  31.713  55.152  1.00  0.00     0.174 CG0
ATOM     13  G   UNL     1      54.938  31.126  56.546  1.00  0.00     0.000 G0
BRANCH  12  14
ATOM     14  C   UNL     1      53.627  32.060  54.524  1.00  0.00     0.018 C 
ATOM     15  C   UNL     1      53.388  31.162  53.293  1.00  0.00     0.010 C 
BRANCH  14  16
ATOM     16  C   UNL     1      53.522  33.560  54.147  1.00  0.00     0.002 C 
ATOM     17  C   UNL     1      53.202  34.464  55.338  1.00  0.00     0.004 C 
ENDBRANCH  14  16
ENDBRANCH  12  14
ENDBRANCH   9  12
ENDBRANCH   7   8
BRANCH   7  18
ATOM     18  C   UNL     1      57.642  29.961  51.488  1.00  0.00     0.073 C 
BRANCH  18  19
ATOM     19  C   UNL     1      57.323  28.527  51.170  1.00  0.00    -0.016 A 
ATOM     20  C   UNL     1      58.239  27.488  51.093  1.00  0.00     0.134 A 
ATOM     21  C   UNL     1      56.115  27.995  50.763  1.00  0.00     0.006 A 
ATOM     22  N   UNL     1      57.636  26.354  50.673  1.00  0.00    -0.191 N 
ATOM     23  C   UNL     1      56.328  26.664  50.464  1.00  0.00     0.087 A 
ATOM     24  C   UNL     1      54.865  28.599  50.622  1.00  0.00     0.011 A 
ATOM     25  C   UNL     1      55.271  25.862  50.002  1.00  0.00     0.030 A 
ATOM     26  C   UNL     1      53.797  27.811  50.168  1.00  0.00     0.001 A 
ATOM     27  C   UNL     1      53.999  26.450  49.858  1.00  0.00     0.002 A 
BRANCH  22  28
ATOM     28  O   UNL     1      58.329  25.161  50.527  1.00  0.00    -0.417 OA
ATOM     29  C   UNL     1      59.717  24.985  50.781  1.00  0.00     0.313 C 
ENDBRANCH  22  28
ENDBRANCH  18  19
ENDBRANCH   7  18
ENDBRANCH   4   7
ENDBRANCH   2   3
BRANCH   2  30
ATOM     30  N   UNL     1      58.768  29.629  55.952  1.00  0.00    -0.343 N 
ATOM     31  C   UNL     1      57.657  28.916  56.520  1.00  0.00     0.243 C 
ATOM     32  H   UNL     1      58.875  30.649  56.169  1.00  0.00     0.164 HD
ATOM     33  O   UNL     1      57.435  27.724  56.178  1.00  0.00    -0.273 OA
BRANCH  31  34
ATOM     34  C   UNL     1      56.719  29.615  57.480  1.00  0.00     0.174 C 
ATOM     35  N   UNL     1      55.400  29.816  56.858  1.00  0.00    -0.329 N 
ATOM     36  C   UNL     1      56.572  28.866  58.823  1.00  0.00     0.035 C 
ATOM     37  C   UNL     1      54.483  28.679  56.738  1.00  0.00     0.120 C 
ATOM     38  C   UNL     1      55.626  27.656  58.740  1.00  0.00     0.004 C 
ATOM     39  C   UNL     1      54.283  28.032  58.110  1.00  0.00     0.022 C 
BRANCH  35  40
ATOM     40  C   UNL     1      54.954  31.150  56.558  1.00  0.00     0.246 CG0
ATOM     41  O   UNL     1      54.563  31.895  57.498  1.00  0.00    -0.272 OA
ATOM     42  G   UNL     1      55.001  31.706  55.150  1.00  0.00     0.000 G0
ENDBRANCH  35  40
ENDBRANCH  31  34
ENDBRANCH   2  30
ENDBRANCH   1   2
BRANCH   1  43
ATOM     43  C   UNL     1      61.298  30.201  56.956  1.00  0.00     0.003 C 
BRANCH  43  44
ATOM     44  C   UNL     1      61.618  29.841  58.415  1.00  0.00     0.001 C 
BRANCH  44  45
ATOM     45  C   UNL     1      63.023  30.285  58.848  1.00  0.00     0.008 C 
BRANCH  45  46
ATOM     46  C   UNL     1      63.017  31.138  60.122  1.00  0.00     0.075 C 
BRANCH  46  47
ATOM     47  C   UNL     1      63.412  32.557  59.804  1.00  0.00     0.132 C 
ATOM     48  O   UNL     1      64.326  33.074  60.432  1.00  0.00    -0.300 OA
BRANCH  47  49
ATOM     49  C   UNL     1      62.639  33.366  58.793  1.00  0.00     0.072 C 
ATOM     50  C   UNL     1      61.182  33.587  59.203  1.00  0.00     0.012 C 
ENDBRANCH  47  49
ENDBRANCH  46  47
ENDBRANCH  45  46
ENDBRANCH  44  45
ENDBRANCH  43  44
ENDBRANCH   1  43
TORSDOF 12
ENDMDL
MODEL 8
REMARK VINA RESULT:    -3.790      5.645     10.563
REMARK INTER + INTRA:         -10.278
REMARK INTER:                  -6.065
REMARK INTRA:                  -4.213
REMARK UNBOUND:                -2.279
REMARK SMILES CCC(=O)CCCCC[C@H]1NC(=O)[C@@H]2CCCCN2C(=O)[C@H]([C@H](C)CC)NC(=O)[C@@H](Cc2cn(OC)c3ccccc23)NC1=O
REMARK SMILES IDX 9 1 10 2 44 3 43 4 45 6 30 7 28 8 27 9 29 11 22 12 23 14
REMARK SMILES IDX 24 15 25 16 26 17 31 18 32 19 33 20 42 21 34 22 37 23 41 24
REMARK SMILES IDX 38 25 40 26 39 27 35 28 36 29 11 30 12 31 13 33 14 34 19 35
REMARK SMILES IDX 15 36 18 37 16 38 17 39 20 40 21 41 8 43 7 44 6 45 5 46 3 47
REMARK SMILES IDX 4 48 2 49 1 50
REMARK H PARENT 43 5 27 10 11 32
REMARK Flexibility Score: 80.00
ROOT
ATOM      1  C   UNL     1      61.123  27.176  49.903  1.00  0.00     0.035 C 
ENDROOT
BRANCH   1   2
ATOM      2  C   UNL     1      61.657  27.713  51.249  1.00  0.00     0.171 C 
BRANCH   2   3
ATOM      3  C   UNL     1      60.997  26.972  52.393  1.00  0.00     0.243 C 
ATOM      4  N   UNL     1      60.633  27.617  53.619  1.00  0.00    -0.342 N 
ATOM      5  H   UNL     1      59.744  27.311  54.077  1.00  0.00     0.164 HD
ATOM      6  O   UNL     1      60.734  25.744  52.256  1.00  0.00    -0.273 OA
BRANCH   4   7
ATOM      7  C   UNL     1      61.566  28.435  54.402  1.00  0.00     0.175 C 
BRANCH   7   8
ATOM      8  C   UNL     1      60.951  29.773  54.709  1.00  0.00     0.243 C 
ATOM      9  N   UNL     1      61.677  30.972  54.400  1.00  0.00    -0.342 N 
ATOM     10  H   UNL     1      62.660  30.877  54.057  1.00  0.00     0.164 HD
ATOM     11  O   UNL     1      59.811  29.840  55.253  1.00  0.00    -0.273 OA
BRANCH   9  12
ATOM     12  C   UNL     1      61.018  32.277  54.279  1.00  0.00     0.174 CG0
ATOM     13  G   UNL     1      61.442  32.931  52.981  1.00  0.00     0.000 G0
BRANCH  12  14
ATOM     14  C   UNL     1      61.293  33.132  55.553  1.00  0.00     0.018 C 
ATOM     15  C   UNL     1      62.541  32.581  56.273  1.00  0.00     0.010 C 
BRANCH  14  16
ATOM     16  C   UNL     1      60.070  33.163  56.504  1.00  0.00     0.002 C 
ATOM     17  C   UNL     1      60.322  32.465  57.840  1.00  0.00     0.004 C 
ENDBRANCH  14  16
ENDBRANCH  12  14
ENDBRANCH   9  12
ENDBRANCH   7   8
BRANCH   7  18
ATOM     18  C   UNL     1      61.946  27.711  55.704  1.00  0.00     0.073 C 
BRANCH  18  19
ATOM     19  C   UNL     1      62.811  28.586  56.567  1.00  0.00    -0.016 A 
ATOM     20  C   UNL     1      64.119  28.959  56.293  1.00  0.00     0.134 A 
ATOM     21  C   UNL     1      62.540  29.067  57.833  1.00  0.00     0.006 A 
ATOM     22  N   UNL     1      64.642  29.651  57.329  1.00  0.00    -0.191 N 
ATOM     23  C   UNL     1      63.673  29.715  58.281  1.00  0.00     0.087 A 
ATOM     24  C   UNL     1      61.388  28.955  58.612  1.00  0.00     0.011 A 
ATOM     25  C   UNL     1      63.699  30.297  59.560  1.00  0.00     0.030 A 
ATOM     26  C   UNL     1      61.395  29.536  59.889  1.00  0.00     0.001 A 
ATOM     27  C   UNL     1      62.545  30.202  60.362  1.00  0.00     0.002 A 
BRANCH  22  28
ATOM     28  O   UNL     1      65.935  30.154  57.301  1.00  0.00    -0.417 OA
ATOM     29  C   UNL     1      66.450  31.032  56.309  1.00  0.00     0.313 C 
ENDBRANCH  22  28
ENDBRANCH  18  19
ENDBRANCH   7  18
ENDBRANCH   4   7
ENDBRANCH   2   3
BRANCH   2  30
ATOM     30  N   UNL     1      61.402  29.158  51.339  1.00  0.00    -0.343 N 
ATOM     31  C   UNL     1      62.417  30.144  51.090  1.00  0.00     0.243 C 
ATOM     32  H   UNL     1      60.410  29.476  51.463  1.00  0.00     0.164 HD
ATOM     33  O   UNL     1      63.629  29.803  51.061  1.00  0.00    -0.273 OA
BRANCH  31  34
ATOM     34  C   UNL     1      62.035  31.599  50.924  1.00  0.00     0.174 C 
ATOM     35  N   UNL     1      62.447  32.378  52.104  1.00  0.00    -0.329 N 
ATOM     36  C   UNL     1      62.614  32.225  49.636  1.00  0.00     0.035 C 
ATOM     37  C   UNL     1      63.860  32.733  52.270  1.00  0.00     0.120 C 
ATOM     38  C   UNL     1      64.099  32.603  49.762  1.00  0.00     0.004 C 
ATOM     39  C   UNL     1      64.363  33.446  51.013  1.00  0.00     0.022 C 
BRANCH  35  40
ATOM     40  C   UNL     1      61.444  32.944  52.965  1.00  0.00     0.246 CG0
ATOM     41  O   UNL     1      60.857  34.003  52.614  1.00  0.00    -0.272 OA
ATOM     42  G   UNL     1      61.031  32.266  54.255  1.00  0.00     0.000 G0
ENDBRANCH  35  40
ENDBRANCH  31  34
ENDBRANCH   2  30
ENDBRANCH   1   2
BRANCH   1  43
ATOM     43  C   UNL     1      59.800  27.829  49.481  1.00  0.00     0.003 C 
BRANCH  43  44
ATOM     44  C   UNL     1      58.620  26.895  49.795  1.00  0.00     0.001 C 
BRANCH  44  45
ATOM     45  C   UNL     1      57.640  27.490  50.817  1.00  0.00     0.008 C 
BRANCH  45  46
ATOM     46  C   UNL     1      57.374  28.983  50.595  1.00  0.00     0.075 C 
BRANCH  46  47
ATOM     47  C   UNL     1      57.671  29.760  51.852  1.00  0.00     0.132 C 
ATOM     48  O   UNL     1      58.828  29.836  52.243  1.00  0.00    -0.300 OA
BRANCH  47  49
ATOM     49  C   UNL     1      56.557  30.360  52.672  1.00  0.00     0.072 C 
ATOM     50  C   UNL     1      55.661  29.300  53.315  1.00  0.00     0.012 C 
ENDBRANCH  47  49
ENDBRANCH  46  47
ENDBRANCH  45  46
ENDBRANCH  44  45
ENDBRANCH  43  44
ENDBRANCH   1  43
TORSDOF 12
ENDMDL
MODEL 9
REMARK VINA RESULT:    -3.781      3.084      8.048
REMARK INTER + INTRA:         -10.260
REMARK INTER:                  -6.980
REMARK INTRA:                  -3.280
REMARK UNBOUND:                -2.279
REMARK SMILES CCC(=O)CCCCC[C@H]1NC(=O)[C@@H]2CCCCN2C(=O)[C@H]([C@H](C)CC)NC(=O)[C@@H](Cc2cn(OC)c3ccccc23)NC1=O
REMARK SMILES IDX 9 1 10 2 44 3 43 4 45 6 30 7 28 8 27 9 29 11 22 12 23 14
REMARK SMILES IDX 24 15 25 16 26 17 31 18 32 19 33 20 42 21 34 22 37 23 41 24
REMARK SMILES IDX 38 25 40 26 39 27 35 28 36 29 11 30 12 31 13 33 14 34 19 35
REMARK SMILES IDX 15 36 18 37 16 38 17 39 20 40 21 41 8 43 7 44 6 45 5 46 3 47
REMARK SMILES IDX 4 48 2 49 1 50
REMARK H PARENT 43 5 27 10 11 32
REMARK Flexibility Score: 80.00
ROOT
ATOM      1  C   UNL     1      56.351  29.013  54.596  1.00  0.00     0.035 C 
ENDROOT
BRANCH   1   2
ATOM      2  C   UNL     1      57.478  29.461  55.551  1.00  0.00     0.171 C 
BRANCH   2   3
ATOM      3  C   UNL     1      58.766  29.639  54.775  1.00  0.00     0.243 C 
ATOM      4  N   UNL     1      60.044  29.279  55.313  1.00  0.00    -0.342 N 
ATOM      5  H   UNL     1      60.743  28.864  54.654  1.00  0.00     0.164 HD
ATOM      6  O   UNL     1      58.714  30.100  53.600  1.00  0.00    -0.273 OA
BRANCH   4   7
ATOM      7  C   UNL     1      60.519  29.733  56.624  1.00  0.00     0.175 C 
BRANCH   7   8
ATOM      8  C   UNL     1      60.985  28.560  57.443  1.00  0.00     0.243 C 
ATOM      9  N   UNL     1      60.402  28.320  58.732  1.00  0.00    -0.342 N 
ATOM     10  H   UNL     1      59.733  29.031  59.109  1.00  0.00     0.164 HD
ATOM     11  O   UNL     1      61.898  27.802  57.005  1.00  0.00    -0.273 OA
BRANCH   9  12
ATOM     12  C   UNL     1      60.485  27.017  59.399  1.00  0.00     0.174 CG0
ATOM     13  G   UNL     1      59.094  26.571  59.798  1.00  0.00     0.000 G0
BRANCH  12  14
ATOM     14  C   UNL     1      61.504  27.087  60.577  1.00  0.00     0.018 C 
ATOM     15  C   UNL     1      61.739  28.564  60.957  1.00  0.00     0.010 C 
BRANCH  14  16
ATOM     16  C   UNL     1      62.839  26.382  60.230  1.00  0.00     0.002 C 
ATOM     17  C   UNL     1      64.033  27.335  60.176  1.00  0.00     0.004 C 
ENDBRANCH  14  16
ENDBRANCH  12  14
ENDBRANCH   9  12
ENDBRANCH   7   8
BRANCH   7  18
ATOM     18  C   UNL     1      61.657  30.752  56.456  1.00  0.00     0.073 C 
BRANCH  18  19
ATOM     19  C   UNL     1      61.744  31.657  57.653  1.00  0.00    -0.016 A 
ATOM     20  C   UNL     1      60.941  32.762  57.897  1.00  0.00     0.134 A 
ATOM     21  C   UNL     1      62.699  31.657  58.652  1.00  0.00     0.006 A 
ATOM     22  N   UNL     1      61.361  33.418  59.001  1.00  0.00    -0.191 N 
ATOM     23  C   UNL     1      62.446  32.742  59.466  1.00  0.00     0.087 A 
ATOM     24  C   UNL     1      63.769  30.791  58.875  1.00  0.00     0.011 A 
ATOM     25  C   UNL     1      63.275  33.011  60.568  1.00  0.00     0.030 A 
ATOM     26  C   UNL     1      64.603  31.041  59.976  1.00  0.00     0.001 A 
ATOM     27  C   UNL     1      64.359  32.146  60.817  1.00  0.00     0.002 A 
BRANCH  22  28
ATOM     28  O   UNL     1      60.717  34.553  59.473  1.00  0.00    -0.417 OA
ATOM     29  C   UNL     1      61.326  35.824  59.653  1.00  0.00     0.313 C 
ENDBRANCH  22  28
ENDBRANCH  18  19
ENDBRANCH   7  18
ENDBRANCH   4   7
ENDBRANCH   2   3
BRANCH   2  30
ATOM     30  N   UNL     1      57.640  28.468  56.622  1.00  0.00    -0.343 N 
ATOM     31  C   UNL     1      56.905  28.527  57.855  1.00  0.00     0.243 C 
ATOM     32  H   UNL     1      58.218  27.616  56.421  1.00  0.00     0.164 HD
ATOM     33  O   UNL     1      56.304  29.586  58.178  1.00  0.00    -0.273 OA
BRANCH  31  34
ATOM     34  C   UNL     1      56.903  27.340  58.794  1.00  0.00     0.174 C 
ATOM     35  N   UNL     1      57.965  27.481  59.805  1.00  0.00    -0.329 N 
ATOM     36  C   UNL     1      55.535  27.120  59.477  1.00  0.00     0.035 C 
ATOM     37  C   UNL     1      57.770  28.408  60.924  1.00  0.00     0.120 C 
ATOM     38  C   UNL     1      55.284  28.081  60.651  1.00  0.00     0.004 C 
ATOM     39  C   UNL     1      56.455  28.086  61.637  1.00  0.00     0.022 C 
BRANCH  35  40
ATOM     40  C   UNL     1      59.081  26.574  59.793  1.00  0.00     0.246 CG0
ATOM     41  O   UNL     1      58.889  25.357  60.064  1.00  0.00    -0.272 OA
ATOM     42  G   UNL     1      60.471  27.030  59.401  1.00  0.00     0.000 G0
ENDBRANCH  35  40
ENDBRANCH  31  34
ENDBRANCH   2  30
ENDBRANCH   1   2
BRANCH   1  43
ATOM     43  C   UNL     1      56.382  27.507  54.298  1.00  0.00     0.003 C 
BRANCH  43  44
ATOM     44  C   UNL     1      55.311  27.147  53.258  1.00  0.00     0.001 C 
BRANCH  44  45
ATOM     45  C   UNL     1      55.861  26.307  52.096  1.00  0.00     0.008 C 
BRANCH  45  46
ATOM     46  C   UNL     1      55.844  27.051  50.755  1.00  0.00     0.075 C 
BRANCH  46  47
ATOM     47  C   UNL     1      56.880  28.146  50.752  1.00  0.00     0.132 C 
ATOM     48  O   UNL     1      58.063  27.844  50.835  1.00  0.00    -0.300 OA
BRANCH  47  49
ATOM     49  C   UNL     1      56.471  29.597  50.740  1.00  0.00     0.072 C 
ATOM     50  C   UNL     1      54.953  29.783  50.767  1.00  0.00     0.012 C 
ENDBRANCH  47  49
ENDBRANCH  46  47
ENDBRANCH  45  46
ENDBRANCH  44  45
ENDBRANCH  43  44
ENDBRANCH   1  43
TORSDOF 12
ENDMDL
