MODEL 1
REMARK VINA RESULT:    -5.664      0.000      0.000
REMARK INTER + INTRA:         -12.941
REMARK INTER:                 -10.963
REMARK INTRA:                  -1.978
REMARK UNBOUND:                -1.978
REMARK SMILES CCCCCCCCCCCCCCCCCC(=O)[O-]
REMARK SMILES IDX 10 1 11 2 12 3 13 4 14 5 15 6 16 7 17 8 18 9 19 10 20 11
REMARK SMILES IDX 9 12 8 13 7 14 6 15 5 16 4 17 3 18 2 19 1 20
REMARK H PARENT
REMARK Flexibility Score: inf
ROOT
ATOM      1  C   UNL     1     131.189 132.787 133.312  1.00  0.00     0.000 C 
ENDROOT
BRANCH   1   2
ATOM      2  C   UNL     1     131.288 134.321 133.397  1.00  0.00     0.000 C 
BRANCH   2   3
ATOM      3  C   UNL     1     132.731 134.810 133.622  1.00  0.00     0.000 C 
BRANCH   3   4
ATOM      4  C   UNL     1     132.953 136.303 133.316  1.00  0.00     0.000 C 
BRANCH   4   5
ATOM      5  C   UNL     1     131.638 137.102 133.280  1.00  0.00     0.000 C 
BRANCH   5   6
ATOM      6  C   UNL     1     131.358 137.733 131.905  1.00  0.00     0.000 C 
BRANCH   6   7
ATOM      7  C   UNL     1     132.003 137.008 130.710  1.00  0.00     0.006 C 
BRANCH   7   8
ATOM      8  C   UNL     1     131.036 136.814 129.536  1.00  0.00     0.053 C 
BRANCH   8   9
ATOM      9  C   UNL     1     130.858 135.357 129.242  1.00  0.00     0.041 C 
ATOM     10  O   UNL     1     131.456 134.493 129.936  1.00  0.00    -0.550 OA
ATOM     11  O   UNL     1     129.991 134.951 128.235  1.00  0.00    -0.550 OA
ENDBRANCH   8   9
ENDBRANCH   7   8
ENDBRANCH   6   7
ENDBRANCH   5   6
ENDBRANCH   4   5
ENDBRANCH   3   4
ENDBRANCH   2   3
ENDBRANCH   1   2
BRANCH   1  12
ATOM     12  C   UNL     1     132.348 132.158 132.518  1.00  0.00     0.000 C 
BRANCH  12  13
ATOM     13  C   UNL     1     133.300 131.266 133.339  1.00  0.00    -0.000 C 
BRANCH  13  14
ATOM     14  C   UNL     1     134.698 131.066 132.729  1.00  0.00    -0.000 C 
BRANCH  14  15
ATOM     15  C   UNL     1     135.768 131.949 133.388  1.00  0.00    -0.000 C 
BRANCH  15  16
ATOM     16  C   UNL     1     135.853 133.316 132.698  1.00  0.00    -0.000 C 
BRANCH  16  17
ATOM     17  C   UNL     1     136.592 134.332 133.579  1.00  0.00    -0.000 C 
BRANCH  17  18
ATOM     18  C   UNL     1     136.566 135.730 132.945  1.00  0.00    -0.000 C 
BRANCH  18  19
ATOM     19  C   UNL     1     136.308 135.686 131.430  1.00  0.00    -0.003 C 
ATOM     20  C   UNL     1     137.579 135.894 130.608  1.00  0.00     0.004 C 
ENDBRANCH  18  19
ENDBRANCH  17  18
ENDBRANCH  16  17
ENDBRANCH  15  16
ENDBRANCH  14  15
ENDBRANCH  13  14
ENDBRANCH  12  13
ENDBRANCH   1  12
TORSDOF 16
ENDMDL
MODEL 2
REMARK VINA RESULT:    -5.606      2.277      4.372
REMARK INTER + INTRA:         -12.827
REMARK INTER:                 -11.030
REMARK INTRA:                  -1.797
REMARK UNBOUND:                -1.978
REMARK SMILES CCCCCCCCCCCCCCCCCC(=O)[O-]
REMARK SMILES IDX 10 1 11 2 12 3 13 4 14 5 15 6 16 7 17 8 18 9 19 10 20 11
REMARK SMILES IDX 9 12 8 13 7 14 6 15 5 16 4 17 3 18 2 19 1 20
REMARK H PARENT
REMARK Flexibility Score: inf
ROOT
ATOM      1  C   UNL     1     133.139 131.604 133.197  1.00  0.00     0.000 C 
ENDROOT
BRANCH   1   2
ATOM      2  C   UNL     1     132.440 132.829 133.815  1.00  0.00     0.000 C 
BRANCH   2   3
ATOM      3  C   UNL     1     130.976 132.968 133.359  1.00  0.00     0.000 C 
BRANCH   3   4
ATOM      4  C   UNL     1     130.180 131.648 133.360  1.00  0.00     0.000 C 
BRANCH   4   5
ATOM      5  C   UNL     1     129.504 131.365 132.007  1.00  0.00     0.000 C 
BRANCH   5   6
ATOM      6  C   UNL     1     130.295 131.929 130.813  1.00  0.00     0.000 C 
BRANCH   6   7
ATOM      7  C   UNL     1     130.033 131.229 129.468  1.00  0.00     0.006 C 
BRANCH   7   8
ATOM      8  C   UNL     1     128.696 131.634 128.834  1.00  0.00     0.053 C 
BRANCH   8   9
ATOM      9  C   UNL     1     128.892 132.016 127.400  1.00  0.00     0.041 C 
ATOM     10  O   UNL     1     127.937 131.926 126.585  1.00  0.00    -0.550 OA
ATOM     11  O   UNL     1     130.115 132.520 126.976  1.00  0.00    -0.550 OA
ENDBRANCH   8   9
ENDBRANCH   7   8
ENDBRANCH   6   7
ENDBRANCH   5   6
ENDBRANCH   4   5
ENDBRANCH   3   4
ENDBRANCH   2   3
ENDBRANCH   1   2
BRANCH   1  12
ATOM     12  C   UNL     1     134.388 131.980 132.381  1.00  0.00     0.000 C 
BRANCH  12  13
ATOM     13  C   UNL     1     135.678 132.174 133.204  1.00  0.00    -0.000 C 
BRANCH  13  14
ATOM     14  C   UNL     1     136.162 133.629 133.328  1.00  0.00    -0.000 C 
BRANCH  14  15
ATOM     15  C   UNL     1     135.368 134.599 132.440  1.00  0.00    -0.000 C 
BRANCH  15  16
ATOM     16  C   UNL     1     135.075 135.909 133.183  1.00  0.00    -0.000 C 
BRANCH  16  17
ATOM     17  C   UNL     1     133.566 136.119 133.354  1.00  0.00    -0.000 C 
BRANCH  17  18
ATOM     18  C   UNL     1     132.839 136.001 132.006  1.00  0.00    -0.000 C 
BRANCH  18  19
ATOM     19  C   UNL     1     131.708 137.031 131.854  1.00  0.00    -0.003 C 
ATOM     20  C   UNL     1     131.338 137.702 133.175  1.00  0.00     0.004 C 
ENDBRANCH  18  19
ENDBRANCH  17  18
ENDBRANCH  16  17
ENDBRANCH  15  16
ENDBRANCH  14  15
ENDBRANCH  13  14
ENDBRANCH  12  13
ENDBRANCH   1  12
TORSDOF 16
ENDMDL
MODEL 3
REMARK VINA RESULT:    -5.590      2.216      4.054
REMARK INTER + INTRA:         -12.798
REMARK INTER:                 -10.541
REMARK INTRA:                  -2.257
REMARK UNBOUND:                -1.978
REMARK SMILES CCCCCCCCCCCCCCCCCC(=O)[O-]
REMARK SMILES IDX 10 1 11 2 12 3 13 4 14 5 15 6 16 7 17 8 18 9 19 10 20 11
REMARK SMILES IDX 9 12 8 13 7 14 6 15 5 16 4 17 3 18 2 19 1 20
REMARK H PARENT
REMARK Flexibility Score: inf
ROOT
ATOM      1  C   UNL     1     134.256 135.655 132.680  1.00  0.00     0.000 C 
ENDROOT
BRANCH   1   2
ATOM      2  C   UNL     1     133.117 135.962 133.670  1.00  0.00     0.000 C 
BRANCH   2   3
ATOM      3  C   UNL     1     131.760 136.155 132.969  1.00  0.00     0.000 C 
BRANCH   3   4
ATOM      4  C   UNL     1     131.747 137.262 131.897  1.00  0.00     0.000 C 
BRANCH   4   5
ATOM      5  C   UNL     1     131.457 136.716 130.487  1.00  0.00     0.000 C 
BRANCH   5   6
ATOM      6  C   UNL     1     132.718 136.627 129.609  1.00  0.00     0.000 C 
BRANCH   6   7
ATOM      7  C   UNL     1     132.716 137.541 128.370  1.00  0.00     0.006 C 
BRANCH   7   8
ATOM      8  C   UNL     1     132.872 139.026 128.724  1.00  0.00     0.053 C 
BRANCH   8   9
ATOM      9  C   UNL     1     131.667 139.797 128.284  1.00  0.00     0.041 C 
ATOM     10  O   UNL     1     131.686 141.056 128.282  1.00  0.00    -0.550 OA
ATOM     11  O   UNL     1     130.540 139.124 127.826  1.00  0.00    -0.550 OA
ENDBRANCH   8   9
ENDBRANCH   7   8
ENDBRANCH   6   7
ENDBRANCH   5   6
ENDBRANCH   4   5
ENDBRANCH   3   4
ENDBRANCH   2   3
ENDBRANCH   1   2
BRANCH   1  12
ATOM     12  C   UNL     1     135.629 135.548 133.367  1.00  0.00     0.000 C 
BRANCH  12  13
ATOM     13  C   UNL     1     136.234 134.130 133.412  1.00  0.00    -0.000 C 
BRANCH  13  14
ATOM     14  C   UNL     1     135.499 133.080 132.559  1.00  0.00    -0.000 C 
BRANCH  14  15
ATOM     15  C   UNL     1     135.591 131.665 133.147  1.00  0.00    -0.000 C 
BRANCH  15  16
ATOM     16  C   UNL     1     134.198 131.111 133.468  1.00  0.00    -0.000 C 
BRANCH  16  17
ATOM     17  C   UNL     1     133.164 132.240 133.557  1.00  0.00    -0.000 C 
BRANCH  17  18
ATOM     18  C   UNL     1     131.782 131.757 133.093  1.00  0.00    -0.000 C 
BRANCH  18  19
ATOM     19  C   UNL     1     131.187 132.646 131.990  1.00  0.00    -0.003 C 
ATOM     20  C   UNL     1     132.217 133.051 130.937  1.00  0.00     0.004 C 
ENDBRANCH  18  19
ENDBRANCH  17  18
ENDBRANCH  16  17
ENDBRANCH  15  16
ENDBRANCH  14  15
ENDBRANCH  13  14
ENDBRANCH  12  13
ENDBRANCH   1  12
TORSDOF 16
ENDMDL
MODEL 4
REMARK VINA RESULT:    -5.585      3.775      6.963
REMARK INTER + INTRA:         -12.787
REMARK INTER:                 -11.169
REMARK INTRA:                  -1.617
REMARK UNBOUND:                -1.978
REMARK SMILES CCCCCCCCCCCCCCCCCC(=O)[O-]
REMARK SMILES IDX 10 1 11 2 12 3 13 4 14 5 15 6 16 7 17 8 18 9 19 10 20 11
REMARK SMILES IDX 9 12 8 13 7 14 6 15 5 16 4 17 3 18 2 19 1 20
REMARK H PARENT
REMARK Flexibility Score: inf
ROOT
ATOM      1  C   UNL     1     134.391 132.168 133.701  1.00  0.00     0.000 C 
ENDROOT
BRANCH   1   2
ATOM      2  C   UNL     1     134.566 130.652 133.499  1.00  0.00     0.000 C 
BRANCH   2   3
ATOM      3  C   UNL     1     135.948 130.287 132.927  1.00  0.00     0.000 C 
BRANCH   3   4
ATOM      4  C   UNL     1     135.909 129.652 131.523  1.00  0.00     0.000 C 
BRANCH   4   5
ATOM      5  C   UNL     1     135.099 130.490 130.518  1.00  0.00     0.000 C 
BRANCH   5   6
ATOM      6  C   UNL     1     134.865 129.761 129.182  1.00  0.00     0.000 C 
BRANCH   6   7
ATOM      7  C   UNL     1     135.106 128.241 129.217  1.00  0.00     0.006 C 
BRANCH   7   8
ATOM      8  C   UNL     1     135.634 127.689 127.886  1.00  0.00     0.053 C 
BRANCH   8   9
ATOM      9  C   UNL     1     136.821 128.477 127.429  1.00  0.00     0.041 C 
ATOM     10  O   UNL     1     136.872 128.920 126.251  1.00  0.00    -0.550 OA
ATOM     11  O   UNL     1     137.849 128.765 128.318  1.00  0.00    -0.550 OA
ENDBRANCH   8   9
ENDBRANCH   7   8
ENDBRANCH   6   7
ENDBRANCH   5   6
ENDBRANCH   4   5
ENDBRANCH   3   4
ENDBRANCH   2   3
ENDBRANCH   1   2
BRANCH   1  12
ATOM     12  C   UNL     1     135.650 132.969 133.323  1.00  0.00     0.000 C 
BRANCH  12  13
ATOM     13  C   UNL     1     135.645 134.447 133.763  1.00  0.00    -0.000 C 
BRANCH  13  14
ATOM     14  C   UNL     1     135.524 135.468 132.618  1.00  0.00    -0.000 C 
BRANCH  14  15
ATOM     15  C   UNL     1     134.073 135.888 132.344  1.00  0.00    -0.000 C 
BRANCH  15  16
ATOM     16  C   UNL     1     133.208 135.731 133.601  1.00  0.00    -0.000 C 
BRANCH  16  17
ATOM     17  C   UNL     1     131.739 135.490 133.233  1.00  0.00    -0.000 C 
BRANCH  17  18
ATOM     18  C   UNL     1     131.550 134.097 132.614  1.00  0.00    -0.000 C 
BRANCH  18  19
ATOM     19  C   UNL     1     130.954 133.087 133.607  1.00  0.00    -0.003 C 
ATOM     20  C   UNL     1     130.710 131.715 132.980  1.00  0.00     0.004 C 
ENDBRANCH  18  19
ENDBRANCH  17  18
ENDBRANCH  16  17
ENDBRANCH  15  16
ENDBRANCH  14  15
ENDBRANCH  13  14
ENDBRANCH  12  13
ENDBRANCH   1  12
TORSDOF 16
ENDMDL
MODEL 5
REMARK VINA RESULT:    -5.540      2.099      3.982
REMARK INTER + INTRA:         -12.701
REMARK INTER:                 -10.101
REMARK INTRA:                  -2.600
REMARK UNBOUND:                -1.978
REMARK SMILES CCCCCCCCCCCCCCCCCC(=O)[O-]
REMARK SMILES IDX 10 1 11 2 12 3 13 4 14 5 15 6 16 7 17 8 18 9 19 10 20 11
REMARK SMILES IDX 9 12 8 13 7 14 6 15 5 16 4 17 3 18 2 19 1 20
REMARK H PARENT
REMARK Flexibility Score: inf
ROOT
ATOM      1  C   UNL     1     133.454 135.626 131.795  1.00  0.00     0.000 C 
ENDROOT
BRANCH   1   2
ATOM      2  C   UNL     1     132.038 135.035 131.919  1.00  0.00     0.000 C 
BRANCH   2   3
ATOM      3  C   UNL     1     131.696 134.614 133.360  1.00  0.00     0.000 C 
BRANCH   3   4
ATOM      4  C   UNL     1     131.676 133.091 133.592  1.00  0.00     0.000 C 
BRANCH   4   5
ATOM      5  C   UNL     1     130.248 132.523 133.670  1.00  0.00     0.000 C 
BRANCH   5   6
ATOM      6  C   UNL     1     129.962 131.472 132.581  1.00  0.00     0.000 C 
BRANCH   6   7
ATOM      7  C   UNL     1     130.563 131.784 131.200  1.00  0.00     0.006 C 
BRANCH   7   8
ATOM      8  C   UNL     1     129.588 131.508 130.047  1.00  0.00     0.053 C 
BRANCH   8   9
ATOM      9  C   UNL     1     130.274 131.687 128.730  1.00  0.00     0.041 C 
ATOM     10  O   UNL     1     131.502 131.961 128.686  1.00  0.00    -0.550 OA
ATOM     11  O   UNL     1     129.568 131.500 127.547  1.00  0.00    -0.550 OA
ENDBRANCH   8   9
ENDBRANCH   7   8
ENDBRANCH   6   7
ENDBRANCH   5   6
ENDBRANCH   4   5
ENDBRANCH   3   4
ENDBRANCH   2   3
ENDBRANCH   1   2
BRANCH   1  12
ATOM     12  C   UNL     1     134.148 135.801 133.159  1.00  0.00     0.000 C 
BRANCH  12  13
ATOM     13  C   UNL     1     135.689 135.778 133.120  1.00  0.00    -0.000 C 
BRANCH  13  14
ATOM     14  C   UNL     1     136.331 134.420 133.456  1.00  0.00    -0.000 C 
BRANCH  14  15
ATOM     15  C   UNL     1     135.293 133.324 133.740  1.00  0.00    -0.000 C 
BRANCH  15  16
ATOM     16  C   UNL     1     135.771 131.965 133.213  1.00  0.00    -0.000 C 
BRANCH  16  17
ATOM     17  C   UNL     1     134.624 131.201 132.540  1.00  0.00    -0.000 C 
BRANCH  17  18
ATOM     18  C   UNL     1     134.255 131.840 131.193  1.00  0.00    -0.000 C 
BRANCH  18  19
ATOM     19  C   UNL     1     135.467 131.988 130.259  1.00  0.00    -0.003 C 
ATOM     20  C   UNL     1     135.745 133.441 129.877  1.00  0.00     0.004 C 
ENDBRANCH  18  19
ENDBRANCH  17  18
ENDBRANCH  16  17
ENDBRANCH  15  16
ENDBRANCH  14  15
ENDBRANCH  13  14
ENDBRANCH  12  13
ENDBRANCH   1  12
TORSDOF 16
ENDMDL
MODEL 6
REMARK VINA RESULT:    -5.510      2.900      4.713
REMARK INTER + INTRA:         -12.643
REMARK INTER:                 -10.758
REMARK INTRA:                  -1.885
REMARK UNBOUND:                -1.978
REMARK SMILES CCCCCCCCCCCCCCCCCC(=O)[O-]
REMARK SMILES IDX 10 1 11 2 12 3 13 4 14 5 15 6 16 7 17 8 18 9 19 10 20 11
REMARK SMILES IDX 9 12 8 13 7 14 6 15 5 16 4 17 3 18 2 19 1 20
REMARK H PARENT
REMARK Flexibility Score: inf
ROOT
ATOM      1  C   UNL     1     132.835 131.652 132.634  1.00  0.00     0.000 C 
ENDROOT
BRANCH   1   2
ATOM      2  C   UNL     1     131.426 131.842 133.226  1.00  0.00     0.000 C 
BRANCH   2   3
ATOM      3  C   UNL     1     131.076 133.323 133.460  1.00  0.00     0.000 C 
BRANCH   3   4
ATOM      4  C   UNL     1     131.701 134.295 132.440  1.00  0.00     0.000 C 
BRANCH   4   5
ATOM      5  C   UNL     1     131.686 135.754 132.927  1.00  0.00     0.000 C 
BRANCH   5   6
ATOM      6  C   UNL     1     132.993 136.163 133.632  1.00  0.00     0.000 C 
BRANCH   6   7
ATOM      7  C   UNL     1     134.133 135.133 133.541  1.00  0.00     0.006 C 
BRANCH   7   8
ATOM      8  C   UNL     1     135.460 135.751 133.082  1.00  0.00     0.053 C 
BRANCH   8   9
ATOM      9  C   UNL     1     135.811 135.272 131.708  1.00  0.00     0.041 C 
ATOM     10  O   UNL     1     136.836 135.714 131.126  1.00  0.00    -0.550 OA
ATOM     11  O   UNL     1     135.034 134.299 131.091  1.00  0.00    -0.550 OA
ENDBRANCH   8   9
ENDBRANCH   7   8
ENDBRANCH   6   7
ENDBRANCH   5   6
ENDBRANCH   4   5
ENDBRANCH   3   4
ENDBRANCH   2   3
ENDBRANCH   1   2
BRANCH   1  12
ATOM     12  C   UNL     1     133.922 131.528 133.716  1.00  0.00     0.000 C 
BRANCH  12  13
ATOM     13  C   UNL     1     135.373 131.536 133.193  1.00  0.00    -0.000 C 
BRANCH  13  14
ATOM     14  C   UNL     1     136.047 130.155 133.115  1.00  0.00    -0.000 C 
BRANCH  14  15
ATOM     15  C   UNL     1     135.948 129.521 131.720  1.00  0.00    -0.000 C 
BRANCH  15  16
ATOM     16  C   UNL     1     135.744 130.594 130.643  1.00  0.00    -0.000 C 
BRANCH  16  17
ATOM     17  C   UNL     1     134.783 130.103 129.552  1.00  0.00    -0.000 C 
BRANCH  17  18
ATOM     18  C   UNL     1     135.038 128.625 129.220  1.00  0.00    -0.000 C 
BRANCH  18  19
ATOM     19  C   UNL     1     135.579 128.427 127.795  1.00  0.00    -0.003 C 
ATOM     20  C   UNL     1     137.105 128.450 127.734  1.00  0.00     0.004 C 
ENDBRANCH  18  19
ENDBRANCH  17  18
ENDBRANCH  16  17
ENDBRANCH  15  16
ENDBRANCH  14  15
ENDBRANCH  13  14
ENDBRANCH  12  13
ENDBRANCH   1  12
TORSDOF 16
ENDMDL
MODEL 7
REMARK VINA RESULT:    -5.508      2.492      4.435
REMARK INTER + INTRA:         -12.638
REMARK INTER:                 -10.455
REMARK INTRA:                  -2.183
REMARK UNBOUND:                -1.978
REMARK SMILES CCCCCCCCCCCCCCCCCC(=O)[O-]
REMARK SMILES IDX 10 1 11 2 12 3 13 4 14 5 15 6 16 7 17 8 18 9 19 10 20 11
REMARK SMILES IDX 9 12 8 13 7 14 6 15 5 16 4 17 3 18 2 19 1 20
REMARK H PARENT
REMARK Flexibility Score: inf
ROOT
ATOM      1  C   UNL     1     133.142 131.486 133.260  1.00  0.00     0.000 C 
ENDROOT
BRANCH   1   2
ATOM      2  C   UNL     1     132.460 132.772 133.761  1.00  0.00     0.000 C 
BRANCH   2   3
ATOM      3  C   UNL     1     130.971 132.841 133.374  1.00  0.00     0.000 C 
BRANCH   3   4
ATOM      4  C   UNL     1     130.342 131.482 133.012  1.00  0.00     0.000 C 
BRANCH   4   5
ATOM      5  C   UNL     1     129.557 131.528 131.689  1.00  0.00     0.000 C 
BRANCH   5   6
ATOM      6  C   UNL     1     130.374 132.125 130.528  1.00  0.00     0.000 C 
BRANCH   6   7
ATOM      7  C   UNL     1     131.154 131.101 129.685  1.00  0.00     0.006 C 
BRANCH   7   8
ATOM      8  C   UNL     1     132.654 131.413 129.604  1.00  0.00     0.053 C 
BRANCH   8   9
ATOM      9  C   UNL     1     133.367 130.353 128.824  1.00  0.00     0.041 C 
ATOM     10  O   UNL     1     134.438 129.857 129.262  1.00  0.00    -0.550 OA
ATOM     11  O   UNL     1     132.821 129.876 127.639  1.00  0.00    -0.550 OA
ENDBRANCH   8   9
ENDBRANCH   7   8
ENDBRANCH   6   7
ENDBRANCH   5   6
ENDBRANCH   4   5
ENDBRANCH   3   4
ENDBRANCH   2   3
ENDBRANCH   1   2
BRANCH   1  12
ATOM     12  C   UNL     1     134.678 131.562 133.326  1.00  0.00     0.000 C 
BRANCH  12  13
ATOM     13  C   UNL     1     135.373 131.968 132.011  1.00  0.00    -0.000 C 
BRANCH  13  14
ATOM     14  C   UNL     1     135.791 133.447 131.922  1.00  0.00    -0.000 C 
BRANCH  14  15
ATOM     15  C   UNL     1     136.009 134.088 133.300  1.00  0.00    -0.000 C 
BRANCH  15  16
ATOM     16  C   UNL     1     135.641 135.577 133.278  1.00  0.00    -0.000 C 
BRANCH  16  17
ATOM     17  C   UNL     1     134.275 135.797 132.615  1.00  0.00    -0.000 C 
BRANCH  17  18
ATOM     18  C   UNL     1     133.187 136.043 133.670  1.00  0.00    -0.000 C 
BRANCH  18  19
ATOM     19  C   UNL     1     132.063 136.956 133.156  1.00  0.00    -0.003 C 
ATOM     20  C   UNL     1     131.746 136.729 131.678  1.00  0.00     0.004 C 
ENDBRANCH  18  19
ENDBRANCH  17  18
ENDBRANCH  16  17
ENDBRANCH  15  16
ENDBRANCH  14  15
ENDBRANCH  13  14
ENDBRANCH  12  13
ENDBRANCH   1  12
TORSDOF 16
ENDMDL
MODEL 8
REMARK VINA RESULT:    -5.455      3.139      6.117
REMARK INTER + INTRA:         -12.536
REMARK INTER:                 -10.076
REMARK INTRA:                  -2.460
REMARK UNBOUND:                -1.978
REMARK SMILES CCCCCCCCCCCCCCCCCC(=O)[O-]
REMARK SMILES IDX 10 1 11 2 12 3 13 4 14 5 15 6 16 7 17 8 18 9 19 10 20 11
REMARK SMILES IDX 9 12 8 13 7 14 6 15 5 16 4 17 3 18 2 19 1 20
REMARK H PARENT
REMARK Flexibility Score: inf
ROOT
ATOM      1  C   UNL     1     135.950 133.157 133.405  1.00  0.00     0.000 C 
ENDROOT
BRANCH   1   2
ATOM      2  C   UNL     1     134.564 132.600 133.776  1.00  0.00     0.000 C 
BRANCH   2   3
ATOM      3  C   UNL     1     134.381 131.133 133.345  1.00  0.00     0.000 C 
BRANCH   3   4
ATOM      4  C   UNL     1     135.696 130.344 133.194  1.00  0.00     0.000 C 
BRANCH   4   5
ATOM      5  C   UNL     1     135.857 129.726 131.794  1.00  0.00     0.000 C 
BRANCH   5   6
ATOM      6  C   UNL     1     135.575 130.728 130.661  1.00  0.00     0.000 C 
BRANCH   6   7
ATOM      7  C   UNL     1     136.413 130.526 129.386  1.00  0.00     0.006 C 
BRANCH   7   8
ATOM      8  C   UNL     1     136.365 131.734 128.441  1.00  0.00     0.053 C 
BRANCH   8   9
ATOM      9  C   UNL     1     137.732 132.317 128.269  1.00  0.00     0.041 C 
ATOM     10  O   UNL     1     138.744 131.568 128.257  1.00  0.00    -0.550 OA
ATOM     11  O   UNL     1     137.885 133.684 128.070  1.00  0.00    -0.550 OA
ENDBRANCH   8   9
ENDBRANCH   7   8
ENDBRANCH   6   7
ENDBRANCH   5   6
ENDBRANCH   4   5
ENDBRANCH   3   4
ENDBRANCH   2   3
ENDBRANCH   1   2
BRANCH   1  12
ATOM     12  C   UNL     1     136.014 134.694 133.482  1.00  0.00     0.000 C 
BRANCH  12  13
ATOM     13  C   UNL     1     135.935 135.423 132.125  1.00  0.00    -0.000 C 
BRANCH  13  14
ATOM     14  C   UNL     1     135.782 134.507 130.898  1.00  0.00    -0.000 C 
BRANCH  14  15
ATOM     15  C   UNL     1     134.352 134.496 130.337  1.00  0.00    -0.000 C 
BRANCH  15  16
ATOM     16  C   UNL     1     133.462 135.498 131.082  1.00  0.00    -0.000 C 
BRANCH  16  17
ATOM     17  C   UNL     1     132.253 134.797 131.713  1.00  0.00    -0.000 C 
BRANCH  17  18
ATOM     18  C   UNL     1     132.065 135.233 133.174  1.00  0.00    -0.000 C 
BRANCH  18  19
ATOM     19  C   UNL     1     132.470 136.697 133.408  1.00  0.00    -0.003 C 
ATOM     20  C   UNL     1     131.335 137.678 133.118  1.00  0.00     0.004 C 
ENDBRANCH  18  19
ENDBRANCH  17  18
ENDBRANCH  16  17
ENDBRANCH  15  16
ENDBRANCH  14  15
ENDBRANCH  13  14
ENDBRANCH  12  13
ENDBRANCH   1  12
TORSDOF 16
ENDMDL
MODEL 9
REMARK VINA RESULT:    -5.438      2.145      4.446
REMARK INTER + INTRA:         -12.503
REMARK INTER:                 -10.726
REMARK INTRA:                  -1.777
REMARK UNBOUND:                -1.978
REMARK SMILES CCCCCCCCCCCCCCCCCC(=O)[O-]
REMARK SMILES IDX 10 1 11 2 12 3 13 4 14 5 15 6 16 7 17 8 18 9 19 10 20 11
REMARK SMILES IDX 9 12 8 13 7 14 6 15 5 16 4 17 3 18 2 19 1 20
REMARK H PARENT
REMARK Flexibility Score: inf
ROOT
ATOM      1  C   UNL     1     136.279 134.574 133.295  1.00  0.00     0.000 C 
ENDROOT
BRANCH   1   2
ATOM      2  C   UNL     1     135.426 135.845 133.136  1.00  0.00     0.000 C 
BRANCH   2   3
ATOM      3  C   UNL     1     133.959 135.534 132.782  1.00  0.00     0.000 C 
BRANCH   3   4
ATOM      4  C   UNL     1     132.923 136.269 133.655  1.00  0.00     0.000 C 
BRANCH   4   5
ATOM      5  C   UNL     1     131.618 136.569 132.897  1.00  0.00     0.000 C 
BRANCH   5   6
ATOM      6  C   UNL     1     131.777 136.469 131.369  1.00  0.00     0.000 C 
BRANCH   6   7
ATOM      7  C   UNL     1     131.737 137.812 130.619  1.00  0.00     0.006 C 
BRANCH   7   8
ATOM      8  C   UNL     1     131.387 137.657 129.133  1.00  0.00     0.053 C 
BRANCH   8   9
ATOM      9  C   UNL     1     131.763 138.891 128.376  1.00  0.00     0.041 C 
ATOM     10  O   UNL     1     131.609 138.941 127.127  1.00  0.00    -0.550 OA
ATOM     11  O   UNL     1     132.237 140.007 129.056  1.00  0.00    -0.550 OA
ENDBRANCH   8   9
ENDBRANCH   7   8
ENDBRANCH   6   7
ENDBRANCH   5   6
ENDBRANCH   4   5
ENDBRANCH   3   4
ENDBRANCH   2   3
ENDBRANCH   1   2
BRANCH   1  12
ATOM     12  C   UNL     1     135.452 133.354 133.742  1.00  0.00     0.000 C 
BRANCH  12  13
ATOM     13  C   UNL     1     135.422 132.179 132.743  1.00  0.00    -0.000 C 
BRANCH  13  14
ATOM     14  C   UNL     1     134.021 131.776 132.250  1.00  0.00    -0.000 C 
BRANCH  14  15
ATOM     15  C   UNL     1     132.986 131.716 133.382  1.00  0.00    -0.000 C 
BRANCH  15  16
ATOM     16  C   UNL     1     131.783 132.616 133.075  1.00  0.00    -0.000 C 
BRANCH  16  17
ATOM     17  C   UNL     1     130.463 131.867 133.298  1.00  0.00    -0.000 C 
BRANCH  17  18
ATOM     18  C   UNL     1     129.816 131.484 131.959  1.00  0.00    -0.000 C 
BRANCH  18  19
ATOM     19  C   UNL     1     130.466 132.201 130.764  1.00  0.00    -0.003 C 
ATOM     20  C   UNL     1     130.896 131.236 129.659  1.00  0.00     0.004 C 
ENDBRANCH  18  19
ENDBRANCH  17  18
ENDBRANCH  16  17
ENDBRANCH  15  16
ENDBRANCH  14  15
ENDBRANCH  13  14
ENDBRANCH  12  13
ENDBRANCH   1  12
TORSDOF 16
ENDMDL
