MODEL 1
REMARK VINA RESULT:    -4.164      0.000      0.000
REMARK INTER + INTRA:          -2.383
REMARK INTER:                  -5.137
REMARK INTRA:                   2.754
REMARK UNBOUND:                 2.754
REMARK SMILES C=C1CC[C@@H]2[C@@H]([C@H]3[C@H](C)CC[C@H]13)C2(C)C
REMARK SMILES IDX 3 1 2 2 1 3 12 4 9 5 8 6 10 7 7 8 11 9 4 11 5 12 6 13 13 14
REMARK SMILES IDX 14 16 15 17
REMARK H PARENT
REMARK Flexibility Score: 80.00
ROOT
ATOM      1  C   UNL     1       0.446  14.429  17.394  1.00  0.00     0.031 C 
ENDROOT
BRANCH   1   2
ATOM      2  C   UNL     1       0.937  15.852  17.103  1.00  0.00    -0.074 C 
ATOM      3  C   UNL     1       1.843  16.412  17.923  1.00  0.00     0.008 C 
BRANCH   2   4
ATOM      4  C   UNL     1       0.585  16.452  15.741  1.00  0.00     0.018 C 
ATOM      5  C   UNL     1       2.231  17.079  12.421  1.00  0.00     0.008 C 
ATOM      6  C   UNL     1       1.115  16.879  13.453  1.00  0.00    -0.010 C 
ATOM      7  C   UNL     1       0.646  18.210  14.080  1.00  0.00     0.004 C 
ATOM      8  C   UNL     1       1.556  16.022  14.639  1.00  0.00     0.003 CG0
ATOM      9  C   UNL     1       0.500  17.968  15.591  1.00  0.00     0.008 C 
ATOM     10  G   UNL     1       1.396  14.504  14.436  1.00  0.00     0.000 G0
ENDBRANCH   2   4
ENDBRANCH   1   2
BRANCH   1  11
ATOM     11  C   UNL     1       1.199  13.296  16.624  1.00  0.00     0.009 C 
BRANCH  11  12
ATOM     12  C   UNL     1       2.204  13.851  15.602  1.00  0.00    -0.001 C 
ATOM     13  C   UNL     1       1.405  14.501  14.435  1.00  0.00     0.002 CG0
ATOM     14  C   UNL     1       2.461  13.430  14.162  1.00  0.00    -0.029 C 
ATOM     15  G   UNL     1       1.562  16.020  14.637  1.00  0.00     0.000 G0
ATOM     16  C   UNL     1       1.955  12.039  13.760  1.00  0.00     0.011 C 
ATOM     17  C   UNL     1       3.787  13.893  13.552  1.00  0.00     0.011 C 
ENDBRANCH  11  12
ENDBRANCH   1  11
TORSDOF 0
ENDMDL
MODEL 2
REMARK VINA RESULT:    -3.841      1.210      3.774
REMARK INTER + INTRA:          -1.985
REMARK INTER:                  -4.680
REMARK INTRA:                   2.695
REMARK UNBOUND:                 2.754
REMARK SMILES C=C1CC[C@@H]2[C@@H]([C@H]3[C@H](C)CC[C@H]13)C2(C)C
REMARK SMILES IDX 3 1 2 2 1 3 12 4 9 5 8 6 10 7 7 8 11 9 4 11 5 12 6 13 13 14
REMARK SMILES IDX 14 16 15 17
REMARK H PARENT
REMARK Flexibility Score: 80.00
ROOT
ATOM      1  C   UNL     1       0.336  13.120  17.434  1.00  0.00     0.031 C 
ENDROOT
BRANCH   1   2
ATOM      2  C   UNL     1       0.220  12.788  15.942  1.00  0.00    -0.074 C 
ATOM      3  C   UNL     1      -0.993  12.556  15.415  1.00  0.00     0.008 C 
BRANCH   2   4
ATOM      4  C   UNL     1       1.460  13.015  15.075  1.00  0.00     0.018 C 
ATOM      5  C   UNL     1       2.752  15.532  12.602  1.00  0.00     0.008 C 
ATOM      6  C   UNL     1       2.765  14.393  13.627  1.00  0.00    -0.010 C 
ATOM      7  C   UNL     1       2.645  13.002  12.965  1.00  0.00     0.004 C 
ATOM      8  C   UNL     1       1.590  14.464  14.602  1.00  0.00     0.003 CG0
ATOM      9  C   UNL     1       1.644  12.192  13.803  1.00  0.00     0.008 C 
ATOM     10  G   UNL     1       1.831  15.345  15.843  1.00  0.00     0.000 G0
ENDBRANCH   2   4
ENDBRANCH   1   2
BRANCH   1  11
ATOM     11  C   UNL     1       0.400  14.645  17.774  1.00  0.00     0.009 C 
BRANCH  11  12
ATOM     12  C   UNL     1       0.443  15.523  16.512  1.00  0.00    -0.001 C 
ATOM     13  C   UNL     1       1.841  15.357  15.849  1.00  0.00     0.002 CG0
ATOM     14  C   UNL     1       1.300  16.742  16.204  1.00  0.00    -0.029 C 
ATOM     15  G   UNL     1       1.595  14.485  14.603  1.00  0.00     0.000 G0
ATOM     16  C   UNL     1       1.933  17.450  17.408  1.00  0.00     0.011 C 
ATOM     17  C   UNL     1       0.823  17.625  15.048  1.00  0.00     0.011 C 
ENDBRANCH  11  12
ENDBRANCH   1  11
TORSDOF 0
ENDMDL
MODEL 3
REMARK VINA RESULT:    -3.780      1.232      3.766
REMARK INTER + INTRA:          -1.910
REMARK INTER:                  -4.655
REMARK INTRA:                   2.745
REMARK UNBOUND:                 2.754
REMARK SMILES C=C1CC[C@@H]2[C@@H]([C@H]3[C@H](C)CC[C@H]13)C2(C)C
REMARK SMILES IDX 3 1 2 2 1 3 12 4 9 5 8 6 10 7 7 8 11 9 4 11 5 12 6 13 13 14
REMARK SMILES IDX 14 16 15 17
REMARK H PARENT
REMARK Flexibility Score: 80.00
ROOT
ATOM      1  C   UNL     1       1.667  16.207  17.723  1.00  0.00     0.031 C 
ENDROOT
BRANCH   1   2
ATOM      2  C   UNL     1       0.770  14.995  17.452  1.00  0.00    -0.074 C 
ATOM      3  C   UNL     1      -0.404  14.891  18.096  1.00  0.00     0.008 C 
BRANCH   2   4
ATOM      4  C   UNL     1       1.126  14.111  16.255  1.00  0.00     0.018 C 
ATOM      5  C   UNL     1      -0.017  13.553  12.719  1.00  0.00     0.008 C 
ATOM      6  C   UNL     1       0.896  13.535  13.949  1.00  0.00    -0.010 C 
ATOM      7  C   UNL     1       0.750  12.236  14.773  1.00  0.00     0.004 C 
ATOM      8  C   UNL     1       0.579  14.659  14.935  1.00  0.00     0.003 CG0
ATOM      9  C   UNL     1       0.701  12.646  16.253  1.00  0.00     0.008 C 
ATOM     10  G   UNL     1       1.293  15.994  14.646  1.00  0.00     0.000 G0
ENDBRANCH   2   4
ENDBRANCH   1   2
BRANCH   1  11
ATOM     11  C   UNL     1       1.499  17.396  16.722  1.00  0.00     0.009 C 
BRANCH  11  12
ATOM     12  C   UNL     1       0.570  17.045  15.548  1.00  0.00    -0.001 C 
ATOM     13  C   UNL     1       1.293  16.001  14.649  1.00  0.00     0.002 CG0
ATOM     14  C   UNL     1       0.746  17.301  14.059  1.00  0.00    -0.029 C 
ATOM     15  G   UNL     1       0.582  14.665  14.933  1.00  0.00     0.000 G0
ATOM     16  C   UNL     1       1.769  18.375  13.669  1.00  0.00     0.011 C 
ATOM     17  C   UNL     1      -0.522  17.204  13.205  1.00  0.00     0.011 C 
ENDBRANCH  11  12
ENDBRANCH   1  11
TORSDOF 0
ENDMDL
MODEL 4
REMARK VINA RESULT:    -3.698      1.245      3.535
REMARK INTER + INTRA:          -1.808
REMARK INTER:                  -4.522
REMARK INTRA:                   2.714
REMARK UNBOUND:                 2.754
REMARK SMILES C=C1CC[C@@H]2[C@@H]([C@H]3[C@H](C)CC[C@H]13)C2(C)C
REMARK SMILES IDX 3 1 2 2 1 3 12 4 9 5 8 6 10 7 7 8 11 9 4 11 5 12 6 13 13 14
REMARK SMILES IDX 14 16 15 17
REMARK H PARENT
REMARK Flexibility Score: 80.00
ROOT
ATOM      1  C   UNL     1       3.140  14.094  13.829  1.00  0.00     0.031 C 
ENDROOT
BRANCH   1   2
ATOM      2  C   UNL     1       1.897  14.578  13.074  1.00  0.00    -0.074 C 
ATOM      3  C   UNL     1       1.107  13.677  12.467  1.00  0.00     0.008 C 
BRANCH   2   4
ATOM      4  C   UNL     1       1.465  16.030  13.290  1.00  0.00     0.018 C 
ATOM      5  C   UNL     1      -1.115  17.949  15.235  1.00  0.00     0.008 C 
ATOM      6  C   UNL     1       0.168  17.668  14.444  1.00  0.00    -0.010 C 
ATOM      7  C   UNL     1      -0.006  17.917  12.930  1.00  0.00     0.004 C 
ATOM      8  C   UNL     1       0.619  16.212  14.552  1.00  0.00     0.003 CG0
ATOM      9  C   UNL     1       0.668  16.743  12.202  1.00  0.00     0.008 C 
ATOM     10  G   UNL     1       1.511  15.898  15.767  1.00  0.00     0.000 G0
ENDBRANCH   2   4
ENDBRANCH   1   2
BRANCH   1  11
ATOM     11  C   UNL     1       2.943  13.874  15.364  1.00  0.00     0.009 C 
BRANCH  11  12
ATOM     12  C   UNL     1       1.557  14.335  15.847  1.00  0.00    -0.001 C 
ATOM     13  C   UNL     1       1.510  15.889  15.784  1.00  0.00     0.002 CG0
ATOM     14  C   UNL     1       1.177  15.146  17.077  1.00  0.00    -0.029 C 
ATOM     15  G   UNL     1       0.621  16.216  14.569  1.00  0.00     0.000 G0
ATOM     16  C   UNL     1       2.216  15.205  18.203  1.00  0.00     0.011 C 
ATOM     17  C   UNL     1      -0.297  15.088  17.492  1.00  0.00     0.011 C 
ENDBRANCH  11  12
ENDBRANCH   1  11
TORSDOF 0
ENDMDL
MODEL 5
REMARK VINA RESULT:    -3.690      1.259      4.510
REMARK INTER + INTRA:          -1.799
REMARK INTER:                  -4.463
REMARK INTRA:                   2.664
REMARK UNBOUND:                 2.754
REMARK SMILES C=C1CC[C@@H]2[C@@H]([C@H]3[C@H](C)CC[C@H]13)C2(C)C
REMARK SMILES IDX 3 1 2 2 1 3 12 4 9 5 8 6 10 7 7 8 11 9 4 11 5 12 6 13 13 14
REMARK SMILES IDX 14 16 15 17
REMARK H PARENT
REMARK Flexibility Score: 80.00
ROOT
ATOM      1  C   UNL     1       2.171  14.597  12.419  1.00  0.00     0.031 C 
ENDROOT
BRANCH   1   2
ATOM      2  C   UNL     1       2.477  13.937  13.768  1.00  0.00    -0.074 C 
ATOM      3  C   UNL     1       3.750  13.873  14.192  1.00  0.00     0.008 C 
BRANCH   2   4
ATOM      4  C   UNL     1       1.292  13.639  14.689  1.00  0.00     0.018 C 
ATOM      5  C   UNL     1      -0.320  15.070  17.767  1.00  0.00     0.008 C 
ATOM      6  C   UNL     1      -0.165  14.258  16.476  1.00  0.00    -0.010 C 
ATOM      7  C   UNL     1       0.313  12.814  16.742  1.00  0.00     0.004 C 
ATOM      8  C   UNL     1       0.883  14.848  15.532  1.00  0.00     0.003 CG0
ATOM      9  C   UNL     1       1.398  12.500  15.699  1.00  0.00     0.008 C 
ATOM     10  G   UNL     1       0.355  15.933  14.575  1.00  0.00     0.000 G0
ENDBRANCH   2   4
ENDBRANCH   1   2
BRANCH   1  11
ATOM     11  C   UNL     1       1.771  16.107  12.493  1.00  0.00     0.009 C 
BRANCH  11  12
ATOM     12  C   UNL     1       1.621  16.601  13.941  1.00  0.00    -0.001 C 
ATOM     13  C   UNL     1       0.350  15.943  14.552  1.00  0.00     0.002 CG0
ATOM     14  C   UNL     1       0.532  17.461  14.567  1.00  0.00    -0.029 C 
ATOM     15  G   UNL     1       0.879  14.871  15.523  1.00  0.00     0.000 G0
ATOM     16  C   UNL     1      -0.332  18.277  13.598  1.00  0.00     0.011 C 
ATOM     17  C   UNL     1       0.878  18.112  15.909  1.00  0.00     0.011 C 
ENDBRANCH  11  12
ENDBRANCH   1  11
TORSDOF 0
ENDMDL
MODEL 6
REMARK VINA RESULT:    -3.524      1.230      3.508
REMARK INTER + INTRA:          -1.595
REMARK INTER:                  -4.296
REMARK INTRA:                   2.701
REMARK UNBOUND:                 2.754
REMARK SMILES C=C1CC[C@@H]2[C@@H]([C@H]3[C@H](C)CC[C@H]13)C2(C)C
REMARK SMILES IDX 3 1 2 2 1 3 12 4 9 5 8 6 10 7 7 8 11 9 4 11 5 12 6 13 13 14
REMARK SMILES IDX 14 16 15 17
REMARK H PARENT
REMARK Flexibility Score: 80.00
ROOT
ATOM      1  C   UNL     1       1.181  18.118  14.428  1.00  0.00     0.031 C 
ENDROOT
BRANCH   1   2
ATOM      2  C   UNL     1       0.243  17.227  15.251  1.00  0.00    -0.074 C 
ATOM      3  C   UNL     1      -1.082  17.303  15.044  1.00  0.00     0.008 C 
BRANCH   2   4
ATOM      4  C   UNL     1       0.881  16.097  16.061  1.00  0.00     0.018 C 
ATOM      5  C   UNL     1       1.346  12.375  15.835  1.00  0.00     0.008 C 
ATOM      6  C   UNL     1       1.580  13.824  16.276  1.00  0.00    -0.010 C 
ATOM      7  C   UNL     1       0.782  14.190  17.547  1.00  0.00     0.004 C 
ATOM      8  C   UNL     1       1.127  14.839  15.226  1.00  0.00     0.003 CG0
ATOM      9  C   UNL     1       0.173  15.581  17.311  1.00  0.00     0.008 C 
ATOM     10  G   UNL     1       2.184  15.181  14.159  1.00  0.00     0.000 G0
ENDBRANCH   2   4
ENDBRANCH   1   2
BRANCH   1  11
ATOM     11  C   UNL     1       1.787  17.448  13.152  1.00  0.00     0.009 C 
BRANCH  11  12
ATOM     12  C   UNL     1       1.416  15.960  13.042  1.00  0.00    -0.001 C 
ATOM     13  C   UNL     1       2.183  15.182  14.149  1.00  0.00     0.002 CG0
ATOM     14  C   UNL     1       2.286  14.765  12.683  1.00  0.00    -0.029 C 
ATOM     15  G   UNL     1       1.119  14.834  15.208  1.00  0.00     0.000 G0
ATOM     16  C   UNL     1       3.603  15.074  11.960  1.00  0.00     0.011 C 
ATOM     17  C   UNL     1       1.542  13.493  12.261  1.00  0.00     0.011 C 
ENDBRANCH  11  12
ENDBRANCH   1  11
TORSDOF 0
ENDMDL
MODEL 7
REMARK VINA RESULT:    -3.086      1.453      3.649
REMARK INTER + INTRA:          -1.054
REMARK INTER:                  -3.787
REMARK INTRA:                   2.733
REMARK UNBOUND:                 2.754
REMARK SMILES C=C1CC[C@@H]2[C@@H]([C@H]3[C@H](C)CC[C@H]13)C2(C)C
REMARK SMILES IDX 3 1 2 2 1 3 12 4 9 5 8 6 10 7 7 8 11 9 4 11 5 12 6 13 13 14
REMARK SMILES IDX 14 16 15 17
REMARK H PARENT
REMARK Flexibility Score: 80.00
ROOT
ATOM      1  C   UNL     1       2.229  15.609  12.678  1.00  0.00     0.031 C 
ENDROOT
BRANCH   1   2
ATOM      2  C   UNL     1       1.504  16.266  13.858  1.00  0.00    -0.074 C 
ATOM      3  C   UNL     1       0.541  17.171  13.613  1.00  0.00     0.008 C 
BRANCH   2   4
ATOM      4  C   UNL     1       1.717  15.653  15.243  1.00  0.00     0.018 C 
ATOM      5  C   UNL     1      -0.094  13.394  17.638  1.00  0.00     0.008 C 
ATOM      6  C   UNL     1       1.066  14.146  16.977  1.00  0.00    -0.010 C 
ATOM      7  C   UNL     1       1.322  15.524  17.626  1.00  0.00     0.004 C 
ATOM      8  C   UNL     1       0.804  14.453  15.502  1.00  0.00     0.003 CG0
ATOM      9  C   UNL     1       1.545  16.526  16.482  1.00  0.00     0.008 C 
ATOM     10  G   UNL     1       1.208  13.332  14.526  1.00  0.00     0.000 G0
ENDBRANCH   2   4
ENDBRANCH   1   2
BRANCH   1  11
ATOM     11  C   UNL     1       1.646  14.230  12.224  1.00  0.00     0.009 C 
BRANCH  11  12
ATOM     12  C   UNL     1       0.539  13.726  13.165  1.00  0.00    -0.001 C 
ATOM     13  C   UNL     1       1.193  13.328  14.519  1.00  0.00     0.002 CG0
ATOM     14  C   UNL     1       0.318  12.339  13.750  1.00  0.00    -0.029 C 
ATOM     15  G   UNL     1       0.798  14.447  15.501  1.00  0.00     0.000 G0
ATOM     16  C   UNL     1       1.032  11.180  13.043  1.00  0.00     0.011 C 
ATOM     17  C   UNL     1      -1.081  12.059  14.308  1.00  0.00     0.011 C 
ENDBRANCH  11  12
ENDBRANCH   1  11
TORSDOF 0
ENDMDL
MODEL 8
REMARK VINA RESULT:    -2.809      2.080      5.013
REMARK INTER + INTRA:          -0.712
REMARK INTER:                  -3.388
REMARK INTRA:                   2.676
REMARK UNBOUND:                 2.754
REMARK SMILES C=C1CC[C@@H]2[C@@H]([C@H]3[C@H](C)CC[C@H]13)C2(C)C
REMARK SMILES IDX 3 1 2 2 1 3 12 4 9 5 8 6 10 7 7 8 11 9 4 11 5 12 6 13 13 14
REMARK SMILES IDX 14 16 15 17
REMARK H PARENT
REMARK Flexibility Score: 80.00
ROOT
ATOM      1  C   UNL     1       3.792  15.320  11.915  1.00  0.00     0.031 C 
ENDROOT
BRANCH   1   2
ATOM      2  C   UNL     1       3.649  13.923  12.528  1.00  0.00    -0.074 C 
ATOM      3  C   UNL     1       4.489  13.547  13.507  1.00  0.00     0.008 C 
BRANCH   2   4
ATOM      4  C   UNL     1       2.381  13.135  12.191  1.00  0.00     0.018 C 
ATOM      5  C   UNL     1      -0.913  12.272  13.780  1.00  0.00     0.008 C 
ATOM      6  C   UNL     1       0.136  12.490  12.684  1.00  0.00    -0.010 C 
ATOM      7  C   UNL     1       0.933  11.205  12.367  1.00  0.00     0.004 C 
ATOM      8  C   UNL     1       1.196  13.518  13.079  1.00  0.00     0.003 CG0
ATOM      9  C   UNL     1       2.410  11.611  12.247  1.00  0.00     0.008 C 
ATOM     10  G   UNL     1       0.827  14.981  12.767  1.00  0.00     0.000 G0
ENDBRANCH   2   4
ENDBRANCH   1   2
BRANCH   1  11
ATOM     11  C   UNL     1       2.893  16.425  12.560  1.00  0.00     0.009 C 
BRANCH  11  12
ATOM     12  C   UNL     1       1.887  15.845  13.567  1.00  0.00    -0.001 C 
ATOM     13  C   UNL     1       0.833  15.012  12.781  1.00  0.00     0.002 CG0
ATOM     14  C   UNL     1       0.401  16.129  13.731  1.00  0.00    -0.029 C 
ATOM     15  G   UNL     1       1.183  13.541  13.073  1.00  0.00     0.000 G0
ATOM     16  C   UNL     1      -0.119  17.424  13.095  1.00  0.00     0.011 C 
ATOM     17  C   UNL     1      -0.221  15.711  15.067  1.00  0.00     0.011 C 
ENDBRANCH  11  12
ENDBRANCH   1  11
TORSDOF 0
ENDMDL
MODEL 9
REMARK VINA RESULT:    -2.806      1.445      2.307
REMARK INTER + INTRA:          -0.708
REMARK INTER:                  -3.441
REMARK INTRA:                   2.733
REMARK UNBOUND:                 2.754
REMARK SMILES C=C1CC[C@@H]2[C@@H]([C@H]3[C@H](C)CC[C@H]13)C2(C)C
REMARK SMILES IDX 3 1 2 2 1 3 12 4 9 5 8 6 10 7 7 8 11 9 4 11 5 12 6 13 13 14
REMARK SMILES IDX 14 16 15 17
REMARK H PARENT
REMARK Flexibility Score: 80.00
ROOT
ATOM      1  C   UNL     1       1.104  17.444  17.721  1.00  0.00     0.031 C 
ENDROOT
BRANCH   1   2
ATOM      2  C   UNL     1       1.146  17.977  16.284  1.00  0.00    -0.074 C 
ATOM      3  C   UNL     1       2.228  18.655  15.868  1.00  0.00     0.008 C 
BRANCH   2   4
ATOM      4  C   UNL     1       0.077  17.468  15.315  1.00  0.00     0.018 C 
ATOM      5  C   UNL     1      -0.236  14.988  12.509  1.00  0.00     0.008 C 
ATOM      6  C   UNL     1      -0.656  15.927  13.645  1.00  0.00    -0.010 C 
ATOM      7  C   UNL     1      -0.982  17.351  13.143  1.00  0.00     0.004 C 
ATOM      8  C   UNL     1       0.447  16.123  14.685  1.00  0.00     0.003 CG0
ATOM      9  C   UNL     1      -0.331  18.335  14.128  1.00  0.00     0.008 C 
ATOM     10  G   UNL     1       0.475  15.068  15.806  1.00  0.00     0.000 G0
ENDBRANCH   2   4
ENDBRANCH   1   2
BRANCH   1  11
ATOM     11  C   UNL     1       1.569  15.962  17.894  1.00  0.00     0.009 C 
BRANCH  11  12
ATOM     12  C   UNL     1       1.838  15.272  16.546  1.00  0.00    -0.001 C 
ATOM     13  C   UNL     1       0.476  15.077  15.818  1.00  0.00     0.002 CG0
ATOM     14  C   UNL     1       1.415  13.895  16.058  1.00  0.00    -0.029 C 
ATOM     15  G   UNL     1       0.469  16.126  14.690  1.00  0.00     0.000 G0
ATOM     16  C   UNL     1       1.005  12.886  17.137  1.00  0.00     0.011 C 
ATOM     17  C   UNL     1       2.176  13.348  14.846  1.00  0.00     0.011 C 
ENDBRANCH  11  12
ENDBRANCH   1  11
TORSDOF 0
ENDMDL
