MODEL 1
REMARK VINA RESULT:    -3.775      0.000      0.000
REMARK INTER + INTRA:          -5.546
REMARK INTER:                  -5.319
REMARK INTRA:                  -0.226
REMARK UNBOUND:                -0.226
REMARK SMILES CC1=CCC(=C(C)C)C(=O)CC(C)=CCC1
REMARK SMILES IDX 12 1 14 2 13 3 15 4 16 5 2 6 1 7 3 8 11 10 9 11 10 12 5 13
REMARK SMILES IDX 6 14 7 15 8 16 4 17
REMARK H PARENT
REMARK Flexibility Score: 60.00
ROOT
ATOM      1  C   UNL     1      -7.180   3.856  52.023  1.00  0.00    -0.070 C 
ATOM      2  C   UNL     1      -6.266   3.830  53.021  1.00  0.00    -0.027 C 
ATOM      3  C   UNL     1      -7.045   4.954  50.995  1.00  0.00     0.039 C 
ENDROOT
BRANCH   2   4
ATOM      4  C   UNL     1      -6.174   2.809  54.126  1.00  0.00     0.032 C 
BRANCH   4   5
ATOM      5  C   UNL     1      -7.380   2.779  55.096  1.00  0.00     0.034 C 
BRANCH   5   6
ATOM      6  C   UNL     1      -7.927   4.139  55.506  1.00  0.00    -0.077 C 
ATOM      7  C   UNL     1      -7.029   5.035  56.325  1.00  0.00     0.039 C 
ATOM      8  C   UNL     1      -9.184   4.592  55.244  1.00  0.00    -0.023 CG0
ATOM      9  G   UNL     1     -10.263   4.011  54.342  1.00  0.00     0.000 G0
ENDBRANCH   5   6
ENDBRANCH   4   5
ENDBRANCH   2   4
BRANCH   1  10
ATOM     10  C   UNL     1      -8.298   2.836  51.835  1.00  0.00     0.111 C 
BRANCH  10  11
ATOM     11  C   UNL     1      -9.711   3.370  51.858  1.00  0.00     0.163 C 
ATOM     12  O   UNL     1     -10.499   2.907  50.989  1.00  0.00    -0.294 OA
BRANCH  11  13
ATOM     13  C   UNL     1     -10.208   4.389  52.853  1.00  0.00    -0.002 C 
ATOM     14  C   UNL     1     -10.666   5.622  52.466  1.00  0.00    -0.069 C 
ATOM     15  C   UNL     1     -11.274   6.585  53.462  1.00  0.00     0.039 C 
ATOM     16  C   UNL     1     -10.559   6.109  51.038  1.00  0.00     0.039 C 
BRANCH  13  17
ATOM     17  C   UNL     1     -10.253   3.996  54.322  1.00  0.00     0.066 CG0
ATOM     18  G   UNL     1      -9.190   4.602  55.226  1.00  0.00     0.000 G0
ENDBRANCH  13  17
ENDBRANCH  11  13
ENDBRANCH  10  11
ENDBRANCH   1  10
TORSDOF 0
ENDMDL
MODEL 2
REMARK VINA RESULT:    -3.547      3.366      5.445
REMARK INTER + INTRA:          -5.224
REMARK INTER:                  -5.208
REMARK INTRA:                  -0.017
REMARK UNBOUND:                -0.226
REMARK SMILES CC1=CCC(=C(C)C)C(=O)CC(C)=CCC1
REMARK SMILES IDX 12 1 14 2 13 3 15 4 16 5 2 6 1 7 3 8 11 10 9 11 10 12 5 13
REMARK SMILES IDX 6 14 7 15 8 16 4 17
REMARK H PARENT
REMARK Flexibility Score: 60.00
ROOT
ATOM      1  C   UNL     1      -4.500   2.850  58.437  1.00  0.00    -0.070 C 
ATOM      2  C   UNL     1      -4.544   3.786  59.415  1.00  0.00    -0.027 C 
ATOM      3  C   UNL     1      -4.318   1.414  58.868  1.00  0.00     0.039 C 
ENDROOT
BRANCH   2   4
ATOM      4  C   UNL     1      -4.761   5.265  59.230  1.00  0.00     0.032 C 
BRANCH   4   5
ATOM      5  C   UNL     1      -6.113   5.803  59.758  1.00  0.00     0.034 C 
BRANCH   5   6
ATOM      6  C   UNL     1      -7.318   4.907  59.510  1.00  0.00    -0.077 C 
ATOM      7  C   UNL     1      -7.964   4.259  60.712  1.00  0.00     0.039 C 
ATOM      8  C   UNL     1      -7.827   4.594  58.287  1.00  0.00    -0.023 CG0
ATOM      9  G   UNL     1      -7.507   5.177  56.918  1.00  0.00     0.000 G0
ENDBRANCH   5   6
ENDBRANCH   4   5
ENDBRANCH   2   4
BRANCH   1  10
ATOM     10  C   UNL     1      -4.669   3.132  56.949  1.00  0.00     0.111 C 
BRANCH  10  11
ATOM     11  C   UNL     1      -6.075   3.054  56.401  1.00  0.00     0.163 C 
ATOM     12  O   UNL     1      -6.610   1.913  56.395  1.00  0.00    -0.294 OA
BRANCH  11  13
ATOM     13  C   UNL     1      -6.845   4.247  55.890  1.00  0.00    -0.002 C 
ATOM     14  C   UNL     1      -7.021   4.481  54.551  1.00  0.00    -0.069 C 
ATOM     15  C   UNL     1      -7.898   5.612  54.058  1.00  0.00     0.039 C 
ATOM     16  C   UNL     1      -6.326   3.657  53.491  1.00  0.00     0.039 C 
BRANCH  13  17
ATOM     17  C   UNL     1      -7.493   5.173  56.908  1.00  0.00     0.066 CG0
ATOM     18  G   UNL     1      -7.828   4.571  58.266  1.00  0.00     0.000 G0
ENDBRANCH  13  17
ENDBRANCH  11  13
ENDBRANCH  10  11
ENDBRANCH   1  10
TORSDOF 0
ENDMDL
MODEL 3
REMARK VINA RESULT:    -3.517      4.149      6.549
REMARK INTER + INTRA:          -5.182
REMARK INTER:                  -4.979
REMARK INTRA:                  -0.203
REMARK UNBOUND:                -0.226
REMARK SMILES CC1=CCC(=C(C)C)C(=O)CC(C)=CCC1
REMARK SMILES IDX 12 1 14 2 13 3 15 4 16 5 2 6 1 7 3 8 11 10 9 11 10 12 5 13
REMARK SMILES IDX 6 14 7 15 8 16 4 17
REMARK H PARENT
REMARK Flexibility Score: 60.00
ROOT
ATOM      1  C   UNL     1      -4.663   3.529  58.694  1.00  0.00    -0.070 C 
ATOM      2  C   UNL     1      -4.710   3.187  57.385  1.00  0.00    -0.027 C 
ATOM      3  C   UNL     1      -3.732   2.735  59.580  1.00  0.00     0.039 C 
ENDROOT
BRANCH   2   4
ATOM      4  C   UNL     1      -5.524   3.862  56.312  1.00  0.00     0.032 C 
BRANCH   4   5
ATOM      5  C   UNL     1      -7.043   3.571  56.357  1.00  0.00     0.034 C 
BRANCH   5   6
ATOM      6  C   UNL     1      -7.949   4.786  56.220  1.00  0.00    -0.077 C 
ATOM      7  C   UNL     1      -7.994   5.477  54.878  1.00  0.00     0.039 C 
ATOM      8  C   UNL     1      -8.680   5.340  57.228  1.00  0.00    -0.023 CG0
ATOM      9  G   UNL     1      -8.961   4.819  58.629  1.00  0.00     0.000 G0
ENDBRANCH   5   6
ENDBRANCH   4   5
ENDBRANCH   2   4
BRANCH   1  10
ATOM     10  C   UNL     1      -5.437   4.681  59.326  1.00  0.00     0.111 C 
BRANCH  10  11
ATOM     11  C   UNL     1      -6.785   4.346  59.919  1.00  0.00     0.163 C 
ATOM     12  O   UNL     1      -6.846   3.290  60.607  1.00  0.00    -0.294 OA
BRANCH  11  13
ATOM     13  C   UNL     1      -8.017   5.198  59.742  1.00  0.00    -0.002 C 
ATOM     14  C   UNL     1      -8.245   6.315  60.505  1.00  0.00    -0.069 C 
ATOM     15  C   UNL     1      -9.422   7.227  60.232  1.00  0.00     0.039 C 
ATOM     16  C   UNL     1      -7.366   6.683  61.678  1.00  0.00     0.039 C 
BRANCH  13  17
ATOM     17  C   UNL     1      -8.994   4.828  58.637  1.00  0.00     0.066 CG0
ATOM     18  G   UNL     1      -8.683   5.353  57.243  1.00  0.00     0.000 G0
ENDBRANCH  13  17
ENDBRANCH  11  13
ENDBRANCH  10  11
ENDBRANCH   1  10
TORSDOF 0
ENDMDL
MODEL 4
REMARK VINA RESULT:    -3.481      8.675     11.351
REMARK INTER + INTRA:          -5.131
REMARK INTER:                  -5.008
REMARK INTRA:                  -0.123
REMARK UNBOUND:                -0.226
REMARK SMILES CC1=CCC(=C(C)C)C(=O)CC(C)=CCC1
REMARK SMILES IDX 12 1 14 2 13 3 15 4 16 5 2 6 1 7 3 8 11 10 9 11 10 12 5 13
REMARK SMILES IDX 6 14 7 15 8 16 4 17
REMARK H PARENT
REMARK Flexibility Score: 60.00
ROOT
ATOM      1  C   UNL     1       0.392   1.931  59.343  1.00  0.00    -0.070 C 
ATOM      2  C   UNL     1      -0.827   1.724  59.893  1.00  0.00    -0.027 C 
ATOM      3  C   UNL     1       1.510   2.328  60.279  1.00  0.00     0.039 C 
ENDROOT
BRANCH   2   4
ATOM      4  C   UNL     1      -2.072   1.280  59.168  1.00  0.00     0.032 C 
BRANCH   4   5
ATOM      5  C   UNL     1      -2.052  -0.181  58.660  1.00  0.00     0.034 C 
BRANCH   5   6
ATOM      6  C   UNL     1      -2.304  -0.363  57.170  1.00  0.00    -0.077 C 
ATOM      7  C   UNL     1      -3.628   0.115  56.622  1.00  0.00     0.039 C 
ATOM      8  C   UNL     1      -1.457  -0.975  56.298  1.00  0.00    -0.023 CG0
ATOM      9  G   UNL     1      -0.018  -1.430  56.492  1.00  0.00     0.000 G0
ENDBRANCH   5   6
ENDBRANCH   4   5
ENDBRANCH   2   4
BRANCH   1  10
ATOM     10  C   UNL     1       0.730   1.746  57.868  1.00  0.00     0.111 C 
BRANCH  10  11
ATOM     11  C   UNL     1       1.445   0.469  57.493  1.00  0.00     0.163 C 
ATOM     12  O   UNL     1       2.388   0.112  58.251  1.00  0.00    -0.294 OA
BRANCH  11  13
ATOM     13  C   UNL     1       1.083  -0.377  56.298  1.00  0.00    -0.002 C 
ATOM     14  C   UNL     1       1.737  -0.262  55.098  1.00  0.00    -0.069 C 
ATOM     15  C   UNL     1       1.444  -1.201  53.948  1.00  0.00     0.039 C 
ATOM     16  C   UNL     1       2.756   0.824  54.838  1.00  0.00     0.039 C 
BRANCH  13  17
ATOM     17  C   UNL     1      -0.003  -1.429  56.465  1.00  0.00     0.066 CG0
ATOM     18  G   UNL     1      -1.441  -0.965  56.281  1.00  0.00     0.000 G0
ENDBRANCH  13  17
ENDBRANCH  11  13
ENDBRANCH  10  11
ENDBRANCH   1  10
TORSDOF 0
ENDMDL
MODEL 5
REMARK VINA RESULT:    -3.461      1.627      2.072
REMARK INTER + INTRA:          -5.104
REMARK INTER:                  -4.723
REMARK INTRA:                  -0.381
REMARK UNBOUND:                -0.226
REMARK SMILES CC1=CCC(=C(C)C)C(=O)CC(C)=CCC1
REMARK SMILES IDX 12 1 14 2 13 3 15 4 16 5 2 6 1 7 3 8 11 10 9 11 10 12 5 13
REMARK SMILES IDX 6 14 7 15 8 16 4 17
REMARK H PARENT
REMARK Flexibility Score: 60.00
ROOT
ATOM      1  C   UNL     1      -7.284   2.392  52.536  1.00  0.00    -0.070 C 
ATOM      2  C   UNL     1      -6.494   2.531  53.626  1.00  0.00    -0.027 C 
ATOM      3  C   UNL     1      -8.142   1.150  52.463  1.00  0.00     0.039 C 
ENDROOT
BRANCH   2   4
ATOM      4  C   UNL     1      -5.593   3.699  53.936  1.00  0.00     0.032 C 
BRANCH   4   5
ATOM      5  C   UNL     1      -6.291   4.913  54.594  1.00  0.00     0.034 C 
BRANCH   5   6
ATOM      6  C   UNL     1      -7.505   4.586  55.453  1.00  0.00    -0.077 C 
ATOM      7  C   UNL     1      -7.256   3.958  56.804  1.00  0.00     0.039 C 
ATOM      8  C   UNL     1      -8.803   4.758  55.078  1.00  0.00    -0.023 CG0
ATOM      9  G   UNL     1      -9.382   5.480  53.871  1.00  0.00     0.000 G0
ENDBRANCH   5   6
ENDBRANCH   4   5
ENDBRANCH   2   4
BRANCH   1  10
ATOM     10  C   UNL     1      -7.408   3.411  51.409  1.00  0.00     0.111 C 
BRANCH  10  11
ATOM     11  C   UNL     1      -8.151   4.687  51.730  1.00  0.00     0.163 C 
ATOM     12  O   UNL     1      -7.661   5.752  51.266  1.00  0.00    -0.294 OA
BRANCH  11  13
ATOM     13  C   UNL     1      -9.421   4.737  52.542  1.00  0.00    -0.002 C 
ATOM     14  C   UNL     1     -10.564   4.090  52.149  1.00  0.00    -0.069 C 
ATOM     15  C   UNL     1     -11.791   4.049  53.035  1.00  0.00     0.039 C 
ATOM     16  C   UNL     1     -10.683   3.413  50.803  1.00  0.00     0.039 C 
BRANCH  13  17
ATOM     17  C   UNL     1      -9.397   5.484  53.867  1.00  0.00     0.066 CG0
ATOM     18  G   UNL     1      -8.785   4.754  55.054  1.00  0.00     0.000 G0
ENDBRANCH  13  17
ENDBRANCH  11  13
ENDBRANCH  10  11
ENDBRANCH   1  10
TORSDOF 0
ENDMDL
MODEL 6
REMARK VINA RESULT:    -3.459      4.720      6.494
REMARK INTER + INTRA:          -5.101
REMARK INTER:                  -4.908
REMARK INTRA:                  -0.193
REMARK UNBOUND:                -0.226
REMARK SMILES CC1=CCC(=C(C)C)C(=O)CC(C)=CCC1
REMARK SMILES IDX 12 1 14 2 13 3 15 4 16 5 2 6 1 7 3 8 11 10 9 11 10 12 5 13
REMARK SMILES IDX 6 14 7 15 8 16 4 17
REMARK H PARENT
REMARK Flexibility Score: 60.00
ROOT
ATOM      1  C   UNL     1      -6.595   5.468  56.507  1.00  0.00    -0.070 C 
ATOM      2  C   UNL     1      -6.606   4.433  55.634  1.00  0.00    -0.027 C 
ATOM      3  C   UNL     1      -7.843   6.317  56.581  1.00  0.00     0.039 C 
ENDROOT
BRANCH   2   4
ATOM      4  C   UNL     1      -5.501   3.430  55.422  1.00  0.00     0.032 C 
BRANCH   4   5
ATOM      5  C   UNL     1      -5.658   2.103  56.202  1.00  0.00     0.034 C 
BRANCH   5   6
ATOM      6  C   UNL     1      -4.861   2.003  57.495  1.00  0.00    -0.077 C 
ATOM      7  C   UNL     1      -3.430   1.528  57.398  1.00  0.00     0.039 C 
ATOM      8  C   UNL     1      -5.349   2.250  58.742  1.00  0.00    -0.023 CG0
ATOM      9  G   UNL     1      -6.674   2.867  59.166  1.00  0.00     0.000 G0
ENDBRANCH   5   6
ENDBRANCH   4   5
ENDBRANCH   2   4
BRANCH   1  10
ATOM     10  C   UNL     1      -5.446   5.806  57.450  1.00  0.00     0.111 C 
BRANCH  10  11
ATOM     11  C   UNL     1      -5.496   5.187  58.827  1.00  0.00     0.163 C 
ATOM     12  O   UNL     1      -4.482   5.361  59.556  1.00  0.00    -0.294 OA
BRANCH  11  13
ATOM     13  C   UNL     1      -6.674   4.406  59.355  1.00  0.00    -0.002 C 
ATOM     14  C   UNL     1      -7.755   5.021  59.933  1.00  0.00    -0.069 C 
ATOM     15  C   UNL     1      -8.981   4.235  60.345  1.00  0.00     0.039 C 
ATOM     16  C   UNL     1      -7.777   6.504  60.226  1.00  0.00     0.039 C 
BRANCH  13  17
ATOM     17  C   UNL     1      -6.674   2.896  59.176  1.00  0.00     0.066 CG0
ATOM     18  G   UNL     1      -5.363   2.259  58.740  1.00  0.00     0.000 G0
ENDBRANCH  13  17
ENDBRANCH  11  13
ENDBRANCH  10  11
ENDBRANCH   1  10
TORSDOF 0
ENDMDL
MODEL 7
REMARK VINA RESULT:    -3.437      1.814      3.375
REMARK INTER + INTRA:          -5.069
REMARK INTER:                  -5.074
REMARK INTRA:                   0.005
REMARK UNBOUND:                -0.226
REMARK SMILES CC1=CCC(=C(C)C)C(=O)CC(C)=CCC1
REMARK SMILES IDX 12 1 14 2 13 3 15 4 16 5 2 6 1 7 3 8 11 10 9 11 10 12 5 13
REMARK SMILES IDX 6 14 7 15 8 16 4 17
REMARK H PARENT
REMARK Flexibility Score: 60.00
ROOT
ATOM      1  C   UNL     1      -5.805   3.935  55.986  1.00  0.00    -0.070 C 
ATOM      2  C   UNL     1      -6.248   4.829  56.901  1.00  0.00    -0.027 C 
ATOM      3  C   UNL     1      -5.141   2.684  56.513  1.00  0.00     0.039 C 
ENDROOT
BRANCH   2   4
ATOM      4  C   UNL     1      -6.976   6.117  56.615  1.00  0.00     0.032 C 
BRANCH   4   5
ATOM      5  C   UNL     1      -8.410   6.205  57.191  1.00  0.00     0.034 C 
BRANCH   5   6
ATOM      6  C   UNL     1      -9.350   5.077  56.789  1.00  0.00    -0.077 C 
ATOM      7  C   UNL     1      -9.988   4.272  57.896  1.00  0.00     0.039 C 
ATOM      8  C   UNL     1      -9.617   4.694  55.510  1.00  0.00    -0.023 CG0
ATOM      9  G   UNL     1      -9.259   5.369  54.194  1.00  0.00     0.000 G0
ENDBRANCH   5   6
ENDBRANCH   4   5
ENDBRANCH   2   4
BRANCH   1  10
ATOM     10  C   UNL     1      -5.968   4.074  54.477  1.00  0.00     0.111 C 
BRANCH  10  11
ATOM     11  C   UNL     1      -7.304   3.669  53.901  1.00  0.00     0.163 C 
ATOM     12  O   UNL     1      -7.595   2.444  53.970  1.00  0.00    -0.294 OA
BRANCH  11  13
ATOM     13  C   UNL     1      -8.279   4.638  53.279  1.00  0.00    -0.002 C 
ATOM     14  C   UNL     1      -8.338   4.844  51.925  1.00  0.00    -0.069 C 
ATOM     15  C   UNL     1      -9.403   5.725  51.308  1.00  0.00     0.039 C 
ATOM     16  C   UNL     1      -7.330   4.240  50.974  1.00  0.00     0.039 C 
BRANCH  13  17
ATOM     17  C   UNL     1      -9.263   5.353  54.193  1.00  0.00     0.066 CG0
ATOM     18  G   UNL     1      -9.591   4.671  55.513  1.00  0.00     0.000 G0
ENDBRANCH  13  17
ENDBRANCH  11  13
ENDBRANCH  10  11
ENDBRANCH   1  10
TORSDOF 0
ENDMDL
MODEL 8
REMARK VINA RESULT:    -3.310     10.627     12.381
REMARK INTER + INTRA:          -4.892
REMARK INTER:                  -4.666
REMARK INTRA:                  -0.226
REMARK UNBOUND:                -0.226
REMARK SMILES CC1=CCC(=C(C)C)C(=O)CC(C)=CCC1
REMARK SMILES IDX 12 1 14 2 13 3 15 4 16 5 2 6 1 7 3 8 11 10 9 11 10 12 5 13
REMARK SMILES IDX 6 14 7 15 8 16 4 17
REMARK H PARENT
REMARK Flexibility Score: 60.00
ROOT
ATOM      1  C   UNL     1       0.757   1.474  56.540  1.00  0.00    -0.070 C 
ATOM      2  C   UNL     1       0.979   2.047  57.746  1.00  0.00    -0.027 C 
ATOM      3  C   UNL     1       1.592   1.967  55.381  1.00  0.00     0.039 C 
ENDROOT
BRANCH   2   4
ATOM      4  C   UNL     1       0.304   1.689  59.046  1.00  0.00     0.032 C 
BRANCH   4   5
ATOM      5  C   UNL     1       1.153   0.830  60.013  1.00  0.00     0.034 C 
BRANCH   5   6
ATOM      6  C   UNL     1       0.903  -0.670  59.950  1.00  0.00    -0.077 C 
ATOM      7  C   UNL     1      -0.055  -1.261  60.957  1.00  0.00     0.039 C 
ATOM      8  C   UNL     1       1.518  -1.536  59.098  1.00  0.00    -0.023 CG0
ATOM      9  G   UNL     1       2.406  -1.254  57.895  1.00  0.00     0.000 G0
ENDBRANCH   5   6
ENDBRANCH   4   5
ENDBRANCH   2   4
BRANCH   1  10
ATOM     10  C   UNL     1      -0.229   0.342  56.278  1.00  0.00     0.111 C 
BRANCH  10  11
ATOM     11  C   UNL     1       0.317  -1.064  56.360  1.00  0.00     0.163 C 
ATOM     12  O   UNL     1      -0.528  -1.997  56.289  1.00  0.00    -0.294 OA
BRANCH  11  13
ATOM     13  C   UNL     1       1.783  -1.389  56.505  1.00  0.00    -0.002 C 
ATOM     14  C   UNL     1       2.562  -1.737  55.432  1.00  0.00    -0.069 C 
ATOM     15  C   UNL     1       4.055  -1.940  55.575  1.00  0.00     0.039 C 
ATOM     16  C   UNL     1       1.978  -1.975  54.057  1.00  0.00     0.039 C 
BRANCH  13  17
ATOM     17  C   UNL     1       2.414  -1.260  57.883  1.00  0.00     0.066 CG0
ATOM     18  G   UNL     1       1.511  -1.530  59.078  1.00  0.00     0.000 G0
ENDBRANCH  13  17
ENDBRANCH  11  13
ENDBRANCH  10  11
ENDBRANCH   1  10
TORSDOF 0
ENDMDL
MODEL 9
REMARK VINA RESULT:    -3.308      2.171      4.300
REMARK INTER + INTRA:          -4.889
REMARK INTER:                  -4.684
REMARK INTRA:                  -0.205
REMARK UNBOUND:                -0.226
REMARK SMILES CC1=CCC(=C(C)C)C(=O)CC(C)=CCC1
REMARK SMILES IDX 12 1 14 2 13 3 15 4 16 5 2 6 1 7 3 8 11 10 9 11 10 12 5 13
REMARK SMILES IDX 6 14 7 15 8 16 4 17
REMARK H PARENT
REMARK Flexibility Score: 60.00
ROOT
ATOM      1  C   UNL     1      -6.124   3.974  54.816  1.00  0.00    -0.070 C 
ATOM      2  C   UNL     1      -6.122   3.414  53.584  1.00  0.00    -0.027 C 
ATOM      3  C   UNL     1      -5.480   3.184  55.931  1.00  0.00     0.039 C 
ENDROOT
BRANCH   2   4
ATOM      4  C   UNL     1      -6.663   4.031  52.319  1.00  0.00     0.032 C 
BRANCH   4   5
ATOM      5  C   UNL     1      -8.131   3.672  51.987  1.00  0.00     0.034 C 
BRANCH   5   6
ATOM      6  C   UNL     1      -9.167   4.718  52.374  1.00  0.00    -0.077 C 
ATOM      7  C   UNL     1      -9.496   5.785  51.357  1.00  0.00     0.039 C 
ATOM      8  C   UNL     1      -9.779   4.806  53.586  1.00  0.00    -0.023 CG0
ATOM      9  G   UNL     1      -9.779   3.830  54.754  1.00  0.00     0.000 G0
ENDBRANCH   5   6
ENDBRANCH   4   5
ENDBRANCH   2   4
BRANCH   1  10
ATOM     10  C   UNL     1      -6.680   5.354  55.149  1.00  0.00     0.111 C 
BRANCH  10  11
ATOM     11  C   UNL     1      -8.012   5.393  55.860  1.00  0.00     0.163 C 
ATOM     12  O   UNL     1      -8.341   6.498  56.372  1.00  0.00    -0.294 OA
BRANCH  11  13
ATOM     13  C   UNL     1      -8.942   4.210  55.969  1.00  0.00    -0.002 C 
ATOM     14  C   UNL     1      -9.092   3.507  57.137  1.00  0.00    -0.069 C 
ATOM     15  C   UNL     1     -10.118   2.401  57.263  1.00  0.00     0.039 C 
ATOM     16  C   UNL     1      -8.225   3.763  58.348  1.00  0.00     0.039 C 
BRANCH  13  17
ATOM     17  C   UNL     1      -9.777   3.839  54.753  1.00  0.00     0.066 CG0
ATOM     18  G   UNL     1      -9.771   4.822  53.592  1.00  0.00     0.000 G0
ENDBRANCH  13  17
ENDBRANCH  11  13
ENDBRANCH  10  11
ENDBRANCH   1  10
TORSDOF 0
ENDMDL
