MODEL 1
REMARK VINA RESULT:    -4.565      0.000      0.000
REMARK INTER + INTRA:         -10.272
REMARK INTER:                  -8.568
REMARK INTRA:                  -1.704
REMARK UNBOUND:                -1.704
REMARK SMILES O=C([O-])CCCCCCCCCCCCCCC(=O)[O-]
REMARK SMILES IDX 10 1 9 2 8 3 7 4 6 5 5 6 4 7 2 8 1 9 3 10 11 11 12 12 13 13
REMARK SMILES IDX 14 14 15 15 16 16 17 17 18 18 19 19 20 20
REMARK H PARENT
REMARK Flexibility Score: inf
ROOT
ATOM      1  C   UNL     1     -11.276   3.161   7.151  1.00  0.00     0.000 C 
ENDROOT
BRANCH   1   2
ATOM      2  C   UNL     1     -10.687   4.572   7.344  1.00  0.00     0.000 C 
BRANCH   2   3
ATOM      3  C   UNL     1      -9.968   5.098   6.094  1.00  0.00     0.000 C 
BRANCH   3   4
ATOM      4  C   UNL     1      -9.383   6.497   6.345  1.00  0.00     0.000 C 
BRANCH   4   5
ATOM      5  C   UNL     1      -9.551   7.443   5.141  1.00  0.00     0.000 C 
BRANCH   5   6
ATOM      6  C   UNL     1      -9.318   8.933   5.449  1.00  0.00     0.006 C 
BRANCH   6   7
ATOM      7  C   UNL     1      -7.889   9.392   5.134  1.00  0.00     0.053 C 
BRANCH   7   8
ATOM      8  C   UNL     1      -7.281  10.060   6.326  1.00  0.00     0.041 C 
ATOM      9  O   UNL     1      -7.931  10.153   7.401  1.00  0.00    -0.550 OA
ATOM     10  O   UNL     1      -6.016  10.624   6.236  1.00  0.00    -0.550 OA
ENDBRANCH   7   8
ENDBRANCH   6   7
ENDBRANCH   5   6
ENDBRANCH   4   5
ENDBRANCH   3   4
ENDBRANCH   2   3
ENDBRANCH   1   2
BRANCH   1  11
ATOM     11  C   UNL     1     -12.276   3.022   5.989  1.00  0.00     0.000 C 
BRANCH  11  12
ATOM     12  C   UNL     1     -13.470   3.984   6.106  1.00  0.00     0.000 C 
BRANCH  12  13
ATOM     13  C   UNL     1     -13.685   4.818   4.833  1.00  0.00     0.000 C 
BRANCH  13  14
ATOM     14  C   UNL     1     -14.195   6.237   5.127  1.00  0.00     0.000 C 
BRANCH  14  15
ATOM     15  C   UNL     1     -13.123   7.066   5.845  1.00  0.00     0.000 C 
BRANCH  15  16
ATOM     16  C   UNL     1     -13.606   8.501   6.088  1.00  0.00     0.006 C 
BRANCH  16  17
ATOM     17  C   UNL     1     -12.923   9.480   5.127  1.00  0.00     0.053 C 
BRANCH  17  18
ATOM     18  C   UNL     1     -13.926  10.080   4.193  1.00  0.00     0.041 C 
ATOM     19  O   UNL     1     -14.196  11.309   4.258  1.00  0.00    -0.550 OA
ATOM     20  O   UNL     1     -14.595   9.275   3.280  1.00  0.00    -0.550 OA
ENDBRANCH  17  18
ENDBRANCH  16  17
ENDBRANCH  15  16
ENDBRANCH  14  15
ENDBRANCH  13  14
ENDBRANCH  12  13
ENDBRANCH  11  12
ENDBRANCH   1  11
TORSDOF 15
ENDMDL
MODEL 2
REMARK VINA RESULT:    -4.546      1.741      5.887
REMARK INTER + INTRA:         -10.236
REMARK INTER:                  -8.328
REMARK INTRA:                  -1.908
REMARK UNBOUND:                -1.704
REMARK SMILES O=C([O-])CCCCCCCCCCCCCCC(=O)[O-]
REMARK SMILES IDX 10 1 9 2 8 3 7 4 6 5 5 6 4 7 2 8 1 9 3 10 11 11 12 12 13 13
REMARK SMILES IDX 14 14 15 15 16 16 17 17 18 18 19 19 20 20
REMARK H PARENT
REMARK Flexibility Score: inf
ROOT
ATOM      1  C   UNL     1     -10.729   5.354   7.415  1.00  0.00     0.000 C 
ENDROOT
BRANCH   1   2
ATOM      2  C   UNL     1     -11.288   3.997   7.883  1.00  0.00     0.000 C 
BRANCH   2   3
ATOM      3  C   UNL     1     -11.418   2.976   6.744  1.00  0.00     0.000 C 
BRANCH   3   4
ATOM      4  C   UNL     1     -12.773   3.116   6.033  1.00  0.00     0.000 C 
BRANCH   4   5
ATOM      5  C   UNL     1     -12.655   3.758   4.638  1.00  0.00     0.000 C 
BRANCH   5   6
ATOM      6  C   UNL     1     -13.651   4.900   4.362  1.00  0.00     0.006 C 
BRANCH   6   7
ATOM      7  C   UNL     1     -13.982   5.719   5.616  1.00  0.00     0.053 C 
BRANCH   7   8
ATOM      8  C   UNL     1     -14.733   6.958   5.246  1.00  0.00     0.041 C 
ATOM      9  O   UNL     1     -14.127   8.055   5.122  1.00  0.00    -0.550 OA
ATOM     10  O   UNL     1     -16.111   6.912   5.084  1.00  0.00    -0.550 OA
ENDBRANCH   7   8
ENDBRANCH   6   7
ENDBRANCH   5   6
ENDBRANCH   4   5
ENDBRANCH   3   4
ENDBRANCH   2   3
ENDBRANCH   1   2
BRANCH   1  11
ATOM     11  C   UNL     1      -9.622   5.274   6.348  1.00  0.00     0.000 C 
BRANCH  11  12
ATOM     12  C   UNL     1      -9.864   6.223   5.162  1.00  0.00     0.000 C 
BRANCH  12  13
ATOM     13  C   UNL     1     -10.788   7.397   5.522  1.00  0.00     0.000 C 
BRANCH  13  14
ATOM     14  C   UNL     1     -10.142   8.767   5.264  1.00  0.00     0.000 C 
BRANCH  14  15
ATOM     15  C   UNL     1      -8.654   8.615   4.922  1.00  0.00     0.000 C 
BRANCH  15  16
ATOM     16  C   UNL     1      -7.772   9.029   6.106  1.00  0.00     0.006 C 
BRANCH  16  17
ATOM     17  C   UNL     1      -7.312  10.483   5.965  1.00  0.00     0.053 C 
BRANCH  17  18
ATOM     18  C   UNL     1      -7.965  11.341   7.003  1.00  0.00     0.041 C 
ATOM     19  O   UNL     1      -7.547  11.328   8.191  1.00  0.00    -0.550 OA
ATOM     20  O   UNL     1      -9.064  12.122   6.669  1.00  0.00    -0.550 OA
ENDBRANCH  17  18
ENDBRANCH  16  17
ENDBRANCH  15  16
ENDBRANCH  14  15
ENDBRANCH  13  14
ENDBRANCH  12  13
ENDBRANCH  11  12
ENDBRANCH   1  11
TORSDOF 15
ENDMDL
MODEL 3
REMARK VINA RESULT:    -4.449      2.628      6.219
REMARK INTER + INTRA:         -10.054
REMARK INTER:                  -8.718
REMARK INTRA:                  -1.336
REMARK UNBOUND:                -1.704
REMARK SMILES O=C([O-])CCCCCCCCCCCCCCC(=O)[O-]
REMARK SMILES IDX 10 1 9 2 8 3 7 4 6 5 5 6 4 7 2 8 1 9 3 10 11 11 12 12 13 13
REMARK SMILES IDX 14 14 15 15 16 16 17 17 18 18 19 19 20 20
REMARK H PARENT
REMARK Flexibility Score: inf
ROOT
ATOM      1  C   UNL     1      -9.964   7.604   5.377  1.00  0.00     0.000 C 
ENDROOT
BRANCH   1   2
ATOM      2  C   UNL     1     -10.093   6.091   5.113  1.00  0.00     0.000 C 
BRANCH   2   3
ATOM      3  C   UNL     1      -9.724   5.235   6.333  1.00  0.00     0.000 C 
BRANCH   3   4
ATOM      4  C   UNL     1     -10.865   5.225   7.362  1.00  0.00     0.000 C 
BRANCH   4   5
ATOM      5  C   UNL     1     -11.278   3.804   7.787  1.00  0.00     0.000 C 
BRANCH   5   6
ATOM      6  C   UNL     1     -11.908   2.950   6.670  1.00  0.00     0.006 C 
BRANCH   6   7
ATOM      7  C   UNL     1     -13.098   3.638   5.992  1.00  0.00     0.053 C 
BRANCH   7   8
ATOM      8  C   UNL     1     -12.854   3.773   4.522  1.00  0.00     0.041 C 
ATOM      9  O   UNL     1     -11.804   3.304   4.008  1.00  0.00    -0.550 OA
ATOM     10  O   UNL     1     -13.762   4.459   3.727  1.00  0.00    -0.550 OA
ENDBRANCH   7   8
ENDBRANCH   6   7
ENDBRANCH   5   6
ENDBRANCH   4   5
ENDBRANCH   3   4
ENDBRANCH   2   3
ENDBRANCH   1   2
BRANCH   1  11
ATOM     11  C   UNL     1      -8.588   8.065   5.890  1.00  0.00     0.000 C 
BRANCH  11  12
ATOM     12  C   UNL     1      -8.144   9.408   5.287  1.00  0.00     0.000 C 
BRANCH  12  13
ATOM     13  C   UNL     1      -7.204  10.192   6.217  1.00  0.00     0.000 C 
BRANCH  13  14
ATOM     14  C   UNL     1      -7.958  10.997   7.287  1.00  0.00     0.000 C 
BRANCH  14  15
ATOM     15  C   UNL     1      -8.961  11.962   6.641  1.00  0.00     0.000 C 
BRANCH  15  16
ATOM     16  C   UNL     1     -10.399  11.612   7.042  1.00  0.00     0.006 C 
BRANCH  16  17
ATOM     17  C   UNL     1     -11.408  12.266   6.091  1.00  0.00     0.053 C 
BRANCH  17  18
ATOM     18  C   UNL     1     -11.182  11.798   4.688  1.00  0.00     0.041 C 
ATOM     19  O   UNL     1     -11.367  10.590   4.386  1.00  0.00    -0.550 OA
ATOM     20  O   UNL     1     -10.726  12.688   3.724  1.00  0.00    -0.550 OA
ENDBRANCH  17  18
ENDBRANCH  16  17
ENDBRANCH  15  16
ENDBRANCH  14  15
ENDBRANCH  13  14
ENDBRANCH  12  13
ENDBRANCH  11  12
ENDBRANCH   1  11
TORSDOF 15
ENDMDL
MODEL 4
REMARK VINA RESULT:    -4.447      2.563      6.723
REMARK INTER + INTRA:         -10.051
REMARK INTER:                  -8.896
REMARK INTRA:                  -1.155
REMARK UNBOUND:                -1.704
REMARK SMILES O=C([O-])CCCCCCCCCCCCCCC(=O)[O-]
REMARK SMILES IDX 10 1 9 2 8 3 7 4 6 5 5 6 4 7 2 8 1 9 3 10 11 11 12 12 13 13
REMARK SMILES IDX 14 14 15 15 16 16 17 17 18 18 19 19 20 20
REMARK H PARENT
REMARK Flexibility Score: inf
ROOT
ATOM      1  C   UNL     1      -9.441   5.992   6.376  1.00  0.00     0.000 C 
ENDROOT
BRANCH   1   2
ATOM      2  C   UNL     1     -10.216   4.813   6.995  1.00  0.00     0.000 C 
BRANCH   2   3
ATOM      3  C   UNL     1     -11.017   5.209   8.243  1.00  0.00     0.000 C 
BRANCH   3   4
ATOM      4  C   UNL     1     -11.822   4.017   8.781  1.00  0.00     0.000 C 
BRANCH   4   5
ATOM      5  C   UNL     1     -11.990   2.889   7.745  1.00  0.00     0.000 C 
BRANCH   5   6
ATOM      6  C   UNL     1     -13.214   3.034   6.821  1.00  0.00     0.006 C 
BRANCH   6   7
ATOM      7  C   UNL     1     -12.831   3.224   5.349  1.00  0.00     0.053 C 
BRANCH   7   8
ATOM      8  C   UNL     1     -13.382   4.514   4.830  1.00  0.00     0.041 C 
ATOM      9  O   UNL     1     -13.530   5.497   5.602  1.00  0.00    -0.550 OA
ATOM     10  O   UNL     1     -13.780   4.616   3.504  1.00  0.00    -0.550 OA
ENDBRANCH   7   8
ENDBRANCH   6   7
ENDBRANCH   5   6
ENDBRANCH   4   5
ENDBRANCH   3   4
ENDBRANCH   2   3
ENDBRANCH   1   2
BRANCH   1  11
ATOM     11  C   UNL     1     -10.275   6.928   5.483  1.00  0.00     0.000 C 
BRANCH  11  12
ATOM     12  C   UNL     1      -9.440   8.053   4.850  1.00  0.00     0.000 C 
BRANCH  12  13
ATOM     13  C   UNL     1     -10.110   9.431   4.978  1.00  0.00     0.000 C 
BRANCH  13  14
ATOM     14  C   UNL     1      -9.107  10.558   5.270  1.00  0.00     0.000 C 
BRANCH  14  15
ATOM     15  C   UNL     1      -7.664  10.056   5.131  1.00  0.00     0.000 C 
BRANCH  15  16
ATOM     16  C   UNL     1      -6.804  10.515   6.315  1.00  0.00     0.006 C 
BRANCH  16  17
ATOM     17  C   UNL     1      -7.652  10.666   7.582  1.00  0.00     0.053 C 
BRANCH  17  18
ATOM     18  C   UNL     1      -7.276  11.914   8.316  1.00  0.00     0.041 C 
ATOM     19  O   UNL     1      -6.237  11.942   9.028  1.00  0.00    -0.550 OA
ATOM     20  O   UNL     1      -8.096  13.034   8.250  1.00  0.00    -0.550 OA
ENDBRANCH  17  18
ENDBRANCH  16  17
ENDBRANCH  15  16
ENDBRANCH  14  15
ENDBRANCH  13  14
ENDBRANCH  12  13
ENDBRANCH  11  12
ENDBRANCH   1  11
TORSDOF 15
ENDMDL
MODEL 5
REMARK VINA RESULT:    -4.426      2.628      6.031
REMARK INTER + INTRA:         -10.011
REMARK INTER:                  -8.278
REMARK INTRA:                  -1.734
REMARK UNBOUND:                -1.704
REMARK SMILES O=C([O-])CCCCCCCCCCCCCCC(=O)[O-]
REMARK SMILES IDX 10 1 9 2 8 3 7 4 6 5 5 6 4 7 2 8 1 9 3 10 11 11 12 12 13 13
REMARK SMILES IDX 14 14 15 15 16 16 17 17 18 18 19 19 20 20
REMARK H PARENT
REMARK Flexibility Score: inf
ROOT
ATOM      1  C   UNL     1      -9.132   8.443   4.902  1.00  0.00     0.000 C 
ENDROOT
BRANCH   1   2
ATOM      2  C   UNL     1     -10.261   7.468   5.288  1.00  0.00     0.000 C 
BRANCH   2   3
ATOM      3  C   UNL     1      -9.876   5.995   5.089  1.00  0.00     0.000 C 
BRANCH   3   4
ATOM      4  C   UNL     1      -9.750   5.272   6.439  1.00  0.00     0.000 C 
BRANCH   4   5
ATOM      5  C   UNL     1     -11.106   5.072   7.142  1.00  0.00     0.000 C 
BRANCH   5   6
ATOM      6  C   UNL     1     -11.730   3.676   6.961  1.00  0.00     0.006 C 
BRANCH   6   7
ATOM      7  C   UNL     1     -13.034   3.704   6.156  1.00  0.00     0.053 C 
BRANCH   7   8
ATOM      8  C   UNL     1     -12.741   3.748   4.690  1.00  0.00     0.041 C 
ATOM      9  O   UNL     1     -11.726   3.162   4.229  1.00  0.00    -0.550 OA
ATOM     10  O   UNL     1     -13.561   4.475   3.838  1.00  0.00    -0.550 OA
ENDBRANCH   7   8
ENDBRANCH   6   7
ENDBRANCH   5   6
ENDBRANCH   4   5
ENDBRANCH   3   4
ENDBRANCH   2   3
ENDBRANCH   1   2
BRANCH   1  11
ATOM     11  C   UNL     1      -8.203   8.860   6.056  1.00  0.00     0.000 C 
BRANCH  11  12
ATOM     12  C   UNL     1      -7.546  10.232   5.831  1.00  0.00     0.000 C 
BRANCH  12  13
ATOM     13  C   UNL     1      -8.020  11.288   6.841  1.00  0.00     0.000 C 
BRANCH  13  14
ATOM     14  C   UNL     1      -9.278  12.037   6.376  1.00  0.00     0.000 C 
BRANCH  14  15
ATOM     15  C   UNL     1     -10.503  11.610   7.196  1.00  0.00     0.000 C 
BRANCH  15  16
ATOM     16  C   UNL     1     -11.532  10.891   6.316  1.00  0.00     0.006 C 
BRANCH  16  17
ATOM     17  C   UNL     1     -11.387  11.309   4.849  1.00  0.00     0.053 C 
BRANCH  17  18
ATOM     18  C   UNL     1     -12.335  10.534   3.989  1.00  0.00     0.041 C 
ATOM     19  O   UNL     1     -12.380  10.743   2.748  1.00  0.00    -0.550 OA
ATOM     20  O   UNL     1     -13.201   9.612   4.564  1.00  0.00    -0.550 OA
ENDBRANCH  17  18
ENDBRANCH  16  17
ENDBRANCH  15  16
ENDBRANCH  14  15
ENDBRANCH  13  14
ENDBRANCH  12  13
ENDBRANCH  11  12
ENDBRANCH   1  11
TORSDOF 15
ENDMDL
MODEL 6
REMARK VINA RESULT:    -4.406      1.956      3.709
REMARK INTER + INTRA:          -9.974
REMARK INTER:                  -8.569
REMARK INTRA:                  -1.406
REMARK UNBOUND:                -1.704
REMARK SMILES O=C([O-])CCCCCCCCCCCCCCC(=O)[O-]
REMARK SMILES IDX 10 1 9 2 8 3 7 4 6 5 5 6 4 7 2 8 1 9 3 10 11 11 12 12 13 13
REMARK SMILES IDX 14 14 15 15 16 16 17 17 18 18 19 19 20 20
REMARK H PARENT
REMARK Flexibility Score: inf
ROOT
ATOM      1  C   UNL     1      -9.333   6.602   6.301  1.00  0.00     0.000 C 
ENDROOT
BRANCH   1   2
ATOM      2  C   UNL     1      -9.357   7.529   5.071  1.00  0.00     0.000 C 
BRANCH   2   3
ATOM      3  C   UNL     1      -9.223   9.014   5.437  1.00  0.00     0.000 C 
BRANCH   3   4
ATOM      4  C   UNL     1      -7.846   9.559   5.026  1.00  0.00     0.000 C 
BRANCH   4   5
ATOM      5  C   UNL     1      -7.072  10.183   6.203  1.00  0.00     0.000 C 
BRANCH   5   6
ATOM      6  C   UNL     1      -7.911  10.437   7.469  1.00  0.00     0.006 C 
BRANCH   6   7
ATOM      7  C   UNL     1      -8.236  11.920   7.683  1.00  0.00     0.053 C 
BRANCH   7   8
ATOM      8  C   UNL     1      -9.638  12.214   7.253  1.00  0.00     0.041 C 
ATOM      9  O   UNL     1     -10.596  12.038   8.051  1.00  0.00    -0.550 OA
ATOM     10  O   UNL     1      -9.892  12.634   5.955  1.00  0.00    -0.550 OA
ENDBRANCH   7   8
ENDBRANCH   6   7
ENDBRANCH   5   6
ENDBRANCH   4   5
ENDBRANCH   3   4
ENDBRANCH   2   3
ENDBRANCH   1   2
BRANCH   1  11
ATOM     11  C   UNL     1      -9.960   5.212   6.087  1.00  0.00     0.000 C 
BRANCH  11  12
ATOM     12  C   UNL     1     -10.691   4.686   7.333  1.00  0.00     0.000 C 
BRANCH  12  13
ATOM     13  C   UNL     1     -11.239   3.263   7.140  1.00  0.00     0.000 C 
BRANCH  13  14
ATOM     14  C   UNL     1     -12.678   3.245   6.601  1.00  0.00     0.000 C 
BRANCH  14  15
ATOM     15  C   UNL     1     -12.688   3.305   5.068  1.00  0.00     0.000 C 
BRANCH  15  16
ATOM     16  C   UNL     1     -13.367   4.586   4.570  1.00  0.00     0.006 C 
BRANCH  16  17
ATOM     17  C   UNL     1     -13.971   5.375   5.737  1.00  0.00     0.053 C 
BRANCH  17  18
ATOM     18  C   UNL     1     -13.749   6.843   5.545  1.00  0.00     0.041 C 
ATOM     19  O   UNL     1     -12.804   7.424   6.141  1.00  0.00    -0.550 OA
ATOM     20  O   UNL     1     -14.614   7.578   4.744  1.00  0.00    -0.550 OA
ENDBRANCH  17  18
ENDBRANCH  16  17
ENDBRANCH  15  16
ENDBRANCH  14  15
ENDBRANCH  13  14
ENDBRANCH  12  13
ENDBRANCH  11  12
ENDBRANCH   1  11
TORSDOF 15
ENDMDL
MODEL 7
REMARK VINA RESULT:    -4.392      1.234      2.014
REMARK INTER + INTRA:          -9.948
REMARK INTER:                  -8.273
REMARK INTRA:                  -1.675
REMARK UNBOUND:                -1.704
REMARK SMILES O=C([O-])CCCCCCCCCCCCCCC(=O)[O-]
REMARK SMILES IDX 10 1 9 2 8 3 7 4 6 5 5 6 4 7 2 8 1 9 3 10 11 11 12 12 13 13
REMARK SMILES IDX 14 14 15 15 16 16 17 17 18 18 19 19 20 20
REMARK H PARENT
REMARK Flexibility Score: inf
ROOT
ATOM      1  C   UNL     1     -10.383   5.271   7.270  1.00  0.00     0.000 C 
ENDROOT
BRANCH   1   2
ATOM      2  C   UNL     1      -9.917   4.901   5.849  1.00  0.00     0.000 C 
BRANCH   2   3
ATOM      3  C   UNL     1      -9.789   6.119   4.923  1.00  0.00     0.000 C 
BRANCH   3   4
ATOM      4  C   UNL     1      -9.377   7.370   5.714  1.00  0.00     0.000 C 
BRANCH   4   5
ATOM      5  C   UNL     1      -9.689   8.682   4.970  1.00  0.00     0.000 C 
BRANCH   5   6
ATOM      6  C   UNL     1      -9.119   9.953   5.626  1.00  0.00     0.006 C 
BRANCH   6   7
ATOM      7  C   UNL     1      -8.048   9.650   6.682  1.00  0.00     0.053 C 
BRANCH   7   8
ATOM      8  C   UNL     1      -6.941  10.652   6.602  1.00  0.00     0.041 C 
ATOM      9  O   UNL     1      -6.091  10.587   5.675  1.00  0.00    -0.550 OA
ATOM     10  O   UNL     1      -6.818  11.631   7.579  1.00  0.00    -0.550 OA
ENDBRANCH   7   8
ENDBRANCH   6   7
ENDBRANCH   5   6
ENDBRANCH   4   5
ENDBRANCH   3   4
ENDBRANCH   2   3
ENDBRANCH   1   2
BRANCH   1  11
ATOM     11  C   UNL     1     -11.250   4.210   7.972  1.00  0.00     0.000 C 
BRANCH  11  12
ATOM     12  C   UNL     1     -11.804   3.152   7.003  1.00  0.00     0.000 C 
BRANCH  12  13
ATOM     13  C   UNL     1     -13.229   3.474   6.526  1.00  0.00     0.000 C 
BRANCH  13  14
ATOM     14  C   UNL     1     -13.258   4.151   5.147  1.00  0.00     0.000 C 
BRANCH  14  15
ATOM     15  C   UNL     1     -14.196   5.366   5.153  1.00  0.00     0.000 C 
BRANCH  15  16
ATOM     16  C   UNL     1     -13.475   6.616   5.671  1.00  0.00     0.006 C 
BRANCH  16  17
ATOM     17  C   UNL     1     -14.093   7.889   5.083  1.00  0.00     0.053 C 
BRANCH  17  18
ATOM     18  C   UNL     1     -13.402   9.102   5.621  1.00  0.00     0.041 C 
ATOM     19  O   UNL     1     -13.277   9.261   6.864  1.00  0.00    -0.550 OA
ATOM     20  O   UNL     1     -12.935  10.079   4.752  1.00  0.00    -0.550 OA
ENDBRANCH  17  18
ENDBRANCH  16  17
ENDBRANCH  15  16
ENDBRANCH  14  15
ENDBRANCH  13  14
ENDBRANCH  12  13
ENDBRANCH  11  12
ENDBRANCH   1  11
TORSDOF 15
ENDMDL
MODEL 8
REMARK VINA RESULT:    -4.386      1.785      5.420
REMARK INTER + INTRA:          -9.936
REMARK INTER:                  -8.452
REMARK INTRA:                  -1.484
REMARK UNBOUND:                -1.704
REMARK SMILES O=C([O-])CCCCCCCCCCCCCCC(=O)[O-]
REMARK SMILES IDX 10 1 9 2 8 3 7 4 6 5 5 6 4 7 2 8 1 9 3 10 11 11 12 12 13 13
REMARK SMILES IDX 14 14 15 15 16 16 17 17 18 18 19 19 20 20
REMARK H PARENT
REMARK Flexibility Score: inf
ROOT
ATOM      1  C   UNL     1     -13.806   5.000   4.258  1.00  0.00     0.000 C 
ENDROOT
BRANCH   1   2
ATOM      2  C   UNL     1     -14.244   5.873   5.450  1.00  0.00     0.000 C 
BRANCH   2   3
ATOM      3  C   UNL     1     -14.218   7.375   5.135  1.00  0.00     0.000 C 
BRANCH   3   4
ATOM      4  C   UNL     1     -15.642   7.943   5.047  1.00  0.00     0.000 C 
BRANCH   4   5
ATOM      5  C   UNL     1     -15.814   8.958   3.901  1.00  0.00     0.000 C 
BRANCH   5   6
ATOM      6  C   UNL     1     -14.534   9.721   3.512  1.00  0.00     0.006 C 
BRANCH   6   7
ATOM      7  C   UNL     1     -14.355   9.852   1.995  1.00  0.00     0.053 C 
BRANCH   7   8
ATOM      8  C   UNL     1     -13.260  10.822   1.682  1.00  0.00     0.041 C 
ATOM      9  O   UNL     1     -12.370  10.525   0.842  1.00  0.00    -0.550 OA
ATOM     10  O   UNL     1     -13.194  12.035   2.353  1.00  0.00    -0.550 OA
ENDBRANCH   7   8
ENDBRANCH   6   7
ENDBRANCH   5   6
ENDBRANCH   4   5
ENDBRANCH   3   4
ENDBRANCH   2   3
ENDBRANCH   1   2
BRANCH   1  11
ATOM     11  C   UNL     1     -13.003   3.740   4.629  1.00  0.00     0.000 C 
BRANCH  11  12
ATOM     12  C   UNL     1     -13.014   3.445   6.139  1.00  0.00     0.000 C 
BRANCH  12  13
ATOM     13  C   UNL     1     -11.604   3.217   6.707  1.00  0.00     0.000 C 
BRANCH  13  14
ATOM     14  C   UNL     1     -11.028   4.464   7.395  1.00  0.00     0.000 C 
BRANCH  14  15
ATOM     15  C   UNL     1      -9.978   5.143   6.506  1.00  0.00     0.000 C 
BRANCH  15  16
ATOM     16  C   UNL     1     -10.568   6.367   5.794  1.00  0.00     0.006 C 
BRANCH  16  17
ATOM     17  C   UNL     1      -9.523   7.032   4.892  1.00  0.00     0.053 C 
BRANCH  17  18
ATOM     18  C   UNL     1      -9.314   8.457   5.299  1.00  0.00     0.041 C 
ATOM     19  O   UNL     1      -8.343   8.769   6.038  1.00  0.00    -0.550 OA
ATOM     20  O   UNL     1     -10.216   9.435   4.897  1.00  0.00    -0.550 OA
ENDBRANCH  17  18
ENDBRANCH  16  17
ENDBRANCH  15  16
ENDBRANCH  14  15
ENDBRANCH  13  14
ENDBRANCH  12  13
ENDBRANCH  11  12
ENDBRANCH   1  11
TORSDOF 15
ENDMDL
MODEL 9
REMARK VINA RESULT:    -4.356      2.659      5.605
REMARK INTER + INTRA:          -9.880
REMARK INTER:                  -8.225
REMARK INTRA:                  -1.655
REMARK UNBOUND:                -1.704
REMARK SMILES O=C([O-])CCCCCCCCCCCCCCC(=O)[O-]
REMARK SMILES IDX 10 1 9 2 8 3 7 4 6 5 5 6 4 7 2 8 1 9 3 10 11 11 12 12 13 13
REMARK SMILES IDX 14 14 15 15 16 16 17 17 18 18 19 19 20 20
REMARK H PARENT
REMARK Flexibility Score: inf
ROOT
ATOM      1  C   UNL     1      -8.216   9.505   5.005  1.00  0.00     0.000 C 
ENDROOT
BRANCH   1   2
ATOM      2  C   UNL     1      -7.732   9.296   6.453  1.00  0.00     0.000 C 
BRANCH   2   3
ATOM      3  C   UNL     1      -7.940  10.532   7.340  1.00  0.00     0.000 C 
BRANCH   3   4
ATOM      4  C   UNL     1      -8.904  11.529   6.677  1.00  0.00     0.000 C 
BRANCH   4   5
ATOM      5  C   UNL     1     -10.308  11.517   7.310  1.00  0.00     0.000 C 
BRANCH   5   6
ATOM      6  C   UNL     1     -11.472  11.611   6.307  1.00  0.00     0.006 C 
BRANCH   6   7
ATOM      7  C   UNL     1     -11.002  11.838   4.866  1.00  0.00     0.053 C 
BRANCH   7   8
ATOM      8  C   UNL     1     -12.036  11.357   3.899  1.00  0.00     0.041 C 
ATOM      9  O   UNL     1     -12.463  10.174   3.963  1.00  0.00    -0.550 OA
ATOM     10  O   UNL     1     -12.495  12.199   2.895  1.00  0.00    -0.550 OA
ENDBRANCH   7   8
ENDBRANCH   6   7
ENDBRANCH   5   6
ENDBRANCH   4   5
ENDBRANCH   3   4
ENDBRANCH   2   3
ENDBRANCH   1   2
BRANCH   1  11
ATOM     11  C   UNL     1      -9.313   8.534   4.534  1.00  0.00     0.000 C 
BRANCH  11  12
ATOM     12  C   UNL     1      -9.875   7.666   5.672  1.00  0.00     0.000 C 
BRANCH  12  13
ATOM     13  C   UNL     1     -10.050   6.194   5.263  1.00  0.00     0.000 C 
BRANCH  13  14
ATOM     14  C   UNL     1      -9.709   5.215   6.397  1.00  0.00     0.000 C 
BRANCH  14  15
ATOM     15  C   UNL     1     -10.967   4.832   7.187  1.00  0.00     0.000 C 
BRANCH  15  16
ATOM     16  C   UNL     1     -11.557   3.512   6.676  1.00  0.00     0.006 C 
BRANCH  16  17
ATOM     17  C   UNL     1     -12.923   3.739   6.020  1.00  0.00     0.053 C 
BRANCH  17  18
ATOM     18  C   UNL     1     -12.776   3.859   4.536  1.00  0.00     0.041 C 
ATOM     19  O   UNL     1     -11.753   3.404   3.961  1.00  0.00    -0.550 OA
ATOM     20  O   UNL     1     -13.750   4.514   3.792  1.00  0.00    -0.550 OA
ENDBRANCH  17  18
ENDBRANCH  16  17
ENDBRANCH  15  16
ENDBRANCH  14  15
ENDBRANCH  13  14
ENDBRANCH  12  13
ENDBRANCH  11  12
ENDBRANCH   1  11
TORSDOF 15
ENDMDL
