MODEL 1
REMARK VINA RESULT:    -2.557      0.000      0.000
REMARK INTER + INTRA:          -2.782
REMARK INTER:                  -2.782
REMARK INTRA:                   0.000
REMARK UNBOUND:                 0.000
REMARK SMILES [NH3+]CC(=O)[O-]
REMARK SMILES IDX 2 1 1 2 3 6 4 7 5 8
REMARK H PARENT 1 3 1 4 1 5
REMARK Flexibility Score: inf
ROOT
ATOM      1  C   UNL     1      18.434 -39.376  -6.937  1.00  0.00     0.312 C 
ENDROOT
BRANCH   1   2
ATOM      2  N   UNL     1      18.072 -39.849  -5.603  1.00  0.00    -0.353 N 
ATOM      3  H   UNL     1      17.072 -39.619  -5.400  1.00  0.00     0.344 HD
ATOM      4  H   UNL     1      18.690 -39.407  -4.885  1.00  0.00     0.344 HD
ATOM      5  H   UNL     1      18.196 -40.887  -5.564  1.00  0.00     0.344 HD
ENDBRANCH   1   2
BRANCH   1   6
ATOM      6  C   UNL     1      19.461 -38.289  -6.851  1.00  0.00     0.096 C 
ATOM      7  O   UNL     1      19.989 -38.003  -5.743  1.00  0.00    -0.544 OA
ATOM      8  O   UNL     1      19.798 -37.558  -7.983  1.00  0.00    -0.544 OA
ENDBRANCH   1   6
TORSDOF 2
ENDMDL
MODEL 2
REMARK VINA RESULT:    -2.556      2.144      2.342
REMARK INTER + INTRA:          -2.780
REMARK INTER:                  -2.780
REMARK INTRA:                   0.000
REMARK UNBOUND:                 0.000
REMARK SMILES [NH3+]CC(=O)[O-]
REMARK SMILES IDX 2 1 1 2 3 6 4 7 5 8
REMARK H PARENT 1 3 1 4 1 5
REMARK Flexibility Score: inf
ROOT
ATOM      1  C   UNL     1      19.683 -38.242  -6.919  1.00  0.00     0.312 C 
ENDROOT
BRANCH   1   2
ATOM      2  N   UNL     1      20.067 -37.741  -5.601  1.00  0.00    -0.353 N 
ATOM      3  H   UNL     1      19.606 -36.820  -5.419  1.00  0.00     0.344 HD
ATOM      4  H   UNL     1      21.106 -37.635  -5.546  1.00  0.00     0.344 HD
ATOM      5  H   UNL     1      19.758 -38.425  -4.873  1.00  0.00     0.344 HD
ENDBRANCH   1   2
BRANCH   1   6
ATOM      6  C   UNL     1      18.639 -39.310  -6.794  1.00  0.00     0.096 C 
ATOM      7  O   UNL     1      18.147 -39.585  -5.668  1.00  0.00    -0.544 OA
ATOM      8  O   UNL     1      18.247 -40.033  -7.913  1.00  0.00    -0.544 OA
ENDBRANCH   1   6
TORSDOF 2
ENDMDL
MODEL 3
REMARK VINA RESULT:    -2.469      4.971      5.244
REMARK INTER + INTRA:          -2.685
REMARK INTER:                  -2.685
REMARK INTRA:                   0.000
REMARK UNBOUND:                 0.000
REMARK SMILES [NH3+]CC(=O)[O-]
REMARK SMILES IDX 2 1 1 2 3 6 4 7 5 8
REMARK H PARENT 1 3 1 4 1 5
REMARK Flexibility Score: inf
ROOT
ATOM      1  C   UNL     1      16.802 -44.013  -8.619  1.00  0.00     0.312 C 
ENDROOT
BRANCH   1   2
ATOM      2  N   UNL     1      16.826 -44.255  -7.179  1.00  0.00    -0.353 N 
ATOM      3  H   UNL     1      17.728 -44.709  -6.906  1.00  0.00     0.344 HD
ATOM      4  H   UNL     1      16.023 -44.866  -6.904  1.00  0.00     0.344 HD
ATOM      5  H   UNL     1      16.742 -43.340  -6.678  1.00  0.00     0.344 HD
ENDBRANCH   1   2
BRANCH   1   6
ATOM      6  C   UNL     1      17.575 -42.777  -8.961  1.00  0.00     0.096 C 
ATOM      7  O   UNL     1      18.672 -42.538  -8.389  1.00  0.00    -0.544 OA
ATOM      8  O   UNL     1      17.060 -41.863  -9.872  1.00  0.00    -0.544 OA
ENDBRANCH   1   6
TORSDOF 2
ENDMDL
MODEL 4
REMARK VINA RESULT:    -2.433      5.392      5.832
REMARK INTER + INTRA:          -2.646
REMARK INTER:                  -2.646
REMARK INTRA:                   0.000
REMARK UNBOUND:                 0.000
REMARK SMILES [NH3+]CC(=O)[O-]
REMARK SMILES IDX 2 1 1 2 3 6 4 7 5 8
REMARK H PARENT 1 3 1 4 1 5
REMARK Flexibility Score: inf
ROOT
ATOM      1  C   UNL     1      18.197 -42.832  -8.163  1.00  0.00     0.312 C 
ENDROOT
BRANCH   1   2
ATOM      2  N   UNL     1      17.942 -43.481  -6.879  1.00  0.00    -0.353 N 
ATOM      3  H   UNL     1      17.574 -42.784  -6.192  1.00  0.00     0.344 HD
ATOM      4  H   UNL     1      18.822 -43.911  -6.513  1.00  0.00     0.344 HD
ATOM      5  H   UNL     1      17.228 -44.234  -7.014  1.00  0.00     0.344 HD
ENDBRANCH   1   2
BRANCH   1   6
ATOM      6  C   UNL     1      17.139 -43.197  -9.159  1.00  0.00     0.096 C 
ATOM      7  O   UNL     1      16.721 -42.340  -9.981  1.00  0.00    -0.544 OA
ATOM      8  O   UNL     1      16.582 -44.469  -9.147  1.00  0.00    -0.544 OA
ENDBRANCH   1   6
TORSDOF 2
ENDMDL
MODEL 5
REMARK VINA RESULT:    -2.392      2.091      2.314
REMARK INTER + INTRA:          -2.602
REMARK INTER:                  -2.602
REMARK INTRA:                   0.000
REMARK UNBOUND:                 0.000
REMARK SMILES [NH3+]CC(=O)[O-]
REMARK SMILES IDX 2 1 1 2 3 6 4 7 5 8
REMARK H PARENT 1 3 1 4 1 5
REMARK Flexibility Score: inf
ROOT
ATOM      1  C   UNL     1      19.457 -38.427  -7.849  1.00  0.00     0.312 C 
ENDROOT
BRANCH   1   2
ATOM      2  N   UNL     1      20.359 -39.424  -8.419  1.00  0.00    -0.353 N 
ATOM      3  H   UNL     1      20.125 -40.374  -8.048  1.00  0.00     0.344 HD
ATOM      4  H   UNL     1      21.351 -39.187  -8.186  1.00  0.00     0.344 HD
ATOM      5  H   UNL     1      20.248 -39.430  -9.459  1.00  0.00     0.344 HD
ENDBRANCH   1   2
BRANCH   1   6
ATOM      6  C   UNL     1      19.363 -38.588  -6.363  1.00  0.00     0.096 C 
ATOM      7  O   UNL     1      18.512 -39.373  -5.864  1.00  0.00    -0.544 OA
ATOM      8  O   UNL     1      20.179 -37.837  -5.528  1.00  0.00    -0.544 OA
ENDBRANCH   1   6
TORSDOF 2
ENDMDL
MODEL 6
REMARK VINA RESULT:    -2.387      2.089      2.407
REMARK INTER + INTRA:          -2.597
REMARK INTER:                  -2.597
REMARK INTRA:                   0.000
REMARK UNBOUND:                 0.000
REMARK SMILES [NH3+]CC(=O)[O-]
REMARK SMILES IDX 2 1 1 2 3 6 4 7 5 8
REMARK H PARENT 1 3 1 4 1 5
REMARK Flexibility Score: inf
ROOT
ATOM      1  C   UNL     1      18.910 -39.152  -7.823  1.00  0.00     0.312 C 
ENDROOT
BRANCH   1   2
ATOM      2  N   UNL     1      20.295 -39.132  -8.288  1.00  0.00    -0.353 N 
ATOM      3  H   UNL     1      20.740 -38.215  -8.049  1.00  0.00     0.344 HD
ATOM      4  H   UNL     1      20.330 -39.283  -9.322  1.00  0.00     0.344 HD
ATOM      5  H   UNL     1      20.825 -39.899  -7.815  1.00  0.00     0.344 HD
ENDBRANCH   1   2
BRANCH   1   6
ATOM      6  C   UNL     1      18.850 -38.999  -6.335  1.00  0.00     0.096 C 
ATOM      7  O   UNL     1      19.650 -38.225  -5.745  1.00  0.00    -0.544 OA
ATOM      8  O   UNL     1      17.945 -39.749  -5.594  1.00  0.00    -0.544 OA
ENDBRANCH   1   6
TORSDOF 2
ENDMDL
MODEL 7
REMARK VINA RESULT:    -2.346     12.745     13.081
REMARK INTER + INTRA:          -2.552
REMARK INTER:                  -2.552
REMARK INTRA:                   0.000
REMARK UNBOUND:                 0.000
REMARK SMILES [NH3+]CC(=O)[O-]
REMARK SMILES IDX 2 1 1 2 3 6 4 7 5 8
REMARK H PARENT 1 3 1 4 1 5
REMARK Flexibility Score: inf
ROOT
ATOM      1  C   UNL     1       8.174 -43.600  -9.108  1.00  0.00     0.312 C 
ENDROOT
BRANCH   1   2
ATOM      2  N   UNL     1       8.968 -43.319  -7.914  1.00  0.00    -0.353 N 
ATOM      3  H   UNL     1       9.928 -43.006  -8.187  1.00  0.00     0.344 HD
ATOM      4  H   UNL     1       9.030 -44.174  -7.315  1.00  0.00     0.344 HD
ATOM      5  H   UNL     1       8.505 -42.556  -7.368  1.00  0.00     0.344 HD
ENDBRANCH   1   2
BRANCH   1   6
ATOM      6  C   UNL     1       7.766 -45.040  -9.144  1.00  0.00     0.096 C 
ATOM      7  O   UNL     1       6.634 -45.388  -8.714  1.00  0.00    -0.544 OA
ATOM      8  O   UNL     1       8.653 -46.004  -9.606  1.00  0.00    -0.544 OA
ENDBRANCH   1   6
TORSDOF 2
ENDMDL
MODEL 8
REMARK VINA RESULT:    -2.157      1.832      2.115
REMARK INTER + INTRA:          -2.346
REMARK INTER:                  -2.346
REMARK INTRA:                   0.000
REMARK UNBOUND:                 0.000
REMARK SMILES [NH3+]CC(=O)[O-]
REMARK SMILES IDX 2 1 1 2 3 6 4 7 5 8
REMARK H PARENT 1 3 1 4 1 5
REMARK Flexibility Score: inf
ROOT
ATOM      1  C   UNL     1      19.108 -38.786  -6.396  1.00  0.00     0.312 C 
ENDROOT
BRANCH   1   2
ATOM      2  N   UNL     1      19.957 -37.848  -5.665  1.00  0.00    -0.353 N 
ATOM      3  H   UNL     1      19.421 -37.420  -4.875  1.00  0.00     0.344 HD
ATOM      4  H   UNL     1      20.299 -37.098  -6.308  1.00  0.00     0.344 HD
ATOM      5  H   UNL     1      20.780 -38.363  -5.277  1.00  0.00     0.344 HD
ENDBRANCH   1   2
BRANCH   1   6
ATOM      6  C   UNL     1      18.987 -38.381  -7.832  1.00  0.00     0.096 C 
ATOM      7  O   UNL     1      19.968 -37.862  -8.428  1.00  0.00    -0.544 OA
ATOM      8  O   UNL     1      17.777 -38.530  -8.498  1.00  0.00    -0.544 OA
ENDBRANCH   1   6
TORSDOF 2
ENDMDL
MODEL 9
REMARK VINA RESULT:    -2.062      1.872      2.206
REMARK INTER + INTRA:          -2.243
REMARK INTER:                  -2.243
REMARK INTRA:                   0.000
REMARK UNBOUND:                 0.000
REMARK SMILES [NH3+]CC(=O)[O-]
REMARK SMILES IDX 2 1 1 2 3 6 4 7 5 8
REMARK H PARENT 1 3 1 4 1 5
REMARK Flexibility Score: inf
ROOT
ATOM      1  C   UNL     1      18.888 -38.850  -6.704  1.00  0.00     0.312 C 
ENDROOT
BRANCH   1   2
ATOM      2  N   UNL     1      18.206 -39.699  -5.729  1.00  0.00    -0.353 N 
ATOM      3  H   UNL     1      17.885 -39.124  -4.916  1.00  0.00     0.344 HD
ATOM      4  H   UNL     1      18.849 -40.454  -5.398  1.00  0.00     0.344 HD
ATOM      5  H   UNL     1      17.373 -40.139  -6.183  1.00  0.00     0.344 HD
ENDBRANCH   1   2
BRANCH   1   6
ATOM      6  C   UNL     1      19.171 -39.613  -7.961  1.00  0.00     0.096 C 
ATOM      7  O   UNL     1      20.327 -39.601  -8.461  1.00  0.00    -0.544 OA
ATOM      8  O   UNL     1      18.149 -40.296  -8.606  1.00  0.00    -0.544 OA
ENDBRANCH   1   6
TORSDOF 2
ENDMDL
