MODEL 1
REMARK VINA RESULT:    -5.877      0.000      0.000
REMARK INTER + INTRA:         -18.335
REMARK INTER:                 -14.809
REMARK INTRA:                  -3.526
REMARK UNBOUND:                -3.526
REMARK SMILES CCCCCCCCCCCCCCCCCCCCCCCCCCCC(=O)[O-]
REMARK SMILES IDX 15 1 16 2 17 3 18 4 19 5 20 6 21 7 22 8 23 9 24 10 25 11
REMARK SMILES IDX 26 12 27 13 28 14 29 15 30 16 14 17 13 18 12 19 11 20 10 21
REMARK SMILES IDX 9 22 8 23 7 24 6 25 5 26 4 27 3 28 2 29 1 30
REMARK H PARENT
REMARK Flexibility Score: inf
ROOT
ATOM      1  C   UNL     1      87.252 319.645 198.157  1.00  0.00     0.000 C 
ENDROOT
BRANCH   1   2
ATOM      2  C   UNL     1      87.404 320.587 199.359  1.00  0.00     0.000 C 
BRANCH   2   3
ATOM      3  C   UNL     1      87.159 319.886 200.707  1.00  0.00     0.000 C 
BRANCH   3   4
ATOM      4  C   UNL     1      87.773 320.597 201.931  1.00  0.00     0.000 C 
BRANCH   4   5
ATOM      5  C   UNL     1      89.267 320.952 201.803  1.00  0.00     0.000 C 
BRANCH   5   6
ATOM      6  C   UNL     1      89.960 321.335 203.123  1.00  0.00     0.000 C 
BRANCH   6   7
ATOM      7  C   UNL     1      88.966 321.614 204.260  1.00  0.00     0.000 C 
BRANCH   7   8
ATOM      8  C   UNL     1      89.616 321.360 205.629  1.00  0.00     0.000 C 
BRANCH   8   9
ATOM      9  C   UNL     1      88.603 320.916 206.696  1.00  0.00     0.000 C 
BRANCH   9  10
ATOM     10  C   UNL     1      87.156 320.920 206.180  1.00  0.00     0.000 C 
BRANCH  10  11
ATOM     11  C   UNL     1      86.280 319.964 207.002  1.00  0.00     0.000 C 
BRANCH  11  12
ATOM     12  C   UNL     1      85.543 318.924 206.138  1.00  0.00     0.006 C 
BRANCH  12  13
ATOM     13  C   UNL     1      86.158 318.726 204.741  1.00  0.00     0.053 C 
BRANCH  13  14
ATOM     14  C   UNL     1      85.328 317.828 203.872  1.00  0.00     0.041 C 
ATOM     15  O   UNL     1      84.732 318.296 202.867  1.00  0.00    -0.550 OA
ATOM     16  O   UNL     1      85.249 316.470 204.147  1.00  0.00    -0.550 OA
ENDBRANCH  13  14
ENDBRANCH  12  13
ENDBRANCH  11  12
ENDBRANCH  10  11
ENDBRANCH   9  10
ENDBRANCH   8   9
ENDBRANCH   7   8
ENDBRANCH   6   7
ENDBRANCH   5   6
ENDBRANCH   4   5
ENDBRANCH   3   4
ENDBRANCH   2   3
ENDBRANCH   1   2
BRANCH   1  17
ATOM     17  C   UNL     1      86.489 320.331 197.017  1.00  0.00     0.000 C 
BRANCH  17  18
ATOM     18  C   UNL     1      87.374 320.493 195.774  1.00  0.00     0.000 C 
BRANCH  18  19
ATOM     19  C   UNL     1      86.584 320.923 194.524  1.00  0.00     0.000 C 
BRANCH  19  20
ATOM     20  C   UNL     1      85.080 320.590 194.551  1.00  0.00     0.000 C 
BRANCH  20  21
ATOM     21  C   UNL     1      84.706 319.430 193.612  1.00  0.00     0.000 C 
BRANCH  21  22
ATOM     22  C   UNL     1      85.876 318.988 192.719  1.00  0.00    -0.000 C 
BRANCH  22  23
ATOM     23  C   UNL     1      86.421 317.597 193.088  1.00  0.00    -0.000 C 
BRANCH  23  24
ATOM     24  C   UNL     1      85.431 316.790 193.943  1.00  0.00    -0.000 C 
BRANCH  24  25
ATOM     25  C   UNL     1      85.839 316.739 195.427  1.00  0.00    -0.000 C 
BRANCH  25  26
ATOM     26  C   UNL     1      87.357 316.934 195.626  1.00  0.00    -0.000 C 
BRANCH  26  27
ATOM     27  C   UNL     1      87.923 316.206 196.861  1.00  0.00    -0.000 C 
BRANCH  27  28
ATOM     28  C   UNL     1      86.869 315.740 197.884  1.00  0.00    -0.000 C 
BRANCH  28  29
ATOM     29  C   UNL     1      87.142 316.174 199.335  1.00  0.00    -0.003 C 
ATOM     30  C   UNL     1      85.878 316.613 200.074  1.00  0.00     0.004 C 
ENDBRANCH  28  29
ENDBRANCH  27  28
ENDBRANCH  26  27
ENDBRANCH  25  26
ENDBRANCH  24  25
ENDBRANCH  23  24
ENDBRANCH  22  23
ENDBRANCH  21  22
ENDBRANCH  20  21
ENDBRANCH  19  20
ENDBRANCH  18  19
ENDBRANCH  17  18
ENDBRANCH   1  17
TORSDOF 26
ENDMDL
MODEL 2
REMARK VINA RESULT:    -5.871      1.843      5.692
REMARK INTER + INTRA:         -18.320
REMARK INTER:                 -14.437
REMARK INTRA:                  -3.883
REMARK UNBOUND:                -3.526
REMARK SMILES CCCCCCCCCCCCCCCCCCCCCCCCCCCC(=O)[O-]
REMARK SMILES IDX 15 1 16 2 17 3 18 4 19 5 20 6 21 7 22 8 23 9 24 10 25 11
REMARK SMILES IDX 26 12 27 13 28 14 29 15 30 16 14 17 13 18 12 19 11 20 10 21
REMARK SMILES IDX 9 22 8 23 7 24 6 25 5 26 4 27 3 28 2 29 1 30
REMARK H PARENT
REMARK Flexibility Score: inf
ROOT
ATOM      1  C   UNL     1      87.913 321.526 203.938  1.00  0.00     0.000 C 
ENDROOT
BRANCH   1   2
ATOM      2  C   UNL     1      88.616 321.281 205.281  1.00  0.00     0.000 C 
BRANCH   2   3
ATOM      3  C   UNL     1      88.056 320.066 206.040  1.00  0.00     0.000 C 
BRANCH   3   4
ATOM      4  C   UNL     1      86.950 320.392 207.065  1.00  0.00     0.000 C 
BRANCH   4   5
ATOM      5  C   UNL     1      85.578 319.749 206.779  1.00  0.00     0.000 C 
BRANCH   5   6
ATOM      6  C   UNL     1      85.628 318.440 205.971  1.00  0.00     0.000 C 
BRANCH   6   7
ATOM      7  C   UNL     1      84.710 318.462 204.740  1.00  0.00     0.000 C 
BRANCH   7   8
ATOM      8  C   UNL     1      85.119 317.376 203.734  1.00  0.00     0.000 C 
BRANCH   8   9
ATOM      9  C   UNL     1      84.576 317.638 202.321  1.00  0.00     0.000 C 
BRANCH   9  10
ATOM     10  C   UNL     1      85.304 316.822 201.242  1.00  0.00     0.000 C 
BRANCH  10  11
ATOM     11  C   UNL     1      86.820 316.820 201.487  1.00  0.00     0.000 C 
BRANCH  11  12
ATOM     12  C   UNL     1      87.643 316.846 200.187  1.00  0.00     0.006 C 
BRANCH  12  13
ATOM     13  C   UNL     1      86.906 316.258 198.971  1.00  0.00     0.053 C 
BRANCH  13  14
ATOM     14  C   UNL     1      87.154 314.788 198.805  1.00  0.00     0.041 C 
ATOM     15  O   UNL     1      88.100 314.385 198.078  1.00  0.00    -0.550 OA
ATOM     16  O   UNL     1      86.370 313.867 199.485  1.00  0.00    -0.550 OA
ENDBRANCH  13  14
ENDBRANCH  12  13
ENDBRANCH  11  12
ENDBRANCH  10  11
ENDBRANCH   9  10
ENDBRANCH   8   9
ENDBRANCH   7   8
ENDBRANCH   6   7
ENDBRANCH   5   6
ENDBRANCH   4   5
ENDBRANCH   3   4
ENDBRANCH   2   3
ENDBRANCH   1   2
BRANCH   1  17
ATOM     17  C   UNL     1      87.771 320.219 203.149  1.00  0.00     0.000 C 
BRANCH  17  18
ATOM     18  C   UNL     1      87.040 320.450 201.819  1.00  0.00     0.000 C 
BRANCH  18  19
ATOM     19  C   UNL     1      87.998 320.598 200.623  1.00  0.00     0.000 C 
BRANCH  19  20
ATOM     20  C   UNL     1      87.335 321.023 199.299  1.00  0.00     0.000 C 
BRANCH  20  21
ATOM     21  C   UNL     1      87.269 319.884 198.267  1.00  0.00     0.000 C 
BRANCH  21  22
ATOM     22  C   UNL     1      86.454 320.260 197.020  1.00  0.00    -0.000 C 
BRANCH  22  23
ATOM     23  C   UNL     1      87.335 320.543 195.790  1.00  0.00    -0.000 C 
BRANCH  23  24
ATOM     24  C   UNL     1      86.508 320.944 194.559  1.00  0.00    -0.000 C 
BRANCH  24  25
ATOM     25  C   UNL     1      85.079 320.373 194.597  1.00  0.00    -0.000 C 
BRANCH  25  26
ATOM     26  C   UNL     1      84.765 319.492 193.368  1.00  0.00    -0.000 C 
BRANCH  26  27
ATOM     27  C   UNL     1      86.017 318.916 192.678  1.00  0.00    -0.000 C 
BRANCH  27  28
ATOM     28  C   UNL     1      86.346 317.454 193.035  1.00  0.00    -0.000 C 
BRANCH  28  29
ATOM     29  C   UNL     1      85.973 317.040 194.470  1.00  0.00    -0.003 C 
ATOM     30  C   UNL     1      87.192 316.868 195.377  1.00  0.00     0.004 C 
ENDBRANCH  28  29
ENDBRANCH  27  28
ENDBRANCH  26  27
ENDBRANCH  25  26
ENDBRANCH  24  25
ENDBRANCH  23  24
ENDBRANCH  22  23
ENDBRANCH  21  22
ENDBRANCH  20  21
ENDBRANCH  19  20
ENDBRANCH  18  19
ENDBRANCH  17  18
ENDBRANCH   1  17
TORSDOF 26
ENDMDL
MODEL 3
REMARK VINA RESULT:    -5.865      1.395      2.655
REMARK INTER + INTRA:         -18.305
REMARK INTER:                 -15.146
REMARK INTRA:                  -3.159
REMARK UNBOUND:                -3.526
REMARK SMILES CCCCCCCCCCCCCCCCCCCCCCCCCCCC(=O)[O-]
REMARK SMILES IDX 15 1 16 2 17 3 18 4 19 5 20 6 21 7 22 8 23 9 24 10 25 11
REMARK SMILES IDX 26 12 27 13 28 14 29 15 30 16 14 17 13 18 12 19 11 20 10 21
REMARK SMILES IDX 9 22 8 23 7 24 6 25 5 26 4 27 3 28 2 29 1 30
REMARK H PARENT
REMARK Flexibility Score: inf
ROOT
ATOM      1  C   UNL     1      87.317 319.974 199.419  1.00  0.00     0.000 C 
ENDROOT
BRANCH   1   2
ATOM      2  C   UNL     1      88.028 320.703 200.568  1.00  0.00     0.000 C 
BRANCH   2   3
ATOM      3  C   UNL     1      87.211 320.710 201.872  1.00  0.00     0.000 C 
BRANCH   3   4
ATOM      4  C   UNL     1      87.952 320.156 203.106  1.00  0.00     0.000 C 
BRANCH   4   5
ATOM      5  C   UNL     1      88.919 321.142 203.790  1.00  0.00     0.000 C 
BRANCH   5   6
ATOM      6  C   UNL     1      88.872 321.139 205.329  1.00  0.00     0.000 C 
BRANCH   6   7
ATOM      7  C   UNL     1      87.473 321.448 205.884  1.00  0.00     0.000 C 
BRANCH   7   8
ATOM      8  C   UNL     1      87.135 320.518 207.058  1.00  0.00     0.000 C 
BRANCH   8   9
ATOM      9  C   UNL     1      85.641 320.160 207.122  1.00  0.00     0.000 C 
BRANCH   9  10
ATOM     10  C   UNL     1      85.209 319.210 205.993  1.00  0.00     0.000 C 
BRANCH  10  11
ATOM     11  C   UNL     1      85.893 317.843 206.137  1.00  0.00     0.000 C 
BRANCH  11  12
ATOM     12  C   UNL     1      86.657 317.413 204.871  1.00  0.00     0.006 C 
BRANCH  12  13
ATOM     13  C   UNL     1      85.815 316.584 203.886  1.00  0.00     0.053 C 
BRANCH  13  14
ATOM     14  C   UNL     1      85.380 317.380 202.692  1.00  0.00     0.041 C 
ATOM     15  O   UNL     1      84.526 318.295 202.820  1.00  0.00    -0.550 OA
ATOM     16  O   UNL     1      85.949 317.139 201.448  1.00  0.00    -0.550 OA
ENDBRANCH  13  14
ENDBRANCH  12  13
ENDBRANCH  11  12
ENDBRANCH  10  11
ENDBRANCH   9  10
ENDBRANCH   8   9
ENDBRANCH   7   8
ENDBRANCH   6   7
ENDBRANCH   5   6
ENDBRANCH   4   5
ENDBRANCH   3   4
ENDBRANCH   2   3
ENDBRANCH   1   2
BRANCH   1  17
ATOM     17  C   UNL     1      87.068 320.923 198.241  1.00  0.00     0.000 C 
BRANCH  17  18
ATOM     18  C   UNL     1      86.540 320.162 197.016  1.00  0.00     0.000 C 
BRANCH  18  19
ATOM     19  C   UNL     1      87.323 320.475 195.728  1.00  0.00     0.000 C 
BRANCH  19  20
ATOM     20  C   UNL     1      86.464 320.920 194.529  1.00  0.00     0.000 C 
BRANCH  20  21
ATOM     21  C   UNL     1      85.065 320.279 194.524  1.00  0.00     0.000 C 
BRANCH  21  22
ATOM     22  C   UNL     1      84.818 319.403 193.286  1.00  0.00    -0.000 C 
BRANCH  22  23
ATOM     23  C   UNL     1      86.120 318.976 192.584  1.00  0.00    -0.000 C 
BRANCH  23  24
ATOM     24  C   UNL     1      85.872 317.948 191.468  1.00  0.00    -0.000 C 
BRANCH  24  25
ATOM     25  C   UNL     1      84.453 317.354 191.518  1.00  0.00    -0.000 C 
BRANCH  25  26
ATOM     26  C   UNL     1      84.440 315.906 192.055  1.00  0.00    -0.000 C 
BRANCH  26  27
ATOM     27  C   UNL     1      85.683 315.540 192.889  1.00  0.00    -0.000 C 
BRANCH  27  28
ATOM     28  C   UNL     1      85.406 315.235 194.373  1.00  0.00    -0.000 C 
BRANCH  28  29
ATOM     29  C   UNL     1      85.604 316.428 195.326  1.00  0.00    -0.003 C 
ATOM     30  C   UNL     1      87.076 316.765 195.562  1.00  0.00     0.004 C 
ENDBRANCH  28  29
ENDBRANCH  27  28
ENDBRANCH  26  27
ENDBRANCH  25  26
ENDBRANCH  24  25
ENDBRANCH  23  24
ENDBRANCH  22  23
ENDBRANCH  21  22
ENDBRANCH  20  21
ENDBRANCH  19  20
ENDBRANCH  18  19
ENDBRANCH  17  18
ENDBRANCH   1  17
TORSDOF 26
ENDMDL
MODEL 4
REMARK VINA RESULT:    -5.861      1.714      5.120
REMARK INTER + INTRA:         -18.294
REMARK INTER:                 -15.222
REMARK INTRA:                  -3.072
REMARK UNBOUND:                -3.526
REMARK SMILES CCCCCCCCCCCCCCCCCCCCCCCCCCCC(=O)[O-]
REMARK SMILES IDX 15 1 16 2 17 3 18 4 19 5 20 6 21 7 22 8 23 9 24 10 25 11
REMARK SMILES IDX 26 12 27 13 28 14 29 15 30 16 14 17 13 18 12 19 11 20 10 21
REMARK SMILES IDX 9 22 8 23 7 24 6 25 5 26 4 27 3 28 2 29 1 30
REMARK H PARENT
REMARK Flexibility Score: inf
ROOT
ATOM      1  C   UNL     1      88.878 320.369 202.516  1.00  0.00     0.000 C 
ENDROOT
BRANCH   1   2
ATOM      2  C   UNL     1      87.578 320.956 203.084  1.00  0.00     0.000 C 
BRANCH   2   3
ATOM      3  C   UNL     1      87.744 321.523 204.504  1.00  0.00     0.000 C 
BRANCH   3   4
ATOM      4  C   UNL     1      88.609 320.664 205.450  1.00  0.00     0.000 C 
BRANCH   4   5
ATOM      5  C   UNL     1      88.020 320.440 206.857  1.00  0.00     0.000 C 
BRANCH   5   6
ATOM      6  C   UNL     1      86.482 320.407 206.921  1.00  0.00     0.000 C 
BRANCH   6   7
ATOM      7  C   UNL     1      85.910 318.986 206.804  1.00  0.00     0.000 C 
BRANCH   7   8
ATOM      8  C   UNL     1      85.310 318.753 205.409  1.00  0.00     0.000 C 
BRANCH   8   9
ATOM      9  C   UNL     1      86.017 317.627 204.638  1.00  0.00     0.000 C 
BRANCH   9  10
ATOM     10  C   UNL     1      86.030 317.862 203.120  1.00  0.00     0.000 C 
BRANCH  10  11
ATOM     11  C   UNL     1      84.601 317.892 202.559  1.00  0.00     0.000 C 
BRANCH  11  12
ATOM     12  C   UNL     1      84.355 316.831 201.472  1.00  0.00     0.006 C 
BRANCH  12  13
ATOM     13  C   UNL     1      85.541 316.637 200.510  1.00  0.00     0.053 C 
BRANCH  13  14
ATOM     14  C   UNL     1      86.052 315.227 200.507  1.00  0.00     0.041 C 
ATOM     15  O   UNL     1      86.294 314.646 199.416  1.00  0.00    -0.550 OA
ATOM     16  O   UNL     1      86.299 314.571 201.705  1.00  0.00    -0.550 OA
ENDBRANCH  13  14
ENDBRANCH  12  13
ENDBRANCH  11  12
ENDBRANCH  10  11
ENDBRANCH   9  10
ENDBRANCH   8   9
ENDBRANCH   7   8
ENDBRANCH   6   7
ENDBRANCH   5   6
ENDBRANCH   4   5
ENDBRANCH   3   4
ENDBRANCH   2   3
ENDBRANCH   1   2
BRANCH   1  17
ATOM     17  C   UNL     1      88.727 320.048 201.024  1.00  0.00     0.000 C 
BRANCH  17  18
ATOM     18  C   UNL     1      87.336 320.445 200.508  1.00  0.00     0.000 C 
BRANCH  18  19
ATOM     19  C   UNL     1      87.258 320.505 198.971  1.00  0.00     0.000 C 
BRANCH  19  20
ATOM     20  C   UNL     1      87.270 319.138 198.260  1.00  0.00     0.000 C 
BRANCH  20  21
ATOM     21  C   UNL     1      87.249 319.259 196.727  1.00  0.00     0.000 C 
BRANCH  21  22
ATOM     22  C   UNL     1      87.399 320.711 196.244  1.00  0.00    -0.000 C 
BRANCH  22  23
ATOM     23  C   UNL     1      86.862 320.927 194.818  1.00  0.00    -0.000 C 
BRANCH  23  24
ATOM     24  C   UNL     1      85.334 320.777 194.741  1.00  0.00    -0.000 C 
BRANCH  24  25
ATOM     25  C   UNL     1      84.900 319.647 193.791  1.00  0.00    -0.000 C 
BRANCH  25  26
ATOM     26  C   UNL     1      86.063 319.136 192.914  1.00  0.00    -0.000 C 
BRANCH  26  27
ATOM     27  C   UNL     1      86.253 317.607 192.960  1.00  0.00    -0.000 C 
BRANCH  27  28
ATOM     28  C   UNL     1      86.150 316.895 191.598  1.00  0.00    -0.000 C 
BRANCH  28  29
ATOM     29  C   UNL     1      86.617 317.734 190.394  1.00  0.00    -0.003 C 
ATOM     30  C   UNL     1      86.249 317.105 189.050  1.00  0.00     0.004 C 
ENDBRANCH  28  29
ENDBRANCH  27  28
ENDBRANCH  26  27
ENDBRANCH  25  26
ENDBRANCH  24  25
ENDBRANCH  23  24
ENDBRANCH  22  23
ENDBRANCH  21  22
ENDBRANCH  20  21
ENDBRANCH  19  20
ENDBRANCH  18  19
ENDBRANCH  17  18
ENDBRANCH   1  17
TORSDOF 26
ENDMDL
MODEL 5
REMARK VINA RESULT:    -5.796      1.404      3.154
REMARK INTER + INTRA:         -18.131
REMARK INTER:                 -14.368
REMARK INTRA:                  -3.762
REMARK UNBOUND:                -3.526
REMARK SMILES CCCCCCCCCCCCCCCCCCCCCCCCCCCC(=O)[O-]
REMARK SMILES IDX 15 1 16 2 17 3 18 4 19 5 20 6 21 7 22 8 23 9 24 10 25 11
REMARK SMILES IDX 26 12 27 13 28 14 29 15 30 16 14 17 13 18 12 19 11 20 10 21
REMARK SMILES IDX 9 22 8 23 7 24 6 25 5 26 4 27 3 28 2 29 1 30
REMARK H PARENT
REMARK Flexibility Score: inf
ROOT
ATOM      1  C   UNL     1      88.473 319.839 200.561  1.00  0.00     0.000 C 
ENDROOT
BRANCH   1   2
ATOM      2  C   UNL     1      88.173 320.752 201.758  1.00  0.00     0.000 C 
BRANCH   2   3
ATOM      3  C   UNL     1      89.441 321.205 202.502  1.00  0.00     0.000 C 
BRANCH   3   4
ATOM      4  C   UNL     1      89.227 321.585 203.981  1.00  0.00     0.000 C 
BRANCH   4   5
ATOM      5  C   UNL     1      87.829 321.264 204.547  1.00  0.00     0.000 C 
BRANCH   5   6
ATOM      6  C   UNL     1      87.817 320.281 205.732  1.00  0.00     0.000 C 
BRANCH   6   7
ATOM      7  C   UNL     1      86.860 320.712 206.854  1.00  0.00     0.000 C 
BRANCH   7   8
ATOM      8  C   UNL     1      85.650 319.769 206.932  1.00  0.00     0.000 C 
BRANCH   8   9
ATOM      9  C   UNL     1      85.832 318.497 206.089  1.00  0.00     0.000 C 
BRANCH   9  10
ATOM     10  C   UNL     1      84.699 318.290 205.072  1.00  0.00     0.000 C 
BRANCH  10  11
ATOM     11  C   UNL     1      85.247 318.283 203.638  1.00  0.00     0.000 C 
BRANCH  11  12
ATOM     12  C   UNL     1      85.294 316.875 203.015  1.00  0.00     0.006 C 
BRANCH  12  13
ATOM     13  C   UNL     1      86.663 316.504 202.416  1.00  0.00     0.053 C 
BRANCH  13  14
ATOM     14  C   UNL     1      86.595 316.264 200.937  1.00  0.00     0.041 C 
ATOM     15  O   UNL     1      85.565 316.589 200.291  1.00  0.00    -0.550 OA
ATOM     16  O   UNL     1      87.683 315.722 200.268  1.00  0.00    -0.550 OA
ENDBRANCH  13  14
ENDBRANCH  12  13
ENDBRANCH  11  12
ENDBRANCH  10  11
ENDBRANCH   9  10
ENDBRANCH   8   9
ENDBRANCH   7   8
ENDBRANCH   6   7
ENDBRANCH   5   6
ENDBRANCH   4   5
ENDBRANCH   3   4
ENDBRANCH   2   3
ENDBRANCH   1   2
BRANCH   1  17
ATOM     17  C   UNL     1      87.246 319.712 199.649  1.00  0.00     0.000 C 
BRANCH  17  18
ATOM     18  C   UNL     1      87.226 320.821 198.588  1.00  0.00     0.000 C 
BRANCH  18  19
ATOM     19  C   UNL     1      86.592 320.372 197.259  1.00  0.00     0.000 C 
BRANCH  19  20
ATOM     20  C   UNL     1      87.490 320.531 196.017  1.00  0.00     0.000 C 
BRANCH  20  21
ATOM     21  C   UNL     1      86.706 320.937 194.757  1.00  0.00     0.000 C 
BRANCH  21  22
ATOM     22  C   UNL     1      85.218 320.559 194.837  1.00  0.00    -0.000 C 
BRANCH  22  23
ATOM     23  C   UNL     1      84.750 319.711 193.641  1.00  0.00    -0.000 C 
BRANCH  23  24
ATOM     24  C   UNL     1      85.920 319.032 192.913  1.00  0.00    -0.000 C 
BRANCH  24  25
ATOM     25  C   UNL     1      85.997 317.521 193.200  1.00  0.00    -0.000 C 
BRANCH  25  26
ATOM     26  C   UNL     1      86.874 317.201 194.430  1.00  0.00    -0.000 C 
BRANCH  26  27
ATOM     27  C   UNL     1      86.076 317.022 195.736  1.00  0.00    -0.000 C 
BRANCH  27  28
ATOM     28  C   UNL     1      86.912 316.609 196.961  1.00  0.00    -0.000 C 
BRANCH  28  29
ATOM     29  C   UNL     1      88.434 316.606 196.734  1.00  0.00    -0.003 C 
ATOM     30  C   UNL     1      89.186 317.504 197.716  1.00  0.00     0.004 C 
ENDBRANCH  28  29
ENDBRANCH  27  28
ENDBRANCH  26  27
ENDBRANCH  25  26
ENDBRANCH  24  25
ENDBRANCH  23  24
ENDBRANCH  22  23
ENDBRANCH  21  22
ENDBRANCH  20  21
ENDBRANCH  19  20
ENDBRANCH  18  19
ENDBRANCH  17  18
ENDBRANCH   1  17
TORSDOF 26
ENDMDL
MODEL 6
REMARK VINA RESULT:    -5.789      2.020      9.728
REMARK INTER + INTRA:         -18.114
REMARK INTER:                 -14.266
REMARK INTRA:                  -3.848
REMARK UNBOUND:                -3.526
REMARK SMILES CCCCCCCCCCCCCCCCCCCCCCCCCCCC(=O)[O-]
REMARK SMILES IDX 15 1 16 2 17 3 18 4 19 5 20 6 21 7 22 8 23 9 24 10 25 11
REMARK SMILES IDX 26 12 27 13 28 14 29 15 30 16 14 17 13 18 12 19 11 20 10 21
REMARK SMILES IDX 9 22 8 23 7 24 6 25 5 26 4 27 3 28 2 29 1 30
REMARK H PARENT
REMARK Flexibility Score: inf
ROOT
ATOM      1  C   UNL     1      87.608 320.002 199.713  1.00  0.00     0.000 C 
ENDROOT
BRANCH   1   2
ATOM      2  C   UNL     1      87.200 320.922 198.553  1.00  0.00     0.000 C 
BRANCH   2   3
ATOM      3  C   UNL     1      86.721 320.148 197.312  1.00  0.00     0.000 C 
BRANCH   3   4
ATOM      4  C   UNL     1      87.484 320.469 196.011  1.00  0.00     0.000 C 
BRANCH   4   5
ATOM      5  C   UNL     1      86.601 320.882 194.816  1.00  0.00     0.000 C 
BRANCH   5   6
ATOM      6  C   UNL     1      85.164 320.333 194.848  1.00  0.00     0.000 C 
BRANCH   6   7
ATOM      7  C   UNL     1      84.801 319.537 193.585  1.00  0.00     0.000 C 
BRANCH   7   8
ATOM      8  C   UNL     1      86.058 319.213 192.764  1.00  0.00     0.000 C 
BRANCH   8   9
ATOM      9  C   UNL     1      85.989 317.835 192.088  1.00  0.00     0.000 C 
BRANCH   9  10
ATOM     10  C   UNL     1      85.723 316.696 193.085  1.00  0.00     0.000 C 
BRANCH  10  11
ATOM     11  C   UNL     1      86.989 316.364 193.886  1.00  0.00     0.000 C 
BRANCH  11  12
ATOM     12  C   UNL     1      86.959 316.917 195.323  1.00  0.00     0.006 C 
BRANCH  12  13
ATOM     13  C   UNL     1      87.678 316.023 196.349  1.00  0.00     0.053 C 
BRANCH  13  14
ATOM     14  C   UNL     1      88.071 316.774 197.587  1.00  0.00     0.041 C 
ATOM     15  O   UNL     1      87.427 316.610 198.656  1.00  0.00    -0.550 OA
ATOM     16  O   UNL     1      89.172 317.619 197.571  1.00  0.00    -0.550 OA
ENDBRANCH  13  14
ENDBRANCH  12  13
ENDBRANCH  11  12
ENDBRANCH  10  11
ENDBRANCH   9  10
ENDBRANCH   8   9
ENDBRANCH   7   8
ENDBRANCH   6   7
ENDBRANCH   5   6
ENDBRANCH   4   5
ENDBRANCH   3   4
ENDBRANCH   2   3
ENDBRANCH   1   2
BRANCH   1  17
ATOM     17  C   UNL     1      88.264 320.806 200.842  1.00  0.00     0.000 C 
BRANCH  17  18
ATOM     18  C   UNL     1      87.553 320.563 202.181  1.00  0.00     0.000 C 
BRANCH  18  19
ATOM     19  C   UNL     1      88.351 321.085 203.390  1.00  0.00     0.000 C 
BRANCH  19  20
ATOM     20  C   UNL     1      87.528 321.304 204.675  1.00  0.00     0.000 C 
BRANCH  20  21
ATOM     21  C   UNL     1      88.400 321.378 205.940  1.00  0.00     0.000 C 
BRANCH  21  22
ATOM     22  C   UNL     1      87.887 320.468 207.068  1.00  0.00    -0.000 C 
BRANCH  22  23
ATOM     23  C   UNL     1      86.359 320.292 207.048  1.00  0.00    -0.000 C 
BRANCH  23  24
ATOM     24  C   UNL     1      85.942 318.838 206.774  1.00  0.00    -0.000 C 
BRANCH  24  25
ATOM     25  C   UNL     1      84.927 318.724 205.621  1.00  0.00    -0.000 C 
BRANCH  25  26
ATOM     26  C   UNL     1      85.561 318.151 204.335  1.00  0.00    -0.000 C 
BRANCH  26  27
ATOM     27  C   UNL     1      86.624 317.065 204.594  1.00  0.00    -0.000 C 
BRANCH  27  28
ATOM     28  C   UNL     1      88.018 317.363 204.009  1.00  0.00    -0.000 C 
BRANCH  28  29
ATOM     29  C   UNL     1      89.096 317.708 205.052  1.00  0.00    -0.003 C 
ATOM     30  C   UNL     1      90.371 318.274 204.427  1.00  0.00     0.004 C 
ENDBRANCH  28  29
ENDBRANCH  27  28
ENDBRANCH  26  27
ENDBRANCH  25  26
ENDBRANCH  24  25
ENDBRANCH  23  24
ENDBRANCH  22  23
ENDBRANCH  21  22
ENDBRANCH  20  21
ENDBRANCH  19  20
ENDBRANCH  18  19
ENDBRANCH  17  18
ENDBRANCH   1  17
TORSDOF 26
ENDMDL
MODEL 7
REMARK VINA RESULT:    -5.783      4.020     10.297
REMARK INTER + INTRA:         -18.099
REMARK INTER:                 -15.465
REMARK INTRA:                  -2.635
REMARK UNBOUND:                -3.526
REMARK SMILES CCCCCCCCCCCCCCCCCCCCCCCCCCCC(=O)[O-]
REMARK SMILES IDX 15 1 16 2 17 3 18 4 19 5 20 6 21 7 22 8 23 9 24 10 25 11
REMARK SMILES IDX 26 12 27 13 28 14 29 15 30 16 14 17 13 18 12 19 11 20 10 21
REMARK SMILES IDX 9 22 8 23 7 24 6 25 5 26 4 27 3 28 2 29 1 30
REMARK H PARENT
REMARK Flexibility Score: inf
ROOT
ATOM      1  C   UNL     1      87.315 320.453 201.830  1.00  0.00     0.000 C 
ENDROOT
BRANCH   1   2
ATOM      2  C   UNL     1      88.041 320.227 200.496  1.00  0.00     0.000 C 
BRANCH   2   3
ATOM      3  C   UNL     1      87.276 320.801 199.291  1.00  0.00     0.000 C 
BRANCH   3   4
ATOM      4  C   UNL     1      87.275 319.905 198.035  1.00  0.00     0.000 C 
BRANCH   4   5
ATOM      5  C   UNL     1      86.471 320.452 196.839  1.00  0.00     0.000 C 
BRANCH   5   6
ATOM      6  C   UNL     1      87.311 320.805 195.598  1.00  0.00     0.000 C 
BRANCH   6   7
ATOM      7  C   UNL     1      86.450 321.133 194.368  1.00  0.00     0.000 C 
BRANCH   7   8
ATOM      8  C   UNL     1      85.067 320.474 194.479  1.00  0.00     0.000 C 
BRANCH   8   9
ATOM      9  C   UNL     1      84.919 319.247 193.565  1.00  0.00     0.000 C 
BRANCH   9  10
ATOM     10  C   UNL     1      86.250 318.808 192.936  1.00  0.00     0.000 C 
BRANCH  10  11
ATOM     11  C   UNL     1      86.415 317.284 193.012  1.00  0.00     0.000 C 
BRANCH  11  12
ATOM     12  C   UNL     1      86.464 316.611 191.628  1.00  0.00     0.006 C 
BRANCH  12  13
ATOM     13  C   UNL     1      86.149 317.563 190.460  1.00  0.00     0.053 C 
BRANCH  13  14
ATOM     14  C   UNL     1      86.899 317.206 189.212  1.00  0.00     0.041 C 
ATOM     15  O   UNL     1      86.474 316.291 188.459  1.00  0.00    -0.550 OA
ATOM     16  O   UNL     1      88.042 317.912 188.858  1.00  0.00    -0.550 OA
ENDBRANCH  13  14
ENDBRANCH  12  13
ENDBRANCH  11  12
ENDBRANCH  10  11
ENDBRANCH   9  10
ENDBRANCH   8   9
ENDBRANCH   7   8
ENDBRANCH   6   7
ENDBRANCH   5   6
ENDBRANCH   4   5
ENDBRANCH   3   4
ENDBRANCH   2   3
ENDBRANCH   1   2
BRANCH   1  17
ATOM     17  C   UNL     1      88.304 320.870 202.926  1.00  0.00     0.000 C 
BRANCH  17  18
ATOM     18  C   UNL     1      87.571 321.241 204.224  1.00  0.00     0.000 C 
BRANCH  18  19
ATOM     19  C   UNL     1      87.965 320.349 205.415  1.00  0.00     0.000 C 
BRANCH  19  20
ATOM     20  C   UNL     1      87.219 320.643 206.730  1.00  0.00     0.000 C 
BRANCH  20  21
ATOM     21  C   UNL     1      85.805 320.038 206.766  1.00  0.00     0.000 C 
BRANCH  21  22
ATOM     22  C   UNL     1      85.770 318.581 206.279  1.00  0.00    -0.000 C 
BRANCH  22  23
ATOM     23  C   UNL     1      84.804 318.365 205.101  1.00  0.00    -0.000 C 
BRANCH  23  24
ATOM     24  C   UNL     1      85.510 317.785 203.865  1.00  0.00    -0.000 C 
BRANCH  24  25
ATOM     25  C   UNL     1      84.694 317.977 202.574  1.00  0.00    -0.000 C 
BRANCH  25  26
ATOM     26  C   UNL     1      84.372 316.638 201.877  1.00  0.00    -0.000 C 
BRANCH  26  27
ATOM     27  C   UNL     1      85.542 316.070 201.049  1.00  0.00    -0.000 C 
BRANCH  27  28
ATOM     28  C   UNL     1      86.167 317.053 200.041  1.00  0.00    -0.000 C 
BRANCH  28  29
ATOM     29  C   UNL     1      87.363 316.494 199.251  1.00  0.00    -0.003 C 
ATOM     30  C   UNL     1      87.089 316.387 197.751  1.00  0.00     0.004 C 
ENDBRANCH  28  29
ENDBRANCH  27  28
ENDBRANCH  26  27
ENDBRANCH  25  26
ENDBRANCH  24  25
ENDBRANCH  23  24
ENDBRANCH  22  23
ENDBRANCH  21  22
ENDBRANCH  20  21
ENDBRANCH  19  20
ENDBRANCH  18  19
ENDBRANCH  17  18
ENDBRANCH   1  17
TORSDOF 26
ENDMDL
MODEL 8
REMARK VINA RESULT:    -5.774      2.224      9.252
REMARK INTER + INTRA:         -18.077
REMARK INTER:                 -14.641
REMARK INTRA:                  -3.436
REMARK UNBOUND:                -3.526
REMARK SMILES CCCCCCCCCCCCCCCCCCCCCCCCCCCC(=O)[O-]
REMARK SMILES IDX 15 1 16 2 17 3 18 4 19 5 20 6 21 7 22 8 23 9 24 10 25 11
REMARK SMILES IDX 26 12 27 13 28 14 29 15 30 16 14 17 13 18 12 19 11 20 10 21
REMARK SMILES IDX 9 22 8 23 7 24 6 25 5 26 4 27 3 28 2 29 1 30
REMARK H PARENT
REMARK Flexibility Score: inf
ROOT
ATOM      1  C   UNL     1      89.156 320.300 201.696  1.00  0.00     0.000 C 
ENDROOT
BRANCH   1   2
ATOM      2  C   UNL     1      87.923 320.872 200.981  1.00  0.00     0.000 C 
BRANCH   2   3
ATOM      3  C   UNL     1      87.596 320.140 199.668  1.00  0.00     0.000 C 
BRANCH   3   4
ATOM      4  C   UNL     1      87.188 321.056 198.496  1.00  0.00     0.000 C 
BRANCH   4   5
ATOM      5  C   UNL     1      86.581 320.334 197.278  1.00  0.00     0.000 C 
BRANCH   5   6
ATOM      6  C   UNL     1      87.457 320.343 196.012  1.00  0.00     0.000 C 
BRANCH   6   7
ATOM      7  C   UNL     1      86.740 320.946 194.794  1.00  0.00     0.000 C 
BRANCH   7   8
ATOM      8  C   UNL     1      85.235 320.645 194.843  1.00  0.00     0.000 C 
BRANCH   8   9
ATOM      9  C   UNL     1      84.797 319.625 193.780  1.00  0.00     0.000 C 
BRANCH   9  10
ATOM     10  C   UNL     1      85.971 319.103 192.938  1.00  0.00     0.000 C 
BRANCH  10  11
ATOM     11  C   UNL     1      86.208 317.609 193.198  1.00  0.00     0.000 C 
BRANCH  11  12
ATOM     12  C   UNL     1      85.529 317.102 194.484  1.00  0.00     0.006 C 
BRANCH  12  13
ATOM     13  C   UNL     1      85.033 315.648 194.396  1.00  0.00     0.053 C 
BRANCH  13  14
ATOM     14  C   UNL     1      85.289 314.878 195.657  1.00  0.00     0.041 C 
ATOM     15  O   UNL     1      86.344 314.202 195.782  1.00  0.00    -0.550 OA
ATOM     16  O   UNL     1      84.385 314.941 196.709  1.00  0.00    -0.550 OA
ENDBRANCH  13  14
ENDBRANCH  12  13
ENDBRANCH  11  12
ENDBRANCH  10  11
ENDBRANCH   9  10
ENDBRANCH   8   9
ENDBRANCH   7   8
ENDBRANCH   6   7
ENDBRANCH   5   6
ENDBRANCH   4   5
ENDBRANCH   3   4
ENDBRANCH   2   3
ENDBRANCH   1   2
BRANCH   1  17
ATOM     17  C   UNL     1      88.986 320.369 203.218  1.00  0.00     0.000 C 
BRANCH  17  18
ATOM     18  C   UNL     1      87.656 321.035 203.599  1.00  0.00     0.000 C 
BRANCH  18  19
ATOM     19  C   UNL     1      87.661 321.620 205.024  1.00  0.00     0.000 C 
BRANCH  19  20
ATOM     20  C   UNL     1      87.888 320.596 206.152  1.00  0.00     0.000 C 
BRANCH  20  21
ATOM     21  C   UNL     1      86.621 320.328 206.983  1.00  0.00     0.000 C 
BRANCH  21  22
ATOM     22  C   UNL     1      86.098 318.892 206.821  1.00  0.00    -0.000 C 
BRANCH  22  23
ATOM     23  C   UNL     1      85.006 318.771 205.743  1.00  0.00    -0.000 C 
BRANCH  23  24
ATOM     24  C   UNL     1      85.218 317.550 204.833  1.00  0.00    -0.000 C 
BRANCH  24  25
ATOM     25  C   UNL     1      86.318 317.782 203.781  1.00  0.00    -0.000 C 
BRANCH  25  26
ATOM     26  C   UNL     1      85.739 318.110 202.388  1.00  0.00    -0.000 C 
BRANCH  26  27
ATOM     27  C   UNL     1      84.705 317.084 201.885  1.00  0.00    -0.000 C 
BRANCH  27  28
ATOM     28  C   UNL     1      85.054 316.407 200.546  1.00  0.00    -0.000 C 
BRANCH  28  29
ATOM     29  C   UNL     1      86.532 316.519 200.131  1.00  0.00    -0.003 C 
ATOM     30  C   UNL     1      86.715 316.749 198.631  1.00  0.00     0.004 C 
ENDBRANCH  28  29
ENDBRANCH  27  28
ENDBRANCH  26  27
ENDBRANCH  25  26
ENDBRANCH  24  25
ENDBRANCH  23  24
ENDBRANCH  22  23
ENDBRANCH  21  22
ENDBRANCH  20  21
ENDBRANCH  19  20
ENDBRANCH  18  19
ENDBRANCH  17  18
ENDBRANCH   1  17
TORSDOF 26
ENDMDL
MODEL 9
REMARK VINA RESULT:    -5.674      4.069     10.395
REMARK INTER + INTRA:         -17.823
REMARK INTER:                 -14.750
REMARK INTRA:                  -3.073
REMARK UNBOUND:                -3.526
REMARK SMILES CCCCCCCCCCCCCCCCCCCCCCCCCCCC(=O)[O-]
REMARK SMILES IDX 15 1 16 2 17 3 18 4 19 5 20 6 21 7 22 8 23 9 24 10 25 11
REMARK SMILES IDX 26 12 27 13 28 14 29 15 30 16 14 17 13 18 12 19 11 20 10 21
REMARK SMILES IDX 9 22 8 23 7 24 6 25 5 26 4 27 3 28 2 29 1 30
REMARK H PARENT
REMARK Flexibility Score: inf
ROOT
ATOM      1  C   UNL     1      87.097 317.261 200.708  1.00  0.00     0.000 C 
ENDROOT
BRANCH   1   2
ATOM      2  C   UNL     1      86.566 317.262 199.267  1.00  0.00     0.000 C 
BRANCH   2   3
ATOM      3  C   UNL     1      87.686 317.231 198.213  1.00  0.00     0.000 C 
BRANCH   3   4
ATOM      4  C   UNL     1      87.895 318.554 197.447  1.00  0.00     0.000 C 
BRANCH   4   5
ATOM      5  C   UNL     1      86.948 319.703 197.848  1.00  0.00     0.000 C 
BRANCH   5   6
ATOM      6  C   UNL     1      86.339 320.486 196.671  1.00  0.00     0.000 C 
BRANCH   6   7
ATOM      7  C   UNL     1      87.289 320.590 195.468  1.00  0.00     0.000 C 
BRANCH   7   8
ATOM      8  C   UNL     1      86.505 320.863 194.176  1.00  0.00     0.000 C 
BRANCH   8   9
ATOM      9  C   UNL     1      85.249 319.987 194.046  1.00  0.00     0.000 C 
BRANCH   9  10
ATOM     10  C   UNL     1      85.573 318.537 193.657  1.00  0.00     0.000 C 
BRANCH  10  11
ATOM     11  C   UNL     1      85.286 318.292 192.169  1.00  0.00     0.000 C 
BRANCH  11  12
ATOM     12  C   UNL     1      86.342 317.403 191.487  1.00  0.00     0.006 C 
BRANCH  12  13
ATOM     13  C   UNL     1      86.856 317.962 190.148  1.00  0.00     0.053 C 
BRANCH  13  14
ATOM     14  C   UNL     1      87.246 316.879 189.187  1.00  0.00     0.041 C 
ATOM     15  O   UNL     1      88.458 316.695 188.900  1.00  0.00    -0.550 OA
ATOM     16  O   UNL     1      86.277 316.048 188.642  1.00  0.00    -0.550 OA
ENDBRANCH  13  14
ENDBRANCH  12  13
ENDBRANCH  11  12
ENDBRANCH  10  11
ENDBRANCH   9  10
ENDBRANCH   8   9
ENDBRANCH   7   8
ENDBRANCH   6   7
ENDBRANCH   5   6
ENDBRANCH   4   5
ENDBRANCH   3   4
ENDBRANCH   2   3
ENDBRANCH   1   2
BRANCH   1  17
ATOM     17  C   UNL     1      86.161 318.043 201.637  1.00  0.00     0.000 C 
BRANCH  17  18
ATOM     18  C   UNL     1      86.901 319.196 202.330  1.00  0.00     0.000 C 
BRANCH  18  19
ATOM     19  C   UNL     1      86.996 320.462 201.457  1.00  0.00     0.000 C 
BRANCH  19  20
ATOM     20  C   UNL     1      88.423 320.857 201.029  1.00  0.00     0.000 C 
BRANCH  20  21
ATOM     21  C   UNL     1      89.511 320.031 201.736  1.00  0.00     0.000 C 
BRANCH  21  22
ATOM     22  C   UNL     1      90.353 320.869 202.711  1.00  0.00    -0.000 C 
BRANCH  22  23
ATOM     23  C   UNL     1      89.495 321.678 203.701  1.00  0.00    -0.000 C 
BRANCH  23  24
ATOM     24  C   UNL     1      89.003 320.823 204.880  1.00  0.00    -0.000 C 
BRANCH  24  25
ATOM     25  C   UNL     1      87.659 321.318 205.447  1.00  0.00    -0.000 C 
BRANCH  25  26
ATOM     26  C   UNL     1      87.323 320.673 206.808  1.00  0.00    -0.000 C 
BRANCH  26  27
ATOM     27  C   UNL     1      85.881 320.136 206.904  1.00  0.00    -0.000 C 
BRANCH  27  28
ATOM     28  C   UNL     1      85.734 318.618 206.686  1.00  0.00    -0.000 C 
BRANCH  28  29
ATOM     29  C   UNL     1      85.057 318.218 205.362  1.00  0.00    -0.003 C 
ATOM     30  C   UNL     1      85.304 316.759 204.983  1.00  0.00     0.004 C 
ENDBRANCH  28  29
ENDBRANCH  27  28
ENDBRANCH  26  27
ENDBRANCH  25  26
ENDBRANCH  24  25
ENDBRANCH  23  24
ENDBRANCH  22  23
ENDBRANCH  21  22
ENDBRANCH  20  21
ENDBRANCH  19  20
ENDBRANCH  18  19
ENDBRANCH  17  18
ENDBRANCH   1  17
TORSDOF 26
ENDMDL
