MODEL 1
REMARK VINA RESULT:    -3.727      0.000      0.000
REMARK INTER + INTRA:          -3.964
REMARK INTER:                  -3.944
REMARK INTRA:                  -0.020
REMARK UNBOUND:                -0.020
REMARK SMILES O=C([O-])c1cccnc1
REMARK SMILES IDX 4 1 5 2 9 3 6 4 8 5 7 6 2 7 1 8 3 9
REMARK H PARENT
REMARK Flexibility Score: inf
ROOT
ATOM      1  C   UNL     1      17.225   7.141   5.926  1.00  0.00     0.016 A 
ATOM      2  C   UNL     1      16.363   8.218   5.659  1.00  0.00     0.013 A 
ATOM      3  C   UNL     1      17.574   6.287   4.866  1.00  0.00     0.120 A 
ATOM      4  C   UNL     1      15.875   8.422   4.368  1.00  0.00     0.021 A 
ATOM      5  N   UNL     1      17.085   6.508   3.617  1.00  0.00    -0.264 NA
ATOM      6  C   UNL     1      16.251   7.547   3.348  1.00  0.00     0.111 A 
ENDROOT
BRANCH   1   7
ATOM      7  C   UNL     1      17.752   6.907   7.288  1.00  0.00     0.073 C 
ATOM      8  O   UNL     1      17.000   7.012   8.293  1.00  0.00    -0.545 OA
ATOM      9  O   UNL     1      19.087   6.569   7.478  1.00  0.00    -0.545 OA
ENDBRANCH   1   7
TORSDOF 1
ENDMDL
MODEL 2
REMARK VINA RESULT:    -3.611      1.159      1.956
REMARK INTER + INTRA:          -3.842
REMARK INTER:                  -3.819
REMARK INTRA:                  -0.023
REMARK UNBOUND:                -0.020
REMARK SMILES O=C([O-])c1cccnc1
REMARK SMILES IDX 4 1 5 2 9 3 6 4 8 5 7 6 2 7 1 8 3 9
REMARK H PARENT
REMARK Flexibility Score: inf
ROOT
ATOM      1  C   UNL     1      17.856   6.747   5.719  1.00  0.00     0.016 A 
ATOM      2  C   UNL     1      18.953   7.020   4.885  1.00  0.00     0.013 A 
ATOM      3  C   UNL     1      16.595   6.568   5.125  1.00  0.00     0.120 A 
ATOM      4  C   UNL     1      18.779   7.108   3.503  1.00  0.00     0.021 A 
ATOM      5  N   UNL     1      16.452   6.659   3.776  1.00  0.00    -0.264 NA
ATOM      6  C   UNL     1      17.507   6.923   2.960  1.00  0.00     0.111 A 
ENDROOT
BRANCH   1   7
ATOM      7  C   UNL     1      18.020   6.649   7.185  1.00  0.00     0.073 C 
ATOM      8  O   UNL     1      19.139   6.359   7.687  1.00  0.00    -0.545 OA
ATOM      9  O   UNL     1      16.940   6.876   8.031  1.00  0.00    -0.545 OA
ENDBRANCH   1   7
TORSDOF 1
ENDMDL
MODEL 3
REMARK VINA RESULT:    -3.585      2.256      2.872
REMARK INTER + INTRA:          -3.815
REMARK INTER:                  -3.794
REMARK INTRA:                  -0.021
REMARK UNBOUND:                -0.020
REMARK SMILES O=C([O-])c1cccnc1
REMARK SMILES IDX 4 1 5 2 9 3 6 4 8 5 7 6 2 7 1 8 3 9
REMARK H PARENT
REMARK Flexibility Score: inf
ROOT
ATOM      1  C   UNL     1      17.906   8.487   6.602  1.00  0.00     0.016 A 
ATOM      2  C   UNL     1      19.021   9.288   6.303  1.00  0.00     0.013 A 
ATOM      3  C   UNL     1      16.663   8.842   6.051  1.00  0.00     0.120 A 
ATOM      4  C   UNL     1      18.882  10.404   5.478  1.00  0.00     0.021 A 
ATOM      5  N   UNL     1      16.554   9.935   5.249  1.00  0.00    -0.264 NA
ATOM      6  C   UNL     1      17.626  10.716   4.954  1.00  0.00     0.111 A 
ENDROOT
BRANCH   1   7
ATOM      7  C   UNL     1      18.032   7.300   7.474  1.00  0.00     0.073 C 
ATOM      8  O   UNL     1      19.072   6.589   7.443  1.00  0.00    -0.545 OA
ATOM      9  O   UNL     1      17.004   6.951   8.342  1.00  0.00    -0.545 OA
ENDBRANCH   1   7
TORSDOF 1
ENDMDL
MODEL 4
REMARK VINA RESULT:    -3.557      4.336      5.166
REMARK INTER + INTRA:          -3.785
REMARK INTER:                  -3.767
REMARK INTRA:                  -0.018
REMARK UNBOUND:                -0.020
REMARK SMILES O=C([O-])c1cccnc1
REMARK SMILES IDX 4 1 5 2 9 3 6 4 8 5 7 6 2 7 1 8 3 9
REMARK H PARENT
REMARK Flexibility Score: inf
ROOT
ATOM      1  C   UNL     1      19.251   9.879   6.246  1.00  0.00     0.016 A 
ATOM      2  C   UNL     1      19.611  11.104   6.832  1.00  0.00     0.013 A 
ATOM      3  C   UNL     1      19.688   8.692   6.859  1.00  0.00     0.120 A 
ATOM      4  C   UNL     1      20.381  11.125   7.996  1.00  0.00     0.021 A 
ATOM      5  N   UNL     1      20.437   8.740   7.992  1.00  0.00    -0.264 NA
ATOM      6  C   UNL     1      20.791   9.920   8.568  1.00  0.00     0.111 A 
ENDROOT
BRANCH   1   7
ATOM      7  C   UNL     1      18.436   9.836   5.013  1.00  0.00     0.073 C 
ATOM      8  O   UNL     1      18.850  10.374   3.952  1.00  0.00    -0.545 OA
ATOM      9  O   UNL     1      17.199   9.201   5.009  1.00  0.00    -0.545 OA
ENDBRANCH   1   7
TORSDOF 1
ENDMDL
MODEL 5
REMARK VINA RESULT:    -3.487      2.428      2.777
REMARK INTER + INTRA:          -3.711
REMARK INTER:                  -3.693
REMARK INTRA:                  -0.017
REMARK UNBOUND:                -0.020
REMARK SMILES O=C([O-])c1cccnc1
REMARK SMILES IDX 4 1 5 2 9 3 6 4 8 5 7 6 2 7 1 8 3 9
REMARK H PARENT
REMARK Flexibility Score: inf
ROOT
ATOM      1  C   UNL     1      18.920   8.230   5.949  1.00  0.00     0.016 A 
ATOM      2  C   UNL     1      19.107   9.556   6.370  1.00  0.00     0.013 A 
ATOM      3  C   UNL     1      18.515   8.002   4.623  1.00  0.00     0.120 A 
ATOM      4  C   UNL     1      18.893  10.611   5.482  1.00  0.00     0.021 A 
ATOM      5  N   UNL     1      18.314   9.047   3.777  1.00  0.00    -0.264 NA
ATOM      6  C   UNL     1      18.492  10.335   4.175  1.00  0.00     0.111 A 
ENDROOT
BRANCH   1   7
ATOM      7  C   UNL     1      19.141   7.098   6.874  1.00  0.00     0.073 C 
ATOM      8  O   UNL     1      20.287   6.872   7.348  1.00  0.00    -0.545 OA
ATOM      9  O   UNL     1      18.087   6.266   7.235  1.00  0.00    -0.545 OA
ENDBRANCH   1   7
TORSDOF 1
ENDMDL
MODEL 6
REMARK VINA RESULT:    -3.486      3.330      3.978
REMARK INTER + INTRA:          -3.709
REMARK INTER:                  -3.692
REMARK INTRA:                  -0.018
REMARK UNBOUND:                -0.020
REMARK SMILES O=C([O-])c1cccnc1
REMARK SMILES IDX 4 1 5 2 9 3 6 4 8 5 7 6 2 7 1 8 3 9
REMARK H PARENT
REMARK Flexibility Score: inf
ROOT
ATOM      1  C   UNL     1      18.905   8.202   5.375  1.00  0.00     0.016 A 
ATOM      2  C   UNL     1      18.548   9.499   4.972  1.00  0.00     0.013 A 
ATOM      3  C   UNL     1      19.638   8.051   6.564  1.00  0.00     0.120 A 
ATOM      4  C   UNL     1      18.920  10.601   5.744  1.00  0.00     0.021 A 
ATOM      5  N   UNL     1      19.988   9.140   7.298  1.00  0.00    -0.264 NA
ATOM      6  C   UNL     1      19.649  10.400   6.917  1.00  0.00     0.111 A 
ENDROOT
BRANCH   1   7
ATOM      7  C   UNL     1      18.521   7.022   4.571  1.00  0.00     0.073 C 
ATOM      8  O   UNL     1      18.967   6.869   3.403  1.00  0.00    -0.545 OA
ATOM      9  O   UNL     1      17.659   6.064   5.093  1.00  0.00    -0.545 OA
ENDBRANCH   1   7
TORSDOF 1
ENDMDL
MODEL 7
REMARK VINA RESULT:    -3.480      3.102      3.667
REMARK INTER + INTRA:          -3.703
REMARK INTER:                  -3.685
REMARK INTRA:                  -0.018
REMARK UNBOUND:                -0.020
REMARK SMILES O=C([O-])c1cccnc1
REMARK SMILES IDX 4 1 5 2 9 3 6 4 8 5 7 6 2 7 1 8 3 9
REMARK H PARENT
REMARK Flexibility Score: inf
ROOT
ATOM      1  C   UNL     1      18.524   8.112   4.770  1.00  0.00     0.016 A 
ATOM      2  C   UNL     1      19.074   8.353   6.040  1.00  0.00     0.013 A 
ATOM      3  C   UNL     1      18.221   9.216   3.954  1.00  0.00     0.120 A 
ATOM      4  C   UNL     1      19.309   9.661   6.466  1.00  0.00     0.021 A 
ATOM      5  N   UNL     1      18.460  10.480   4.393  1.00  0.00    -0.264 NA
ATOM      6  C   UNL     1      18.992  10.724   5.620  1.00  0.00     0.111 A 
ENDROOT
BRANCH   1   7
ATOM      7  C   UNL     1      18.267   6.734   4.300  1.00  0.00     0.073 C 
ATOM      8  O   UNL     1      17.547   5.951   4.975  1.00  0.00    -0.545 OA
ATOM      9  O   UNL     1      18.818   6.283   3.106  1.00  0.00    -0.545 OA
ENDBRANCH   1   7
TORSDOF 1
ENDMDL
MODEL 8
REMARK VINA RESULT:    -3.421      2.945      3.790
REMARK INTER + INTRA:          -3.641
REMARK INTER:                  -3.624
REMARK INTRA:                  -0.016
REMARK UNBOUND:                -0.020
REMARK SMILES O=C([O-])c1cccnc1
REMARK SMILES IDX 4 1 5 2 9 3 6 4 8 5 7 6 2 7 1 8 3 9
REMARK H PARENT
REMARK Flexibility Score: inf
ROOT
ATOM      1  C   UNL     1      17.073   8.153   5.291  1.00  0.00     0.016 A 
ATOM      2  C   UNL     1      16.298   7.452   6.230  1.00  0.00     0.013 A 
ATOM      3  C   UNL     1      18.472   8.075   5.390  1.00  0.00     0.120 A 
ATOM      4  C   UNL     1      16.917   6.701   7.230  1.00  0.00     0.021 A 
ATOM      5  N   UNL     1      19.051   7.336   6.373  1.00  0.00    -0.264 NA
ATOM      6  C   UNL     1      18.310   6.654   7.287  1.00  0.00     0.111 A 
ENDROOT
BRANCH   1   7
ATOM      7  C   UNL     1      16.435   8.954   4.224  1.00  0.00     0.073 C 
ATOM      8  O   UNL     1      16.373   8.517   3.044  1.00  0.00    -0.545 OA
ATOM      9  O   UNL     1      15.897  10.204   4.508  1.00  0.00    -0.545 OA
ENDBRANCH   1   7
TORSDOF 1
ENDMDL
MODEL 9
REMARK VINA RESULT:    -3.389      2.373      2.709
REMARK INTER + INTRA:          -3.607
REMARK INTER:                  -3.590
REMARK INTRA:                  -0.017
REMARK UNBOUND:                -0.020
REMARK SMILES O=C([O-])c1cccnc1
REMARK SMILES IDX 4 1 5 2 9 3 6 4 8 5 7 6 2 7 1 8 3 9
REMARK H PARENT
REMARK Flexibility Score: inf
ROOT
ATOM      1  C   UNL     1      17.531   8.120   5.645  1.00  0.00     0.016 A 
ATOM      2  C   UNL     1      16.307   8.770   5.413  1.00  0.00     0.013 A 
ATOM      3  C   UNL     1      18.706   8.889   5.644  1.00  0.00     0.120 A 
ATOM      4  C   UNL     1      16.276  10.147   5.190  1.00  0.00     0.021 A 
ATOM      5  N   UNL     1      18.649  10.230   5.424  1.00  0.00    -0.264 NA
ATOM      6  C   UNL     1      17.470  10.869   5.199  1.00  0.00     0.111 A 
ENDROOT
BRANCH   1   7
ATOM      7  C   UNL     1      17.585   6.661   5.883  1.00  0.00     0.073 C 
ATOM      8  O   UNL     1      17.383   5.850   4.940  1.00  0.00    -0.545 OA
ATOM      9  O   UNL     1      17.859   6.164   7.152  1.00  0.00    -0.545 OA
ENDBRANCH   1   7
TORSDOF 1
ENDMDL
