MODEL 1
REMARK VINA RESULT:    37.839      0.000      0.000
REMARK INTER + INTRA:          57.264
REMARK INTER:                  56.642
REMARK INTRA:                   0.622
REMARK UNBOUND:                 0.622
REMARK SMILES C=C(CC[C@@H](C(=O)[O-])[C@H]1[C@H](O)C[C@@]2(C)C3=C(CC[C@]12C)[C@]1(C)CC[C@@H](OC(C)=O)C(C)(C)[C@H]1CC3)C(C)C
REMARK SMILES IDX 4 1 5 2 6 3 7 4 8 5 9 6 10 7 19 8 12 9 13 10 18 11 20 12
REMARK SMILES IDX 14 13 15 14 17 15 16 16 35 17 21 18 34 19 33 20 23 21 22 22
REMARK SMILES IDX 30 23 24 24 25 25 31 26 32 27 11 28 26 30 27 31 29 32 28 33
REMARK SMILES IDX 3 34 2 35 1 36 36 37 37 38 38 39
REMARK H PARENT 11 29
REMARK Flexibility Score: inf
ROOT
ATOM      1  C   UNL     1     -15.648 -36.000 -11.786  1.00  0.00     0.014 C 
ENDROOT
BRANCH   1   2
ATOM      2  C   UNL     1     -15.859 -36.548 -13.223  1.00  0.00     0.042 C 
BRANCH   2   3
ATOM      3  C   UNL     1     -17.320 -36.798 -13.545  1.00  0.00     0.045 C 
ATOM      4  O   UNL     1     -17.703 -37.039 -14.719  1.00  0.00    -0.550 OA
ATOM      5  O   UNL     1     -18.269 -36.718 -12.533  1.00  0.00    -0.550 OA
ENDBRANCH   2   3
BRANCH   2   6
ATOM      6  C   UNL     1     -15.056 -35.744 -14.310  1.00  0.00     0.033 C 
ATOM      7  C   UNL     1     -15.806 -35.596 -15.668  1.00  0.00     0.119 C 
ATOM      8  C   UNL     1     -14.502 -34.314 -14.026  1.00  0.00    -0.017 C 
ATOM      9  C   UNL     1     -15.342 -34.261 -16.287  1.00  0.00     0.043 C 
ATOM     10  C   UNL     1     -14.117 -33.831 -15.459  1.00  0.00    -0.003 C 
ATOM     11  C   UNL     1     -13.238 -34.227 -13.144  1.00  0.00     0.012 C 
ATOM     12  C   UNL     1     -15.615 -33.428 -13.375  1.00  0.00     0.013 C 
ATOM     13  C   UNL     1     -12.870 -34.534 -16.092  1.00  0.00     0.017 C 
ATOM     14  C   UNL     1     -13.781 -32.345 -15.415  1.00  0.00    -0.064 C 
ATOM     15  C   UNL     1     -12.476 -32.874 -13.313  1.00  0.00     0.032 C 
ATOM     16  C   UNL     1     -13.030 -31.873 -14.363  1.00  0.00    -0.064 C 
ATOM     17  C   UNL     1     -14.341 -31.447 -16.499  1.00  0.00     0.032 C 
ATOM     18  C   UNL     1     -12.530 -30.403 -14.322  1.00  0.00    -0.008 C 
ATOM     19  C   UNL     1     -13.611 -30.118 -16.629  1.00  0.00     0.009 C 
ATOM     20  C   UNL     1     -13.424 -29.491 -15.237  1.00  0.00     0.009 C 
ATOM     21  C   UNL     1     -12.601 -29.845 -12.856  1.00  0.00     0.015 C 
ATOM     22  C   UNL     1     -11.051 -30.456 -14.791  1.00  0.00     0.016 C 
ATOM     23  C   UNL     1     -13.060 -27.944 -15.253  1.00  0.00     0.005 C 
ATOM     24  C   UNL     1     -12.995 -28.360 -12.712  1.00  0.00     0.047 C 
ATOM     25  C   UNL     1     -12.499 -27.469 -13.858  1.00  0.00     0.182 C 
ATOM     26  C   UNL     1     -12.077 -27.577 -16.400  1.00  0.00     0.015 C 
ATOM     27  C   UNL     1     -14.364 -27.142 -15.523  1.00  0.00     0.015 C 
BRANCH   7  28
ATOM     28  O   UNL     1     -15.494 -36.664 -16.528  1.00  0.00    -0.393 OA
ATOM     29  H   UNL     1     -14.688 -37.102 -16.152  1.00  0.00     0.210 HD
ENDBRANCH   7  28
BRANCH  25  30
ATOM     30  O   UNL     1     -11.068 -27.414 -13.816  1.00  0.00    -0.462 OA
BRANCH  30  31
ATOM     31  C   UNL     1     -10.334 -26.778 -12.810  1.00  0.00     0.302 C 
ATOM     32  O   UNL     1     -10.816 -26.624 -11.656  1.00  0.00    -0.253 OA
ATOM     33  C   UNL     1      -8.988 -26.227 -13.130  1.00  0.00     0.139 C 
ENDBRANCH  30  31
ENDBRANCH  25  30
ENDBRANCH   2   6
ENDBRANCH   1   2
BRANCH   1  34
ATOM     34  C   UNL     1     -15.697 -37.087 -10.694  1.00  0.00     0.031 C 
BRANCH  34  35
ATOM     35  C   UNL     1     -15.874 -36.530  -9.290  1.00  0.00    -0.075 C 
ATOM     36  C   UNL     1     -14.815 -35.916  -8.726  1.00  0.00     0.008 C 
BRANCH  35  37
ATOM     37  C   UNL     1     -17.169 -36.817  -8.501  1.00  0.00     0.008 C 
ATOM     38  C   UNL     1     -17.261 -36.067  -7.156  1.00  0.00     0.012 C 
ATOM     39  C   UNL     1     -18.424 -36.502  -9.332  1.00  0.00     0.012 C 
ENDBRANCH  35  37
ENDBRANCH  34  35
ENDBRANCH   1  34
TORSDOF 9
ENDMDL
