MODEL 1
REMARK VINA RESULT:    -4.193      0.000      0.000
REMARK INTER + INTRA:          -7.893
REMARK INTER:                  -6.644
REMARK INTRA:                  -1.250
REMARK UNBOUND:                -1.250
REMARK SMILES CCCCCCCCCCCC(=O)[O-]
REMARK SMILES IDX 7 1 8 2 9 3 10 4 11 5 12 6 13 7 14 8 6 9 5 10 4 11 3 12 2 13
REMARK SMILES IDX 1 14
REMARK H PARENT
REMARK Flexibility Score: inf
ROOT
ATOM      1  C   UNL     1      -2.192  58.981  48.876  1.00  0.00     0.000 C 
ENDROOT
BRANCH   1   2
ATOM      2  C   UNL     1      -3.346  59.995  48.876  1.00  0.00     0.000 C 
BRANCH   2   3
ATOM      3  C   UNL     1      -3.956  60.210  47.479  1.00  0.00     0.000 C 
BRANCH   3   4
ATOM      4  C   UNL     1      -3.642  61.574  46.832  1.00  0.00     0.006 C 
BRANCH   4   5
ATOM      5  C   UNL     1      -3.224  61.498  45.355  1.00  0.00     0.053 C 
BRANCH   5   6
ATOM      6  C   UNL     1      -1.760  61.753  45.172  1.00  0.00     0.041 C 
ATOM      7  O   UNL     1      -1.369  62.746  44.503  1.00  0.00    -0.550 OA
ATOM      8  O   UNL     1      -0.827  60.876  45.710  1.00  0.00    -0.550 OA
ENDBRANCH   5   6
ENDBRANCH   4   5
ENDBRANCH   3   4
ENDBRANCH   2   3
ENDBRANCH   1   2
BRANCH   1   9
ATOM      9  C   UNL     1      -2.706  57.562  49.154  1.00  0.00     0.000 C 
BRANCH   9  10
ATOM     10  C   UNL     1      -1.882  56.472  48.446  1.00  0.00    -0.000 C 
BRANCH  10  11
ATOM     11  C   UNL     1      -2.184  56.294  46.947  1.00  0.00    -0.000 C 
BRANCH  11  12
ATOM     12  C   UNL     1      -3.655  56.575  46.595  1.00  0.00    -0.000 C 
BRANCH  12  13
ATOM     13  C   UNL     1      -3.803  57.423  45.322  1.00  0.00    -0.003 C 
ATOM     14  C   UNL     1      -2.462  57.919  44.781  1.00  0.00     0.004 C 
ENDBRANCH  12  13
ENDBRANCH  11  12
ENDBRANCH  10  11
ENDBRANCH   9  10
ENDBRANCH   1   9
TORSDOF 10
ENDMDL
MODEL 2
REMARK VINA RESULT:    -4.114      3.426      5.412
REMARK INTER + INTRA:          -7.769
REMARK INTER:                  -6.879
REMARK INTRA:                  -0.890
REMARK UNBOUND:                -1.250
REMARK SMILES CCCCCCCCCCCC(=O)[O-]
REMARK SMILES IDX 7 1 8 2 9 3 10 4 11 5 12 6 13 7 14 8 6 9 5 10 4 11 3 12 2 13
REMARK SMILES IDX 1 14
REMARK H PARENT
REMARK Flexibility Score: inf
ROOT
ATOM      1  C   UNL     1      -2.508  59.391  45.139  1.00  0.00     0.000 C 
ENDROOT
BRANCH   1   2
ATOM      2  C   UNL     1      -3.153  58.021  44.879  1.00  0.00     0.000 C 
BRANCH   2   3
ATOM      3  C   UNL     1      -4.125  57.593  45.993  1.00  0.00     0.000 C 
BRANCH   3   4
ATOM      4  C   UNL     1      -3.673  56.374  46.822  1.00  0.00     0.006 C 
BRANCH   4   5
ATOM      5  C   UNL     1      -2.287  56.522  47.470  1.00  0.00     0.053 C 
BRANCH   5   6
ATOM      6  C   UNL     1      -2.368  57.142  48.831  1.00  0.00     0.041 C 
ATOM      7  O   UNL     1      -2.643  56.433  49.835  1.00  0.00    -0.550 OA
ATOM      8  O   UNL     1      -2.175  58.509  48.987  1.00  0.00    -0.550 OA
ENDBRANCH   5   6
ENDBRANCH   4   5
ENDBRANCH   3   4
ENDBRANCH   2   3
ENDBRANCH   1   2
BRANCH   1   9
ATOM      9  C   UNL     1      -0.992  59.255  45.340  1.00  0.00     0.000 C 
BRANCH   9  10
ATOM     10  C   UNL     1      -0.422  57.946  44.765  1.00  0.00    -0.000 C 
BRANCH  10  11
ATOM     11  C   UNL     1       0.455  58.110  43.509  1.00  0.00    -0.000 C 
BRANCH  11  12
ATOM     12  C   UNL     1       1.408  59.315  43.599  1.00  0.00    -0.000 C 
BRANCH  12  13
ATOM     13  C   UNL     1       2.871  58.928  43.335  1.00  0.00    -0.003 C 
ATOM     14  C   UNL     1       3.056  57.426  43.116  1.00  0.00     0.004 C 
ENDBRANCH  12  13
ENDBRANCH  11  12
ENDBRANCH  10  11
ENDBRANCH   9  10
ENDBRANCH   1   9
TORSDOF 10
ENDMDL
MODEL 3
REMARK VINA RESULT:    -4.083      1.522      3.191
REMARK INTER + INTRA:          -7.719
REMARK INTER:                  -6.407
REMARK INTRA:                  -1.312
REMARK UNBOUND:                -1.250
REMARK SMILES CCCCCCCCCCCC(=O)[O-]
REMARK SMILES IDX 7 1 8 2 9 3 10 4 11 5 12 6 13 7 14 8 6 9 5 10 4 11 3 12 2 13
REMARK SMILES IDX 1 14
REMARK H PARENT
REMARK Flexibility Score: inf
ROOT
ATOM      1  C   UNL     1      -4.124  57.541  45.599  1.00  0.00     0.000 C 
ENDROOT
BRANCH   1   2
ATOM      2  C   UNL     1      -2.906  58.149  44.888  1.00  0.00     0.000 C 
BRANCH   2   3
ATOM      3  C   UNL     1      -2.719  59.646  45.190  1.00  0.00     0.000 C 
BRANCH   3   4
ATOM      4  C   UNL     1      -1.296  60.054  45.618  1.00  0.00     0.006 C 
BRANCH   4   5
ATOM      5  C   UNL     1      -0.711  61.242  44.839  1.00  0.00     0.053 C 
BRANCH   5   6
ATOM      6  C   UNL     1       0.342  60.811  43.865  1.00  0.00     0.041 C 
ATOM      7  O   UNL     1       0.990  61.670  43.210  1.00  0.00    -0.550 OA
ATOM      8  O   UNL     1       0.584  59.459  43.654  1.00  0.00    -0.550 OA
ENDBRANCH   5   6
ENDBRANCH   4   5
ENDBRANCH   3   4
ENDBRANCH   2   3
ENDBRANCH   1   2
BRANCH   1   9
ATOM      9  C   UNL     1      -3.691  56.480  46.621  1.00  0.00     0.000 C 
BRANCH   9  10
ATOM     10  C   UNL     1      -2.174  56.477  46.881  1.00  0.00    -0.000 C 
BRANCH  10  11
ATOM     11  C   UNL     1      -1.765  56.380  48.362  1.00  0.00    -0.000 C 
BRANCH  11  12
ATOM     12  C   UNL     1      -2.544  57.353  49.264  1.00  0.00    -0.000 C 
BRANCH  12  13
ATOM     13  C   UNL     1      -2.225  58.824  48.954  1.00  0.00    -0.003 C 
ATOM     14  C   UNL     1      -3.482  59.674  48.761  1.00  0.00     0.004 C 
ENDBRANCH  12  13
ENDBRANCH  11  12
ENDBRANCH  10  11
ENDBRANCH   9  10
ENDBRANCH   1   9
TORSDOF 10
ENDMDL
MODEL 4
REMARK VINA RESULT:    -4.048      2.117      2.982
REMARK INTER + INTRA:          -7.664
REMARK INTER:                  -6.280
REMARK INTRA:                  -1.384
REMARK UNBOUND:                -1.250
REMARK SMILES CCCCCCCCCCCC(=O)[O-]
REMARK SMILES IDX 7 1 8 2 9 3 10 4 11 5 12 6 13 7 14 8 6 9 5 10 4 11 3 12 2 13
REMARK SMILES IDX 1 14
REMARK H PARENT
REMARK Flexibility Score: inf
ROOT
ATOM      1  C   UNL     1      -3.609  60.037  48.066  1.00  0.00     0.000 C 
ENDROOT
BRANCH   1   2
ATOM      2  C   UNL     1      -3.000  60.561  46.757  1.00  0.00     0.000 C 
BRANCH   2   3
ATOM      3  C   UNL     1      -1.617  59.956  46.454  1.00  0.00     0.000 C 
BRANCH   3   4
ATOM      4  C   UNL     1      -1.187  60.018  44.975  1.00  0.00     0.006 C 
BRANCH   4   5
ATOM      5  C   UNL     1       0.239  59.511  44.704  1.00  0.00     0.053 C 
BRANCH   5   6
ATOM      6  C   UNL     1       0.239  58.197  43.986  1.00  0.00     0.041 C 
ATOM      7  O   UNL     1      -0.849  57.620  43.720  1.00  0.00    -0.550 OA
ATOM      8  O   UNL     1       1.441  57.591  43.642  1.00  0.00    -0.550 OA
ENDBRANCH   5   6
ENDBRANCH   4   5
ENDBRANCH   3   4
ENDBRANCH   2   3
ENDBRANCH   1   2
BRANCH   1   9
ATOM      9  C   UNL     1      -2.576  59.239  48.874  1.00  0.00     0.000 C 
BRANCH   9  10
ATOM     10  C   UNL     1      -2.903  57.737  48.955  1.00  0.00    -0.000 C 
BRANCH  10  11
ATOM     11  C   UNL     1      -1.857  56.805  48.316  1.00  0.00    -0.000 C 
BRANCH  11  12
ATOM     12  C   UNL     1      -2.307  56.244  46.955  1.00  0.00    -0.000 C 
BRANCH  12  13
ATOM     13  C   UNL     1      -3.777  56.566  46.644  1.00  0.00    -0.003 C 
ATOM     14  C   UNL     1      -3.954  57.303  45.316  1.00  0.00     0.004 C 
ENDBRANCH  12  13
ENDBRANCH  11  12
ENDBRANCH  10  11
ENDBRANCH   9  10
ENDBRANCH   1   9
TORSDOF 10
ENDMDL
MODEL 5
REMARK VINA RESULT:    -4.044      3.255      4.996
REMARK INTER + INTRA:          -7.658
REMARK INTER:                  -6.594
REMARK INTRA:                  -1.064
REMARK UNBOUND:                -1.250
REMARK SMILES CCCCCCCCCCCC(=O)[O-]
REMARK SMILES IDX 7 1 8 2 9 3 10 4 11 5 12 6 13 7 14 8 6 9 5 10 4 11 3 12 2 13
REMARK SMILES IDX 1 14
REMARK H PARENT
REMARK Flexibility Score: inf
ROOT
ATOM      1  C   UNL     1      -2.344  59.111  45.163  1.00  0.00     0.000 C 
ENDROOT
BRANCH   1   2
ATOM      2  C   UNL     1      -0.813  59.144  45.278  1.00  0.00     0.000 C 
BRANCH   2   3
ATOM      3  C   UNL     1      -0.134  57.939  44.603  1.00  0.00     0.000 C 
BRANCH   3   4
ATOM      4  C   UNL     1       0.671  58.271  43.331  1.00  0.00     0.006 C 
BRANCH   4   5
ATOM      5  C   UNL     1       1.855  57.329  43.061  1.00  0.00     0.053 C 
BRANCH   5   6
ATOM      6  C   UNL     1       3.172  58.000  43.300  1.00  0.00     0.041 C 
ATOM      7  O   UNL     1       4.242  57.338  43.234  1.00  0.00    -0.550 OA
ATOM      8  O   UNL     1       3.217  59.349  43.632  1.00  0.00    -0.550 OA
ENDBRANCH   5   6
ENDBRANCH   4   5
ENDBRANCH   3   4
ENDBRANCH   2   3
ENDBRANCH   1   2
BRANCH   1   9
ATOM      9  C   UNL     1      -2.834  57.722  44.729  1.00  0.00     0.000 C 
BRANCH   9  10
ATOM     10  C   UNL     1      -4.122  57.285  45.449  1.00  0.00    -0.000 C 
BRANCH  10  11
ATOM     11  C   UNL     1      -3.952  56.934  46.938  1.00  0.00    -0.000 C 
BRANCH  11  12
ATOM     12  C   UNL     1      -2.628  56.208  47.235  1.00  0.00    -0.000 C 
BRANCH  12  13
ATOM     13  C   UNL     1      -1.897  56.792  48.453  1.00  0.00    -0.003 C 
ATOM     14  C   UNL     1      -2.437  58.161  48.868  1.00  0.00     0.004 C 
ENDBRANCH  12  13
ENDBRANCH  11  12
ENDBRANCH  10  11
ENDBRANCH   9  10
ENDBRANCH   1   9
TORSDOF 10
ENDMDL
MODEL 6
REMARK VINA RESULT:    -4.038      1.960      4.049
REMARK INTER + INTRA:          -7.649
REMARK INTER:                  -6.421
REMARK INTRA:                  -1.228
REMARK UNBOUND:                -1.250
REMARK SMILES CCCCCCCCCCCC(=O)[O-]
REMARK SMILES IDX 7 1 8 2 9 3 10 4 11 5 12 6 13 7 14 8 6 9 5 10 4 11 3 12 2 13
REMARK SMILES IDX 1 14
REMARK H PARENT
REMARK Flexibility Score: inf
ROOT
ATOM      1  C   UNL     1      -2.860  60.023  45.556  1.00  0.00     0.000 C 
ENDROOT
BRANCH   1   2
ATOM      2  C   UNL     1      -3.381  58.696  44.983  1.00  0.00     0.000 C 
BRANCH   2   3
ATOM      3  C   UNL     1      -2.260  57.679  44.710  1.00  0.00     0.000 C 
BRANCH   3   4
ATOM      4  C   UNL     1      -0.842  58.149  45.092  1.00  0.00     0.006 C 
BRANCH   4   5
ATOM      5  C   UNL     1       0.203  57.999  43.976  1.00  0.00     0.053 C 
BRANCH   5   6
ATOM      6  C   UNL     1       0.912  59.288  43.694  1.00  0.00     0.041 C 
ATOM      7  O   UNL     1       0.318  60.387  43.861  1.00  0.00    -0.550 OA
ATOM      8  O   UNL     1       2.216  59.276  43.214  1.00  0.00    -0.550 OA
ENDBRANCH   5   6
ENDBRANCH   4   5
ENDBRANCH   3   4
ENDBRANCH   2   3
ENDBRANCH   1   2
BRANCH   1   9
ATOM      9  C   UNL     1      -3.833  60.591  46.600  1.00  0.00     0.000 C 
BRANCH   9  10
ATOM     10  C   UNL     1      -4.105  59.619  47.762  1.00  0.00    -0.000 C 
BRANCH  10  11
ATOM     11  C   UNL     1      -3.160  59.762  48.969  1.00  0.00    -0.000 C 
BRANCH  11  12
ATOM     12  C   UNL     1      -2.004  58.748  48.948  1.00  0.00    -0.000 C 
BRANCH  12  13
ATOM     13  C   UNL     1      -2.482  57.306  49.177  1.00  0.00    -0.003 C 
ATOM     14  C   UNL     1      -2.030  56.349  48.073  1.00  0.00     0.004 C 
ENDBRANCH  12  13
ENDBRANCH  11  12
ENDBRANCH  10  11
ENDBRANCH   9  10
ENDBRANCH   1   9
TORSDOF 10
ENDMDL
MODEL 7
REMARK VINA RESULT:    -4.019      2.598      4.447
REMARK INTER + INTRA:          -7.618
REMARK INTER:                  -6.546
REMARK INTRA:                  -1.072
REMARK UNBOUND:                -1.250
REMARK SMILES CCCCCCCCCCCC(=O)[O-]
REMARK SMILES IDX 7 1 8 2 9 3 10 4 11 5 12 6 13 7 14 8 6 9 5 10 4 11 3 12 2 13
REMARK SMILES IDX 1 14
REMARK H PARENT
REMARK Flexibility Score: inf
ROOT
ATOM      1  C   UNL     1      -4.006  60.122  46.128  1.00  0.00     0.000 C 
ENDROOT
BRANCH   1   2
ATOM      2  C   UNL     1      -3.490  60.675  47.465  1.00  0.00     0.000 C 
BRANCH   2   3
ATOM      3  C   UNL     1      -3.606  59.663  48.619  1.00  0.00     0.000 C 
BRANCH   3   4
ATOM      4  C   UNL     1      -2.341  58.822  48.880  1.00  0.00     0.006 C 
BRANCH   4   5
ATOM      5  C   UNL     1      -2.574  57.303  48.883  1.00  0.00     0.053 C 
BRANCH   5   6
ATOM      6  C   UNL     1      -2.339  56.697  47.534  1.00  0.00     0.041 C 
ATOM      7  O   UNL     1      -3.259  56.688  46.674  1.00  0.00    -0.550 OA
ATOM      8  O   UNL     1      -1.114  56.110  47.237  1.00  0.00    -0.550 OA
ENDBRANCH   5   6
ENDBRANCH   4   5
ENDBRANCH   3   4
ENDBRANCH   2   3
ENDBRANCH   1   2
BRANCH   1   9
ATOM      9  C   UNL     1      -2.868  60.010  45.104  1.00  0.00     0.000 C 
BRANCH   9  10
ATOM     10  C   UNL     1      -1.483  60.307  45.707  1.00  0.00    -0.000 C 
BRANCH  10  11
ATOM     11  C   UNL     1      -0.314  59.533  45.071  1.00  0.00    -0.000 C 
BRANCH  11  12
ATOM     12  C   UNL     1      -0.734  58.159  44.521  1.00  0.00    -0.000 C 
BRANCH  12  13
ATOM     13  C   UNL     1       0.085  57.744  43.289  1.00  0.00    -0.003 C 
ATOM     14  C   UNL     1       1.437  58.453  43.209  1.00  0.00     0.004 C 
ENDBRANCH  12  13
ENDBRANCH  11  12
ENDBRANCH  10  11
ENDBRANCH   9  10
ENDBRANCH   1   9
TORSDOF 10
ENDMDL
MODEL 8
REMARK VINA RESULT:    -3.827      1.595      3.246
REMARK INTER + INTRA:          -7.313
REMARK INTER:                  -6.161
REMARK INTRA:                  -1.153
REMARK UNBOUND:                -1.250
REMARK SMILES CCCCCCCCCCCC(=O)[O-]
REMARK SMILES IDX 7 1 8 2 9 3 10 4 11 5 12 6 13 7 14 8 6 9 5 10 4 11 3 12 2 13
REMARK SMILES IDX 1 14
REMARK H PARENT
REMARK Flexibility Score: inf
ROOT
ATOM      1  C   UNL     1      -2.471  58.142  45.129  1.00  0.00     0.000 C 
ENDROOT
BRANCH   1   2
ATOM      2  C   UNL     1      -2.690  59.653  45.292  1.00  0.00     0.000 C 
BRANCH   2   3
ATOM      3  C   UNL     1      -1.381  60.461  45.225  1.00  0.00     0.000 C 
BRANCH   3   4
ATOM      4  C   UNL     1      -1.560  61.991  45.170  1.00  0.00     0.006 C 
BRANCH   4   5
ATOM      5  C   UNL     1      -2.951  62.455  44.710  1.00  0.00     0.053 C 
BRANCH   5   6
ATOM      6  C   UNL     1      -3.649  63.264  45.760  1.00  0.00     0.041 C 
ATOM      7  O   UNL     1      -4.125  64.395  45.476  1.00  0.00    -0.550 OA
ATOM      8  O   UNL     1      -3.742  62.785  47.061  1.00  0.00    -0.550 OA
ENDBRANCH   5   6
ENDBRANCH   4   5
ENDBRANCH   3   4
ENDBRANCH   2   3
ENDBRANCH   1   2
BRANCH   1   9
ATOM      9  C   UNL     1      -3.776  57.368  45.365  1.00  0.00     0.000 C 
BRANCH   9  10
ATOM     10  C   UNL     1      -3.804  56.631  46.716  1.00  0.00    -0.000 C 
BRANCH  10  11
ATOM     11  C   UNL     1      -2.471  56.627  47.487  1.00  0.00    -0.000 C 
BRANCH  11  12
ATOM     12  C   UNL     1      -2.582  57.275  48.878  1.00  0.00    -0.000 C 
BRANCH  12  13
ATOM     13  C   UNL     1      -2.164  58.753  48.874  1.00  0.00    -0.003 C 
ATOM     14  C   UNL     1      -3.360  59.707  48.875  1.00  0.00     0.004 C 
ENDBRANCH  12  13
ENDBRANCH  11  12
ENDBRANCH  10  11
ENDBRANCH   9  10
ENDBRANCH   1   9
TORSDOF 10
ENDMDL
MODEL 9
REMARK VINA RESULT:    -3.807      3.198      5.632
REMARK INTER + INTRA:          -7.283
REMARK INTER:                  -6.297
REMARK INTRA:                  -0.985
REMARK UNBOUND:                -1.250
REMARK SMILES CCCCCCCCCCCC(=O)[O-]
REMARK SMILES IDX 7 1 8 2 9 3 10 4 11 5 12 6 13 7 14 8 6 9 5 10 4 11 3 12 2 13
REMARK SMILES IDX 1 14
REMARK H PARENT
REMARK Flexibility Score: inf
ROOT
ATOM      1  C   UNL     1      -0.372  57.770  44.793  1.00  0.00     0.000 C 
ENDROOT
BRANCH   1   2
ATOM      2  C   UNL     1      -1.642  58.595  45.054  1.00  0.00     0.000 C 
BRANCH   2   3
ATOM      3  C   UNL     1      -2.935  57.782  44.865  1.00  0.00     0.000 C 
BRANCH   3   4
ATOM      4  C   UNL     1      -3.626  57.341  46.170  1.00  0.00     0.006 C 
BRANCH   4   5
ATOM      5  C   UNL     1      -2.723  56.563  47.140  1.00  0.00     0.053 C 
BRANCH   5   6
ATOM      6  C   UNL     1      -2.644  57.220  48.484  1.00  0.00     0.041 C 
ATOM      7  O   UNL     1      -2.545  58.473  48.571  1.00  0.00    -0.550 OA
ATOM      8  O   UNL     1      -2.646  56.447  49.638  1.00  0.00    -0.550 OA
ENDBRANCH   5   6
ENDBRANCH   4   5
ENDBRANCH   3   4
ENDBRANCH   2   3
ENDBRANCH   1   2
BRANCH   1   9
ATOM      9  C   UNL     1      -0.017  57.765  43.299  1.00  0.00     0.000 C 
BRANCH   9  10
ATOM     10  C   UNL     1       1.477  58.022  43.034  1.00  0.00    -0.000 C 
BRANCH  10  11
ATOM     11  C   UNL     1       2.027  59.340  43.610  1.00  0.00    -0.000 C 
BRANCH  11  12
ATOM     12  C   UNL     1       1.337  60.583  43.023  1.00  0.00    -0.000 C 
BRANCH  12  13
ATOM     13  C   UNL     1       0.565  61.383  44.084  1.00  0.00    -0.003 C 
ATOM     14  C   UNL     1       1.095  61.155  45.500  1.00  0.00     0.004 C 
ENDBRANCH  12  13
ENDBRANCH  11  12
ENDBRANCH  10  11
ENDBRANCH   9  10
ENDBRANCH   1   9
TORSDOF 10
ENDMDL
