MODEL 1
REMARK VINA RESULT:    -3.332      0.000      0.000
REMARK INTER + INTRA:          -5.545
REMARK INTER:                  -4.891
REMARK INTRA:                  -0.654
REMARK UNBOUND:                -0.654
REMARK SMILES Cc1cc2c(C(C)C)c(O)c(O)c(C=O)c2c(O)c1-c1c(C)cc2c(C(C)C)c(O)c(O)c(C=O)c2c1O
REMARK SMILES IDX 1 1 2 2 3 3 4 4 16 5 13 6 11 7 9 8 5 9 17 10 19 11 20 12
REMARK SMILES IDX 37 13 21 14 36 15 23 16 22 17 24 18 33 19 25 20 31 21 29 22
REMARK SMILES IDX 38 23 34 25 35 26 26 27 27 28 28 29 32 30 30 32 18 34 6 36
REMARK SMILES IDX 7 37 8 38 14 39 15 40 10 41 12 43
REMARK H PARENT 38 24 32 31 30 33 18 35 10 42 12 44
REMARK Flexibility Score: inf
ROOT
ATOM      1  C   UNL     1      56.462  22.109   2.268  1.00  0.00     0.045 C 
ATOM      2  C   UNL     1      55.472  22.362   3.380  1.00  0.00    -0.039 A 
ATOM      3  C   UNL     1      54.593  23.441   3.281  1.00  0.00     0.013 A 
ATOM      4  C   UNL     1      53.644  23.736   4.280  1.00  0.00    -0.006 A 
ATOM      5  C   UNL     1      53.581  22.888   5.432  1.00  0.00     0.039 A 
ATOM      6  C   UNL     1      52.654  23.198   6.472  1.00  0.00     0.072 A 
ATOM      7  C   UNL     1      51.778  24.292   6.330  1.00  0.00     0.169 A 
ATOM      8  C   UNL     1      51.803  25.081   5.178  1.00  0.00     0.162 A 
ATOM      9  C   UNL     1      52.750  24.849   4.153  1.00  0.00     0.008 A 
ATOM     10  C   UNL     1      54.430  21.738   5.491  1.00  0.00     0.132 A 
ATOM     11  C   UNL     1      55.382  21.499   4.481  1.00  0.00     0.031 A 
ENDROOT
BRANCH  11  12
ATOM     12  C   UNL     1      56.288  20.323   4.568  1.00  0.00     0.031 A 
ATOM     13  C   UNL     1      56.064  19.190   3.757  1.00  0.00     0.132 A 
ATOM     14  C   UNL     1      57.366  20.339   5.467  1.00  0.00    -0.039 A 
ATOM     15  C   UNL     1      56.916  18.050   3.861  1.00  0.00     0.039 A 
ATOM     16  C   UNL     1      58.261  19.268   5.485  1.00  0.00     0.013 A 
ATOM     17  C   UNL     1      57.589  21.509   6.394  1.00  0.00     0.045 C 
ATOM     18  C   UNL     1      58.107  18.152   4.641  1.00  0.00    -0.006 A 
ATOM     19  C   UNL     1      56.633  16.825   3.191  1.00  0.00     0.072 A 
ATOM     20  C   UNL     1      59.100  17.125   4.573  1.00  0.00     0.008 A 
ATOM     21  C   UNL     1      57.545  15.760   3.267  1.00  0.00     0.169 A 
ATOM     22  C   UNL     1      58.753  15.896   3.960  1.00  0.00     0.162 A 
BRANCH  13  23
ATOM     23  O   UNL     1      55.022  19.210   2.823  1.00  0.00    -0.507 OA
ATOM     24  H   UNL     1      54.074  19.487   3.041  1.00  0.00     0.293 HD
ENDBRANCH  13  23
BRANCH  19  25
ATOM     25  C   UNL     1      55.332  16.564   2.528  1.00  0.00     0.264 C 
ATOM     26  O   UNL     1      55.272  16.316   1.295  1.00  0.00    -0.298 OA
ENDBRANCH  19  25
BRANCH  20  27
ATOM     27  C   UNL     1      60.554  17.324   5.042  1.00  0.00     0.017 C 
ATOM     28  C   UNL     1      60.732  17.037   6.540  1.00  0.00     0.012 C 
ATOM     29  C   UNL     1      61.191  18.662   4.614  1.00  0.00     0.012 C 
ENDBRANCH  20  27
BRANCH  21  30
ATOM     30  O   UNL     1      57.225  14.537   2.664  1.00  0.00    -0.504 OA
ATOM     31  H   UNL     1      57.518  13.644   3.040  1.00  0.00     0.293 HD
ENDBRANCH  21  30
BRANCH  22  32
ATOM     32  O   UNL     1      59.578  14.767   4.041  1.00  0.00    -0.504 OA
ATOM     33  H   UNL     1      60.096  14.499   4.867  1.00  0.00     0.293 HD
ENDBRANCH  22  32
ENDBRANCH  11  12
BRANCH  10  34
ATOM     34  O   UNL     1      54.310  20.820   6.542  1.00  0.00    -0.507 OA
ATOM     35  H   UNL     1      55.091  20.327   6.955  1.00  0.00     0.293 HD
ENDBRANCH  10  34
BRANCH   9  36
ATOM     36  C   UNL     1      52.740  25.810   2.944  1.00  0.00     0.017 C 
ATOM     37  C   UNL     1      51.733  25.377   1.868  1.00  0.00     0.012 C 
ATOM     38  C   UNL     1      54.142  26.122   2.378  1.00  0.00     0.012 C 
ENDBRANCH   9  36
BRANCH   6  39
ATOM     39  C   UNL     1      52.609  22.431   7.733  1.00  0.00     0.264 C 
ATOM     40  O   UNL     1      52.667  23.020   8.845  1.00  0.00    -0.298 OA
ENDBRANCH   6  39
BRANCH   8  41
ATOM     41  O   UNL     1      50.880  26.125   5.052  1.00  0.00    -0.504 OA
ATOM     42  H   UNL     1      50.128  26.123   4.373  1.00  0.00     0.293 HD
ENDBRANCH   8  41
BRANCH   7  43
ATOM     43  O   UNL     1      50.875  24.644   7.342  1.00  0.00    -0.504 OA
ATOM     44  H   UNL     1      49.901  24.375   7.357  1.00  0.00     0.293 HD
ENDBRANCH   7  43
TORSDOF 11
ENDMDL
MODEL 2
REMARK VINA RESULT:    -2.573      1.786      3.172
REMARK INTER + INTRA:          -4.431
REMARK INTER:                  -5.618
REMARK INTRA:                   1.187
REMARK UNBOUND:                -0.654
REMARK SMILES Cc1cc2c(C(C)C)c(O)c(O)c(C=O)c2c(O)c1-c1c(C)cc2c(C(C)C)c(O)c(O)c(C=O)c2c1O
REMARK SMILES IDX 1 1 2 2 3 3 4 4 16 5 13 6 11 7 9 8 5 9 17 10 19 11 20 12
REMARK SMILES IDX 37 13 21 14 36 15 23 16 22 17 24 18 33 19 25 20 31 21 29 22
REMARK SMILES IDX 38 23 34 25 35 26 26 27 27 28 28 29 32 30 30 32 18 34 6 36
REMARK SMILES IDX 7 37 8 38 14 39 15 40 10 41 12 43
REMARK H PARENT 38 24 32 31 30 33 18 35 10 42 12 44
REMARK Flexibility Score: inf
ROOT
ATOM      1  C   UNL     1      54.291  20.911   7.207  1.00  0.00     0.045 C 
ATOM      2  C   UNL     1      54.186  21.701   5.925  1.00  0.00    -0.039 A 
ATOM      3  C   UNL     1      53.166  22.641   5.782  1.00  0.00     0.013 A 
ATOM      4  C   UNL     1      53.009  23.414   4.613  1.00  0.00    -0.006 A 
ATOM      5  C   UNL     1      53.939  23.225   3.542  1.00  0.00     0.039 A 
ATOM      6  C   UNL     1      53.769  23.969   2.335  1.00  0.00     0.072 A 
ATOM      7  C   UNL     1      52.730  24.916   2.234  1.00  0.00     0.169 A 
ATOM      8  C   UNL     1      51.861  25.138   3.305  1.00  0.00     0.162 A 
ATOM      9  C   UNL     1      51.953  24.376   4.493  1.00  0.00     0.008 A 
ATOM     10  C   UNL     1      55.029  22.317   3.724  1.00  0.00     0.132 A 
ATOM     11  C   UNL     1      55.130  21.547   4.900  1.00  0.00     0.031 A 
ENDROOT
BRANCH  11  12
ATOM     12  C   UNL     1      56.244  20.577   5.067  1.00  0.00     0.031 A 
ATOM     13  C   UNL     1      56.303  19.415   4.269  1.00  0.00     0.132 A 
ATOM     14  C   UNL     1      57.238  20.817   6.031  1.00  0.00    -0.039 A 
ATOM     15  C   UNL     1      57.357  18.470   4.449  1.00  0.00     0.039 A 
ATOM     16  C   UNL     1      58.325  19.947   6.126  1.00  0.00     0.013 A 
ATOM     17  C   UNL     1      57.162  22.015   6.944  1.00  0.00     0.045 C 
ATOM     18  C   UNL     1      58.451  18.815   5.298  1.00  0.00    -0.006 A 
ATOM     19  C   UNL     1      57.367  17.207   3.789  1.00  0.00     0.072 A 
ATOM     20  C   UNL     1      59.631  18.007   5.313  1.00  0.00     0.008 A 
ATOM     21  C   UNL     1      58.467  16.347   3.944  1.00  0.00     0.169 A 
ATOM     22  C   UNL     1      59.576  16.728   4.707  1.00  0.00     0.162 A 
BRANCH  13  23
ATOM     23  O   UNL     1      55.341  19.218   3.272  1.00  0.00    -0.507 OA
ATOM     24  H   UNL     1      55.544  18.832   2.359  1.00  0.00     0.293 HD
ENDBRANCH  13  23
BRANCH  19  25
ATOM     25  C   UNL     1      56.190  16.686   3.054  1.00  0.00     0.264 C 
ATOM     26  O   UNL     1      56.170  16.666   1.794  1.00  0.00    -0.298 OA
ENDBRANCH  19  25
BRANCH  20  27
ATOM     27  C   UNL     1      60.983  18.498   5.867  1.00  0.00     0.017 C 
ATOM     28  C   UNL     1      60.833  19.715   6.789  1.00  0.00     0.012 C 
ATOM     29  C   UNL     1      62.082  18.691   4.802  1.00  0.00     0.012 C 
ENDBRANCH  20  27
BRANCH  21  30
ATOM     30  O   UNL     1      58.437  15.080   3.349  1.00  0.00    -0.504 OA
ATOM     31  H   UNL     1      58.806  14.251   3.797  1.00  0.00     0.293 HD
ENDBRANCH  21  30
BRANCH  22  32
ATOM     32  O   UNL     1      60.603  15.789   4.862  1.00  0.00    -0.504 OA
ATOM     33  H   UNL     1      61.121  15.648   5.719  1.00  0.00     0.293 HD
ENDBRANCH  22  32
ENDBRANCH  11  12
BRANCH  10  34
ATOM     34  O   UNL     1      56.026  22.199   2.748  1.00  0.00    -0.507 OA
ATOM     35  H   UNL     1      55.840  22.064   1.763  1.00  0.00     0.293 HD
ENDBRANCH  10  34
BRANCH   9  36
ATOM     36  C   UNL     1      50.911  24.653   5.598  1.00  0.00     0.017 C 
ATOM     37  C   UNL     1      51.007  26.087   6.140  1.00  0.00     0.012 C 
ATOM     38  C   UNL     1      50.875  23.581   6.710  1.00  0.00     0.012 C 
ENDBRANCH   9  36
BRANCH   6  39
ATOM     39  C   UNL     1      54.626  23.748   1.153  1.00  0.00     0.264 C 
ATOM     40  O   UNL     1      55.592  24.518   0.907  1.00  0.00    -0.298 OA
ENDBRANCH   6  39
BRANCH   8  41
ATOM     41  O   UNL     1      50.876  26.125   3.183  1.00  0.00    -0.504 OA
ATOM     42  H   UNL     1      50.902  27.001   3.692  1.00  0.00     0.293 HD
ENDBRANCH   8  41
BRANCH   7  43
ATOM     43  O   UNL     1      52.514  25.643   1.056  1.00  0.00    -0.504 OA
ATOM     44  H   UNL     1      52.614  26.646   0.979  1.00  0.00     0.293 HD
ENDBRANCH   7  43
TORSDOF 11
ENDMDL
MODEL 3
REMARK VINA RESULT:    -1.110      0.625      9.076
REMARK INTER + INTRA:          -2.284
REMARK INTER:                  -1.611
REMARK INTRA:                  -0.673
REMARK UNBOUND:                -0.654
REMARK SMILES Cc1cc2c(C(C)C)c(O)c(O)c(C=O)c2c(O)c1-c1c(C)cc2c(C(C)C)c(O)c(O)c(C=O)c2c1O
REMARK SMILES IDX 1 1 2 2 3 3 4 4 16 5 13 6 11 7 9 8 5 9 17 10 19 11 20 12
REMARK SMILES IDX 37 13 21 14 36 15 23 16 22 17 24 18 33 19 25 20 31 21 29 22
REMARK SMILES IDX 38 23 34 25 35 26 26 27 27 28 28 29 32 30 30 32 18 34 6 36
REMARK SMILES IDX 7 37 8 38 14 39 15 40 10 41 12 43
REMARK H PARENT 38 24 32 31 30 33 18 35 10 42 12 44
REMARK Flexibility Score: inf
ROOT
ATOM      1  C   UNL     1      57.841  21.513   5.709  1.00  0.00     0.045 C 
ATOM      2  C   UNL     1      57.531  20.247   4.948  1.00  0.00    -0.039 A 
ATOM      3  C   UNL     1      58.372  19.142   5.086  1.00  0.00     0.013 A 
ATOM      4  C   UNL     1      58.142  17.929   4.406  1.00  0.00    -0.006 A 
ATOM      5  C   UNL     1      56.999  17.833   3.551  1.00  0.00     0.039 A 
ATOM      6  C   UNL     1      56.775  16.625   2.822  1.00  0.00     0.072 A 
ATOM      7  C   UNL     1      57.643  15.529   2.996  1.00  0.00     0.169 A 
ATOM      8  C   UNL     1      58.724  15.608   3.878  1.00  0.00     0.162 A 
ATOM      9  C   UNL     1      59.019  16.806   4.568  1.00  0.00     0.008 A 
ATOM     10  C   UNL     1      56.097  18.942   3.474  1.00  0.00     0.132 A 
ATOM     11  C   UNL     1      56.382  20.144   4.151  1.00  0.00     0.031 A 
ENDROOT
BRANCH  11  12
ATOM     12  C   UNL     1      55.461  21.305   4.036  1.00  0.00     0.031 A 
ATOM     13  C   UNL     1      54.608  21.646   5.107  1.00  0.00     0.132 A 
ATOM     14  C   UNL     1      55.436  22.060   2.852  1.00  0.00    -0.039 A 
ATOM     15  C   UNL     1      53.704  22.743   4.987  1.00  0.00     0.039 A 
ATOM     16  C   UNL     1      54.631  23.198   2.781  1.00  0.00     0.013 A 
ATOM     17  C   UNL     1      56.288  21.677   1.667  1.00  0.00     0.045 C 
ATOM     18  C   UNL     1      53.819  23.607   3.856  1.00  0.00    -0.006 A 
ATOM     19  C   UNL     1      52.710  23.021   5.969  1.00  0.00     0.072 A 
ATOM     20  C   UNL     1      53.102  24.844   3.822  1.00  0.00     0.008 A 
ATOM     21  C   UNL     1      51.896  24.159   5.837  1.00  0.00     0.169 A 
ATOM     22  C   UNL     1      52.073  25.050   4.773  1.00  0.00     0.162 A 
BRANCH  13  23
ATOM     23  O   UNL     1      54.685  20.923   6.303  1.00  0.00    -0.507 OA
ATOM     24  H   UNL     1      55.495  20.386   6.586  1.00  0.00     0.293 HD
ENDBRANCH  13  23
BRANCH  19  25
ATOM     25  C   UNL     1      52.388  22.074   7.063  1.00  0.00     0.264 C 
ATOM     26  O   UNL     1      52.811  22.269   8.233  1.00  0.00    -0.298 OA
ENDBRANCH  19  25
BRANCH  20  27
ATOM     27  C   UNL     1      53.459  26.001   2.867  1.00  0.00     0.017 C 
ATOM     28  C   UNL     1      52.578  26.018   1.611  1.00  0.00     0.012 C 
ATOM     29  C   UNL     1      54.962  26.125   2.541  1.00  0.00     0.012 C 
ENDBRANCH  20  27
BRANCH  21  30
ATOM     30  O   UNL     1      50.876  24.385   6.769  1.00  0.00    -0.504 OA
ATOM     31  H   UNL     1      50.614  25.309   7.085  1.00  0.00     0.293 HD
ENDBRANCH  21  30
BRANCH  22  32
ATOM     32  O   UNL     1      51.181  26.125   4.680  1.00  0.00    -0.504 OA
ATOM     33  H   UNL     1      51.306  26.917   4.065  1.00  0.00     0.293 HD
ENDBRANCH  22  32
ENDBRANCH  11  12
BRANCH  10  34
ATOM     34  O   UNL     1      54.906  18.839   2.745  1.00  0.00    -0.507 OA
ATOM     35  H   UNL     1      54.435  17.965   2.550  1.00  0.00     0.293 HD
ENDBRANCH  10  34
BRANCH   9  36
ATOM     36  C   UNL     1      60.269  16.816   5.475  1.00  0.00     0.017 C 
ATOM     37  C   UNL     1      59.920  16.543   6.945  1.00  0.00     0.012 C 
ATOM     38  C   UNL     1      61.176  18.051   5.282  1.00  0.00     0.012 C 
ENDBRANCH   9  36
BRANCH   6  39
ATOM     39  C   UNL     1      55.678  16.495   1.842  1.00  0.00     0.264 C 
ATOM     40  O   UNL     1      54.956  15.464   1.821  1.00  0.00    -0.298 OA
ENDBRANCH   6  39
BRANCH   8  41
ATOM     41  O   UNL     1      59.530  14.479   4.063  1.00  0.00    -0.504 OA
ATOM     42  H   UNL     1      59.939  13.958   3.297  1.00  0.00     0.293 HD
ENDBRANCH   8  41
BRANCH   7  43
ATOM     43  O   UNL     1      57.473  14.339   2.277  1.00  0.00    -0.504 OA
ATOM     44  H   UNL     1      58.190  13.637   2.159  1.00  0.00     0.293 HD
ENDBRANCH   7  43
TORSDOF 11
ENDMDL
MODEL 4
REMARK VINA RESULT:    -1.015      1.692      8.961
REMARK INTER + INTRA:          -2.144
REMARK INTER:                  -2.927
REMARK INTRA:                   0.783
REMARK UNBOUND:                -0.654
REMARK SMILES Cc1cc2c(C(C)C)c(O)c(O)c(C=O)c2c(O)c1-c1c(C)cc2c(C(C)C)c(O)c(O)c(C=O)c2c1O
REMARK SMILES IDX 1 1 2 2 3 3 4 4 16 5 13 6 11 7 9 8 5 9 17 10 19 11 20 12
REMARK SMILES IDX 37 13 21 14 36 15 23 16 22 17 24 18 33 19 25 20 31 21 29 22
REMARK SMILES IDX 38 23 34 25 35 26 26 27 27 28 28 29 32 30 30 32 18 34 6 36
REMARK SMILES IDX 7 37 8 38 14 39 15 40 10 41 12 43
REMARK H PARENT 38 24 32 31 30 33 18 35 10 42 12 44
REMARK Flexibility Score: inf
ROOT
ATOM      1  C   UNL     1      57.635  21.470   6.097  1.00  0.00     0.045 C 
ATOM      2  C   UNL     1      57.357  20.243   5.261  1.00  0.00    -0.039 A 
ATOM      3  C   UNL     1      58.251  19.173   5.300  1.00  0.00     0.013 A 
ATOM      4  C   UNL     1      58.055  17.998   4.546  1.00  0.00    -0.006 A 
ATOM      5  C   UNL     1      56.890  17.905   3.720  1.00  0.00     0.039 A 
ATOM      6  C   UNL     1      56.698  16.739   2.918  1.00  0.00     0.072 A 
ATOM      7  C   UNL     1      57.620  15.676   2.992  1.00  0.00     0.169 A 
ATOM      8  C   UNL     1      58.723  15.747   3.846  1.00  0.00     0.162 A 
ATOM      9  C   UNL     1      58.987  16.910   4.606  1.00  0.00     0.008 A 
ATOM     10  C   UNL     1      55.938  18.973   3.744  1.00  0.00     0.132 A 
ATOM     11  C   UNL     1      56.190  20.139   4.492  1.00  0.00     0.031 A 
ENDROOT
BRANCH  11  12
ATOM     12  C   UNL     1      55.214  21.261   4.483  1.00  0.00     0.031 A 
ATOM     13  C   UNL     1      54.899  21.921   3.277  1.00  0.00     0.132 A 
ATOM     14  C   UNL     1      54.610  21.669   5.684  1.00  0.00    -0.039 A 
ATOM     15  C   UNL     1      53.984  23.016   3.272  1.00  0.00     0.039 A 
ATOM     16  C   UNL     1      53.634  22.666   5.657  1.00  0.00     0.013 A 
ATOM     17  C   UNL     1      54.980  21.026   6.998  1.00  0.00     0.045 C 
ATOM     18  C   UNL     1      53.245  23.298   4.461  1.00  0.00    -0.006 A 
ATOM     19  C   UNL     1      53.763  23.819   2.116  1.00  0.00     0.072 A 
ATOM     20  C   UNL     1      52.153  24.221   4.425  1.00  0.00     0.008 A 
ATOM     21  C   UNL     1      52.796  24.837   2.146  1.00  0.00     0.169 A 
ATOM     22  C   UNL     1      52.012  25.050   3.285  1.00  0.00     0.162 A 
BRANCH  13  23
ATOM     23  O   UNL     1      55.462  21.467   2.079  1.00  0.00    -0.507 OA
ATOM     24  H   UNL     1      56.311  20.919   2.026  1.00  0.00     0.293 HD
ENDBRANCH  13  23
BRANCH  19  25
ATOM     25  C   UNL     1      54.622  23.728   0.911  1.00  0.00     0.264 C 
ATOM     26  O   UNL     1      55.572  24.535   0.730  1.00  0.00    -0.298 OA
ENDBRANCH  19  25
BRANCH  20  27
ATOM     27  C   UNL     1      51.067  24.287   5.518  1.00  0.00     0.017 C 
ATOM     28  C   UNL     1      51.223  25.515   6.425  1.00  0.00     0.012 C 
ATOM     29  C   UNL     1      50.876  22.980   6.314  1.00  0.00     0.012 C 
ENDBRANCH  20  27
BRANCH  21  30
ATOM     30  O   UNL     1      52.636  25.665   1.029  1.00  0.00    -0.504 OA
ATOM     31  H   UNL     1      52.571  26.673   1.095  1.00  0.00     0.293 HD
ENDBRANCH  21  30
BRANCH  22  32
ATOM     32  O   UNL     1      51.114  26.124   3.255  1.00  0.00    -0.504 OA
ATOM     33  H   UNL     1      50.111  26.025   3.185  1.00  0.00     0.293 HD
ENDBRANCH  22  32
ENDBRANCH  11  12
BRANCH  10  34
ATOM     34  O   UNL     1      54.729  18.863   3.044  1.00  0.00    -0.507 OA
ATOM     35  H   UNL     1      53.927  18.344   3.378  1.00  0.00     0.293 HD
ENDBRANCH  10  34
BRANCH   9  36
ATOM     36  C   UNL     1      60.263  16.918   5.475  1.00  0.00     0.017 C 
ATOM     37  C   UNL     1      59.965  16.588   6.945  1.00  0.00     0.012 C 
ATOM     38  C   UNL     1      61.136  18.180   5.298  1.00  0.00     0.012 C 
ENDBRANCH   9  36
BRANCH   6  39
ATOM     39  C   UNL     1      55.577  16.622   1.963  1.00  0.00     0.264 C 
ATOM     40  O   UNL     1      54.681  15.754   2.130  1.00  0.00    -0.298 OA
ENDBRANCH   6  39
BRANCH   8  41
ATOM     41  O   UNL     1      59.585  14.648   3.930  1.00  0.00    -0.504 OA
ATOM     42  H   UNL     1      60.336  14.582   4.607  1.00  0.00     0.293 HD
ENDBRANCH   8  41
BRANCH   7  43
ATOM     43  O   UNL     1      57.481  14.529   2.199  1.00  0.00    -0.504 OA
ATOM     44  H   UNL     1      57.729  14.479   1.221  1.00  0.00     0.293 HD
ENDBRANCH   7  43
TORSDOF 11
ENDMDL
MODEL 5
REMARK VINA RESULT:    -0.878      1.878      3.276
REMARK INTER + INTRA:          -1.943
REMARK INTER:                  -1.485
REMARK INTRA:                  -0.458
REMARK UNBOUND:                -0.654
REMARK SMILES Cc1cc2c(C(C)C)c(O)c(O)c(C=O)c2c(O)c1-c1c(C)cc2c(C(C)C)c(O)c(O)c(C=O)c2c1O
REMARK SMILES IDX 1 1 2 2 3 3 4 4 16 5 13 6 11 7 9 8 5 9 17 10 19 11 20 12
REMARK SMILES IDX 37 13 21 14 36 15 23 16 22 17 24 18 33 19 25 20 31 21 29 22
REMARK SMILES IDX 38 23 34 25 35 26 26 27 27 28 28 29 32 30 30 32 18 34 6 36
REMARK SMILES IDX 7 37 8 38 14 39 15 40 10 41 12 43
REMARK H PARENT 38 24 32 31 30 33 18 35 10 42 12 44
REMARK Flexibility Score: inf
ROOT
ATOM      1  C   UNL     1      56.307  22.235   2.080  1.00  0.00     0.045 C 
ATOM      2  C   UNL     1      55.454  22.514   3.294  1.00  0.00    -0.039 A 
ATOM      3  C   UNL     1      54.501  23.531   3.241  1.00  0.00     0.013 A 
ATOM      4  C   UNL     1      53.671  23.846   4.336  1.00  0.00    -0.006 A 
ATOM      5  C   UNL     1      53.813  23.084   5.539  1.00  0.00     0.039 A 
ATOM      6  C   UNL     1      53.009  23.418   6.671  1.00  0.00     0.072 A 
ATOM      7  C   UNL     1      52.052  24.447   6.575  1.00  0.00     0.169 A 
ATOM      8  C   UNL     1      51.876  25.147   5.379  1.00  0.00     0.162 A 
ATOM      9  C   UNL     1      52.696  24.894   4.255  1.00  0.00     0.008 A 
ATOM     10  C   UNL     1      54.737  21.992   5.562  1.00  0.00     0.132 A 
ATOM     11  C   UNL     1      55.565  21.732   4.452  1.00  0.00     0.031 A 
ENDROOT
BRANCH  11  12
ATOM     12  C   UNL     1      56.549  20.619   4.496  1.00  0.00     0.031 A 
ATOM     13  C   UNL     1      57.738  20.749   5.245  1.00  0.00     0.132 A 
ATOM     14  C   UNL     1      56.297  19.437   3.780  1.00  0.00    -0.039 A 
ATOM     15  C   UNL     1      58.697  19.692   5.264  1.00  0.00     0.039 A 
ATOM     16  C   UNL     1      57.184  18.365   3.892  1.00  0.00     0.013 A 
ATOM     17  C   UNL     1      55.068  19.298   2.916  1.00  0.00     0.045 C 
ATOM     18  C   UNL     1      58.344  18.435   4.686  1.00  0.00    -0.006 A 
ATOM     19  C   UNL     1      59.980  19.840   5.865  1.00  0.00     0.072 A 
ATOM     20  C   UNL     1      59.174  17.290   4.899  1.00  0.00     0.008 A 
ATOM     21  C   UNL     1      60.855  18.743   5.921  1.00  0.00     0.169 A 
ATOM     22  C   UNL     1      60.471  17.490   5.432  1.00  0.00     0.162 A 
BRANCH  13  23
ATOM     23  O   UNL     1      57.949  21.907   6.001  1.00  0.00    -0.507 OA
ATOM     24  H   UNL     1      57.207  22.520   6.314  1.00  0.00     0.293 HD
ENDBRANCH  13  23
BRANCH  19  25
ATOM     25  C   UNL     1      60.503  21.155   6.308  1.00  0.00     0.264 C 
ATOM     26  O   UNL     1      60.448  21.499   7.518  1.00  0.00    -0.298 OA
ENDBRANCH  19  25
BRANCH  20  27
ATOM     27  C   UNL     1      58.691  15.844   4.670  1.00  0.00     0.017 C 
ATOM     28  C   UNL     1      59.187  15.264   3.338  1.00  0.00     0.012 C 
ATOM     29  C   UNL     1      57.179  15.629   4.887  1.00  0.00     0.012 C 
ENDBRANCH  20  27
BRANCH  21  30
ATOM     30  O   UNL     1      62.140  18.916   6.449  1.00  0.00    -0.504 OA
ATOM     31  H   UNL     1      62.973  18.547   6.008  1.00  0.00     0.293 HD
ENDBRANCH  21  30
BRANCH  22  32
ATOM     32  O   UNL     1      61.424  16.465   5.469  1.00  0.00    -0.504 OA
ATOM     33  H   UNL     1      62.401  16.604   5.691  1.00  0.00     0.293 HD
ENDBRANCH  22  32
ENDBRANCH  11  12
BRANCH  10  34
ATOM     34  O   UNL     1      54.814  21.150   6.678  1.00  0.00    -0.507 OA
ATOM     35  H   UNL     1      54.453  20.205   6.700  1.00  0.00     0.293 HD
ENDBRANCH  10  34
BRANCH   9  36
ATOM     36  C   UNL     1      52.467  25.760   2.997  1.00  0.00     0.017 C 
ATOM     37  C   UNL     1      51.355  25.195   2.100  1.00  0.00     0.012 C 
ATOM     38  C   UNL     1      53.760  26.101   2.225  1.00  0.00     0.012 C 
ENDBRANCH   9  36
BRANCH   6  39
ATOM     39  C   UNL     1      53.178  22.746   7.976  1.00  0.00     0.264 C 
ATOM     40  O   UNL     1      53.887  23.265   8.878  1.00  0.00    -0.298 OA
ENDBRANCH   6  39
BRANCH   8  41
ATOM     41  O   UNL     1      50.878  26.125   5.308  1.00  0.00    -0.504 OA
ATOM     42  H   UNL     1      50.983  26.989   4.790  1.00  0.00     0.293 HD
ENDBRANCH   8  41
BRANCH   7  43
ATOM     43  O   UNL     1      51.266  24.822   7.672  1.00  0.00    -0.504 OA
ATOM     44  H   UNL     1      50.943  25.763   7.847  1.00  0.00     0.293 HD
ENDBRANCH   7  43
TORSDOF 11
ENDMDL
MODEL 6
REMARK VINA RESULT:    -0.384      2.489      8.881
REMARK INTER + INTRA:          -1.218
REMARK INTER:                  -0.393
REMARK INTRA:                  -0.825
REMARK UNBOUND:                -0.654
REMARK SMILES Cc1cc2c(C(C)C)c(O)c(O)c(C=O)c2c(O)c1-c1c(C)cc2c(C(C)C)c(O)c(O)c(C=O)c2c1O
REMARK SMILES IDX 1 1 2 2 3 3 4 4 16 5 13 6 11 7 9 8 5 9 17 10 19 11 20 12
REMARK SMILES IDX 37 13 21 14 36 15 23 16 22 17 24 18 33 19 25 20 31 21 29 22
REMARK SMILES IDX 38 23 34 25 35 26 26 27 27 28 28 29 32 30 30 32 18 34 6 36
REMARK SMILES IDX 7 37 8 38 14 39 15 40 10 41 12 43
REMARK H PARENT 38 24 32 31 30 33 18 35 10 42 12 44
REMARK Flexibility Score: inf
ROOT
ATOM      1  C   UNL     1      55.164  19.031   3.735  1.00  0.00     0.045 C 
ATOM      2  C   UNL     1      56.459  19.389   4.425  1.00  0.00    -0.039 A 
ATOM      3  C   UNL     1      57.501  18.462   4.447  1.00  0.00     0.013 A 
ATOM      4  C   UNL     1      58.736  18.729   5.072  1.00  0.00    -0.006 A 
ATOM      5  C   UNL     1      58.921  20.002   5.699  1.00  0.00     0.039 A 
ATOM      6  C   UNL     1      60.150  20.272   6.373  1.00  0.00     0.072 A 
ATOM      7  C   UNL     1      61.182  19.312   6.365  1.00  0.00     0.169 A 
ATOM      8  C   UNL     1      61.018  18.095   5.701  1.00  0.00     0.162 A 
ATOM      9  C   UNL     1      59.793  17.760   5.077  1.00  0.00     0.008 A 
ATOM     10  C   UNL     1      57.878  20.977   5.606  1.00  0.00     0.132 A 
ATOM     11  C   UNL     1      56.650  20.656   4.993  1.00  0.00     0.031 A 
ENDROOT
BRANCH  11  12
ATOM     12  C   UNL     1      55.557  21.661   4.933  1.00  0.00     0.031 A 
ATOM     13  C   UNL     1      55.308  22.373   3.740  1.00  0.00     0.132 A 
ATOM     14  C   UNL     1      54.774  21.908   6.073  1.00  0.00    -0.039 A 
ATOM     15  C   UNL     1      54.277  23.358   3.691  1.00  0.00     0.039 A 
ATOM     16  C   UNL     1      53.697  22.791   5.987  1.00  0.00     0.013 A 
ATOM     17  C   UNL     1      55.062  21.211   7.380  1.00  0.00     0.045 C 
ATOM     18  C   UNL     1      53.377  23.465   4.793  1.00  0.00    -0.006 A 
ATOM     19  C   UNL     1      54.099  24.216   2.568  1.00  0.00     0.072 A 
ATOM     20  C   UNL     1      52.195  24.263   4.680  1.00  0.00     0.008 A 
ATOM     21  C   UNL     1      53.021  25.117   2.542  1.00  0.00     0.169 A 
ATOM     22  C   UNL     1      52.091  25.156   3.586  1.00  0.00     0.162 A 
BRANCH  13  23
ATOM     23  O   UNL     1      56.056  22.075   2.595  1.00  0.00    -0.507 OA
ATOM     24  H   UNL     1      56.364  21.143   2.349  1.00  0.00     0.293 HD
ENDBRANCH  13  23
BRANCH  19  25
ATOM     25  C   UNL     1      55.096  24.312   1.475  1.00  0.00     0.264 C 
ATOM     26  O   UNL     1      56.052  25.130   1.541  1.00  0.00    -0.298 OA
ENDBRANCH  19  25
BRANCH  20  27
ATOM     27  C   UNL     1      50.990  24.127   5.632  1.00  0.00     0.017 C 
ATOM     28  C   UNL     1      50.882  25.303   6.612  1.00  0.00     0.012 C 
ATOM     29  C   UNL     1      50.875  22.757   6.332  1.00  0.00     0.012 C 
ENDBRANCH  20  27
BRANCH  21  30
ATOM     30  O   UNL     1      52.895  26.005   1.467  1.00  0.00    -0.504 OA
ATOM     31  H   UNL     1      52.033  26.126   0.949  1.00  0.00     0.293 HD
ENDBRANCH  21  30
BRANCH  22  32
ATOM     32  O   UNL     1      51.082  26.124   3.512  1.00  0.00    -0.504 OA
ATOM     33  H   UNL     1      50.179  25.974   3.081  1.00  0.00     0.293 HD
ENDBRANCH  22  32
ENDBRANCH  11  12
BRANCH  10  34
ATOM     34  O   UNL     1      58.071  22.273   6.099  1.00  0.00    -0.507 OA
ATOM     35  H   UNL     1      57.355  22.814   6.566  1.00  0.00     0.293 HD
ENDBRANCH  10  34
BRANCH   9  36
ATOM     36  C   UNL     1      59.686  16.367   4.420  1.00  0.00     0.017 C 
ATOM     37  C   UNL     1      59.514  16.457   2.897  1.00  0.00     0.012 C 
ATOM     38  C   UNL     1      58.661  15.430   5.096  1.00  0.00     0.012 C 
ENDBRANCH   9  36
BRANCH   6  39
ATOM     39  C   UNL     1      60.368  21.521   7.131  1.00  0.00     0.264 C 
ATOM     40  O   UNL     1      61.137  22.414   6.688  1.00  0.00    -0.298 OA
ENDBRANCH   6  39
BRANCH   8  41
ATOM     41  O   UNL     1      62.085  17.191   5.670  1.00  0.00    -0.504 OA
ATOM     42  H   UNL     1      62.792  17.142   6.394  1.00  0.00     0.293 HD
ENDBRANCH   8  41
BRANCH   7  43
ATOM     43  O   UNL     1      62.390  19.530   7.040  1.00  0.00    -0.504 OA
ATOM     44  H   UNL     1      62.807  20.439   7.185  1.00  0.00     0.293 HD
ENDBRANCH   7  43
TORSDOF 11
ENDMDL
