MODEL 1
REMARK VINA RESULT:     8.294      0.000      0.000
REMARK INTER + INTRA:          11.934
REMARK INTER:                  11.204
REMARK INTRA:                   0.730
REMARK UNBOUND:                 0.730
REMARK SMILES CC[C@@H](CC[C@@H](C)[C@@H]1CC[C@H]2[C@H]3CC(=O)C4=CC(=O)CC[C@@]4(C)[C@@H]3CC[C@]21C)C(C)C
REMARK SMILES IDX 4 1 3 2 2 3 1 4 29 5 30 6 31 7 5 8 6 9 7 10 8 11 9 12 27 13
REMARK SMILES IDX 10 14 11 15 26 16 28 17 12 18 25 19 24 20 13 21 22 22 14 23
REMARK SMILES IDX 16 24 21 25 23 26 15 27 17 28 20 29 18 30 19 31
REMARK H PARENT
REMARK Flexibility Score: inf
ROOT
ATOM      1  C   UNL     1      72.847  33.192  55.808  1.00  0.00     0.004 C 
ENDROOT
BRANCH   1   2
ATOM      2  C   UNL     1      71.950  33.452  57.073  1.00  0.00    -0.009 C 
BRANCH   2   3
ATOM      3  C   UNL     1      72.170  32.395  58.191  1.00  0.00     0.000 C 
ATOM      4  C   UNL     1      72.171  32.990  59.607  1.00  0.00     0.004 C 
ENDBRANCH   2   3
BRANCH   2   5
ATOM      5  C   UNL     1      70.426  33.687  56.760  1.00  0.00    -0.014 C 
ATOM      6  C   UNL     1      69.491  32.845  57.650  1.00  0.00     0.007 C 
ATOM      7  C   UNL     1      70.037  35.165  56.933  1.00  0.00     0.007 C 
ENDBRANCH   2   5
ENDBRANCH   1   2
BRANCH   1   8
ATOM      8  C   UNL     1      72.235  33.474  54.402  1.00  0.00     0.004 C 
BRANCH   8   9
ATOM      9  C   UNL     1      72.398  34.932  53.879  1.00  0.00    -0.011 C 
ATOM     10  C   UNL     1      72.626  35.903  55.058  1.00  0.00     0.008 C 
BRANCH   9  11
ATOM     11  C   UNL     1      73.539  35.009  52.791  1.00  0.00    -0.002 C 
ATOM     12  C   UNL     1      73.499  33.814  51.830  1.00  0.00     0.005 C 
ATOM     13  C   UNL     1      75.030  35.094  53.297  1.00  0.00    -0.026 C 
ATOM     14  C   UNL     1      74.623  32.872  52.232  1.00  0.00     0.005 C 
ATOM     15  C   UNL     1      75.593  33.650  53.142  1.00  0.00    -0.001 C 
ATOM     16  C   UNL     1      75.851  36.125  52.437  1.00  0.00     0.007 C 
ATOM     17  C   UNL     1      75.160  35.575  54.767  1.00  0.00     0.012 C 
ATOM     18  C   UNL     1      77.070  33.636  52.659  1.00  0.00     0.004 C 
ATOM     19  C   UNL     1      76.368  35.572  51.102  1.00  0.00     0.005 C 
ATOM     20  C   UNL     1      77.250  34.295  51.258  1.00  0.00     0.003 C 
ATOM     21  C   UNL     1      77.671  32.225  52.669  1.00  0.00     0.085 C 
ATOM     22  C   UNL     1      78.773  34.481  50.885  1.00  0.00    -0.000 C 
ATOM     23  C   UNL     1      79.108  32.269  52.250  1.00  0.00     0.159 C 
ATOM     24  C   UNL     1      79.541  33.172  51.152  1.00  0.00     0.005 C 
ATOM     25  C   UNL     1      78.892  34.832  49.367  1.00  0.00     0.020 C 
ATOM     26  C   UNL     1      79.431  35.603  51.734  1.00  0.00     0.017 C 
ATOM     27  O   UNL     1      79.935  31.496  52.809  1.00  0.00    -0.295 OA
ATOM     28  C   UNL     1      80.656  32.870  50.458  1.00  0.00     0.055 C 
ATOM     29  C   UNL     1      80.342  34.880  48.866  1.00  0.00     0.081 C 
ATOM     30  C   UNL     1      81.119  33.689  49.327  1.00  0.00     0.156 C 
ATOM     31  O   UNL     1      82.205  33.397  48.756  1.00  0.00    -0.295 OA
ENDBRANCH   9  11
ENDBRANCH   8   9
ENDBRANCH   1   8
TORSDOF 6
ENDMDL
MODEL 2
REMARK VINA RESULT:     9.537      0.626      1.541
REMARK INTER + INTRA:          13.612
REMARK INTER:                  12.965
REMARK INTRA:                   0.647
REMARK UNBOUND:                 0.730
REMARK SMILES CC[C@@H](CC[C@@H](C)[C@@H]1CC[C@H]2[C@H]3CC(=O)C4=CC(=O)CC[C@@]4(C)[C@@H]3CC[C@]21C)C(C)C
REMARK SMILES IDX 4 1 3 2 2 3 1 4 29 5 30 6 31 7 5 8 6 9 7 10 8 11 9 12 27 13
REMARK SMILES IDX 10 14 11 15 26 16 28 17 12 18 25 19 24 20 13 21 22 22 14 23
REMARK SMILES IDX 16 24 21 25 23 26 15 27 17 28 20 29 18 30 19 31
REMARK H PARENT
REMARK Flexibility Score: inf
ROOT
ATOM      1  C   UNL     1      71.370  32.830  55.549  1.00  0.00     0.004 C 
ENDROOT
BRANCH   1   2
ATOM      2  C   UNL     1      71.001  33.267  57.013  1.00  0.00    -0.009 C 
BRANCH   2   3
ATOM      3  C   UNL     1      70.141  34.561  57.052  1.00  0.00     0.000 C 
ATOM      4  C   UNL     1      68.848  34.464  56.230  1.00  0.00     0.004 C 
ENDBRANCH   2   3
BRANCH   2   5
ATOM      5  C   UNL     1      72.218  33.323  58.008  1.00  0.00    -0.014 C 
ATOM      6  C   UNL     1      71.877  32.774  59.408  1.00  0.00     0.007 C 
ATOM      7  C   UNL     1      73.421  32.530  57.471  1.00  0.00     0.007 C 
ENDBRANCH   2   5
ENDBRANCH   1   2
BRANCH   1   8
ATOM      8  C   UNL     1      72.612  33.490  54.876  1.00  0.00     0.004 C 
BRANCH   8   9
ATOM      9  C   UNL     1      72.322  34.774  54.043  1.00  0.00    -0.011 C 
ATOM     10  C   UNL     1      72.138  35.990  54.977  1.00  0.00     0.008 C 
BRANCH   9  11
ATOM     11  C   UNL     1      73.444  34.998  52.956  1.00  0.00    -0.002 C 
ATOM     12  C   UNL     1      73.369  33.961  51.829  1.00  0.00     0.005 C 
ATOM     13  C   UNL     1      74.945  34.987  53.440  1.00  0.00    -0.026 C 
ATOM     14  C   UNL     1      74.485  32.955  52.064  1.00  0.00     0.005 C 
ATOM     15  C   UNL     1      75.484  33.576  53.060  1.00  0.00    -0.001 C 
ATOM     16  C   UNL     1      75.767  36.125  52.726  1.00  0.00     0.007 C 
ATOM     17  C   UNL     1      75.108  35.243  54.962  1.00  0.00     0.012 C 
ATOM     18  C   UNL     1      76.951  33.616  52.551  1.00  0.00     0.004 C 
ATOM     19  C   UNL     1      76.251  35.771  51.315  1.00  0.00     0.005 C 
ATOM     20  C   UNL     1      77.116  34.474  51.261  1.00  0.00     0.003 C 
ATOM     21  C   UNL     1      77.531  32.212  52.340  1.00  0.00     0.085 C 
ATOM     22  C   UNL     1      78.636  34.695  50.890  1.00  0.00    -0.000 C 
ATOM     23  C   UNL     1      78.960  32.300  51.903  1.00  0.00     0.159 C 
ATOM     24  C   UNL     1      79.387  33.351  50.944  1.00  0.00     0.005 C 
ATOM     25  C   UNL     1      78.733  35.266  49.439  1.00  0.00     0.020 C 
ATOM     26  C   UNL     1      79.325  35.668  51.883  1.00  0.00     0.017 C 
ATOM     27  O   UNL     1      79.785  31.441  52.325  1.00  0.00    -0.295 OA
ATOM     28  C   UNL     1      80.485  33.141  50.191  1.00  0.00     0.055 C 
ATOM     29  C   UNL     1      80.174  35.371  48.922  1.00  0.00     0.081 C 
ATOM     30  C   UNL     1      80.941  34.114  49.186  1.00  0.00     0.156 C 
ATOM     31  O   UNL     1      82.012  33.897  48.556  1.00  0.00    -0.295 OA
ENDBRANCH   9  11
ENDBRANCH   8   9
ENDBRANCH   1   8
TORSDOF 6
ENDMDL
